MODEL 1
REMARK VINA RESULT: -9.053131607      0.000      0.000
REMARK  4 active torsions:
REMARK  status: ('A' for Active; 'I' for Inactive)
REMARK    1  A    between atoms: C8_9  and  C9_10 
REMARK    2  A    between atoms: C9_10  and  O2_12 
REMARK    3  A    between atoms: O2_12  and  C10_13 
REMARK    4  A    between atoms: C10_13  and  C12_15 
ROOT
HETATM    1  C1  UNL     1       3.601  -6.845 -19.441  1.00  0.00     0.015 C 
HETATM    2  C2  UNL     1       4.474  -7.366 -18.791  1.00  0.00    -0.073 C 
HETATM    3  C3  UNL     1       5.551  -8.027 -18.006  1.00  0.00     0.175 C 
HETATM    4  F1  UNL     1       5.121  -7.919 -16.691  1.00  0.00    -0.228 F 
HETATM    5  C4  UNL     1       6.826  -7.282 -18.238  1.00  0.00     0.039 C 
HETATM    6  C5  UNL     1       7.539  -7.243 -16.878  1.00  0.00     0.009 C 
HETATM    7  C6  UNL     1       8.205  -8.552 -16.638  1.00  0.00     0.002 C 
HETATM    8  C7  UNL     1       7.336  -9.745 -16.606  1.00  0.00     0.020 C 
HETATM    9  C8  UNL     1       6.760 -10.228 -17.900  1.00  0.00     0.058 C 
HETATM   10  C17 UNL     1       7.821 -10.247 -18.950  1.00  0.00     0.031 C 
HETATM   11  C18 UNL     1       7.468  -9.110 -19.859  1.00  0.00    -0.025 C 
HETATM   12  C19 UNL     1       8.112  -9.303 -21.201  1.00  0.00     0.016 C 
HETATM   13  C20 UNL     1       7.696  -7.747 -19.324  1.00  0.00     0.019 C 
HETATM   14  C21 UNL     1       5.961  -9.306 -19.980  1.00  0.00     0.100 C 
HETATM   15 CL1  UNL     1       5.506 -10.653 -20.964  1.00  0.00    -0.124 Cl
HETATM   16  C22 UNL     1       5.637  -9.458 -18.483  1.00  0.00     0.076 C 
ENDROOT
BRANCH   9  17
HETATM   17  C9  UNL     1       6.377 -11.665 -17.634  1.00  0.00     0.269 C 
HETATM   18  O1  UNL     1       6.489 -12.551 -18.509  1.00  0.00    -0.264 OA
BRANCH  17  19
HETATM   19  O2  UNL     1       5.882 -12.072 -16.407  1.00  0.00    -0.309 OA
BRANCH  19  20
HETATM   20  C10 UNL     1       4.522 -12.386 -16.144  1.00  0.00     0.179 C 
HETATM   21  C11 UNL     1       4.504 -13.061 -14.752  1.00  0.00     0.047 C 
BRANCH  20  22
HETATM   22  C12 UNL     1       3.659 -11.202 -16.135  1.00  0.00     0.062 A 
HETATM   23  N1  UNL     1       3.458 -10.269 -15.188  1.00  0.00    -0.302 N 
HETATM   24  N2  UNL     1       2.594  -9.358 -15.597  1.00  0.00    -0.304 N 
ATOM     25  H1  UNL     1       3.912 -10.266 -14.274  1.00  0.00     0.186 HD
HETATM   26  C13 UNL     1       2.176  -9.643 -16.846  1.00  0.00     0.030 A 
ATOM     27  H2  UNL     1       2.287  -8.555 -15.047  1.00  0.00     0.186 HD
HETATM   28  C14 UNL     1       1.202  -8.874 -17.681  1.00  0.00     0.070 C 
HETATM   29  C15 UNL     1       2.857 -10.817 -17.185  1.00  0.00    -0.012 A 
HETATM   30  C16 UNL     1       2.711 -11.520 -18.482  1.00  0.00     0.052 C 
ENDBRANCH  20  22
ENDBRANCH  19  20
ENDBRANCH  17  19
ENDBRANCH   9  17
TORSDOF 4
ENDMDL
MODEL 2
REMARK VINA RESULT: -8.950640662      2.745      4.491
REMARK  4 active torsions:
REMARK  status: ('A' for Active; 'I' for Inactive)
REMARK    1  A    between atoms: C8_9  and  C9_10 
REMARK    2  A    between atoms: C9_10  and  O2_12 
REMARK    3  A    between atoms: O2_12  and  C10_13 
REMARK    4  A    between atoms: C10_13  and  C12_15 
ROOT
HETATM    1  C1  UNL     1       5.215 -12.534 -19.096  1.00  0.00     0.015 C 
HETATM    2  C2  UNL     1       5.510 -11.366 -19.161  1.00  0.00    -0.073 C 
HETATM    3  C3  UNL     1       5.873  -9.925 -19.217  1.00  0.00     0.175 C 
HETATM    4  F1  UNL     1       5.049  -9.410 -20.208  1.00  0.00    -0.228 F 
HETATM    5  C4  UNL     1       7.318  -9.818 -19.583  1.00  0.00     0.039 C 
HETATM    6  C5  UNL     1       7.417  -8.625 -20.546  1.00  0.00     0.009 C 
HETATM    7  C6  UNL     1       7.397  -7.361 -19.761  1.00  0.00     0.002 C 
HETATM    8  C7  UNL     1       6.203  -7.113 -18.929  1.00  0.00     0.020 C 
HETATM    9  C8  UNL     1       6.028  -7.934 -17.690  1.00  0.00     0.058 C 
HETATM   10  C17 UNL     1       7.318  -8.000 -16.940  1.00  0.00     0.031 C 
HETATM   11  C18 UNL     1       7.792  -9.407 -17.137  1.00  0.00    -0.025 C 
HETATM   12  C19 UNL     1       8.776  -9.774 -16.063  1.00  0.00     0.016 C 
HETATM   13  C20 UNL     1       8.293  -9.749 -18.489  1.00  0.00     0.019 C 
HETATM   14  C21 UNL     1       6.492 -10.174 -16.924  1.00  0.00     0.100 C 
HETATM   15 CL1  UNL     1       5.977 -10.238 -15.275  1.00  0.00    -0.124 Cl
HETATM   16  C22 UNL     1       5.591  -9.340 -17.852  1.00  0.00     0.076 C 
ENDROOT
BRANCH   9  17
HETATM   17  C9  UNL     1       5.064  -7.141 -16.840  1.00  0.00     0.269 C 
HETATM   18  O1  UNL     1       5.399  -6.070 -16.286  1.00  0.00    -0.264 OA
BRANCH  17  19
HETATM   19  O2  UNL     1       3.762  -7.558 -16.632  1.00  0.00    -0.309 OA
BRANCH  19  20
HETATM   20  C10 UNL     1       2.848  -7.911 -17.660  1.00  0.00     0.179 C 
HETATM   21  C11 UNL     1       2.143  -9.201 -17.179  1.00  0.00     0.047 C 
BRANCH  20  22
HETATM   22  C12 UNL     1       1.854  -6.866 -17.918  1.00  0.00     0.062 A 
HETATM   23  N1  UNL     1       0.657  -6.634 -17.351  1.00  0.00    -0.302 N 
HETATM   24  N2  UNL     1       0.081  -5.569 -17.879  1.00  0.00    -0.304 N 
ATOM     25  H1  UNL     1       0.248  -7.205 -16.611  1.00  0.00     0.186 HD
HETATM   26  C13 UNL     1       0.874  -5.037 -18.830  1.00  0.00     0.030 A 
ATOM     27  H2  UNL     1      -0.831  -5.202 -17.607  1.00  0.00     0.186 HD
HETATM   28  C14 UNL     1       0.606  -3.830 -19.673  1.00  0.00     0.070 C 
HETATM   29  C15 UNL     1       2.001  -5.865 -18.851  1.00  0.00    -0.012 A 
HETATM   30  C16 UNL     1       3.160  -5.673 -19.756  1.00  0.00     0.052 C 
ENDBRANCH  20  22
ENDBRANCH  19  20
ENDBRANCH  17  19
ENDBRANCH   9  17
TORSDOF 4
ENDMDL
MODEL 3
REMARK VINA RESULT: -8.877915961      1.853      2.730
REMARK  4 active torsions:
REMARK  status: ('A' for Active; 'I' for Inactive)
REMARK    1  A    between atoms: C8_9  and  C9_10 
REMARK    2  A    between atoms: C9_10  and  O2_12 
REMARK    3  A    between atoms: O2_12  and  C10_13 
REMARK    4  A    between atoms: C10_13  and  C12_15 
ROOT
HETATM    1  C1  UNL     1       7.320  -6.685 -16.595  1.00  0.00     0.015 C 
HETATM    2  C2  UNL     1       7.361  -7.702 -17.243  1.00  0.00    -0.073 C 
HETATM    3  C3  UNL     1       7.388  -8.953 -18.047  1.00  0.00     0.175 C 
HETATM    4  F1  UNL     1       8.050  -9.861 -17.233  1.00  0.00    -0.228 F 
HETATM    5  C4  UNL     1       8.144  -8.683 -19.309  1.00  0.00     0.039 C 
HETATM    6  C5  UNL     1       8.983  -9.944 -19.570  1.00  0.00     0.009 C 
HETATM    7  C6  UNL     1       8.114 -10.992 -20.171  1.00  0.00     0.002 C 
HETATM    8  C7  UNL     1       6.955 -11.435 -19.371  1.00  0.00     0.020 C 
HETATM    9  C8  UNL     1       5.797 -10.496 -19.233  1.00  0.00     0.058 C 
HETATM   10  C17 UNL     1       5.459  -9.911 -20.565  1.00  0.00     0.031 C 
HETATM   11  C18 UNL     1       5.910  -8.486 -20.472  1.00  0.00    -0.025 C 
HETATM   12  C19 UNL     1       5.203  -7.653 -21.502  1.00  0.00     0.016 C 
HETATM   13  C20 UNL     1       7.374  -8.258 -20.484  1.00  0.00     0.019 C 
HETATM   14  C21 UNL     1       5.403  -8.121 -19.081  1.00  0.00     0.100 C 
HETATM   15 CL1  UNL     1       3.688  -7.920 -18.991  1.00  0.00    -0.124 Cl
HETATM   16  C22 UNL     1       5.953  -9.341 -18.320  1.00  0.00     0.076 C 
ENDROOT
BRANCH   9  17
HETATM   17  C9  UNL     1       4.638 -11.376 -18.831  1.00  0.00     0.269 C 
HETATM   18  O1  UNL     1       3.579 -11.419 -19.497  1.00  0.00    -0.264 OA
BRANCH  17  19
HETATM   19  O2  UNL     1       4.689 -12.180 -17.706  1.00  0.00    -0.309 OA
BRANCH  19  20
HETATM   20  C10 UNL     1       3.864 -12.027 -16.560  1.00  0.00     0.179 C 
HETATM   21  C11 UNL     1       4.162 -13.246 -15.656  1.00  0.00     0.047 C 
BRANCH  20  22
HETATM   22  C12 UNL     1       4.134 -10.786 -15.830  1.00  0.00     0.062 A 
HETATM   23  N1  UNL     1       5.149 -10.450 -15.016  1.00  0.00    -0.302 N 
HETATM   24  N2  UNL     1       5.009  -9.215 -14.567  1.00  0.00    -0.304 N 
ATOM     25  H1  UNL     1       5.926 -11.068 -14.775  1.00  0.00     0.186 HD
HETATM   26  C13 UNL     1       3.884  -8.667 -15.067  1.00  0.00     0.030 A 
ATOM     27  H2  UNL     1       5.657  -8.746 -13.936  1.00  0.00     0.186 HD
HETATM   28  C14 UNL     1       3.349  -7.292 -14.817  1.00  0.00     0.070 C 
HETATM   29  C15 UNL     1       3.330  -9.669 -15.870  1.00  0.00    -0.012 A 
HETATM   30  C16 UNL     1       2.066  -9.525 -16.631  1.00  0.00     0.052 C 
ENDBRANCH  20  22
ENDBRANCH  19  20
ENDBRANCH  17  19
ENDBRANCH   9  17
TORSDOF 4
ENDMDL
MODEL 4
REMARK VINA RESULT: -8.818981167      2.227      3.368
REMARK  4 active torsions:
REMARK  status: ('A' for Active; 'I' for Inactive)
REMARK    1  A    between atoms: C8_9  and  C9_10 
REMARK    2  A    between atoms: C9_10  and  O2_12 
REMARK    3  A    between atoms: O2_12  and  C10_13 
REMARK    4  A    between atoms: C10_13  and  C12_15 
ROOT
HETATM    1  C1  UNL     1       4.459  -6.893 -21.796  1.00  0.00     0.015 C 
HETATM    2  C2  UNL     1       5.352  -7.482 -21.237  1.00  0.00    -0.073 C 
HETATM    3  C3  UNL     1       6.436  -8.213 -20.530  1.00  0.00     0.175 C 
HETATM    4  F1  UNL     1       7.524  -7.354 -20.603  1.00  0.00    -0.228 F 
HETATM    5  C4  UNL     1       6.690  -9.494 -21.257  1.00  0.00     0.039 C 
HETATM    6  C5  UNL     1       8.214  -9.690 -21.238  1.00  0.00     0.009 C 
HETATM    7  C6  UNL     1       8.621 -10.222 -19.910  1.00  0.00     0.002 C 
HETATM    8  C7  UNL     1       8.305  -9.388 -18.733  1.00  0.00     0.020 C 
HETATM    9  C8  UNL     1       6.874  -9.295 -18.303  1.00  0.00     0.058 C 
HETATM   10  C17 UNL     1       6.258 -10.655 -18.298  1.00  0.00     0.031 C 
HETATM   11  C18 UNL     1       5.327 -10.648 -19.471  1.00  0.00    -0.025 C 
HETATM   12  C19 UNL     1       4.285 -11.718 -19.310  1.00  0.00     0.016 C 
HETATM   13  C20 UNL     1       5.958 -10.685 -20.811  1.00  0.00     0.019 C 
HETATM   14  C21 UNL     1       4.682  -9.276 -19.308  1.00  0.00     0.100 C 
HETATM   15 CL1  UNL     1       3.551  -9.183 -18.003  1.00  0.00    -0.124 Cl
HETATM   16  C22 UNL     1       5.966  -8.451 -19.113  1.00  0.00     0.076 C 
ENDROOT
BRANCH   9  17
HETATM   17  C9  UNL     1       6.937  -8.833 -16.867  1.00  0.00     0.269 C 
HETATM   18  O1  UNL     1       7.986  -8.370 -16.368  1.00  0.00    -0.264 OA
BRANCH  17  19
HETATM   19  O2  UNL     1       5.837  -8.900 -16.030  1.00  0.00    -0.309 OA
BRANCH  19  20
HETATM   20  C10 UNL     1       5.714  -9.772 -14.917  1.00  0.00     0.179 C 
HETATM   21  C11 UNL     1       5.613  -8.860 -13.671  1.00  0.00     0.047 C 
BRANCH  20  22
HETATM   22  C12 UNL     1       4.533 -10.635 -15.000  1.00  0.00     0.062 A 
HETATM   23  N1  UNL     1       3.236 -10.372 -14.770  1.00  0.00    -0.302 N 
HETATM   24  N2  UNL     1       2.491 -11.444 -14.972  1.00  0.00    -0.304 N 
ATOM     25  H1  UNL     1       2.873  -9.463 -14.477  1.00  0.00     0.186 HD
HETATM   26  C13 UNL     1       3.265 -12.480 -15.350  1.00  0.00     0.030 A 
ATOM     27  H2  UNL     1       1.478 -11.482 -14.858  1.00  0.00     0.186 HD
HETATM   28  C14 UNL     1       2.829 -13.874 -15.678  1.00  0.00     0.070 C 
HETATM   29  C15 UNL     1       4.564 -11.962 -15.367  1.00  0.00    -0.012 A 
HETATM   30  C16 UNL     1       5.770 -12.746 -15.724  1.00  0.00     0.052 C 
ENDBRANCH  20  22
ENDBRANCH  19  20
ENDBRANCH  17  19
ENDBRANCH   9  17
TORSDOF 4
ENDMDL
MODEL 5
REMARK VINA RESULT: -8.795895436      1.414      2.172
REMARK  4 active torsions:
REMARK  status: ('A' for Active; 'I' for Inactive)
REMARK    1  A    between atoms: C8_9  and  C9_10 
REMARK    2  A    between atoms: C9_10  and  O2_12 
REMARK    3  A    between atoms: O2_12  and  C10_13 
REMARK    4  A    between atoms: C10_13  and  C12_15 
ROOT
HETATM    1  C1  UNL     1       3.664  -6.523 -19.040  1.00  0.00     0.015 C 
HETATM    2  C2  UNL     1       4.520  -7.229 -18.565  1.00  0.00    -0.073 C 
HETATM    3  C3  UNL     1       5.573  -8.114 -17.998  1.00  0.00     0.175 C 
HETATM    4  F1  UNL     1       5.247  -8.203 -16.652  1.00  0.00    -0.228 F 
HETATM    5  C4  UNL     1       6.900  -7.459 -18.206  1.00  0.00     0.039 C 
HETATM    6  C5  UNL     1       7.704  -7.726 -16.925  1.00  0.00     0.009 C 
HETATM    7  C6  UNL     1       8.244  -9.112 -16.968  1.00  0.00     0.002 C 
HETATM    8  C7  UNL     1       7.260 -10.208 -17.067  1.00  0.00     0.020 C 
HETATM    9  C8  UNL     1       6.551 -10.399 -18.371  1.00  0.00     0.058 C 
HETATM   10  C17 UNL     1       7.530 -10.327 -19.495  1.00  0.00     0.031 C 
HETATM   11  C18 UNL     1       7.237  -9.020 -20.163  1.00  0.00    -0.025 C 
HETATM   12  C19 UNL     1       7.766  -9.029 -21.569  1.00  0.00     0.016 C 
HETATM   13  C20 UNL     1       7.642  -7.800 -19.426  1.00  0.00     0.019 C 
HETATM   14  C21 UNL     1       5.713  -9.053 -20.188  1.00  0.00     0.100 C 
HETATM   15 CL1  UNL     1       5.055 -10.158 -21.345  1.00  0.00    -0.124 Cl
HETATM   16  C22 UNL     1       5.477  -9.439 -18.717  1.00  0.00     0.076 C 
ENDROOT
BRANCH   9  17
HETATM   17  C9  UNL     1       6.039 -11.819 -18.321  1.00  0.00     0.269 C 
HETATM   18  O1  UNL     1       6.735 -12.757 -17.872  1.00  0.00    -0.264 OA
BRANCH  17  19
HETATM   19  O2  UNL     1       4.773 -12.155 -18.769  1.00  0.00    -0.309 OA
BRANCH  19  20
HETATM   20  C10 UNL     1       3.588 -12.072 -17.990  1.00  0.00     0.179 C 
HETATM   21  C11 UNL     1       2.611 -13.109 -18.592  1.00  0.00     0.047 C 
BRANCH  20  22
HETATM   22  C12 UNL     1       3.819 -12.368 -16.574  1.00  0.00     0.062 A 
HETATM   23  N1  UNL     1       4.286 -13.476 -15.973  1.00  0.00    -0.302 N 
HETATM   24  N2  UNL     1       4.347 -13.316 -14.663  1.00  0.00    -0.304 N 
ATOM     25  H1  UNL     1       4.558 -14.329 -16.464  1.00  0.00     0.186 HD
HETATM   26  C13 UNL     1       3.919 -12.083 -14.328  1.00  0.00     0.030 A 
ATOM     27  H2  UNL     1       4.669 -14.022 -14.002  1.00  0.00     0.186 HD
HETATM   28  C14 UNL     1       3.824 -11.490 -12.957  1.00  0.00     0.070 C 
HETATM   29  C15 UNL     1       3.585 -11.483 -15.546  1.00  0.00    -0.012 A 
HETATM   30  C16 UNL     1       3.055 -10.104 -15.679  1.00  0.00     0.052 C 
ENDBRANCH  20  22
ENDBRANCH  19  20
ENDBRANCH  17  19
ENDBRANCH   9  17
TORSDOF 4
ENDMDL
