MODEL 1
REMARK VINA RESULT: -7.211669617      0.000      0.000
REMARK  3 active torsions:
REMARK  status: ('A' for Active; 'I' for Inactive)
REMARK    1  A    between atoms: C2_2  and  C4_4 
REMARK    2  A    between atoms: C7_8  and  N1_9 
REMARK    3  A    between atoms: C14_16  and  O1_17 
ROOT
HETATM    1  C4  UNL     1     -12.470  51.955 -40.276  1.00  0.00     0.004 A 
HETATM    2  C5  UNL     1     -11.774  51.346 -39.222  1.00  0.00     0.036 A 
HETATM    3  C6  UNL     1     -11.938  50.033 -38.855  1.00  0.00     0.038 A 
HETATM    4 BR1  UNL     1     -10.941  49.281 -37.389  1.00  0.00    -0.049 Br
HETATM    5  C7  UNL     1     -12.832  49.253 -39.547  1.00  0.00     0.050 A 
HETATM    6  C13 UNL     1     -13.526  49.808 -40.575  1.00  0.00     0.068 A 
HETATM    7  C14 UNL     1     -13.355  51.158 -40.952  1.00  0.00     0.078 A 
ENDROOT
BRANCH   5   8
HETATM    8  N1  UNL     1     -12.989  47.884 -39.155  1.00  0.00    -0.380 N 
HETATM    9  C8  UNL     1     -12.032  46.925 -39.593  1.00  0.00     0.123 C 
HETATM   10  C9  UNL     1     -12.684  45.715 -40.243  1.00  0.00     0.020 C 
HETATM   11  C10 UNL     1     -13.962  45.336 -39.529  1.00  0.00     0.003 C 
HETATM   12  C11 UNL     1     -13.959  45.965 -38.131  1.00  0.00     0.020 C 
HETATM   13  C12 UNL     1     -14.092  47.444 -38.332  1.00  0.00     0.123 C 
ENDBRANCH   5   8
BRANCH   7  14
HETATM   14  O1  UNL     1     -14.119  51.568 -42.006  1.00  0.00    -0.360 OA
ATOM     15  H1  UNL     1     -14.067  51.207 -42.884  1.00  0.00     0.217 HD
ENDBRANCH   7  14
BRANCH   1  16
HETATM   16  C2  UNL     1     -12.195  53.360 -40.583  1.00  0.00    -0.058 C 
HETATM   17  C1  UNL     1     -12.462  54.233 -39.611  1.00  0.00     0.019 C 
HETATM   18  C3  UNL     1     -11.704  53.848 -41.870  1.00  0.00     0.048 C 
ENDBRANCH   1  16
TORSDOF 3
ENDMDL
MODEL 2
REMARK VINA RESULT: -7.027914134      2.113      2.811
REMARK  3 active torsions:
REMARK  status: ('A' for Active; 'I' for Inactive)
REMARK    1  A    between atoms: C2_2  and  C4_4 
REMARK    2  A    between atoms: C7_8  and  N1_9 
REMARK    3  A    between atoms: C14_16  and  O1_17 
ROOT
HETATM    1  C4  UNL     1     -12.157  51.693 -41.188  1.00  0.00     0.004 A 
HETATM    2  C5  UNL     1     -12.801  50.829 -42.086  1.00  0.00     0.036 A 
HETATM    3  C6  UNL     1     -13.265  49.582 -41.746  1.00  0.00     0.038 A 
HETATM    4 BR1  UNL     1     -14.134  48.458 -43.046  1.00  0.00    -0.049 Br
HETATM    5  C7  UNL     1     -13.099  49.136 -40.457  1.00  0.00     0.050 A 
HETATM    6  C13 UNL     1     -12.480  49.946 -39.558  1.00  0.00     0.068 A 
HETATM    7  C14 UNL     1     -12.004  51.228 -39.910  1.00  0.00     0.078 A 
ENDROOT
BRANCH   5   8
HETATM    8  N1  UNL     1     -13.593  47.835 -40.117  1.00  0.00    -0.380 N 
HETATM    9  C8  UNL     1     -14.927  47.706 -39.633  1.00  0.00     0.123 C 
HETATM   10  C9  UNL     1     -14.997  46.916 -38.337  1.00  0.00     0.020 C 
HETATM   11  C10 UNL     1     -14.009  45.771 -38.342  1.00  0.00     0.003 C 
HETATM   12  C11 UNL     1     -13.593  45.476 -39.789  1.00  0.00     0.020 C 
HETATM   13  C12 UNL     1     -12.779  46.649 -40.243  1.00  0.00     0.123 C 
ENDBRANCH   5   8
BRANCH   7  14
HETATM   14  O1  UNL     1     -11.409  51.924 -38.898  1.00  0.00    -0.360 OA
ATOM     15  H1  UNL     1     -11.147  51.548 -38.065  1.00  0.00     0.217 HD
ENDBRANCH   7  14
BRANCH   1  16
HETATM   16  C2  UNL     1     -11.721  53.007 -41.668  1.00  0.00    -0.058 C 
HETATM   17  C1  UNL     1     -10.886  53.002 -42.706  1.00  0.00     0.019 C 
HETATM   18  C3  UNL     1     -12.101  54.280 -41.059  1.00  0.00     0.048 C 
ENDBRANCH   1  16
TORSDOF 3
ENDMDL
MODEL 3
REMARK VINA RESULT: -6.990278973      3.136      3.727
REMARK  3 active torsions:
REMARK  status: ('A' for Active; 'I' for Inactive)
REMARK    1  A    between atoms: C2_2  and  C4_4 
REMARK    2  A    between atoms: C7_8  and  N1_9 
REMARK    3  A    between atoms: C14_16  and  O1_17 
ROOT
HETATM    1  C4  UNL     1     -12.345  51.724 -41.430  1.00  0.00     0.004 A 
HETATM    2  C5  UNL     1     -13.304  50.841 -40.911  1.00  0.00     0.036 A 
HETATM    3  C6  UNL     1     -13.619  49.633 -41.481  1.00  0.00     0.038 A 
HETATM    4 BR1  UNL     1     -14.955  48.486 -40.702  1.00  0.00    -0.049 Br
HETATM    5  C7  UNL     1     -12.970  49.247 -42.629  1.00  0.00     0.050 A 
HETATM    6  C13 UNL     1     -12.033  50.076 -43.162  1.00  0.00     0.068 A 
HETATM    7  C14 UNL     1     -11.710  51.318 -42.572  1.00  0.00     0.078 A 
ENDROOT
BRANCH   5   8
HETATM    8  N1  UNL     1     -13.306  47.982 -43.210  1.00  0.00    -0.380 N 
HETATM    9  C8  UNL     1     -12.577  46.824 -42.816  1.00  0.00     0.123 C 
HETATM   10  C9  UNL     1     -12.048  46.042 -44.008  1.00  0.00     0.020 C 
HETATM   11  C10 UNL     1     -13.046  46.039 -45.144  1.00  0.00     0.003 C 
HETATM   12  C11 UNL     1     -14.430  46.403 -44.595  1.00  0.00     0.020 C 
HETATM   13  C12 UNL     1     -14.360  47.844 -44.189  1.00  0.00     0.123 C 
ENDBRANCH   5   8
BRANCH   7  14
HETATM   14  O1  UNL     1     -10.747  52.035 -43.221  1.00  0.00    -0.360 OA
ATOM     15  H1  UNL     1     -10.676  52.982 -43.205  1.00  0.00     0.217 HD
ENDBRANCH   7  14
BRANCH   1  16
HETATM   16  C2  UNL     1     -12.086  52.978 -40.719  1.00  0.00    -0.058 C 
HETATM   17  C1  UNL     1     -11.830  52.867 -39.415  1.00  0.00     0.019 C 
HETATM   18  C3  UNL     1     -12.139  54.304 -41.329  1.00  0.00     0.048 C 
ENDBRANCH   1  16
TORSDOF 3
ENDMDL
MODEL 4
REMARK VINA RESULT: -6.989593175      3.503      6.262
REMARK  3 active torsions:
REMARK  status: ('A' for Active; 'I' for Inactive)
REMARK    1  A    between atoms: C2_2  and  C4_4 
REMARK    2  A    between atoms: C7_8  and  N1_9 
REMARK    3  A    between atoms: C14_16  and  O1_17 
ROOT
HETATM    1  C4  UNL     1     -14.521  48.729 -43.124  1.00  0.00     0.004 A 
HETATM    2  C5  UNL     1     -15.167  49.778 -42.454  1.00  0.00     0.036 A 
HETATM    3  C6  UNL     1     -14.514  50.859 -41.915  1.00  0.00     0.038 A 
HETATM    4 BR1  UNL     1     -15.482  52.253 -41.006  1.00  0.00    -0.049 Br
HETATM    5  C7  UNL     1     -13.146  50.936 -42.028  1.00  0.00     0.050 A 
HETATM    6  C13 UNL     1     -12.484  49.938 -42.671  1.00  0.00     0.068 A 
HETATM    7  C14 UNL     1     -13.159  48.828 -43.225  1.00  0.00     0.078 A 
ENDROOT
BRANCH   5   8
HETATM    8  N1  UNL     1     -12.479  52.072 -41.465  1.00  0.00    -0.380 N 
HETATM    9  C8  UNL     1     -11.689  51.899 -40.293  1.00  0.00     0.123 C 
HETATM   10  C9  UNL     1     -12.049  52.894 -39.202  1.00  0.00     0.020 C 
HETATM   11  C10 UNL     1     -12.368  54.252 -39.787  1.00  0.00     0.003 C 
HETATM   12  C11 UNL     1     -11.787  54.335 -41.203  1.00  0.00     0.020 C 
HETATM   13  C12 UNL     1     -12.586  53.390 -42.046  1.00  0.00     0.123 C 
ENDBRANCH   5   8
BRANCH   7  14
HETATM   14  O1  UNL     1     -12.359  47.912 -43.842  1.00  0.00    -0.360 OA
ATOM     15  H1  UNL     1     -11.925  47.190 -43.403  1.00  0.00     0.217 HD
ENDBRANCH   7  14
BRANCH   1  16
HETATM   16  C2  UNL     1     -15.332  47.639 -43.670  1.00  0.00    -0.058 C 
HETATM   17  C1  UNL     1     -15.754  46.729 -42.793  1.00  0.00     0.019 C 
HETATM   18  C3  UNL     1     -15.652  47.471 -45.086  1.00  0.00     0.048 C 
ENDBRANCH   1  16
TORSDOF 3
ENDMDL
MODEL 5
REMARK VINA RESULT: -6.978138496      3.686      5.631
REMARK  3 active torsions:
REMARK  status: ('A' for Active; 'I' for Inactive)
REMARK    1  A    between atoms: C2_2  and  C4_4 
REMARK    2  A    between atoms: C7_8  and  N1_9 
REMARK    3  A    between atoms: C14_16  and  O1_17 
ROOT
HETATM    1  C4  UNL     1     -15.254  46.737 -43.790  1.00  0.00     0.004 A 
HETATM    2  C5  UNL     1     -14.521  45.980 -42.864  1.00  0.00     0.036 A 
HETATM    3  C6  UNL     1     -14.152  46.439 -41.623  1.00  0.00     0.038 A 
HETATM    4 BR1  UNL     1     -13.140  45.332 -40.417  1.00  0.00    -0.049 Br
HETATM    5  C7  UNL     1     -14.513  47.710 -41.247  1.00  0.00     0.050 A 
HETATM    6  C13 UNL     1     -15.225  48.474 -42.118  1.00  0.00     0.068 A 
HETATM    7  C14 UNL     1     -15.603  48.000 -43.393  1.00  0.00     0.078 A 
ENDROOT
BRANCH   5   8
HETATM    8  N1  UNL     1     -14.125  48.173 -39.948  1.00  0.00    -0.380 N 
HETATM    9  C8  UNL     1     -12.966  48.989 -39.822  1.00  0.00     0.123 C 
HETATM   10  C9  UNL     1     -12.005  48.469 -38.765  1.00  0.00     0.020 C 
HETATM   11  C10 UNL     1     -12.754  47.912 -37.575  1.00  0.00     0.003 C 
HETATM   12  C11 UNL     1     -14.186  48.460 -37.585  1.00  0.00     0.020 C 
HETATM   13  C12 UNL     1     -14.872  47.832 -38.759  1.00  0.00     0.123 C 
ENDBRANCH   5   8
BRANCH   7  14
HETATM   14  O1  UNL     1     -16.318  48.881 -44.151  1.00  0.00    -0.360 OA
ATOM     15  H1  UNL     1     -16.874  48.637 -44.883  1.00  0.00     0.217 HD
ENDBRANCH   7  14
BRANCH   1  16
HETATM   16  C2  UNL     1     -15.601  46.129 -45.077  1.00  0.00    -0.058 C 
HETATM   17  C1  UNL     1     -16.593  45.239 -45.053  1.00  0.00     0.019 C 
HETATM   18  C3  UNL     1     -14.910  46.399 -46.336  1.00  0.00     0.048 C 
ENDBRANCH   1  16
TORSDOF 3
ENDMDL
