MODEL 1
REMARK VINA RESULT: -8.076586916      0.000      0.000
REMARK  3 active torsions:
REMARK  status: ('A' for Active; 'I' for Inactive)
REMARK    1  A    between atoms: C2_2  and  C4_4 
REMARK    2  A    between atoms: C6_6  and  O1_7 
REMARK    3  A    between atoms: C6_6  and  C7_9 
ROOT
HETATM    1  C4  UNL     1     -13.089  51.929 -40.372  1.00  0.00     0.087 C 
HETATM    2  C5  UNL     1     -13.252  51.457 -41.813  1.00  0.00     0.056 C 
HETATM    3  C6  UNL     1     -14.135  50.200 -41.886  1.00  0.00     0.077 C 
HETATM    4  C8  UNL     1     -13.548  49.129 -41.072  1.00  0.00     0.044 C 
HETATM    5  C9  UNL     1     -14.241  47.800 -41.130  1.00  0.00    -0.040 C 
HETATM    6  C10 UNL     1     -13.252  46.633 -40.940  1.00  0.00     0.015 C 
HETATM    7  C11 UNL     1     -14.875  47.491 -42.466  1.00  0.00     0.015 C 
HETATM    8  C12 UNL     1     -15.305  47.626 -40.082  1.00  0.00     0.009 C 
HETATM    9  C13 UNL     1     -15.050  48.278 -38.781  1.00  0.00     0.002 C 
HETATM   10  C14 UNL     1     -14.313  49.568 -38.772  1.00  0.00     0.017 C 
HETATM   11  C15 UNL     1     -13.136  49.514 -39.680  1.00  0.00     0.025 C 
HETATM   12  C16 UNL     1     -12.135  48.586 -39.028  1.00  0.00     0.024 C 
HETATM   13  C17 UNL     1     -12.384  50.828 -39.740  1.00  0.00     0.143 C 
HETATM   14  O2  UNL     1     -11.280  50.963 -39.296  1.00  0.00    -0.296 OA
ENDROOT
BRANCH   3  15
HETATM   15  O1  UNL     1     -13.960  49.827 -43.254  1.00  0.00    -0.388 OA
ATOM     16  H1  UNL     1     -14.086  48.887 -43.201  1.00  0.00     0.210 HD
ENDBRANCH   3  15
BRANCH   3  17
HETATM   17  C7  UNL     1     -15.508  50.669 -41.745  1.00  0.00     0.152 C 
HETATM   18 CL1  UNL     1     -15.650  52.208 -42.705  1.00  0.00    -0.127 Cl
ENDBRANCH   3  17
BRANCH   1  19
HETATM   19  C2  UNL     1     -12.562  53.262 -40.382  1.00  0.00    -0.082 C 
HETATM   20  C1  UNL     1     -12.576  54.142 -39.432  1.00  0.00     0.015 C 
HETATM   21  C3  UNL     1     -11.897  53.694 -41.687  1.00  0.00     0.043 C 
ENDBRANCH   1  19
TORSDOF 3
ENDMDL
MODEL 2
REMARK VINA RESULT: -7.768669441      2.616      5.648
REMARK  3 active torsions:
REMARK  status: ('A' for Active; 'I' for Inactive)
REMARK    1  A    between atoms: C2_2  and  C4_4 
REMARK    2  A    between atoms: C6_6  and  O1_7 
REMARK    3  A    between atoms: C6_6  and  C7_9 
ROOT
HETATM    1  C4  UNL     1     -15.253  47.493 -44.075  1.00  0.00     0.087 C 
HETATM    2  C5  UNL     1     -13.839  48.041 -44.234  1.00  0.00     0.056 C 
HETATM    3  C6  UNL     1     -13.372  48.744 -42.948  1.00  0.00     0.077 C 
HETATM    4  C8  UNL     1     -14.297  49.833 -42.610  1.00  0.00     0.044 C 
HETATM    5  C9  UNL     1     -13.913  50.685 -41.436  1.00  0.00    -0.040 C 
HETATM    6  C10 UNL     1     -14.411  52.134 -41.597  1.00  0.00     0.015 C 
HETATM    7  C11 UNL     1     -12.422  50.858 -41.259  1.00  0.00     0.015 C 
HETATM    8  C12 UNL     1     -14.463  50.193 -40.126  1.00  0.00     0.009 C 
HETATM    9  C13 UNL     1     -15.792  49.550 -40.178  1.00  0.00     0.002 C 
HETATM   10  C14 UNL     1     -16.145  48.760 -41.386  1.00  0.00     0.017 C 
HETATM   11  C15 UNL     1     -15.756  49.483 -42.627  1.00  0.00     0.025 C 
HETATM   12  C16 UNL     1     -16.697  50.661 -42.747  1.00  0.00     0.024 C 
HETATM   13  C17 UNL     1     -16.053  48.689 -43.882  1.00  0.00     0.143 C 
HETATM   14  O2  UNL     1     -16.893  49.016 -44.672  1.00  0.00    -0.296 OA
ENDROOT
BRANCH   3  15
HETATM   15  O1  UNL     1     -12.159  49.351 -43.398  1.00  0.00    -0.388 OA
ATOM     16  H1  UNL     1     -12.221  49.201 -44.334  1.00  0.00     0.210 HD
ENDBRANCH   3  15
BRANCH   3  17
HETATM   17  C7  UNL     1     -12.998  47.680 -42.025  1.00  0.00     0.152 C 
HETATM   18 CL1  UNL     1     -12.151  46.398 -43.000  1.00  0.00    -0.127 Cl
ENDBRANCH   3  17
BRANCH   1  19
HETATM   19  C2  UNL     1     -15.510  46.571 -45.143  1.00  0.00    -0.082 C 
HETATM   20  C1  UNL     1     -16.359  45.594 -45.178  1.00  0.00     0.015 C 
HETATM   21  C3  UNL     1     -14.671  46.775 -46.401  1.00  0.00     0.043 C 
ENDBRANCH   1  19
TORSDOF 3
ENDMDL
MODEL 3
REMARK VINA RESULT: -7.764774132      2.519      4.364
REMARK  3 active torsions:
REMARK  status: ('A' for Active; 'I' for Inactive)
REMARK    1  A    between atoms: C2_2  and  C4_4 
REMARK    2  A    between atoms: C6_6  and  O1_7 
REMARK    3  A    between atoms: C6_6  and  C7_9 
ROOT
HETATM    1  C4  UNL     1     -11.458  49.500 -38.482  1.00  0.00     0.087 C 
HETATM    2  C5  UNL     1     -12.707  48.955 -37.798  1.00  0.00     0.056 C 
HETATM    3  C6  UNL     1     -13.860  48.794 -38.803  1.00  0.00     0.077 C 
HETATM    4  C8  UNL     1     -14.158  50.085 -39.435  1.00  0.00     0.044 C 
HETATM    5  C9  UNL     1     -15.336  50.111 -40.363  1.00  0.00    -0.040 C 
HETATM    6  C10 UNL     1     -16.030  51.487 -40.364  1.00  0.00     0.015 C 
HETATM    7  C11 UNL     1     -16.452  49.171 -39.971  1.00  0.00     0.015 C 
HETATM    8  C12 UNL     1     -14.985  49.814 -41.795  1.00  0.00     0.009 C 
HETATM    9  C13 UNL     1     -13.663  50.290 -42.253  1.00  0.00     0.002 C 
HETATM   10  C14 UNL     1     -12.541  50.295 -41.280  1.00  0.00     0.017 C 
HETATM   11  C15 UNL     1     -12.976  50.843 -39.967  1.00  0.00     0.025 C 
HETATM   12  C16 UNL     1     -13.204  52.323 -40.177  1.00  0.00     0.024 C 
HETATM   13  C17 UNL     1     -11.872  50.818 -38.930  1.00  0.00     0.143 C 
HETATM   14  O2  UNL     1     -11.365  51.815 -38.500  1.00  0.00    -0.296 OA
ENDROOT
BRANCH   3  15
HETATM   15  O1  UNL     1     -14.946  48.500 -37.922  1.00  0.00    -0.388 OA
ATOM     16  H1  UNL     1     -15.355  49.355 -37.852  1.00  0.00     0.210 HD
ENDBRANCH   3  15
BRANCH   3  17
HETATM   17  C7  UNL     1     -13.573  47.573 -39.546  1.00  0.00     0.152 C 
HETATM   18 CL1  UNL     1     -14.276  46.190 -38.597  1.00  0.00    -0.127 Cl
ENDBRANCH   3  17
BRANCH   1  19
HETATM   19  C2  UNL     1     -10.337  49.313 -37.607  1.00  0.00    -0.082 C 
HETATM   20  C1  UNL     1      -9.112  49.700 -37.771  1.00  0.00     0.015 C 
HETATM   21  C3  UNL     1     -10.635  48.560 -36.313  1.00  0.00     0.043 C 
ENDBRANCH   1  19
TORSDOF 3
ENDMDL
MODEL 4
REMARK VINA RESULT: -7.742304653      1.503      1.661
REMARK  3 active torsions:
REMARK  status: ('A' for Active; 'I' for Inactive)
REMARK    1  A    between atoms: C2_2  and  C4_4 
REMARK    2  A    between atoms: C6_6  and  O1_7 
REMARK    3  A    between atoms: C6_6  and  C7_9 
ROOT
HETATM    1  C4  UNL     1     -12.632  51.377 -41.343  1.00  0.00     0.087 C 
HETATM    2  C5  UNL     1     -12.350  50.235 -42.314  1.00  0.00     0.056 C 
HETATM    3  C6  UNL     1     -13.260  49.029 -42.027  1.00  0.00     0.077 C 
HETATM    4  C8  UNL     1     -13.064  48.572 -40.645  1.00  0.00     0.044 C 
HETATM    5  C9  UNL     1     -13.806  47.330 -40.249  1.00  0.00    -0.040 C 
HETATM    6  C10 UNL     1     -13.034  46.520 -39.190  1.00  0.00     0.015 C 
HETATM    7  C11 UNL     1     -13.988  46.334 -41.370  1.00  0.00     0.015 C 
HETATM    8  C12 UNL     1     -15.166  47.599 -39.666  1.00  0.00     0.009 C 
HETATM    9  C13 UNL     1     -15.300  48.835 -38.868  1.00  0.00     0.002 C 
HETATM   10  C14 UNL     1     -14.503  50.023 -39.271  1.00  0.00     0.017 C 
HETATM   11  C15 UNL     1     -13.102  49.639 -39.590  1.00  0.00     0.025 C 
HETATM   12  C16 UNL     1     -12.451  49.266 -38.277  1.00  0.00     0.024 C 
HETATM   13  C17 UNL     1     -12.267  50.815 -40.055  1.00  0.00     0.143 C 
HETATM   14  O2  UNL     1     -11.363  51.263 -39.409  1.00  0.00    -0.296 OA
ENDROOT
BRANCH   3  15
HETATM   15  O1  UNL     1     -12.676  48.042 -42.879  1.00  0.00    -0.388 OA
ATOM     16  H1  UNL     1     -13.447  47.554 -43.142  1.00  0.00     0.210 HD
ENDBRANCH   3  15
BRANCH   3  17
HETATM   17  C7  UNL     1     -14.559  49.367 -42.594  1.00  0.00     0.152 C 
HETATM   18 CL1  UNL     1     -14.817  48.279 -44.030  1.00  0.00    -0.127 Cl
ENDBRANCH   3  17
BRANCH   1  19
HETATM   19  C2  UNL     1     -12.023  52.572 -41.851  1.00  0.00    -0.082 C 
HETATM   20  C1  UNL     1     -12.351  53.804 -41.622  1.00  0.00     0.015 C 
HETATM   21  C3  UNL     1     -10.831  52.356 -42.779  1.00  0.00     0.043 C 
ENDBRANCH   1  19
TORSDOF 3
ENDMDL
MODEL 5
REMARK VINA RESULT: -7.389693644      1.946      2.970
REMARK  3 active torsions:
REMARK  status: ('A' for Active; 'I' for Inactive)
REMARK    1  A    between atoms: C2_2  and  C4_4 
REMARK    2  A    between atoms: C6_6  and  O1_7 
REMARK    3  A    between atoms: C6_6  and  C7_9 
ROOT
HETATM    1  C4  UNL     1     -13.302  52.386 -40.926  1.00  0.00     0.087 C 
HETATM    2  C5  UNL     1     -12.582  51.058 -40.717  1.00  0.00     0.056 C 
HETATM    3  C6  UNL     1     -13.279  49.925 -41.489  1.00  0.00     0.077 C 
HETATM    4  C8  UNL     1     -14.677  49.810 -41.055  1.00  0.00     0.044 C 
HETATM    5  C9  UNL     1     -15.459  48.673 -41.641  1.00  0.00    -0.040 C 
HETATM    6  C10 UNL     1     -16.534  48.157 -40.664  1.00  0.00     0.015 C 
HETATM    7  C11 UNL     1     -14.638  47.437 -41.923  1.00  0.00     0.015 C 
HETATM    8  C12 UNL     1     -16.181  49.028 -42.913  1.00  0.00     0.009 C 
HETATM    9  C13 UNL     1     -16.689  50.411 -43.008  1.00  0.00     0.002 C 
HETATM   10  C14 UNL     1     -15.904  51.496 -42.365  1.00  0.00     0.017 C 
HETATM   11  C15 UNL     1     -15.455  51.093 -41.005  1.00  0.00     0.025 C 
HETATM   12  C16 UNL     1     -16.694  51.058 -40.139  1.00  0.00     0.024 C 
HETATM   13  C17 UNL     1     -14.607  52.153 -40.333  1.00  0.00     0.143 C 
HETATM   14  O2  UNL     1     -14.978  52.767 -39.373  1.00  0.00    -0.296 OA
ENDROOT
BRANCH   3  15
HETATM   15  O1  UNL     1     -12.588  48.785 -40.975  1.00  0.00    -0.388 OA
ATOM     16  H1  UNL     1     -13.136  48.564 -40.230  1.00  0.00     0.210 HD
ENDBRANCH   3  15
BRANCH   3  17
HETATM   17  C7  UNL     1     -12.870  50.079 -42.879  1.00  0.00     0.152 C 
HETATM   18 CL1  UNL     1     -11.287  50.977 -42.876  1.00  0.00    -0.127 Cl
ENDBRANCH   3  17
BRANCH   1  19
HETATM   19  C2  UNL     1     -12.445  53.447 -40.484  1.00  0.00    -0.082 C 
HETATM   20  C1  UNL     1     -11.994  53.677 -39.292  1.00  0.00     0.015 C 
HETATM   21  C3  UNL     1     -12.010  54.431 -41.568  1.00  0.00     0.043 C 
ENDBRANCH   1  19
TORSDOF 3
ENDMDL
