MODEL 1
REMARK VINA RESULT: -7.042442956      0.000      0.000
REMARK  2 active torsions:
REMARK  status: ('A' for Active; 'I' for Inactive)
REMARK    1  A    between atoms: C5_6  and  N1_7 
REMARK    2  A    between atoms: N1_7  and  C6_9 
ROOT
HETATM    1  N1  UNL     1     -13.909  50.439 -39.673  1.00  0.00    -0.384 N 
ATOM      2  H1  UNL     1     -14.815  50.567 -40.123  1.00  0.00     0.160 HD
ENDROOT
BRANCH   1   3
HETATM    3  C5  UNL     1     -13.681  49.251 -38.925  1.00  0.00     0.029 A 
HETATM    4  C4  UNL     1     -14.469  48.131 -39.091  1.00  0.00     0.029 A 
HETATM    5  C3  UNL     1     -14.279  46.967 -38.375  1.00  0.00     0.004 A 
HETATM    6  C2  UNL     1     -13.268  46.876 -37.442  1.00  0.00     0.019 A 
HETATM    7  C1  UNL     1     -12.465  47.981 -37.255  1.00  0.00     0.013 A 
HETATM    8 BR1  UNL     1     -11.066  47.854 -35.962  1.00  0.00    -0.051 Br
HETATM    9  C13 UNL     1     -12.671  49.152 -37.988  1.00  0.00     0.048 A 
ENDBRANCH   1   3
BRANCH   1  10
HETATM   10  C6  UNL     1     -12.901  51.478 -39.823  1.00  0.00     0.096 C 
HETATM   11  C7  UNL     1     -11.934  51.259 -40.900  1.00  0.00     0.041 C 
HETATM   12  C8  UNL     1     -12.282  52.030 -42.147  1.00  0.00     0.049 C 
HETATM   13  C9  UNL     1     -11.461  53.304 -42.102  1.00  0.00     0.015 C 
HETATM   14  S1  UNL     1     -14.012  52.566 -41.804  1.00  0.00    -0.157 SA
HETATM   15  C10 UNL     1     -12.152  54.366 -41.310  1.00  0.00     0.002 C 
HETATM   16  C11 UNL     1     -12.625  53.908 -39.955  1.00  0.00     0.017 C 
HETATM   17  C12 UNL     1     -13.623  52.794 -40.015  1.00  0.00     0.070 C 
ENDBRANCH   1  10
TORSDOF 2
ENDMDL
MODEL 2
REMARK VINA RESULT: -6.906487107      1.304      1.760
REMARK  2 active torsions:
REMARK  status: ('A' for Active; 'I' for Inactive)
REMARK    1  A    between atoms: C5_6  and  N1_7 
REMARK    2  A    between atoms: N1_7  and  C6_9 
ROOT
HETATM    1  N1  UNL     1     -13.443  50.562 -39.406  1.00  0.00    -0.384 N 
ATOM      2  H1  UNL     1     -14.409  50.673 -39.712  1.00  0.00     0.160 HD
ENDROOT
BRANCH   1   3
HETATM    3  C5  UNL     1     -13.088  49.388 -38.684  1.00  0.00     0.029 A 
HETATM    4  C4  UNL     1     -12.064  49.392 -37.760  1.00  0.00     0.029 A 
HETATM    5  C3  UNL     1     -11.690  48.270 -37.049  1.00  0.00     0.004 A 
HETATM    6  C2  UNL     1     -12.343  47.071 -37.241  1.00  0.00     0.019 A 
HETATM    7  C1  UNL     1     -13.370  47.038 -38.159  1.00  0.00     0.013 A 
HETATM    8 BR1  UNL     1     -14.274  45.377 -38.422  1.00  0.00    -0.051 Br
HETATM    9  C13 UNL     1     -13.736  48.183 -38.870  1.00  0.00     0.048 A 
ENDBRANCH   1   3
BRANCH   1  10
HETATM   10  C6  UNL     1     -12.483  51.608 -39.726  1.00  0.00     0.096 C 
HETATM   11  C7  UNL     1     -11.643  51.347 -40.896  1.00  0.00     0.041 C 
HETATM   12  C8  UNL     1     -12.151  52.045 -42.131  1.00  0.00     0.049 C 
HETATM   13  C9  UNL     1     -11.359  53.332 -42.248  1.00  0.00     0.015 C 
HETATM   14  S1  UNL     1     -13.841  52.569 -41.616  1.00  0.00    -0.157 SA
HETATM   15  C10 UNL     1     -11.977  54.424 -41.436  1.00  0.00     0.002 C 
HETATM   16  C11 UNL     1     -12.279  54.031 -40.013  1.00  0.00     0.017 C 
HETATM   17  C12 UNL     1     -13.252  52.899 -39.899  1.00  0.00     0.070 C 
ENDBRANCH   1  10
TORSDOF 2
ENDMDL
MODEL 3
REMARK VINA RESULT: -6.805453081      4.185      6.645
REMARK  2 active torsions:
REMARK  status: ('A' for Active; 'I' for Inactive)
REMARK    1  A    between atoms: C5_6  and  N1_7 
REMARK    2  A    between atoms: N1_7  and  C6_9 
ROOT
HETATM    1  N1  UNL     1     -12.391  49.224 -43.541  1.00  0.00    -0.384 N 
ATOM      2  H1  UNL     1     -11.720  48.888 -44.232  1.00  0.00     0.160 HD
ENDROOT
BRANCH   1   3
HETATM    3  C5  UNL     1     -12.177  50.497 -42.944  1.00  0.00     0.029 A 
HETATM    4  C4  UNL     1     -11.085  51.274 -43.274  1.00  0.00     0.029 A 
HETATM    5  C3  UNL     1     -10.844  52.508 -42.707  1.00  0.00     0.004 A 
HETATM    6  C2  UNL     1     -11.708  53.027 -41.766  1.00  0.00     0.019 A 
HETATM    7  C1  UNL     1     -12.807  52.272 -41.418  1.00  0.00     0.013 A 
HETATM    8 BR1  UNL     1     -14.002  52.992 -40.114  1.00  0.00    -0.051 Br
HETATM    9  C13 UNL     1     -13.036  51.024 -42.001  1.00  0.00     0.048 A 
ENDBRANCH   1   3
BRANCH   1  10
HETATM   10  C6  UNL     1     -13.530  48.382 -43.207  1.00  0.00     0.096 C 
HETATM   11  C7  UNL     1     -14.280  47.862 -44.352  1.00  0.00     0.041 C 
HETATM   12  C8  UNL     1     -13.893  46.446 -44.694  1.00  0.00     0.049 C 
HETATM   13  C9  UNL     1     -14.918  45.552 -44.024  1.00  0.00     0.015 C 
HETATM   14  S1  UNL     1     -12.348  46.217 -43.714  1.00  0.00    -0.157 SA
HETATM   15  C10 UNL     1     -14.541  45.262 -42.608  1.00  0.00     0.002 C 
HETATM   16  C11 UNL     1     -14.197  46.489 -41.804  1.00  0.00     0.017 C 
HETATM   17  C12 UNL     1     -13.024  47.248 -42.342  1.00  0.00     0.070 C 
ENDBRANCH   1  10
TORSDOF 2
ENDMDL
MODEL 4
REMARK VINA RESULT: -6.739054207      2.272      2.672
REMARK  2 active torsions:
REMARK  status: ('A' for Active; 'I' for Inactive)
REMARK    1  A    between atoms: C5_6  and  N1_7 
REMARK    2  A    between atoms: N1_7  and  C6_9 
ROOT
HETATM    1  N1  UNL     1     -13.309  49.995 -41.761  1.00  0.00    -0.384 N 
ATOM      2  H1  UNL     1     -14.067  50.333 -42.354  1.00  0.00     0.160 HD
ENDROOT
BRANCH   1   3
HETATM    3  C5  UNL     1     -13.235  48.603 -41.475  1.00  0.00     0.029 A 
HETATM    4  C4  UNL     1     -12.713  47.707 -42.384  1.00  0.00     0.029 A 
HETATM    5  C3  UNL     1     -12.634  46.351 -42.140  1.00  0.00     0.004 A 
HETATM    6  C2  UNL     1     -13.086  45.827 -40.947  1.00  0.00     0.019 A 
HETATM    7  C1  UNL     1     -13.613  46.701 -40.020  1.00  0.00     0.013 A 
HETATM    8 BR1  UNL     1     -14.238  45.974 -38.369  1.00  0.00    -0.051 Br
HETATM    9  C13 UNL     1     -13.685  48.071 -40.283  1.00  0.00     0.048 A 
ENDBRANCH   1   3
BRANCH   1  10
HETATM   10  C6  UNL     1     -12.347  50.956 -41.243  1.00  0.00     0.096 C 
HETATM   11  C7  UNL     1     -12.022  52.063 -42.145  1.00  0.00     0.041 C 
HETATM   12  C8  UNL     1     -12.790  53.315 -41.814  1.00  0.00     0.049 C 
HETATM   13  C9  UNL     1     -11.869  54.164 -40.959  1.00  0.00     0.015 C 
HETATM   14  S1  UNL     1     -14.076  52.688 -40.652  1.00  0.00    -0.157 SA
HETATM   15  C10 UNL     1     -11.964  53.782 -39.517  1.00  0.00     0.002 C 
HETATM   16  C11 UNL     1     -11.823  52.304 -39.266  1.00  0.00     0.017 C 
HETATM   17  C12 UNL     1     -12.884  51.480 -39.929  1.00  0.00     0.070 C 
ENDBRANCH   1  10
TORSDOF 2
ENDMDL
MODEL 5
REMARK VINA RESULT: -6.665521053      3.154      3.525
REMARK  2 active torsions:
REMARK  status: ('A' for Active; 'I' for Inactive)
REMARK    1  A    between atoms: C5_6  and  N1_7 
REMARK    2  A    between atoms: N1_7  and  C6_9 
ROOT
HETATM    1  N1  UNL     1     -13.495  49.786 -41.557  1.00  0.00    -0.384 N 
ATOM      2  H1  UNL     1     -14.433  50.112 -41.790  1.00  0.00     0.160 HD
ENDROOT
BRANCH   1   3
HETATM    3  C5  UNL     1     -13.218  48.392 -41.635  1.00  0.00     0.029 A 
HETATM    4  C4  UNL     1     -13.476  47.545 -40.579  1.00  0.00     0.029 A 
HETATM    5  C3  UNL     1     -13.211  46.191 -40.621  1.00  0.00     0.004 A 
HETATM    6  C2  UNL     1     -12.664  45.620 -41.750  1.00  0.00     0.019 A 
HETATM    7  C1  UNL     1     -12.395  46.444 -42.821  1.00  0.00     0.013 A 
HETATM    8 BR1  UNL     1     -11.638  45.652 -44.385  1.00  0.00    -0.051 Br
HETATM    9  C13 UNL     1     -12.670  47.812 -42.762  1.00  0.00     0.048 A 
ENDBRANCH   1   3
BRANCH   1  10
HETATM   10  C6  UNL     1     -12.496  50.764 -41.156  1.00  0.00     0.096 C 
HETATM   11  C7  UNL     1     -12.290  51.867 -42.097  1.00  0.00     0.041 C 
HETATM   12  C8  UNL     1     -13.034  53.112 -41.691  1.00  0.00     0.049 C 
HETATM   13  C9  UNL     1     -12.036  53.981 -40.950  1.00  0.00     0.015 C 
HETATM   14  S1  UNL     1     -14.172  52.478 -40.388  1.00  0.00    -0.157 SA
HETATM   15  C10 UNL     1     -11.963  53.610 -39.504  1.00  0.00     0.002 C 
HETATM   16  C11 UNL     1     -11.773  52.136 -39.260  1.00  0.00     0.017 C 
HETATM   17  C12 UNL     1     -12.889  51.293 -39.794  1.00  0.00     0.070 C 
ENDBRANCH   1  10
TORSDOF 2
ENDMDL
