MODEL 1
REMARK VINA RESULT: -8.436401430      0.000      0.000
REMARK  2 active torsions:
REMARK  status: ('A' for Active; 'I' for Inactive)
REMARK    1  A    between atoms: C3_3  and  O1_4 
REMARK    2  A    between atoms: O1_4  and  N1_5 
ROOT
HETATM    1  C1  UNL     1     -13.244  45.690 -45.731  1.00  0.00     0.014 C 
HETATM    2  C2  UNL     1     -14.403  46.011 -45.536  1.00  0.00    -0.089 C 
HETATM    3  C3  UNL     1     -15.797  46.398 -45.317  1.00  0.00     0.294 C 
ENDROOT
BRANCH   3   4
HETATM    4  O1  UNL     1     -15.837  47.295 -44.228  1.00  0.00    -0.269 OA
BRANCH   4   5
HETATM    5  N1  UNL     1     -15.016  48.364 -44.086  1.00  0.00    -0.274 N 
HETATM    6  C4  UNL     1     -14.393  48.622 -42.995  1.00  0.00     0.010 C 
HETATM    7  C5  UNL     1     -14.591  47.702 -41.850  1.00  0.00     0.054 C 
HETATM    8  C17 UNL     1     -13.517  49.806 -42.916  1.00  0.00     0.059 C 
HETATM    9  C6  UNL     1     -13.533  46.608 -41.807  1.00  0.00     0.006 C 
HETATM   10  C7  UNL     1     -13.218  46.247 -40.360  1.00  0.00     0.000 C 
HETATM   11  C8  UNL     1     -12.289  47.317 -39.843  1.00  0.00     0.000 C 
HETATM   12  C9  UNL     1     -12.158  47.342 -38.359  1.00  0.00     0.000 C 
HETATM   13  C10 UNL     1     -12.289  48.765 -37.831  1.00  0.00     0.000 C 
HETATM   14  C11 UNL     1     -11.506  49.751 -38.659  1.00  0.00     0.000 C 
HETATM   15  C12 UNL     1     -12.364  50.882 -39.184  1.00  0.00     0.004 C 
HETATM   16  C13 UNL     1     -11.888  51.304 -40.553  1.00  0.00     0.035 C 
HETATM   17  C14 UNL     1     -12.970  51.740 -41.440  1.00  0.00    -0.069 C 
HETATM   18  C15 UNL     1     -13.007  53.013 -41.824  1.00  0.00     0.087 C 
HETATM   19  C16 UNL     1     -14.045  50.844 -41.947  1.00  0.00     0.040 C 
HETATM   20 CL1  UNL     1     -11.786  54.167 -41.287  1.00  0.00    -0.097 Cl
ATOM     21  H1  UNL     1     -14.889  48.992 -44.880  1.00  0.00     0.193 HD
ENDBRANCH   4   5
ENDBRANCH   3   4
TORSDOF 2
ENDMDL
MODEL 2
REMARK VINA RESULT: -8.336004953      0.943      1.127
REMARK  2 active torsions:
REMARK  status: ('A' for Active; 'I' for Inactive)
REMARK    1  A    between atoms: C3_3  and  O1_4 
REMARK    2  A    between atoms: O1_4  and  N1_5 
ROOT
HETATM    1  C1  UNL     1     -11.214  45.321 -44.879  1.00  0.00     0.014 C 
HETATM    2  C2  UNL     1     -12.367  45.586 -45.171  1.00  0.00    -0.089 C 
HETATM    3  C3  UNL     1     -13.747  45.906 -45.536  1.00  0.00     0.294 C 
ENDROOT
BRANCH   3   4
HETATM    4  O1  UNL     1     -14.222  46.888 -44.640  1.00  0.00    -0.269 OA
BRANCH   4   5
HETATM    5  N1  UNL     1     -13.575  48.045 -44.359  1.00  0.00    -0.274 N 
HETATM    6  C4  UNL     1     -13.270  48.398 -43.164  1.00  0.00     0.010 C 
HETATM    7  C5  UNL     1     -13.648  47.491 -42.056  1.00  0.00     0.054 C 
HETATM    8  C17 UNL     1     -12.566  49.674 -42.937  1.00  0.00     0.059 C 
HETATM    9  C6  UNL     1     -12.528  46.524 -41.701  1.00  0.00     0.006 C 
HETATM   10  C7  UNL     1     -12.544  46.237 -40.204  1.00  0.00     0.000 C 
HETATM   11  C8  UNL     1     -11.885  47.416 -39.534  1.00  0.00     0.000 C 
HETATM   12  C9  UNL     1     -12.127  47.494 -38.066  1.00  0.00     0.000 C 
HETATM   13  C10 UNL     1     -12.529  48.906 -37.660  1.00  0.00     0.000 C 
HETATM   14  C11 UNL     1     -11.671  49.952 -38.323  1.00  0.00     0.000 C 
HETATM   15  C12 UNL     1     -12.484  50.966 -39.098  1.00  0.00     0.004 C 
HETATM   16  C13 UNL     1     -11.732  51.404 -40.331  1.00  0.00     0.035 C 
HETATM   17  C14 UNL     1     -12.601  51.694 -41.475  1.00  0.00    -0.069 C 
HETATM   18  C15 UNL     1     -12.671  52.945 -41.922  1.00  0.00     0.087 C 
HETATM   19  C16 UNL     1     -13.420  50.671 -42.180  1.00  0.00     0.040 C 
HETATM   20 CL1  UNL     1     -11.746  54.242 -41.165  1.00  0.00    -0.097 Cl
ATOM     21  H1  UNL     1     -13.321  48.663 -45.131  1.00  0.00     0.193 HD
ENDBRANCH   4   5
ENDBRANCH   3   4
TORSDOF 2
ENDMDL
MODEL 3
REMARK VINA RESULT: -8.309837190      1.621      1.986
REMARK  2 active torsions:
REMARK  status: ('A' for Active; 'I' for Inactive)
REMARK    1  A    between atoms: C3_3  and  O1_4 
REMARK    2  A    between atoms: O1_4  and  N1_5 
ROOT
HETATM    1  C1  UNL     1     -16.713  45.254 -44.989  1.00  0.00     0.014 C 
HETATM    2  C2  UNL     1     -15.747  45.754 -45.538  1.00  0.00    -0.089 C 
HETATM    3  C3  UNL     1     -14.589  46.345 -46.209  1.00  0.00     0.294 C 
ENDROOT
BRANCH   3   4
HETATM    4  O1  UNL     1     -13.555  46.483 -45.258  1.00  0.00    -0.269 OA
BRANCH   4   5
HETATM    5  N1  UNL     1     -13.256  47.637 -44.614  1.00  0.00    -0.274 N 
HETATM    6  C4  UNL     1     -13.461  47.806 -43.359  1.00  0.00     0.010 C 
HETATM    7  C5  UNL     1     -14.051  46.683 -42.596  1.00  0.00     0.054 C 
HETATM    8  C17 UNL     1     -13.109  49.093 -42.729  1.00  0.00     0.059 C 
HETATM    9  C6  UNL     1     -12.985  45.798 -41.964  1.00  0.00     0.006 C 
HETATM   10  C7  UNL     1     -13.485  45.252 -40.632  1.00  0.00     0.000 C 
HETATM   11  C8  UNL     1     -13.316  46.361 -39.624  1.00  0.00     0.000 C 
HETATM   12  C9  UNL     1     -14.076  46.152 -38.359  1.00  0.00     0.000 C 
HETATM   13  C10 UNL     1     -14.827  47.417 -37.966  1.00  0.00     0.000 C 
HETATM   14  C11 UNL     1     -13.978  48.652 -38.122  1.00  0.00     0.000 C 
HETATM   15  C12 UNL     1     -14.619  49.691 -39.017  1.00  0.00     0.004 C 
HETATM   16  C13 UNL     1     -13.562  50.419 -39.810  1.00  0.00     0.035 C 
HETATM   17  C14 UNL     1     -14.002  50.808 -41.153  1.00  0.00    -0.069 C 
HETATM   18  C15 UNL     1     -14.117  52.102 -41.438  1.00  0.00     0.087 C 
HETATM   19  C16 UNL     1     -14.331  49.840 -42.235  1.00  0.00     0.040 C 
HETATM   20 CL1  UNL     1     -13.754  53.340 -40.235  1.00  0.00    -0.097 Cl
ATOM     21  H1  UNL     1     -12.851  48.405 -45.150  1.00  0.00     0.193 HD
ENDBRANCH   4   5
ENDBRANCH   3   4
TORSDOF 2
ENDMDL
MODEL 4
REMARK VINA RESULT: -8.295720746      1.060      1.231
REMARK  2 active torsions:
REMARK  status: ('A' for Active; 'I' for Inactive)
REMARK    1  A    between atoms: C3_3  and  O1_4 
REMARK    2  A    between atoms: O1_4  and  N1_5 
ROOT
HETATM    1  C1  UNL     1     -16.694  44.997 -44.617  1.00  0.00     0.014 C 
HETATM    2  C2  UNL     1     -16.116  45.989 -45.022  1.00  0.00    -0.089 C 
HETATM    3  C3  UNL     1     -15.426  47.178 -45.522  1.00  0.00     0.294 C 
ENDROOT
BRANCH   3   4
HETATM    4  O1  UNL     1     -14.142  47.220 -44.936  1.00  0.00    -0.269 OA
BRANCH   4   5
HETATM    5  N1  UNL     1     -13.530  48.352 -44.511  1.00  0.00    -0.274 N 
HETATM    6  C4  UNL     1     -13.269  48.578 -43.276  1.00  0.00     0.010 C 
HETATM    7  C5  UNL     1     -13.660  47.550 -42.285  1.00  0.00     0.054 C 
HETATM    8  C17 UNL     1     -12.600  49.835 -42.890  1.00  0.00     0.059 C 
HETATM    9  C6  UNL     1     -12.529  46.571 -42.000  1.00  0.00     0.006 C 
HETATM   10  C7  UNL     1     -12.584  46.122 -40.544  1.00  0.00     0.000 C 
HETATM   11  C8  UNL     1     -11.972  47.234 -39.730  1.00  0.00     0.000 C 
HETATM   12  C9  UNL     1     -12.260  47.147 -38.271  1.00  0.00     0.000 C 
HETATM   13  C10 UNL     1     -12.704  48.499 -37.728  1.00  0.00     0.000 C 
HETATM   14  C11 UNL     1     -11.850  49.627 -38.246  1.00  0.00     0.000 C 
HETATM   15  C12 UNL     1     -12.662  50.704 -38.933  1.00  0.00     0.004 C 
HETATM   16  C13 UNL     1     -11.883  51.287 -40.087  1.00  0.00     0.035 C 
HETATM   17  C14 UNL     1     -12.723  51.684 -41.220  1.00  0.00    -0.069 C 
HETATM   18  C15 UNL     1     -12.808  52.974 -41.532  1.00  0.00     0.087 C 
HETATM   19  C16 UNL     1     -13.498  50.728 -42.058  1.00  0.00     0.040 C 
HETATM   20 CL1  UNL     1     -11.934  54.198 -40.610  1.00  0.00    -0.097 Cl
ATOM     21  H1  UNL     1     -13.266  49.054 -45.203  1.00  0.00     0.193 HD
ENDBRANCH   4   5
ENDBRANCH   3   4
TORSDOF 2
ENDMDL
MODEL 5
REMARK VINA RESULT: -7.948592874      2.153      4.088
REMARK  2 active torsions:
REMARK  status: ('A' for Active; 'I' for Inactive)
REMARK    1  A    between atoms: C3_3  and  O1_4 
REMARK    2  A    between atoms: O1_4  and  N1_5 
ROOT
HETATM    1  C1  UNL     1     -14.671  46.777 -46.473  1.00  0.00     0.014 C 
HETATM    2  C2  UNL     1     -15.210  46.405 -45.446  1.00  0.00    -0.089 C 
HETATM    3  C3  UNL     1     -15.868  45.951 -44.221  1.00  0.00     0.294 C 
ENDROOT
BRANCH   3   4
HETATM    4  O1  UNL     1     -15.978  47.053 -43.347  1.00  0.00    -0.269 OA
BRANCH   4   5
HETATM    5  N1  UNL     1     -15.508  47.073 -42.076  1.00  0.00    -0.274 N 
HETATM    6  C4  UNL     1     -14.818  48.047 -41.606  1.00  0.00     0.010 C 
HETATM    7  C5  UNL     1     -14.532  49.190 -42.503  1.00  0.00     0.054 C 
HETATM    8  C17 UNL     1     -14.340  47.997 -40.211  1.00  0.00     0.059 C 
HETATM    9  C6  UNL     1     -15.570  50.297 -42.369  1.00  0.00     0.006 C 
HETATM   10  C7  UNL     1     -14.911  51.655 -42.573  1.00  0.00     0.000 C 
HETATM   11  C8  UNL     1     -14.221  51.996 -41.276  1.00  0.00     0.000 C 
HETATM   12  C9  UNL     1     -13.227  53.101 -41.389  1.00  0.00     0.000 C 
HETATM   13  C10 UNL     1     -11.924  52.727 -40.693  1.00  0.00     0.000 C 
HETATM   14  C11 UNL     1     -12.162  52.082 -39.352  1.00  0.00     0.000 C 
HETATM   15  C12 UNL     1     -11.506  50.723 -39.236  1.00  0.00     0.004 C 
HETATM   16  C13 UNL     1     -12.360  49.804 -38.396  1.00  0.00     0.035 C 
HETATM   17  C14 UNL     1     -12.307  48.403 -38.824  1.00  0.00    -0.069 C 
HETATM   18  C15 UNL     1     -11.763  47.506 -38.007  1.00  0.00     0.087 C 
HETATM   19  C16 UNL     1     -12.829  47.910 -40.128  1.00  0.00     0.040 C 
HETATM   20 CL1  UNL     1     -11.111  47.974 -36.437  1.00  0.00    -0.097 Cl
ATOM     21  H1  UNL     1     -15.710  46.280 -41.468  1.00  0.00     0.193 HD
ENDBRANCH   4   5
ENDBRANCH   3   4
TORSDOF 2
ENDMDL
