MODEL 1
REMARK VINA RESULT: -8.497051789      0.000      0.000
REMARK  3 active torsions:
REMARK  status: ('A' for Active; 'I' for Inactive)
REMARK    1  A    between atoms: C2_2  and  C3_3 
REMARK    2  A    between atoms: C5_5  and  O1_6 
REMARK    3  A    between atoms: N1_16  and  C12_17 
ROOT
HETATM    1  C3  UNL     1     -14.353  49.393 -40.047  1.00  0.00     0.120 C 
HETATM    2  C4  UNL     1     -13.626  50.694 -39.893  1.00  0.00     0.012 A 
HETATM    3  C5  UNL     1     -12.359  50.705 -39.370  1.00  0.00     0.077 A 
HETATM    4  C6  UNL     1     -11.699  51.912 -39.226  1.00  0.00     0.079 A 
HETATM    5  C7  UNL     1     -12.261  53.121 -39.591  1.00  0.00     0.120 A 
HETATM    6  F1  UNL     1     -11.593  54.298 -39.441  1.00  0.00    -0.206 F 
HETATM    7  C8  UNL     1     -13.534  53.088 -40.116  1.00  0.00     0.058 A 
HETATM    8  C9  UNL     1     -14.200  51.888 -40.261  1.00  0.00     0.029 A 
HETATM    9  C10 UNL     1     -15.544  51.795 -40.811  1.00  0.00     0.198 C 
HETATM   10  O2  UNL     1     -16.289  52.798 -40.769  1.00  0.00    -0.286 OA
HETATM   11  C11 UNL     1     -16.005  50.548 -41.400  1.00  0.00     0.142 C 
HETATM   12  N1  UNL     1     -15.284  49.380 -41.085  1.00  0.00    -0.373 N 
ENDROOT
BRANCH  12  13
HETATM   13  C12 UNL     1     -15.509  48.226 -41.819  1.00  0.00     0.084 C 
HETATM   14  C13 UNL     1     -15.607  48.426 -43.315  1.00  0.00     0.025 C 
HETATM   15  C14 UNL     1     -14.174  48.335 -43.850  1.00  0.00     0.002 C 
HETATM   16  C15 UNL     1     -13.893  46.863 -44.016  1.00  0.00     0.000 C 
HETATM   17  C16 UNL     1     -14.507  46.163 -42.806  1.00  0.00     0.002 C 
HETATM   18  C17 UNL     1     -14.516  47.099 -41.605  1.00  0.00     0.025 C 
ENDBRANCH  12  13
BRANCH   1  19
HETATM   19  C2  UNL     1     -14.892  49.069 -38.663  1.00  0.00     0.026 C 
HETATM   20  C1  UNL     1     -14.548  47.702 -38.188  1.00  0.00     0.007 C 
ENDBRANCH   1  19
BRANCH   3  21
HETATM   21  O1  UNL     1     -11.705  49.534 -38.970  1.00  0.00    -0.360 OA
ATOM     22  H1  UNL     1     -10.809  49.537 -38.655  1.00  0.00     0.217 HD
ENDBRANCH   3  21
TORSDOF 3
ENDMDL
MODEL 2
REMARK VINA RESULT: -8.426428319      2.148      2.720
REMARK  3 active torsions:
REMARK  status: ('A' for Active; 'I' for Inactive)
REMARK    1  A    between atoms: C2_2  and  C3_3 
REMARK    2  A    between atoms: C5_5  and  O1_6 
REMARK    3  A    between atoms: N1_16  and  C12_17 
ROOT
HETATM    1  C3  UNL     1     -13.383  48.268 -39.484  1.00  0.00     0.120 C 
HETATM    2  C4  UNL     1     -12.225  48.926 -38.798  1.00  0.00     0.012 A 
HETATM    3  C5  UNL     1     -11.431  48.194 -37.954  1.00  0.00     0.077 A 
HETATM    4  C6  UNL     1     -10.368  48.813 -37.320  1.00  0.00     0.079 A 
HETATM    5  C7  UNL     1     -10.064  50.149 -37.500  1.00  0.00     0.120 A 
HETATM    6  F1  UNL     1      -9.013  50.738 -36.866  1.00  0.00    -0.206 F 
HETATM    7  C8  UNL     1     -10.874  50.868 -38.352  1.00  0.00     0.058 A 
HETATM    8  C9  UNL     1     -11.937  50.257 -38.988  1.00  0.00     0.029 A 
HETATM    9  C10 UNL     1     -12.822  50.967 -39.898  1.00  0.00     0.198 C 
HETATM   10  O2  UNL     1     -12.918  52.210 -39.808  1.00  0.00    -0.286 OA
HETATM   11  C11 UNL     1     -13.580  50.232 -40.897  1.00  0.00     0.142 C 
HETATM   12  N1  UNL     1     -13.721  48.843 -40.708  1.00  0.00    -0.373 N 
ENDROOT
BRANCH  12  13
HETATM   13  C12 UNL     1     -14.193  48.062 -41.750  1.00  0.00     0.084 C 
HETATM   14  C13 UNL     1     -13.653  48.418 -43.117  1.00  0.00     0.025 C 
HETATM   15  C14 UNL     1     -12.353  47.624 -43.279  1.00  0.00     0.002 C 
HETATM   16  C15 UNL     1     -12.768  46.252 -43.748  1.00  0.00     0.000 C 
HETATM   17  C16 UNL     1     -14.021  45.883 -42.957  1.00  0.00     0.002 C 
HETATM   18  C17 UNL     1     -14.004  46.564 -41.595  1.00  0.00     0.025 C 
ENDBRANCH  12  13
BRANCH   1  19
HETATM   19  C2  UNL     1     -14.488  48.215 -38.443  1.00  0.00     0.026 C 
HETATM   20  C1  UNL     1     -15.004  46.845 -38.182  1.00  0.00     0.007 C 
ENDBRANCH   1  19
BRANCH   3  21
HETATM   21  O1  UNL     1     -11.656  46.835 -37.706  1.00  0.00    -0.360 OA
ATOM     22  H1  UNL     1     -10.990  46.271 -37.332  1.00  0.00     0.217 HD
ENDBRANCH   3  21
TORSDOF 3
ENDMDL
MODEL 3
REMARK VINA RESULT: -8.402693416      1.309      1.457
REMARK  3 active torsions:
REMARK  status: ('A' for Active; 'I' for Inactive)
REMARK    1  A    between atoms: C2_2  and  C3_3 
REMARK    2  A    between atoms: C5_5  and  O1_6 
REMARK    3  A    between atoms: N1_16  and  C12_17 
ROOT
HETATM    1  C3  UNL     1     -14.045  49.332 -40.361  1.00  0.00     0.120 C 
HETATM    2  C4  UNL     1     -13.515  50.721 -40.542  1.00  0.00     0.012 A 
HETATM    3  C5  UNL     1     -12.501  51.172 -39.737  1.00  0.00     0.077 A 
HETATM    4  C6  UNL     1     -12.023  52.458 -39.909  1.00  0.00     0.079 A 
HETATM    5  C7  UNL     1     -12.525  53.322 -40.865  1.00  0.00     0.120 A 
HETATM    6  F1  UNL     1     -12.039  54.586 -41.017  1.00  0.00    -0.206 F 
HETATM    7  C8  UNL     1     -13.543  52.851 -41.664  1.00  0.00     0.058 A 
HETATM    8  C9  UNL     1     -14.025  51.568 -41.498  1.00  0.00     0.029 A 
HETATM    9  C10 UNL     1     -15.097  51.019 -42.314  1.00  0.00     0.198 C 
HETATM   10  O2  UNL     1     -15.890  51.800 -42.883  1.00  0.00    -0.286 OA
HETATM   11  C11 UNL     1     -15.236  49.579 -42.461  1.00  0.00     0.142 C 
HETATM   12  N1  UNL     1     -14.572  48.767 -41.521  1.00  0.00    -0.373 N 
ENDROOT
BRANCH  12  13
HETATM   13  C12 UNL     1     -14.447  47.409 -41.767  1.00  0.00     0.084 C 
HETATM   14  C13 UNL     1     -14.290  47.031 -43.223  1.00  0.00     0.025 C 
HETATM   15  C14 UNL     1     -12.788  47.093 -43.517  1.00  0.00     0.002 C 
HETATM   16  C15 UNL     1     -12.227  45.769 -43.062  1.00  0.00     0.000 C 
HETATM   17  C16 UNL     1     -12.932  45.426 -41.751  1.00  0.00     0.002 C 
HETATM   18  C17 UNL     1     -13.334  46.699 -41.020  1.00  0.00     0.025 C 
ENDBRANCH  12  13
BRANCH   1  19
HETATM   19  C2  UNL     1     -14.986  49.414 -39.171  1.00  0.00     0.026 C 
HETATM   20  C1  UNL     1     -14.724  48.391 -38.123  1.00  0.00     0.007 C 
ENDBRANCH   1  19
BRANCH   3  21
HETATM   21  O1  UNL     1     -11.927  50.374 -38.741  1.00  0.00    -0.360 OA
ATOM     22  H1  UNL     1     -11.742  49.452 -38.875  1.00  0.00     0.217 HD
ENDBRANCH   3  21
TORSDOF 3
ENDMDL
MODEL 4
REMARK VINA RESULT: -8.232200387      2.374      3.245
REMARK  3 active torsions:
REMARK  status: ('A' for Active; 'I' for Inactive)
REMARK    1  A    between atoms: C2_2  and  C3_3 
REMARK    2  A    between atoms: C5_5  and  O1_6 
REMARK    3  A    between atoms: N1_16  and  C12_17 
ROOT
HETATM    1  C3  UNL     1     -13.755  48.421 -39.530  1.00  0.00     0.120 C 
HETATM    2  C4  UNL     1     -12.594  48.681 -38.619  1.00  0.00     0.012 A 
HETATM    3  C5  UNL     1     -12.265  47.760 -37.658  1.00  0.00     0.077 A 
HETATM    4  C6  UNL     1     -11.195  48.012 -36.819  1.00  0.00     0.079 A 
HETATM    5  C7  UNL     1     -10.432  49.162 -36.904  1.00  0.00     0.120 A 
HETATM    6  F1  UNL     1      -9.382  49.390 -36.067  1.00  0.00    -0.206 F 
HETATM    7  C8  UNL     1     -10.777  50.074 -37.876  1.00  0.00     0.058 A 
HETATM    8  C9  UNL     1     -11.845  49.830 -38.717  1.00  0.00     0.029 A 
HETATM    9  C10 UNL     1     -12.252  50.757 -39.761  1.00  0.00     0.198 C 
HETATM   10  O2  UNL     1     -11.939  51.963 -39.660  1.00  0.00    -0.286 OA
HETATM   11  C11 UNL     1     -13.012  50.278 -40.904  1.00  0.00     0.142 C 
HETATM   12  N1  UNL     1     -13.645  49.026 -40.781  1.00  0.00    -0.373 N 
ENDROOT
BRANCH  12  13
HETATM   13  C12 UNL     1     -14.148  48.406 -41.913  1.00  0.00     0.084 C 
HETATM   14  C13 UNL     1     -13.322  48.588 -43.167  1.00  0.00     0.025 C 
HETATM   15  C14 UNL     1     -12.289  47.457 -43.162  1.00  0.00     0.002 C 
HETATM   16  C15 UNL     1     -12.994  46.257 -43.742  1.00  0.00     0.000 C 
HETATM   17  C16 UNL     1     -14.408  46.263 -43.167  1.00  0.00     0.002 C 
HETATM   18  C17 UNL     1     -14.414  46.918 -41.792  1.00  0.00     0.025 C 
ENDBRANCH  12  13
BRANCH   1  19
HETATM   19  C2  UNL     1     -14.988  48.784 -38.719  1.00  0.00     0.026 C 
HETATM   20  C1  UNL     1     -15.991  49.583 -39.474  1.00  0.00     0.007 C 
ENDBRANCH   1  19
BRANCH   3  21
HETATM   21  O1  UNL     1     -12.977  46.567 -37.493  1.00  0.00    -0.360 OA
ATOM     22  H1  UNL     1     -12.632  45.836 -36.993  1.00  0.00     0.217 HD
ENDBRANCH   3  21
TORSDOF 3
ENDMDL
MODEL 5
REMARK VINA RESULT: -8.223181546      3.233      6.180
REMARK  3 active torsions:
REMARK  status: ('A' for Active; 'I' for Inactive)
REMARK    1  A    between atoms: C2_2  and  C3_3 
REMARK    2  A    between atoms: C5_5  and  O1_6 
REMARK    3  A    between atoms: N1_16  and  C12_17 
ROOT
HETATM    1  C3  UNL     1     -14.036  48.667 -40.379  1.00  0.00     0.120 C 
HETATM    2  C4  UNL     1     -13.843  47.861 -41.628  1.00  0.00     0.012 A 
HETATM    3  C5  UNL     1     -14.128  48.420 -42.847  1.00  0.00     0.077 A 
HETATM    4  C6  UNL     1     -13.952  47.666 -43.993  1.00  0.00     0.079 A 
HETATM    5  C7  UNL     1     -13.497  46.361 -43.968  1.00  0.00     0.120 A 
HETATM    6  F1  UNL     1     -13.331  45.637 -45.109  1.00  0.00    -0.206 F 
HETATM    7  C8  UNL     1     -13.215  45.818 -42.734  1.00  0.00     0.058 A 
HETATM    8  C9  UNL     1     -13.389  46.564 -41.585  1.00  0.00     0.029 A 
HETATM    9  C10 UNL     1     -13.106  46.042 -40.258  1.00  0.00     0.198 C 
HETATM   10  O2  UNL     1     -13.111  44.805 -40.077  1.00  0.00    -0.286 OA
HETATM   11  C11 UNL     1     -12.821  46.954 -39.162  1.00  0.00     0.142 C 
HETATM   12  N1  UNL     1     -13.194  48.302 -39.330  1.00  0.00    -0.373 N 
ENDROOT
BRANCH  12  13
HETATM   13  C12 UNL     1     -12.711  49.253 -38.446  1.00  0.00     0.084 C 
HETATM   14  C13 UNL     1     -11.866  48.711 -37.315  1.00  0.00     0.025 C 
HETATM   15  C14 UNL     1     -10.430  48.659 -37.846  1.00  0.00     0.002 C 
HETATM   16  C15 UNL     1      -9.875  50.049 -37.659  1.00  0.00     0.000 C 
HETATM   17  C16 UNL     1     -10.996  51.018 -38.027  1.00  0.00     0.002 C 
HETATM   18  C17 UNL     1     -11.917  50.389 -39.064  1.00  0.00     0.025 C 
ENDBRANCH  12  13
BRANCH   1  19
HETATM   19  C2  UNL     1     -15.527  48.606 -40.090  1.00  0.00     0.026 C 
HETATM   20  C1  UNL     1     -16.105  49.901 -39.638  1.00  0.00     0.007 C 
ENDBRANCH   1  19
BRANCH   3  21
HETATM   21  O1  UNL     1     -14.594  49.733 -42.976  1.00  0.00    -0.360 OA
ATOM     22  H1  UNL     1     -14.155  50.376 -43.521  1.00  0.00     0.217 HD
ENDBRANCH   3  21
TORSDOF 3
ENDMDL
