MODEL 1
REMARK VINA RESULT: -8.491198436      0.000      0.000
REMARK  2 active torsions:
REMARK  status: ('A' for Active; 'I' for Inactive)
REMARK    1  A    between atoms: C3_3  and  N1_4 
REMARK    2  A    between atoms: N1_4  and  C4_6 
ROOT
HETATM    1  C1  UNL     1     -14.134  48.337 -42.235  1.00  0.00     0.052 C 
HETATM    2  C2  UNL     1     -14.424  48.202 -40.780  1.00  0.00    -0.012 A 
HETATM    3  C3  UNL     1     -14.785  49.318 -40.010  1.00  0.00     0.036 A 
HETATM    4  C14 UNL     1     -15.026  49.060 -38.684  1.00  0.00     0.031 A 
HETATM    5  C15 UNL     1     -14.927  47.783 -38.113  1.00  0.00     0.027 A 
HETATM    6  C16 UNL     1     -14.567  46.715 -38.918  1.00  0.00     0.067 A 
HETATM    7  C17 UNL     1     -14.459  45.399 -38.356  1.00  0.00     0.101 C 
HETATM    8  N2  UNL     1     -14.369  44.333 -37.910  1.00  0.00    -0.191 NA
HETATM    9  C18 UNL     1     -14.316  46.934 -40.255  1.00  0.00     0.062 A 
HETATM   10 CL1  UNL     1     -13.863  45.567 -41.245  1.00  0.00    -0.082 Cl
ENDROOT
BRANCH   3  11
HETATM   11  N1  UNL     1     -14.863  50.580 -40.623  1.00  0.00    -0.380 N 
ATOM     12  H1  UNL     1     -15.740  50.764 -41.112  1.00  0.00     0.160 HD
BRANCH  11  13
HETATM   13  C4  UNL     1     -13.912  51.647 -40.674  1.00  0.00     0.031 C 
HETATM   14  C5  UNL     1     -13.661  52.188 -42.036  1.00  0.00     0.035 C 
HETATM   15  C6  UNL     1     -12.479  53.146 -42.031  1.00  0.00    -0.012 C 
HETATM   16  C7  UNL     1     -11.205  52.497 -41.594  1.00  0.00     0.009 C 
HETATM   17  C11 UNL     1     -12.784  54.301 -41.120  1.00  0.00     0.009 C 
HETATM   18  C8  UNL     1     -11.443  51.966 -40.196  1.00  0.00    -0.012 C 
HETATM   19  C9  UNL     1     -11.716  53.087 -39.245  1.00  0.00     0.009 C 
HETATM   20  C13 UNL     1     -12.568  51.007 -40.223  1.00  0.00     0.035 C 
HETATM   21  C10 UNL     1     -13.009  53.748 -39.732  1.00  0.00    -0.012 C 
HETATM   22  C12 UNL     1     -14.148  52.751 -39.696  1.00  0.00     0.035 C 
ENDBRANCH  11  13
ENDBRANCH   3  11
TORSDOF 2
ENDMDL
MODEL 2
REMARK VINA RESULT: -8.417654146      2.497      6.395
REMARK  2 active torsions:
REMARK  status: ('A' for Active; 'I' for Inactive)
REMARK    1  A    between atoms: C3_3  and  N1_4 
REMARK    2  A    between atoms: N1_4  and  C4_6 
ROOT
HETATM    1  C1  UNL     1     -12.504  49.687 -42.819  1.00  0.00     0.052 C 
HETATM    2  C2  UNL     1     -12.951  50.725 -41.848  1.00  0.00    -0.012 A 
HETATM    3  C3  UNL     1     -13.955  50.446 -40.908  1.00  0.00     0.036 A 
HETATM    4  C14 UNL     1     -14.276  51.486 -40.071  1.00  0.00     0.031 A 
HETATM    5  C15 UNL     1     -13.661  52.745 -40.129  1.00  0.00     0.027 A 
HETATM    6  C16 UNL     1     -12.675  52.967 -41.078  1.00  0.00     0.067 A 
HETATM    7  C17 UNL     1     -12.032  54.248 -41.156  1.00  0.00     0.101 C 
HETATM    8  N2  UNL     1     -11.508  55.279 -41.228  1.00  0.00    -0.191 NA
HETATM    9  C18 UNL     1     -12.326  51.948 -41.936  1.00  0.00     0.062 A 
HETATM   10 CL1  UNL     1     -11.080  52.257 -43.122  1.00  0.00    -0.082 Cl
ENDROOT
BRANCH   3  11
HETATM   11  N1  UNL     1     -14.549  49.173 -40.892  1.00  0.00    -0.380 N 
ATOM     12  H1  UNL     1     -15.386  49.085 -41.468  1.00  0.00     0.160 HD
BRANCH  11  13
HETATM   13  C4  UNL     1     -14.169  47.982 -40.198  1.00  0.00     0.031 C 
HETATM   14  C5  UNL     1     -15.029  47.644 -39.033  1.00  0.00     0.035 C 
HETATM   15  C6  UNL     1     -14.423  46.509 -38.221  1.00  0.00    -0.012 C 
HETATM   16  C7  UNL     1     -13.076  46.844 -37.667  1.00  0.00     0.009 C 
HETATM   17  C11 UNL     1     -14.313  45.287 -39.088  1.00  0.00     0.009 C 
HETATM   18  C8  UNL     1     -12.185  47.163 -38.849  1.00  0.00    -0.012 C 
HETATM   19  C9  UNL     1     -12.017  45.962 -39.723  1.00  0.00     0.009 C 
HETATM   20  C13 UNL     1     -12.765  48.293 -39.607  1.00  0.00     0.035 C 
HETATM   21  C10 UNL     1     -13.414  45.628 -40.254  1.00  0.00    -0.012 C 
HETATM   22  C12 UNL     1     -13.953  46.786 -41.067  1.00  0.00     0.035 C 
ENDBRANCH  11  13
ENDBRANCH   3  11
TORSDOF 2
ENDMDL
MODEL 3
REMARK VINA RESULT: -8.316442135      2.676      6.613
REMARK  2 active torsions:
REMARK  status: ('A' for Active; 'I' for Inactive)
REMARK    1  A    between atoms: C3_3  and  N1_4 
REMARK    2  A    between atoms: N1_4  and  C4_6 
ROOT
HETATM    1  C1  UNL     1     -12.801  49.604 -39.086  1.00  0.00     0.052 C 
HETATM    2  C2  UNL     1     -13.214  50.557 -40.153  1.00  0.00    -0.012 A 
HETATM    3  C3  UNL     1     -14.187  50.201 -41.100  1.00  0.00     0.036 A 
HETATM    4  C14 UNL     1     -14.478  51.168 -42.031  1.00  0.00     0.031 A 
HETATM    5  C15 UNL     1     -13.862  52.428 -42.057  1.00  0.00     0.027 A 
HETATM    6  C16 UNL     1     -12.906  52.727 -41.099  1.00  0.00     0.067 A 
HETATM    7  C17 UNL     1     -12.263  54.010 -41.107  1.00  0.00     0.101 C 
HETATM    8  N2  UNL     1     -11.738  55.043 -41.105  1.00  0.00    -0.191 NA
HETATM    9  C18 UNL     1     -12.587  51.783 -40.149  1.00  0.00     0.062 A 
HETATM   10 CL1  UNL     1     -11.379  52.189 -38.954  1.00  0.00    -0.082 Cl
ENDROOT
BRANCH   3  11
HETATM   11  N1  UNL     1     -14.771  48.925 -41.040  1.00  0.00    -0.380 N 
ATOM     12  H1  UNL     1     -15.500  48.821 -40.334  1.00  0.00     0.160 HD
BRANCH  11  13
HETATM   13  C4  UNL     1     -14.507  47.748 -41.808  1.00  0.00     0.031 C 
HETATM   14  C5  UNL     1     -14.217  46.534 -40.999  1.00  0.00     0.035 C 
HETATM   15  C6  UNL     1     -13.722  45.398 -41.883  1.00  0.00    -0.012 C 
HETATM   16  C7  UNL     1     -12.459  45.732 -42.609  1.00  0.00     0.009 C 
HETATM   17  C11 UNL     1     -14.789  45.049 -42.880  1.00  0.00     0.009 C 
HETATM   18  C8  UNL     1     -12.753  46.952 -43.456  1.00  0.00    -0.012 C 
HETATM   19  C9  UNL     1     -13.787  46.641 -44.490  1.00  0.00     0.009 C 
HETATM   20  C13 UNL     1     -13.195  48.060 -42.581  1.00  0.00     0.035 C 
HETATM   21  C10 UNL     1     -15.058  46.277 -43.718  1.00  0.00    -0.012 C 
HETATM   22  C12 UNL     1     -15.509  47.452 -42.875  1.00  0.00     0.035 C 
ENDBRANCH  11  13
ENDBRANCH   3  11
TORSDOF 2
ENDMDL
MODEL 4
REMARK VINA RESULT: -8.285642299      2.731      6.624
REMARK  2 active torsions:
REMARK  status: ('A' for Active; 'I' for Inactive)
REMARK    1  A    between atoms: C3_3  and  N1_4 
REMARK    2  A    between atoms: N1_4  and  C4_6 
ROOT
HETATM    1  C1  UNL     1     -12.701  49.477 -39.331  1.00  0.00     0.052 C 
HETATM    2  C2  UNL     1     -13.096  50.522 -40.316  1.00  0.00    -0.012 A 
HETATM    3  C3  UNL     1     -14.041  50.249 -41.317  1.00  0.00     0.036 A 
HETATM    4  C14 UNL     1     -14.317  51.296 -42.162  1.00  0.00     0.031 A 
HETATM    5  C15 UNL     1     -13.714  52.557 -42.054  1.00  0.00     0.027 A 
HETATM    6  C16 UNL     1     -12.786  52.773 -41.047  1.00  0.00     0.067 A 
HETATM    7  C17 UNL     1     -12.156  54.056 -40.918  1.00  0.00     0.101 C 
HETATM    8  N2  UNL     1     -11.641  55.088 -40.806  1.00  0.00    -0.191 NA
HETATM    9  C18 UNL     1     -12.482  51.747 -40.181  1.00  0.00     0.062 A 
HETATM   10 CL1  UNL     1     -11.309  52.049 -38.921  1.00  0.00    -0.082 Cl
ENDROOT
BRANCH   3  11
HETATM   11  N1  UNL     1     -14.613  48.968 -41.392  1.00  0.00    -0.380 N 
ATOM     12  H1  UNL     1     -15.395  48.811 -40.756  1.00  0.00     0.160 HD
BRANCH  11  13
HETATM   13  C4  UNL     1     -14.275  47.848 -42.215  1.00  0.00     0.031 C 
HETATM   14  C5  UNL     1     -15.318  47.472 -43.206  1.00  0.00     0.035 C 
HETATM   15  C6  UNL     1     -14.983  46.144 -43.869  1.00  0.00    -0.012 C 
HETATM   16  C7  UNL     1     -14.898  45.012 -42.898  1.00  0.00     0.009 C 
HETATM   17  C11 UNL     1     -13.675  46.273 -44.596  1.00  0.00     0.009 C 
HETATM   18  C8  UNL     1     -13.818  45.374 -41.899  1.00  0.00    -0.012 C 
HETATM   19  C9  UNL     1     -12.488  45.478 -42.574  1.00  0.00     0.009 C 
HETATM   20  C13 UNL     1     -14.176  46.646 -41.234  1.00  0.00     0.035 C 
HETATM   21  C10 UNL     1     -12.614  46.626 -43.580  1.00  0.00    -0.012 C 
HETATM   22  C12 UNL     1     -12.929  47.919 -42.857  1.00  0.00     0.035 C 
ENDBRANCH  11  13
ENDBRANCH   3  11
TORSDOF 2
ENDMDL
MODEL 5
REMARK VINA RESULT: -8.236665700      2.726      6.676
REMARK  2 active torsions:
REMARK  status: ('A' for Active; 'I' for Inactive)
REMARK    1  A    between atoms: C3_3  and  N1_4 
REMARK    2  A    between atoms: N1_4  and  C4_6 
ROOT
HETATM    1  C1  UNL     1     -12.718  49.609 -39.185  1.00  0.00     0.052 C 
HETATM    2  C2  UNL     1     -13.117  50.582 -40.240  1.00  0.00    -0.012 A 
HETATM    3  C3  UNL     1     -14.042  50.229 -41.234  1.00  0.00     0.036 A 
HETATM    4  C14 UNL     1     -14.324  51.216 -42.147  1.00  0.00     0.031 A 
HETATM    5  C15 UNL     1     -13.745  52.493 -42.111  1.00  0.00     0.027 A 
HETATM    6  C16 UNL     1     -12.836  52.789 -41.107  1.00  0.00     0.067 A 
HETATM    7  C17 UNL     1     -12.231  54.089 -41.050  1.00  0.00     0.101 C 
HETATM    8  N2  UNL     1     -11.737  55.135 -40.997  1.00  0.00    -0.191 NA
HETATM    9  C18 UNL     1     -12.527  51.824 -40.173  1.00  0.00     0.062 A 
HETATM   10 CL1  UNL     1     -11.378  52.227 -38.919  1.00  0.00    -0.082 Cl
ENDROOT
BRANCH   3  11
HETATM   11  N1  UNL     1     -14.590  48.936 -41.236  1.00  0.00    -0.380 N 
ATOM     12  H1  UNL     1     -15.433  48.828 -40.672  1.00  0.00     0.160 HD
BRANCH  11  13
HETATM   13  C4  UNL     1     -14.156  47.746 -41.900  1.00  0.00     0.031 C 
HETATM   14  C5  UNL     1     -12.881  47.887 -42.652  1.00  0.00     0.035 C 
HETATM   15  C6  UNL     1     -12.617  46.659 -43.511  1.00  0.00    -0.012 C 
HETATM   16  C7  UNL     1     -13.684  46.422 -44.532  1.00  0.00     0.009 C 
HETATM   17  C11 UNL     1     -12.504  45.453 -42.624  1.00  0.00     0.009 C 
HETATM   18  C8  UNL     1     -14.983  46.250 -43.773  1.00  0.00    -0.012 C 
HETATM   19  C9  UNL     1     -14.929  45.037 -42.901  1.00  0.00     0.009 C 
HETATM   20  C13 UNL     1     -15.246  47.466 -42.973  1.00  0.00     0.035 C 
HETATM   21  C10 UNL     1     -13.812  45.297 -41.885  1.00  0.00    -0.012 C 
HETATM   22  C12 UNL     1     -14.142  46.517 -41.051  1.00  0.00     0.035 C 
ENDBRANCH  11  13
ENDBRANCH   3  11
TORSDOF 2
ENDMDL
