MODEL 1
REMARK VINA RESULT: -6.814688913      0.000      0.000
REMARK  7 active torsions:
REMARK  status: ('A' for Active; 'I' for Inactive)
REMARK    1  A    between atoms: N1_4  and  C4_5 
REMARK    2  A    between atoms: C4_5  and  N2_7 
REMARK    3  A    between atoms: N2_7  and  C5_9 
REMARK    4  A    between atoms: N3_17  and  C14_19 
REMARK    5  A    between atoms: C14_19  and  C15_20 
REMARK    6  A    between atoms: C15_20  and  C16_21 
REMARK    7  A    between atoms: C16_21  and  C17_22 
ROOT
HETATM    1  C17 UNL     1      -3.106  13.587   3.209  1.00  0.00     0.124 C 
HETATM    2  C18 UNL     1      -3.337  12.619   2.168  1.00  0.00     0.059 C 
HETATM    3  N4  UNL     1      -3.504  11.841   1.328  1.00  0.00    -0.197 NA
ENDROOT
BRANCH   1   4
HETATM    4  C16 UNL     1      -3.105  12.976   4.588  1.00  0.00     0.016 C 
BRANCH   4   5
HETATM    5  C15 UNL     1      -4.280  13.428   5.418  1.00  0.00     0.029 C 
BRANCH   5   6
HETATM    6  C14 UNL     1      -3.737  14.252   6.557  1.00  0.00     0.237 C 
BRANCH   6   7
HETATM    7  N3  UNL     1      -4.665  15.254   7.038  1.00  0.00    -0.064 N 
HETATM    8  C2  UNL     1      -3.941  16.446   7.407  1.00  0.00     0.204 C 
HETATM    9  C1  UNL     1      -3.035  16.990   6.362  1.00  0.00     0.042 C 
HETATM   10  C3  UNL     1      -4.962  17.519   7.817  1.00  0.00     0.158 C 
HETATM   11  N1  UNL     1      -5.652  17.883   6.596  1.00  0.00    -0.355 N 
HETATM   12  C11 UNL     1      -5.954  16.845   5.660  1.00  0.00     0.153 C 
HETATM   13  C12 UNL     1      -5.656  15.458   6.044  1.00  0.00     0.257 C 
HETATM   14  C13 UNL     1      -5.268  14.737   8.265  1.00  0.00     0.273 C 
BRANCH  11  15
HETATM   15  C4  UNL     1      -6.042  19.203   6.288  1.00  0.00     0.170 C 
HETATM   16  S1  UNL     1      -4.969  20.411   6.431  1.00  0.00    -0.041 SA
BRANCH  15  17
HETATM   17  N2  UNL     1      -7.354  19.508   5.855  1.00  0.00    -0.363 N 
ATOM     18  H2  UNL     1      -7.483  19.909   4.926  1.00  0.00     0.162 HD
BRANCH  17  19
HETATM   19  C5  UNL     1      -8.523  19.271   6.685  1.00  0.00     0.083 C 
HETATM   20  C6  UNL     1      -9.157  20.563   7.136  1.00  0.00     0.025 C 
HETATM   21  C7  UNL     1      -9.941  21.189   6.020  1.00  0.00     0.002 C 
HETATM   22  C8  UNL     1     -11.038  20.271   5.592  1.00  0.00     0.000 C 
HETATM   23  C9  UNL     1     -10.912  18.918   6.281  1.00  0.00     0.002 C 
HETATM   24  C10 UNL     1      -9.526  18.357   6.062  1.00  0.00     0.025 C 
ENDBRANCH  17  19
ENDBRANCH  15  17
ENDBRANCH  11  15
ENDBRANCH   6   7
ENDBRANCH   5   6
ENDBRANCH   4   5
ENDBRANCH   1   4
TORSDOF 7
ENDMDL
MODEL 2
REMARK VINA RESULT: -6.689967774      2.361      3.767
REMARK  7 active torsions:
REMARK  status: ('A' for Active; 'I' for Inactive)
REMARK    1  A    between atoms: N1_4  and  C4_5 
REMARK    2  A    between atoms: C4_5  and  N2_7 
REMARK    3  A    between atoms: N2_7  and  C5_9 
REMARK    4  A    between atoms: N3_17  and  C14_19 
REMARK    5  A    between atoms: C14_19  and  C15_20 
REMARK    6  A    between atoms: C15_20  and  C16_21 
REMARK    7  A    between atoms: C16_21  and  C17_22 
ROOT
HETATM    1  C17 UNL     1      -2.601  11.564   9.960  1.00  0.00     0.124 C 
HETATM    2  C18 UNL     1      -3.783  10.989  10.548  1.00  0.00     0.059 C 
HETATM    3  N4  UNL     1      -4.734  10.541  11.032  1.00  0.00    -0.197 NA
ENDROOT
BRANCH   1   4
HETATM    4  C16 UNL     1      -2.865  12.199   8.618  1.00  0.00     0.016 C 
BRANCH   4   5
HETATM    5  C15 UNL     1      -4.084  13.086   8.630  1.00  0.00     0.029 C 
BRANCH   5   6
HETATM    6  C14 UNL     1      -3.812  14.241   7.700  1.00  0.00     0.237 C 
BRANCH   6   7
HETATM    7  N3  UNL     1      -4.983  14.685   6.973  1.00  0.00    -0.064 N 
HETATM    8  C2  UNL     1      -5.920  15.289   7.889  1.00  0.00     0.204 C 
HETATM    9  C1  UNL     1      -5.364  16.366   8.750  1.00  0.00     0.042 C 
HETATM   10  C3  UNL     1      -7.102  15.836   7.073  1.00  0.00     0.158 C 
HETATM   11  N1  UNL     1      -6.568  16.953   6.319  1.00  0.00    -0.355 N 
HETATM   12  C11 UNL     1      -5.248  16.831   5.782  1.00  0.00     0.153 C 
HETATM   13  C12 UNL     1      -4.559  15.540   5.924  1.00  0.00     0.257 C 
HETATM   14  C13 UNL     1      -5.638  13.495   6.432  1.00  0.00     0.273 C 
BRANCH  11  15
HETATM   15  C4  UNL     1      -7.283  18.146   6.085  1.00  0.00     0.170 C 
HETATM   16  S1  UNL     1      -6.478  19.547   5.940  1.00  0.00    -0.041 SA
BRANCH  15  17
HETATM   17  N2  UNL     1      -8.692  18.158   5.973  1.00  0.00    -0.363 N 
ATOM     18  H2  UNL     1      -9.206  17.296   6.154  1.00  0.00     0.162 HD
BRANCH  17  19
HETATM   19  C5  UNL     1      -9.435  19.353   5.608  1.00  0.00     0.083 C 
HETATM   20  C6  UNL     1     -10.426  19.077   4.506  1.00  0.00     0.025 C 
HETATM   21  C7  UNL     1     -11.632  18.359   5.041  1.00  0.00     0.002 C 
HETATM   22  C8  UNL     1     -12.315  19.206   6.064  1.00  0.00     0.000 C 
HETATM   23  C9  UNL     1     -11.485  20.443   6.384  1.00  0.00     0.002 C 
HETATM   24  C10 UNL     1     -10.082  20.035   6.767  1.00  0.00     0.025 C 
ENDBRANCH  17  19
ENDBRANCH  15  17
ENDBRANCH  11  15
ENDBRANCH   6   7
ENDBRANCH   5   6
ENDBRANCH   4   5
ENDBRANCH   1   4
TORSDOF 7
ENDMDL
MODEL 3
REMARK VINA RESULT: -6.669825931      2.768      7.073
REMARK  7 active torsions:
REMARK  status: ('A' for Active; 'I' for Inactive)
REMARK    1  A    between atoms: N1_4  and  C4_5 
REMARK    2  A    between atoms: C4_5  and  N2_7 
REMARK    3  A    between atoms: N2_7  and  C5_9 
REMARK    4  A    between atoms: N3_17  and  C14_19 
REMARK    5  A    between atoms: C14_19  and  C15_20 
REMARK    6  A    between atoms: C15_20  and  C16_21 
REMARK    7  A    between atoms: C16_21  and  C17_22 
ROOT
HETATM    1  C17 UNL     1     -11.678  16.989   5.997  1.00  0.00     0.124 C 
HETATM    2  C18 UNL     1     -12.051  15.673   5.546  1.00  0.00     0.059 C 
HETATM    3  N4  UNL     1     -12.356  14.611   5.203  1.00  0.00    -0.197 NA
ENDROOT
BRANCH   1   4
HETATM    4  C16 UNL     1     -12.694  18.042   5.634  1.00  0.00     0.016 C 
BRANCH   4   5
HETATM    5  C15 UNL     1     -12.052  19.331   5.187  1.00  0.00     0.029 C 
BRANCH   5   6
HETATM    6  C14 UNL     1     -11.493  20.005   6.414  1.00  0.00     0.237 C 
BRANCH   6   7
HETATM    7  N3  UNL     1     -10.154  20.526   6.226  1.00  0.00    -0.064 N 
HETATM    8  C2  UNL     1      -9.406  20.388   7.452  1.00  0.00     0.204 C 
HETATM    9  C1  UNL     1      -9.390  19.021   8.038  1.00  0.00     0.042 C 
HETATM   10  C3  UNL     1      -7.966  20.856   7.189  1.00  0.00     0.158 C 
HETATM   11  N1  UNL     1      -7.391  19.862   6.306  1.00  0.00    -0.355 N 
HETATM   12  C11 UNL     1      -8.224  19.311   5.282  1.00  0.00     0.153 C 
HETATM   13  C12 UNL     1      -9.573  19.869   5.111  1.00  0.00     0.257 C 
HETATM   14  C13 UNL     1     -10.276  21.960   5.972  1.00  0.00     0.273 C 
BRANCH  11  15
HETATM   15  C4  UNL     1      -6.056  19.417   6.401  1.00  0.00     0.170 C 
HETATM   16  S1  UNL     1      -4.854  20.501   6.500  1.00  0.00    -0.041 SA
BRANCH  15  17
HETATM   17  N2  UNL     1      -5.731  18.040   6.412  1.00  0.00    -0.363 N 
ATOM     18  H2  UNL     1      -5.203  17.654   5.630  1.00  0.00     0.162 HD
BRANCH  17  19
HETATM   19  C5  UNL     1      -6.125  17.156   7.497  1.00  0.00     0.083 C 
HETATM   20  C6  UNL     1      -7.036  16.056   7.015  1.00  0.00     0.025 C 
HETATM   21  C7  UNL     1      -6.255  14.997   6.290  1.00  0.00     0.002 C 
HETATM   22  C8  UNL     1      -5.252  14.385   7.211  1.00  0.00     0.000 C 
HETATM   23  C9  UNL     1      -5.199  15.141   8.533  1.00  0.00     0.002 C 
HETATM   24  C10 UNL     1      -4.973  16.612   8.275  1.00  0.00     0.025 C 
ENDBRANCH  17  19
ENDBRANCH  15  17
ENDBRANCH  11  15
ENDBRANCH   6   7
ENDBRANCH   5   6
ENDBRANCH   4   5
ENDBRANCH   1   4
TORSDOF 7
ENDMDL
MODEL 4
REMARK VINA RESULT: -6.638654369      3.216      7.447
REMARK  7 active torsions:
REMARK  status: ('A' for Active; 'I' for Inactive)
REMARK    1  A    between atoms: N1_4  and  C4_5 
REMARK    2  A    between atoms: C4_5  and  N2_7 
REMARK    3  A    between atoms: N2_7  and  C5_9 
REMARK    4  A    between atoms: N3_17  and  C14_19 
REMARK    5  A    between atoms: C14_19  and  C15_20 
REMARK    6  A    between atoms: C15_20  and  C16_21 
REMARK    7  A    between atoms: C16_21  and  C17_22 
ROOT
HETATM    1  C17 UNL     1     -13.359  15.862   5.397  1.00  0.00     0.124 C 
HETATM    2  C18 UNL     1     -14.331  16.924   5.363  1.00  0.00     0.059 C 
HETATM    3  N4  UNL     1     -15.121  17.769   5.351  1.00  0.00    -0.197 NA
ENDROOT
BRANCH   1   4
HETATM    4  C16 UNL     1     -12.035  16.298   5.972  1.00  0.00     0.016 C 
BRANCH   4   5
HETATM    5  C15 UNL     1     -11.494  17.533   5.298  1.00  0.00     0.029 C 
BRANCH   5   6
HETATM    6  C14 UNL     1     -11.236  18.558   6.373  1.00  0.00     0.237 C 
BRANCH   6   7
HETATM    7  N3  UNL     1     -10.291  19.582   5.979  1.00  0.00    -0.064 N 
HETATM    8  C2  UNL     1      -9.805  20.269   7.152  1.00  0.00     0.204 C 
HETATM    9  C1  UNL     1      -9.257  19.393   8.221  1.00  0.00     0.042 C 
HETATM   10  C3  UNL     1      -8.734  21.277   6.707  1.00  0.00     0.158 C 
HETATM   11  N1  UNL     1      -7.608  20.478   6.270  1.00  0.00    -0.355 N 
HETATM   12  C11 UNL     1      -7.879  19.271   5.552  1.00  0.00     0.153 C 
HETATM   13  C12 UNL     1      -9.275  18.974   5.198  1.00  0.00     0.257 C 
HETATM   14  C13 UNL     1     -11.023  20.571   5.190  1.00  0.00     0.273 C 
BRANCH  11  15
HETATM   15  C4  UNL     1      -6.263  20.830   6.511  1.00  0.00     0.170 C 
HETATM   16  S1  UNL     1      -5.921  22.254   7.208  1.00  0.00    -0.041 SA
BRANCH  15  17
HETATM   17  N2  UNL     1      -5.196  19.972   6.159  1.00  0.00    -0.363 N 
ATOM     18  H2  UNL     1      -4.973  19.846   5.172  1.00  0.00     0.162 HD
BRANCH  17  19
HETATM   19  C5  UNL     1      -4.406  19.263   7.152  1.00  0.00     0.083 C 
HETATM   20  C6  UNL     1      -5.042  17.951   7.535  1.00  0.00     0.025 C 
HETATM   21  C7  UNL     1      -4.821  16.920   6.465  1.00  0.00     0.002 C 
HETATM   22  C8  UNL     1      -3.359  16.680   6.285  1.00  0.00     0.000 C 
HETATM   23  C9  UNL     1      -2.543  17.677   7.097  1.00  0.00     0.002 C 
HETATM   24  C10 UNL     1      -2.975  19.086   6.766  1.00  0.00     0.025 C 
ENDBRANCH  17  19
ENDBRANCH  15  17
ENDBRANCH  11  15
ENDBRANCH   6   7
ENDBRANCH   5   6
ENDBRANCH   4   5
ENDBRANCH   1   4
TORSDOF 7
ENDMDL
MODEL 5
REMARK VINA RESULT: -6.572799058      1.653      2.340
REMARK  7 active torsions:
REMARK  status: ('A' for Active; 'I' for Inactive)
REMARK    1  A    between atoms: N1_4  and  C4_5 
REMARK    2  A    between atoms: C4_5  and  N2_7 
REMARK    3  A    between atoms: N2_7  and  C5_9 
REMARK    4  A    between atoms: N3_17  and  C14_19 
REMARK    5  A    between atoms: C14_19  and  C15_20 
REMARK    6  A    between atoms: C15_20  and  C16_21 
REMARK    7  A    between atoms: C16_21  and  C17_22 
ROOT
HETATM    1  C17 UNL     1      -1.637  13.359   6.244  1.00  0.00     0.124 C 
HETATM    2  C18 UNL     1      -2.225  12.894   5.015  1.00  0.00     0.059 C 
HETATM    3  N4  UNL     1      -2.682  12.511   4.023  1.00  0.00    -0.197 NA
ENDROOT
BRANCH   1   4
HETATM    4  C16 UNL     1      -2.162  12.632   7.457  1.00  0.00     0.016 C 
BRANCH   4   5
HETATM    5  C15 UNL     1      -3.651  12.801   7.628  1.00  0.00     0.029 C 
BRANCH   5   6
HETATM    6  C14 UNL     1      -3.925  14.277   7.763  1.00  0.00     0.237 C 
BRANCH   6   7
HETATM    7  N3  UNL     1      -5.072  14.723   6.999  1.00  0.00    -0.064 N 
HETATM    8  C2  UNL     1      -6.044  15.314   7.887  1.00  0.00     0.204 C 
HETATM    9  C1  UNL     1      -5.524  16.383   8.779  1.00  0.00     0.042 C 
HETATM   10  C3  UNL     1      -7.198  15.864   7.035  1.00  0.00     0.158 C 
HETATM   11  N1  UNL     1      -6.644  16.990   6.312  1.00  0.00    -0.355 N 
HETATM   12  C11 UNL     1      -5.304  16.880   5.822  1.00  0.00     0.153 C 
HETATM   13  C12 UNL     1      -4.615  15.591   5.975  1.00  0.00     0.257 C 
HETATM   14  C13 UNL     1      -5.701  13.536   6.423  1.00  0.00     0.273 C 
BRANCH  11  15
HETATM   15  C4  UNL     1      -7.356  18.183   6.065  1.00  0.00     0.170 C 
HETATM   16  S1  UNL     1      -6.546  19.576   5.881  1.00  0.00    -0.041 SA
BRANCH  15  17
HETATM   17  N2  UNL     1      -8.767  18.200   5.973  1.00  0.00    -0.363 N 
ATOM     18  H2  UNL     1      -9.282  17.343   6.176  1.00  0.00     0.162 HD
BRANCH  17  19
HETATM   19  C5  UNL     1      -9.509  19.392   5.598  1.00  0.00     0.083 C 
HETATM   20  C6  UNL     1     -10.497  19.109   4.495  1.00  0.00     0.025 C 
HETATM   21  C7  UNL     1     -11.703  18.395   5.031  1.00  0.00     0.002 C 
HETATM   22  C8  UNL     1     -12.390  19.247   6.047  1.00  0.00     0.000 C 
HETATM   23  C9  UNL     1     -11.561  20.486   6.362  1.00  0.00     0.002 C 
HETATM   24  C10 UNL     1     -10.159  20.081   6.752  1.00  0.00     0.025 C 
ENDBRANCH  17  19
ENDBRANCH  15  17
ENDBRANCH  11  15
ENDBRANCH   6   7
ENDBRANCH   5   6
ENDBRANCH   4   5
ENDBRANCH   1   4
TORSDOF 7
ENDMDL
