MODEL 1
REMARK VINA RESULT: -7.334714522      0.000      0.000
REMARK  6 active torsions:
REMARK  status: ('A' for Active; 'I' for Inactive)
REMARK       I    between atoms: N1_2  and  C2_4 
REMARK    1  A    between atoms: C2_4  and  C3_6 
REMARK    2  A    between atoms: C3_6  and  C4_7 
REMARK    3  A    between atoms: C4_7  and  C5_8 
REMARK    4  A    between atoms: N2_11  and  C8_13 
REMARK    5  A    between atoms: C8_13  and  C14_22 
REMARK       I    between atoms: N3_14  and  C9_16 
REMARK    6  A    between atoms: C9_16  and  C10_18 
ROOT
HETATM    1  C8  UNL     1      -6.366  18.134   6.824  1.00  0.00     0.088 C 
HETATM    2  N3  UNL     1      -7.435  18.725   6.757  1.00  0.00    -0.316 N 
ATOM      3  H3  UNL     1      -7.174  19.693   6.568  1.00  0.00     0.170 HD
HETATM    4  C9  UNL     1      -8.780  18.750   6.805  1.00  0.00     0.227 C 
HETATM    5  O2  UNL     1      -9.330  18.961   7.961  1.00  0.00    -0.273 OA
ENDROOT
BRANCH   1   6
HETATM    6  N2  UNL     1      -5.150  18.798   6.652  1.00  0.00    -0.344 N 
HETATM    7  C3  UNL     1      -4.622  19.892   6.599  1.00  0.00     0.079 C 
ATOM      8  H2  UNL     1      -4.424  18.094   6.523  1.00  0.00     0.167 HD
BRANCH   7   9
HETATM    9  C2  UNL     1      -5.228  21.185   6.725  1.00  0.00     0.263 C 
HETATM   10  N1  UNL     1      -4.795  22.295   7.473  1.00  0.00    -0.360 N 
HETATM   11  C1  UNL     1      -5.507  23.558   7.524  1.00  0.00     0.149 C 
ATOM     12  H1  UNL     1      -3.932  22.207   8.010  1.00  0.00     0.162 HD
HETATM   13  O1  UNL     1      -6.326  21.393   6.075  1.00  0.00    -0.266 OA
ENDBRANCH   7   9
BRANCH   7  14
HETATM   14  C4  UNL     1      -3.112  19.883   6.379  1.00  0.00     0.067 C 
BRANCH  14  15
HETATM   15  C5  UNL     1      -2.444  18.697   6.971  1.00  0.00    -0.017 C 
HETATM   16  C6  UNL     1      -1.211  19.237   7.718  1.00  0.00     0.010 C 
HETATM   17  C7  UNL     1      -1.888  17.751   5.926  1.00  0.00     0.010 C 
ENDBRANCH  14  15
ENDBRANCH   7  14
ENDBRANCH   1   6
BRANCH   1  18
HETATM   18  C14 UNL     1      -6.300  16.643   7.070  1.00  0.00     0.053 C 
HETATM   19  C15 UNL     1      -5.332  16.267   8.138  1.00  0.00     0.012 C 
HETATM   20  C16 UNL     1      -5.346  14.743   8.292  1.00  0.00     0.001 C 
HETATM   21  C17 UNL     1      -4.877  14.142   7.011  1.00  0.00     0.000 C 
HETATM   22  C18 UNL     1      -5.831  14.488   5.886  1.00  0.00     0.001 C 
HETATM   23  C19 UNL     1      -6.013  15.982   5.756  1.00  0.00     0.012 C 
ENDBRANCH   1  18
BRANCH   4  24
HETATM   24  C10 UNL     1      -9.713  18.561   5.649  1.00  0.00     0.082 A 
HETATM   25  C11 UNL     1     -11.194  18.663   5.883  1.00  0.00     0.019 A 
HETATM   26  C12 UNL     1     -10.418  19.683   5.037  1.00  0.00    -0.005 A 
HETATM   27  C13 UNL     1     -10.436  21.064   5.590  1.00  0.00     0.011 C 
ENDBRANCH   4  24
TORSDOF 6
ENDMDL
MODEL 2
REMARK VINA RESULT: -7.030310848      2.151      6.372
REMARK  6 active torsions:
REMARK  status: ('A' for Active; 'I' for Inactive)
REMARK       I    between atoms: N1_2  and  C2_4 
REMARK    1  A    between atoms: C2_4  and  C3_6 
REMARK    2  A    between atoms: C3_6  and  C4_7 
REMARK    3  A    between atoms: C4_7  and  C5_8 
REMARK    4  A    between atoms: N2_11  and  C8_13 
REMARK    5  A    between atoms: C8_13  and  C14_22 
REMARK       I    between atoms: N3_14  and  C9_16 
REMARK    6  A    between atoms: C9_16  and  C10_18 
ROOT
HETATM    1  C8  UNL     1      -7.526  17.416   6.280  1.00  0.00     0.088 C 
HETATM    2  N3  UNL     1      -7.229  16.230   6.319  1.00  0.00    -0.316 N 
ATOM      3  H3  UNL     1      -8.062  15.752   5.976  1.00  0.00     0.170 HD
HETATM    4  C9  UNL     1      -6.364  15.233   6.584  1.00  0.00     0.227 C 
HETATM    5  O2  UNL     1      -6.381  14.732   7.781  1.00  0.00    -0.273 OA
ENDROOT
BRANCH   1   6
HETATM    6  N2  UNL     1      -8.777  17.844   5.834  1.00  0.00    -0.344 N 
HETATM    7  C3  UNL     1      -9.595  18.741   5.900  1.00  0.00     0.079 C 
ATOM      8  H2  UNL     1      -9.149  17.127   5.211  1.00  0.00     0.167 HD
BRANCH   7   9
HETATM    9  C2  UNL     1      -9.526  19.962   6.647  1.00  0.00     0.263 C 
HETATM   10  N1  UNL     1      -9.378  21.280   6.176  1.00  0.00    -0.360 N 
HETATM   11  C1  UNL     1      -9.314  22.442   7.042  1.00  0.00     0.149 C 
ATOM     12  H1  UNL     1      -9.312  21.426   5.168  1.00  0.00     0.162 HD
HETATM   13  O1  UNL     1      -9.605  19.876   7.934  1.00  0.00    -0.266 OA
ENDBRANCH   7   9
BRANCH   7  14
HETATM   14  C4  UNL     1     -10.858  18.541   5.067  1.00  0.00     0.067 C 
BRANCH  14  15
HETATM   15  C5  UNL     1     -12.045  18.183   5.883  1.00  0.00    -0.017 C 
HETATM   16  C6  UNL     1     -12.310  16.691   5.609  1.00  0.00     0.010 C 
HETATM   17  C7  UNL     1     -13.305  18.895   5.434  1.00  0.00     0.010 C 
ENDBRANCH  14  15
ENDBRANCH   7  14
ENDBRANCH   1   6
BRANCH   1  18
HETATM   18  C14 UNL     1      -6.543  18.492   6.690  1.00  0.00     0.053 C 
HETATM   19  C15 UNL     1      -6.224  19.444   5.589  1.00  0.00     0.012 C 
HETATM   20  C16 UNL     1      -5.221  20.474   6.115  1.00  0.00     0.001 C 
HETATM   21  C17 UNL     1      -3.967  19.758   6.483  1.00  0.00     0.000 C 
HETATM   22  C18 UNL     1      -4.232  18.777   7.608  1.00  0.00     0.001 C 
HETATM   23  C19 UNL     1      -5.332  17.806   7.245  1.00  0.00     0.012 C 
ENDBRANCH   1  18
BRANCH   4  24
HETATM   24  C10 UNL     1      -5.377  14.636   5.628  1.00  0.00     0.082 A 
HETATM   25  C11 UNL     1      -4.224  15.473   5.152  1.00  0.00     0.019 A 
HETATM   26  C12 UNL     1      -4.037  14.242   6.050  1.00  0.00    -0.005 A 
HETATM   27  C13 UNL     1      -3.454  14.550   7.384  1.00  0.00     0.011 C 
ENDBRANCH   4  24
TORSDOF 6
ENDMDL
MODEL 3
REMARK VINA RESULT: -6.986432814      3.172      7.779
REMARK  6 active torsions:
REMARK  status: ('A' for Active; 'I' for Inactive)
REMARK       I    between atoms: N1_2  and  C2_4 
REMARK    1  A    between atoms: C2_4  and  C3_6 
REMARK    2  A    between atoms: C3_6  and  C4_7 
REMARK    3  A    between atoms: C4_7  and  C5_8 
REMARK    4  A    between atoms: N2_11  and  C8_13 
REMARK    5  A    between atoms: C8_13  and  C14_22 
REMARK       I    between atoms: N3_14  and  C9_16 
REMARK    6  A    between atoms: C9_16  and  C10_18 
ROOT
HETATM    1  C8  UNL     1      -9.081  17.732   6.518  1.00  0.00     0.088 C 
HETATM    2  N3  UNL     1      -8.271  16.815   6.479  1.00  0.00    -0.316 N 
ATOM      3  H3  UNL     1      -8.789  16.041   6.063  1.00  0.00     0.170 HD
HETATM    4  C9  UNL     1      -7.045  16.307   6.704  1.00  0.00     0.227 C 
HETATM    5  O2  UNL     1      -6.834  15.750   7.857  1.00  0.00    -0.273 OA
ENDROOT
BRANCH   1   6
HETATM    6  N2  UNL     1     -10.387  17.575   6.051  1.00  0.00    -0.344 N 
HETATM    7  C3  UNL     1     -11.334  16.814   6.006  1.00  0.00     0.079 C 
ATOM      8  H2  UNL     1     -10.647  18.428   5.556  1.00  0.00     0.167 HD
BRANCH   7   9
HETATM    9  C2  UNL     1     -11.450  15.496   6.556  1.00  0.00     0.263 C 
HETATM   10  N1  UNL     1     -12.442  14.979   7.411  1.00  0.00    -0.360 N 
HETATM   11  C1  UNL     1     -12.444  13.616   7.908  1.00  0.00     0.149 C 
ATOM     12  H1  UNL     1     -13.201  15.597   7.696  1.00  0.00     0.162 HD
HETATM   13  O1  UNL     1     -10.533  14.640   6.246  1.00  0.00    -0.266 OA
ENDBRANCH   7   9
BRANCH   7  14
HETATM   14  C4  UNL     1     -12.565  17.341   5.275  1.00  0.00     0.067 C 
BRANCH  14  15
HETATM   15  C5  UNL     1     -12.851  18.769   5.568  1.00  0.00    -0.017 C 
HETATM   16  C6  UNL     1     -14.380  18.921   5.468  1.00  0.00     0.010 C 
HETATM   17  C7  UNL     1     -12.293  19.709   4.520  1.00  0.00     0.010 C 
ENDBRANCH  14  15
ENDBRANCH   7  14
ENDBRANCH   1   6
BRANCH   1  18
HETATM   18  C14 UNL     1      -8.706  19.097   7.052  1.00  0.00     0.053 C 
HETATM   19  C15 UNL     1      -9.886  19.957   7.344  1.00  0.00     0.012 C 
HETATM   20  C16 UNL     1      -9.387  21.306   7.867  1.00  0.00     0.001 C 
HETATM   21  C17 UNL     1      -8.596  21.960   6.786  1.00  0.00     0.000 C 
HETATM   22  C18 UNL     1      -7.374  21.129   6.451  1.00  0.00     0.001 C 
HETATM   23  C19 UNL     1      -7.755  19.716   6.074  1.00  0.00     0.012 C 
ENDBRANCH   1  18
BRANCH   4  24
HETATM   24  C10 UNL     1      -5.891  16.317   5.750  1.00  0.00     0.082 A 
HETATM   25  C11 UNL     1      -4.583  15.716   6.180  1.00  0.00     0.019 A 
HETATM   26  C12 UNL     1      -5.446  15.106   5.067  1.00  0.00    -0.005 A 
HETATM   27  C13 UNL     1      -5.948  13.739   5.373  1.00  0.00     0.011 C 
ENDBRANCH   4  24
TORSDOF 6
ENDMDL
MODEL 4
REMARK VINA RESULT: -6.983264958      1.576      5.052
REMARK  6 active torsions:
REMARK  status: ('A' for Active; 'I' for Inactive)
REMARK       I    between atoms: N1_2  and  C2_4 
REMARK    1  A    between atoms: C2_4  and  C3_6 
REMARK    2  A    between atoms: C3_6  and  C4_7 
REMARK    3  A    between atoms: C4_7  and  C5_8 
REMARK    4  A    between atoms: N2_11  and  C8_13 
REMARK    5  A    between atoms: C8_13  and  C14_22 
REMARK       I    between atoms: N3_14  and  C9_16 
REMARK    6  A    between atoms: C9_16  and  C10_18 
ROOT
HETATM    1  C8  UNL     1      -8.690  19.161   6.255  1.00  0.00     0.088 C 
HETATM    2  N3  UNL     1      -8.574  20.170   6.937  1.00  0.00    -0.316 N 
ATOM      3  H3  UNL     1      -7.636  20.099   7.332  1.00  0.00     0.170 HD
HETATM    4  C9  UNL     1      -9.053  21.326   7.434  1.00  0.00     0.227 C 
HETATM    5  O2  UNL     1      -9.697  21.269   8.559  1.00  0.00    -0.273 OA
ENDROOT
BRANCH   1   6
HETATM    6  N2  UNL     1      -7.660  18.225   6.151  1.00  0.00    -0.344 N 
HETATM    7  C3  UNL     1      -6.457  18.069   6.228  1.00  0.00     0.079 C 
ATOM      8  H2  UNL     1      -8.078  17.323   5.924  1.00  0.00     0.167 HD
BRANCH   7   9
HETATM    9  C2  UNL     1      -5.446  19.041   6.525  1.00  0.00     0.263 C 
HETATM   10  N1  UNL     1      -4.250  18.880   7.250  1.00  0.00    -0.360 N 
HETATM   11  C1  UNL     1      -3.303  19.953   7.488  1.00  0.00     0.149 C 
ATOM     12  H1  UNL     1      -4.037  17.957   7.629  1.00  0.00     0.162 HD
HETATM   13  O1  UNL     1      -5.627  20.241   6.081  1.00  0.00    -0.266 OA
ENDBRANCH   7   9
BRANCH   7  14
HETATM   14  C4  UNL     1      -5.962  16.646   5.988  1.00  0.00     0.067 C 
BRANCH  14  15
HETATM   15  C5  UNL     1      -6.535  15.661   6.939  1.00  0.00    -0.017 C 
HETATM   16  C6  UNL     1      -5.720  15.805   8.237  1.00  0.00     0.010 C 
HETATM   17  C7  UNL     1      -6.325  14.226   6.501  1.00  0.00     0.010 C 
ENDBRANCH  14  15
ENDBRANCH   7  14
ENDBRANCH   1   6
BRANCH   1  18
HETATM   18  C14 UNL     1      -9.948  18.883   5.461  1.00  0.00     0.053 C 
HETATM   19  C15 UNL     1     -10.652  20.121   5.026  1.00  0.00     0.012 C 
HETATM   20  C16 UNL     1     -11.906  19.717   4.244  1.00  0.00     0.001 C 
HETATM   21  C17 UNL     1     -12.809  18.972   5.167  1.00  0.00     0.000 C 
HETATM   22  C18 UNL     1     -12.144  17.695   5.638  1.00  0.00     0.001 C 
HETATM   23  C19 UNL     1     -10.808  17.976   6.287  1.00  0.00     0.012 C 
ENDBRANCH   1  18
BRANCH   4  24
HETATM   24  C10 UNL     1      -8.912  22.683   6.816  1.00  0.00     0.082 A 
HETATM   25  C11 UNL     1      -9.054  23.899   7.687  1.00  0.00     0.019 A 
HETATM   26  C12 UNL     1      -7.725  23.506   7.026  1.00  0.00    -0.005 A 
HETATM   27  C13 UNL     1      -6.642  23.183   7.993  1.00  0.00     0.011 C 
ENDBRANCH   4  24
TORSDOF 6
ENDMDL
MODEL 5
REMARK VINA RESULT: -6.957280516      1.860      5.623
REMARK  6 active torsions:
REMARK  status: ('A' for Active; 'I' for Inactive)
REMARK       I    between atoms: N1_2  and  C2_4 
REMARK    1  A    between atoms: C2_4  and  C3_6 
REMARK    2  A    between atoms: C3_6  and  C4_7 
REMARK    3  A    between atoms: C4_7  and  C5_8 
REMARK    4  A    between atoms: N2_11  and  C8_13 
REMARK    5  A    between atoms: C8_13  and  C14_22 
REMARK       I    between atoms: N3_14  and  C9_16 
REMARK    6  A    between atoms: C9_16  and  C10_18 
ROOT
HETATM    1  C8  UNL     1      -7.685  19.521   6.169  1.00  0.00     0.088 C 
HETATM    2  N3  UNL     1      -6.920  18.587   6.371  1.00  0.00    -0.316 N 
ATOM      3  H3  UNL     1      -6.099  19.024   6.790  1.00  0.00     0.170 HD
HETATM    4  C9  UNL     1      -6.610  17.278   6.324  1.00  0.00     0.227 C 
HETATM    5  O2  UNL     1      -6.024  16.844   5.251  1.00  0.00    -0.273 OA
ENDROOT
BRANCH   1   6
HETATM    6  N2  UNL     1      -7.344  20.833   6.501  1.00  0.00    -0.344 N 
HETATM    7  C3  UNL     1      -6.421  21.567   6.797  1.00  0.00     0.079 C 
ATOM      8  H2  UNL     1      -8.197  21.390   6.493  1.00  0.00     0.167 HD
BRANCH   7   9
HETATM    9  C2  UNL     1      -5.031  21.247   6.936  1.00  0.00     0.263 C 
HETATM   10  N1  UNL     1      -4.131  21.633   7.947  1.00  0.00    -0.360 N 
HETATM   11  C1  UNL     1      -2.734  21.244   7.972  1.00  0.00     0.149 C 
ATOM     12  H1  UNL     1      -4.482  22.220   8.705  1.00  0.00     0.162 HD
HETATM   13  O1  UNL     1      -4.498  20.503   6.023  1.00  0.00    -0.266 OA
ENDBRANCH   7   9
BRANCH   7  14
HETATM   14  C4  UNL     1      -6.795  23.026   7.039  1.00  0.00     0.067 C 
BRANCH  14  15
HETATM   15  C5  UNL     1      -7.970  23.187   7.933  1.00  0.00    -0.017 C 
HETATM   16  C6  UNL     1      -9.077  23.815   7.065  1.00  0.00     0.010 C 
HETATM   17  C7  UNL     1      -7.731  24.183   9.048  1.00  0.00     0.010 C 
ENDBRANCH  14  15
ENDBRANCH   7  14
ENDBRANCH   1   6
BRANCH   1  18
HETATM   18  C14 UNL     1      -9.057  19.304   5.569  1.00  0.00     0.053 C 
HETATM   19  C15 UNL     1      -9.869  20.550   5.497  1.00  0.00     0.012 C 
HETATM   20  C16 UNL     1     -11.231  20.208   4.885  1.00  0.00     0.001 C 
HETATM   21  C17 UNL     1     -11.925  19.257   5.799  1.00  0.00     0.000 C 
HETATM   22  C18 UNL     1     -11.144  17.963   5.906  1.00  0.00     0.001 C 
HETATM   23  C19 UNL     1      -9.722  18.213   6.352  1.00  0.00     0.012 C 
ENDBRANCH   1  18
BRANCH   4  24
HETATM   24  C10 UNL     1      -6.871  16.265   7.396  1.00  0.00     0.082 A 
HETATM   25  C11 UNL     1      -6.527  14.825   7.138  1.00  0.00     0.019 A 
HETATM   26  C12 UNL     1      -5.789  15.677   8.180  1.00  0.00    -0.005 A 
HETATM   27  C13 UNL     1      -4.343  15.870   7.890  1.00  0.00     0.011 C 
ENDBRANCH   4  24
TORSDOF 6
ENDMDL
