MODEL 1
REMARK VINA RESULT: -8.094870878      0.000      0.000
REMARK  5 active torsions:
REMARK  status: ('A' for Active; 'I' for Inactive)
REMARK    1  A    between atoms: N1_2  and  C2_3 
REMARK    2  A    between atoms: N1_2  and  C14_18 
REMARK    3  A    between atoms: C2_3  and  C3_4 
REMARK       I    between atoms: C3_4  and  N2_6 
REMARK    4  A    between atoms: N2_6  and  C4_8 
REMARK    5  A    between atoms: C14_18  and  C15_19 
ROOT
HETATM    1  C15 UNL     1     -10.157  18.799   6.146  1.00  0.00     0.065 C 
HETATM    2  C16 UNL     1     -11.448  18.108   6.048  1.00  0.00     0.071 C 
HETATM    3  N3  UNL     1     -12.473  17.566   5.989  1.00  0.00    -0.196 NA
HETATM    4  C17 UNL     1     -10.091  19.396   7.537  1.00  0.00     0.026 C 
HETATM    5  C18 UNL     1      -9.804  20.873   7.380  1.00  0.00     0.002 C 
HETATM    6  C19 UNL     1     -10.574  21.177   6.089  1.00  0.00     0.002 C 
HETATM    7  C20 UNL     1     -10.108  20.007   5.239  1.00  0.00     0.026 C 
ENDROOT
BRANCH   1   8
HETATM    8  C14 UNL     1      -9.028  17.858   5.989  1.00  0.00     0.146 C 
BRANCH   8   9
HETATM    9  N1  UNL     1      -7.765  18.229   6.505  1.00  0.00    -0.388 N 
HETATM   10  C1  UNL     1      -6.866  18.867   5.635  1.00  0.00     0.149 C 
BRANCH   9  11
HETATM   11  C2  UNL     1      -7.224  17.427   7.526  1.00  0.00     0.160 C 
BRANCH  11  12
HETATM   12  C3  UNL     1      -6.471  16.228   7.093  1.00  0.00     0.257 C 
HETATM   13  O1  UNL     1      -7.082  15.182   6.847  1.00  0.00    -0.267 OA
HETATM   14  N2  UNL     1      -5.073  16.307   6.972  1.00  0.00    -0.347 N 
ATOM     15  H2  UNL     1      -4.653  17.210   7.194  1.00  0.00     0.163 HD
BRANCH  14  16
HETATM   16  C4  UNL     1      -4.171  15.272   6.575  1.00  0.00     0.034 C 
HETATM   17  C5  UNL     1      -4.510  14.802   5.199  1.00  0.00     0.035 C 
HETATM   18  C6  UNL     1      -3.520  13.749   4.746  1.00  0.00    -0.012 C 
HETATM   19  C7  UNL     1      -3.636  12.575   5.691  1.00  0.00     0.009 C 
HETATM   20  C11 UNL     1      -2.116  14.266   4.796  1.00  0.00     0.009 C 
HETATM   21  C8  UNL     1      -3.311  13.014   7.085  1.00  0.00    -0.012 C 
HETATM   22  C9  UNL     1      -1.874  13.513   7.114  1.00  0.00     0.009 C 
HETATM   23  C13 UNL     1      -4.170  14.130   7.579  1.00  0.00     0.035 C 
HETATM   24  C10 UNL     1      -1.780  14.699   6.213  1.00  0.00    -0.012 C 
HETATM   25  C12 UNL     1      -2.751  15.805   6.566  1.00  0.00     0.035 C 
ENDBRANCH  14  16
ENDBRANCH  11  12
ENDBRANCH   9  11
ENDBRANCH   8   9
ENDBRANCH   1   8
TORSDOF 5
ENDMDL
MODEL 2
REMARK VINA RESULT: -8.023227676      0.261      1.552
REMARK  5 active torsions:
REMARK  status: ('A' for Active; 'I' for Inactive)
REMARK    1  A    between atoms: N1_2  and  C2_3 
REMARK    2  A    between atoms: N1_2  and  C14_18 
REMARK    3  A    between atoms: C2_3  and  C3_4 
REMARK       I    between atoms: C3_4  and  N2_6 
REMARK    4  A    between atoms: N2_6  and  C4_8 
REMARK    5  A    between atoms: C14_18  and  C15_19 
ROOT
HETATM    1  C15 UNL     1     -10.017  18.876   6.182  1.00  0.00     0.065 C 
HETATM    2  C16 UNL     1     -11.302  18.176   6.091  1.00  0.00     0.071 C 
HETATM    3  N3  UNL     1     -12.324  17.628   6.038  1.00  0.00    -0.196 NA
HETATM    4  C17 UNL     1      -9.962  19.503   7.561  1.00  0.00     0.026 C 
HETATM    5  C18 UNL     1      -9.682  20.977   7.374  1.00  0.00     0.002 C 
HETATM    6  C19 UNL     1     -10.446  21.250   6.071  1.00  0.00     0.002 C 
HETATM    7  C20 UNL     1      -9.968  20.065   5.250  1.00  0.00     0.026 C 
ENDROOT
BRANCH   1   8
HETATM    8  C14 UNL     1      -8.881  17.938   6.052  1.00  0.00     0.146 C 
BRANCH   8   9
HETATM    9  N1  UNL     1      -7.649  18.284   6.654  1.00  0.00    -0.388 N 
HETATM   10  C1  UNL     1      -6.729  19.015   5.885  1.00  0.00     0.149 C 
BRANCH   9  11
HETATM   11  C2  UNL     1      -7.133  17.402   7.620  1.00  0.00     0.160 C 
BRANCH  11  12
HETATM   12  C3  UNL     1      -6.343  16.258   7.113  1.00  0.00     0.257 C 
HETATM   13  O1  UNL     1      -6.915  15.195   6.843  1.00  0.00    -0.267 OA
HETATM   14  N2  UNL     1      -4.955  16.405   6.951  1.00  0.00    -0.347 N 
ATOM     15  H2  UNL     1      -4.568  17.317   7.196  1.00  0.00     0.163 HD
BRANCH  14  16
HETATM   16  C4  UNL     1      -4.021  15.430   6.482  1.00  0.00     0.034 C 
HETATM   17  C5  UNL     1      -3.973  14.276   7.428  1.00  0.00     0.035 C 
HETATM   18  C6  UNL     1      -3.033  13.209   6.906  1.00  0.00    -0.012 C 
HETATM   19  C7  UNL     1      -1.651  13.816   6.828  1.00  0.00     0.009 C 
HETATM   20  C11 UNL     1      -3.433  12.753   5.538  1.00  0.00     0.009 C 
HETATM   21  C8  UNL     1      -1.665  14.985   5.892  1.00  0.00    -0.012 C 
HETATM   22  C9  UNL     1      -2.052  14.493   4.506  1.00  0.00     0.009 C 
HETATM   23  C13 UNL     1      -2.646  16.044   6.269  1.00  0.00     0.035 C 
HETATM   24  C10 UNL     1      -3.435  13.936   4.584  1.00  0.00    -0.012 C 
HETATM   25  C12 UNL     1      -4.453  14.920   5.120  1.00  0.00     0.035 C 
ENDBRANCH  14  16
ENDBRANCH  11  12
ENDBRANCH   9  11
ENDBRANCH   8   9
ENDBRANCH   1   8
TORSDOF 5
ENDMDL
MODEL 3
REMARK VINA RESULT: -7.990796561      0.221      1.499
REMARK  5 active torsions:
REMARK  status: ('A' for Active; 'I' for Inactive)
REMARK    1  A    between atoms: N1_2  and  C2_3 
REMARK    2  A    between atoms: N1_2  and  C14_18 
REMARK    3  A    between atoms: C2_3  and  C3_4 
REMARK       I    between atoms: C3_4  and  N2_6 
REMARK    4  A    between atoms: N2_6  and  C4_8 
REMARK    5  A    between atoms: C14_18  and  C15_19 
ROOT
HETATM    1  C15 UNL     1     -10.084  18.832   6.161  1.00  0.00     0.065 C 
HETATM    2  C16 UNL     1     -11.367  18.124   6.078  1.00  0.00     0.071 C 
HETATM    3  N3  UNL     1     -12.385  17.570   6.031  1.00  0.00    -0.196 NA
HETATM    4  C17 UNL     1     -10.020  19.448   7.545  1.00  0.00     0.026 C 
HETATM    5  C18 UNL     1      -9.750  20.926   7.367  1.00  0.00     0.002 C 
HETATM    6  C19 UNL     1     -10.530  21.204   6.075  1.00  0.00     0.002 C 
HETATM    7  C20 UNL     1     -10.053  20.028   5.239  1.00  0.00     0.026 C 
ENDROOT
BRANCH   1   8
HETATM    8  C14 UNL     1      -8.945  17.902   6.012  1.00  0.00     0.146 C 
BRANCH   8   9
HETATM    9  N1  UNL     1      -7.691  18.283   6.545  1.00  0.00    -0.388 N 
HETATM   10  C1  UNL     1      -6.807  18.976   5.702  1.00  0.00     0.149 C 
BRANCH   9  11
HETATM   11  C2  UNL     1      -7.131  17.454   7.533  1.00  0.00     0.160 C 
BRANCH  11  12
HETATM   12  C3  UNL     1      -6.339  16.298   7.053  1.00  0.00     0.257 C 
HETATM   13  O1  UNL     1      -6.912  15.232   6.797  1.00  0.00    -0.267 OA
HETATM   14  N2  UNL     1      -4.950  16.440   6.900  1.00  0.00    -0.347 N 
ATOM     15  H2  UNL     1      -4.563  17.354   7.132  1.00  0.00     0.163 HD
BRANCH  14  16
HETATM   16  C4  UNL     1      -4.014  15.454   6.456  1.00  0.00     0.034 C 
HETATM   17  C5  UNL     1      -2.642  16.041   6.408  1.00  0.00     0.035 C 
HETATM   18  C6  UNL     1      -1.635  14.986   6.000  1.00  0.00    -0.012 C 
HETATM   19  C7  UNL     1      -2.001  14.520   4.609  1.00  0.00     0.009 C 
HETATM   20  C11 UNL     1      -1.674  13.810   6.924  1.00  0.00     0.009 C 
HETATM   21  C8  UNL     1      -3.378  13.932   4.619  1.00  0.00    -0.012 C 
HETATM   22  C9  UNL     1      -3.386  12.727   5.547  1.00  0.00     0.009 C 
HETATM   23  C13 UNL     1      -4.427  14.871   5.114  1.00  0.00     0.035 C 
HETATM   24  C10 UNL     1      -3.067  13.205   6.925  1.00  0.00    -0.012 C 
HETATM   25  C12 UNL     1      -4.005  14.284   7.422  1.00  0.00     0.035 C 
ENDBRANCH  14  16
ENDBRANCH  11  12
ENDBRANCH   9  11
ENDBRANCH   8   9
ENDBRANCH   1   8
TORSDOF 5
ENDMDL
MODEL 4
REMARK VINA RESULT: -7.719489250      2.596      7.424
REMARK  5 active torsions:
REMARK  status: ('A' for Active; 'I' for Inactive)
REMARK    1  A    between atoms: N1_2  and  C2_3 
REMARK    2  A    between atoms: N1_2  and  C14_18 
REMARK    3  A    between atoms: C2_3  and  C3_4 
REMARK       I    between atoms: C3_4  and  N2_6 
REMARK    4  A    between atoms: N2_6  and  C4_8 
REMARK    5  A    between atoms: C14_18  and  C15_19 
ROOT
HETATM    1  C15 UNL     1      -4.462  17.039   7.167  1.00  0.00     0.065 C 
HETATM    2  C16 UNL     1      -3.343  16.123   6.921  1.00  0.00     0.071 C 
HETATM    3  N3  UNL     1      -2.464  15.386   6.741  1.00  0.00    -0.196 NA
HETATM    4  C17 UNL     1      -5.274  16.437   8.297  1.00  0.00     0.026 C 
HETATM    5  C18 UNL     1      -6.702  16.323   7.814  1.00  0.00     0.002 C 
HETATM    6  C19 UNL     1      -6.477  16.003   6.330  1.00  0.00     0.002 C 
HETATM    7  C20 UNL     1      -5.429  17.054   6.006  1.00  0.00     0.026 C 
ENDROOT
BRANCH   1   8
HETATM    8  C14 UNL     1      -3.984  18.371   7.595  1.00  0.00     0.146 C 
BRANCH   8   9
HETATM    9  N1  UNL     1      -3.913  19.403   6.630  1.00  0.00    -0.388 N 
HETATM   10  C1  UNL     1      -2.667  19.651   6.031  1.00  0.00     0.149 C 
BRANCH   9  11
HETATM   11  C2  UNL     1      -4.789  20.492   6.784  1.00  0.00     0.160 C 
BRANCH  11  12
HETATM   12  C3  UNL     1      -6.125  20.356   6.164  1.00  0.00     0.257 C 
HETATM   13  O1  UNL     1      -6.249  20.514   4.944  1.00  0.00    -0.267 OA
HETATM   14  N2  UNL     1      -7.228  20.050   6.979  1.00  0.00    -0.347 N 
ATOM     15  H2  UNL     1      -7.034  19.936   7.974  1.00  0.00     0.163 HD
BRANCH  14  16
HETATM   16  C4  UNL     1      -8.590  19.880   6.580  1.00  0.00     0.034 C 
HETATM   17  C5  UNL     1      -9.116  21.158   6.013  1.00  0.00     0.035 C 
HETATM   18  C6  UNL     1     -10.539  20.969   5.529  1.00  0.00    -0.012 C 
HETATM   19  C7  UNL     1     -11.383  20.598   6.727  1.00  0.00     0.009 C 
HETATM   20  C11 UNL     1     -10.630  19.866   4.521  1.00  0.00     0.009 C 
HETATM   21  C8  UNL     1     -10.877  19.324   7.327  1.00  0.00    -0.012 C 
HETATM   22  C9  UNL     1     -11.000  18.216   6.293  1.00  0.00     0.009 C 
HETATM   23  C13 UNL     1      -9.443  19.381   7.737  1.00  0.00     0.035 C 
HETATM   24  C10 UNL     1     -10.128  18.570   5.133  1.00  0.00    -0.012 C 
HETATM   25  C12 UNL     1      -8.682  18.805   5.514  1.00  0.00     0.035 C 
ENDBRANCH  14  16
ENDBRANCH  11  12
ENDBRANCH   9  11
ENDBRANCH   8   9
ENDBRANCH   1   8
TORSDOF 5
ENDMDL
MODEL 5
REMARK VINA RESULT: -7.652412003      2.471      7.424
REMARK  5 active torsions:
REMARK  status: ('A' for Active; 'I' for Inactive)
REMARK    1  A    between atoms: N1_2  and  C2_3 
REMARK    2  A    between atoms: N1_2  and  C14_18 
REMARK    3  A    between atoms: C2_3  and  C3_4 
REMARK       I    between atoms: C3_4  and  N2_6 
REMARK    4  A    between atoms: N2_6  and  C4_8 
REMARK    5  A    between atoms: C14_18  and  C15_19 
ROOT
HETATM    1  C15 UNL     1      -4.531  16.664   7.153  1.00  0.00     0.065 C 
HETATM    2  C16 UNL     1      -3.464  15.662   7.063  1.00  0.00     0.071 C 
HETATM    3  N3  UNL     1      -2.629  14.857   7.006  1.00  0.00    -0.196 NA
HETATM    4  C17 UNL     1      -5.512  16.160   8.192  1.00  0.00     0.026 C 
HETATM    5  C18 UNL     1      -6.879  16.135   7.546  1.00  0.00     0.002 C 
HETATM    6  C19 UNL     1      -6.507  15.752   6.107  1.00  0.00     0.002 C 
HETATM    7  C20 UNL     1      -5.351  16.712   5.885  1.00  0.00     0.026 C 
ENDROOT
BRANCH   1   8
HETATM    8  C14 UNL     1      -4.006  17.971   7.604  1.00  0.00     0.146 C 
BRANCH   8   9
HETATM    9  N1  UNL     1      -3.918  19.023   6.662  1.00  0.00    -0.388 N 
HETATM   10  C1  UNL     1      -2.692  19.211   6.004  1.00  0.00     0.149 C 
BRANCH   9  11
HETATM   11  C2  UNL     1      -4.715  20.160   6.889  1.00  0.00     0.160 C 
BRANCH  11  12
HETATM   12  C3  UNL     1      -6.055  20.162   6.260  1.00  0.00     0.257 C 
HETATM   13  O1  UNL     1      -6.176  20.529   5.085  1.00  0.00    -0.267 OA
HETATM   14  N2  UNL     1      -7.164  19.745   7.016  1.00  0.00    -0.347 N 
ATOM     15  H2  UNL     1      -6.971  19.457   7.975  1.00  0.00     0.163 HD
BRANCH  14  16
HETATM   16  C4  UNL     1      -8.529  19.676   6.599  1.00  0.00     0.034 C 
HETATM   17  C5  UNL     1      -9.394  19.294   7.755  1.00  0.00     0.035 C 
HETATM   18  C6  UNL     1     -10.850  19.280   7.337  1.00  0.00    -0.012 C 
HETATM   19  C7  UNL     1     -11.007  18.231   6.261  1.00  0.00     0.009 C 
HETATM   20  C11 UNL     1     -11.269  20.604   6.780  1.00  0.00     0.009 C 
HETATM   21  C8  UNL     1     -10.144  18.579   5.087  1.00  0.00    -0.012 C 
HETATM   22  C9  UNL     1     -10.603  19.915   4.526  1.00  0.00     0.009 C 
HETATM   23  C13 UNL     1      -8.698  18.722   5.427  1.00  0.00     0.035 C 
HETATM   24  C10 UNL     1     -10.403  20.952   5.581  1.00  0.00    -0.012 C 
HETATM   25  C12 UNL     1      -8.979  21.031   6.088  1.00  0.00     0.035 C 
ENDBRANCH  14  16
ENDBRANCH  11  12
ENDBRANCH   9  11
ENDBRANCH   8   9
ENDBRANCH   1   8
TORSDOF 5
ENDMDL
