MODEL 1
REMARK VINA RESULT: -7.458782748      0.000      0.000
REMARK  4 active torsions:
REMARK  status: ('A' for Active; 'I' for Inactive)
REMARK    1  A    between atoms: N2_5  and  C4_6 
REMARK    2  A    between atoms: N3_7  and  C5_9 
REMARK    3  A    between atoms: C5_9  and  N4_11 
REMARK    4  A    between atoms: N4_11  and  N5_13 
ROOT
HETATM    1  C5  UNL     1       5.109  -7.851  -1.210  1.00  0.00     0.191 C 
HETATM    2  S1  UNL     1       5.865  -6.466  -1.566  1.00  0.00    -0.039 SA
ENDROOT
BRANCH   1   3
HETATM    3  N3  UNL     1       4.792  -8.137   0.139  1.00  0.00    -0.328 N 
HETATM    4  C4  UNL     1       5.667  -8.409   1.042  1.00  0.00     0.180 C 
ATOM      5  H3  UNL     1       3.809  -8.126   0.412  1.00  0.00     0.169 HD
BRANCH   4   6
HETATM    6  N2  UNL     1       7.043  -8.435   0.711  1.00  0.00    -0.374 N 
HETATM    7  C3  UNL     1       7.889  -7.332   1.117  1.00  0.00     0.154 C 
HETATM    8  C2  UNL     1       9.317  -7.781   1.030  1.00  0.00     0.291 C 
HETATM    9  N1  UNL     1       9.638  -8.128  -0.316  1.00  0.00     0.087 N 
HETATM   10  C1  UNL     1      11.008  -8.485  -0.516  1.00  0.00     0.310 C 
HETATM   11  C14 UNL     1       8.698  -8.986  -0.957  1.00  0.00     0.291 C 
HETATM   12  C13 UNL     1       7.640  -9.528  -0.024  1.00  0.00     0.154 C 
ENDBRANCH   4   6
ENDBRANCH   1   3
BRANCH   1  13
HETATM   13  N4  UNL     1       4.749  -8.794  -2.206  1.00  0.00    -0.276 N 
ATOM     14  H4  UNL     1       5.476  -9.382  -2.613  1.00  0.00     0.189 HD
BRANCH  13  15
HETATM   15  N5  UNL     1       3.449  -8.944  -2.644  1.00  0.00    -0.307 N 
HETATM   16  C6  UNL     1       3.102  -9.315  -3.829  1.00  0.00     0.004 C 
HETATM   17  C7  UNL     1       4.134  -9.612  -4.827  1.00  0.00     0.054 C 
HETATM   18  C12 UNL     1       1.630  -9.386  -4.005  1.00  0.00     0.054 C 
HETATM   19  C8  UNL     1       4.428  -8.437  -5.733  1.00  0.00     0.006 C 
HETATM   20  C9  UNL     1       3.196  -7.821  -6.319  1.00  0.00     0.000 C 
HETATM   21  C10 UNL     1       2.026  -8.756  -6.401  1.00  0.00     0.000 C 
HETATM   22  C11 UNL     1       1.136  -8.611  -5.187  1.00  0.00     0.006 C 
ATOM     23  H5  UNL     1       2.704  -8.745  -1.977  1.00  0.00     0.186 HD
ENDBRANCH  13  15
ENDBRANCH   1  13
TORSDOF 4
ENDMDL
MODEL 2
REMARK VINA RESULT: -7.308337671      0.372      1.154
REMARK  4 active torsions:
REMARK  status: ('A' for Active; 'I' for Inactive)
REMARK    1  A    between atoms: N2_5  and  C4_6 
REMARK    2  A    between atoms: N3_7  and  C5_9 
REMARK    3  A    between atoms: C5_9  and  N4_11 
REMARK    4  A    between atoms: N4_11  and  N5_13 
ROOT
HETATM    1  C5  UNL     1       5.098  -7.867  -1.199  1.00  0.00     0.191 C 
HETATM    2  S1  UNL     1       5.887  -6.503  -1.568  1.00  0.00    -0.039 SA
ENDROOT
BRANCH   1   3
HETATM    3  N3  UNL     1       4.763  -8.127   0.150  1.00  0.00    -0.328 N 
HETATM    4  C4  UNL     1       5.621  -8.436   1.058  1.00  0.00     0.180 C 
ATOM      5  H3  UNL     1       3.781  -8.064   0.420  1.00  0.00     0.169 HD
BRANCH   4   6
HETATM    6  N2  UNL     1       6.995  -8.533   0.732  1.00  0.00    -0.374 N 
HETATM    7  C3  UNL     1       7.475  -9.706   0.032  1.00  0.00     0.154 C 
HETATM    8  C2  UNL     1       8.818  -9.386  -0.552  1.00  0.00     0.291 C 
HETATM    9  N1  UNL     1       9.739  -9.071   0.491  1.00  0.00     0.087 N 
HETATM   10  C1  UNL     1      11.076  -8.838   0.038  1.00  0.00     0.310 C 
HETATM   11  C14 UNL     1       9.263  -8.134   1.453  1.00  0.00     0.291 C 
HETATM   12  C13 UNL     1       7.945  -7.498   1.076  1.00  0.00     0.154 C 
ENDBRANCH   4   6
ENDBRANCH   1   3
BRANCH   1  13
HETATM   13  N4  UNL     1       4.727  -8.816  -2.185  1.00  0.00    -0.276 N 
ATOM     14  H4  UNL     1       5.443  -9.431  -2.571  1.00  0.00     0.189 HD
BRANCH  13  15
HETATM   15  N5  UNL     1       3.430  -8.936  -2.641  1.00  0.00    -0.307 N 
HETATM   16  C6  UNL     1       3.091  -9.303  -3.831  1.00  0.00     0.004 C 
HETATM   17  C7  UNL     1       4.129  -9.628  -4.812  1.00  0.00     0.054 C 
HETATM   18  C12 UNL     1       1.621  -9.339  -4.027  1.00  0.00     0.054 C 
HETATM   19  C8  UNL     1       4.465  -8.463  -5.717  1.00  0.00     0.006 C 
HETATM   20  C9  UNL     1       3.257  -7.819  -6.324  1.00  0.00     0.000 C 
HETATM   21  C10 UNL     1       2.066  -8.726  -6.420  1.00  0.00     0.000 C 
HETATM   22  C11 UNL     1       1.162  -8.556  -5.219  1.00  0.00     0.006 C 
ATOM     23  H5  UNL     1       2.680  -8.717  -1.986  1.00  0.00     0.186 HD
ENDBRANCH  13  15
ENDBRANCH   1  13
TORSDOF 4
ENDMDL
MODEL 3
REMARK VINA RESULT: -7.246362594      0.703      1.642
REMARK  4 active torsions:
REMARK  status: ('A' for Active; 'I' for Inactive)
REMARK    1  A    between atoms: N2_5  and  C4_6 
REMARK    2  A    between atoms: N3_7  and  C5_9 
REMARK    3  A    between atoms: C5_9  and  N4_11 
REMARK    4  A    between atoms: N4_11  and  N5_13 
ROOT
HETATM    1  C5  UNL     1       4.965  -8.066  -1.329  1.00  0.00     0.191 C 
HETATM    2  S1  UNL     1       5.682  -6.658  -1.679  1.00  0.00    -0.039 SA
ENDROOT
BRANCH   1   3
HETATM    3  N3  UNL     1       4.649  -8.362   0.018  1.00  0.00    -0.328 N 
HETATM    4  C4  UNL     1       5.528  -8.564   0.936  1.00  0.00     0.180 C 
ATOM      5  H3  UNL     1       3.664  -8.419   0.277  1.00  0.00     0.169 HD
BRANCH   4   6
HETATM    6  N2  UNL     1       6.907  -8.495   0.625  1.00  0.00    -0.374 N 
HETATM    7  C3  UNL     1       7.662  -7.321   1.014  1.00  0.00     0.154 C 
HETATM    8  C2  UNL     1       9.121  -7.664   0.959  1.00  0.00     0.291 C 
HETATM    9  N1  UNL     1       9.487  -8.018  -0.374  1.00  0.00     0.087 N 
HETATM   10  C1  UNL     1      10.884  -8.276  -0.545  1.00  0.00     0.310 C 
HETATM   11  C14 UNL     1       8.625  -8.960  -1.006  1.00  0.00     0.291 C 
HETATM   12  C13 UNL     1       7.596  -9.557  -0.074  1.00  0.00     0.154 C 
ENDBRANCH   4   6
ENDBRANCH   1   3
BRANCH   1  13
HETATM   13  N4  UNL     1       4.639  -9.018  -2.328  1.00  0.00    -0.276 N 
ATOM     14  H4  UNL     1       4.618 -10.006  -2.078  1.00  0.00     0.189 HD
BRANCH  13  15
HETATM   15  N5  UNL     1       4.349  -8.652  -3.626  1.00  0.00    -0.307 N 
HETATM   16  C6  UNL     1       3.170  -8.393  -4.080  1.00  0.00     0.004 C 
HETATM   17  C7  UNL     1       2.014  -8.479  -3.184  1.00  0.00     0.054 C 
HETATM   18  C12 UNL     1       3.172  -8.027  -5.518  1.00  0.00     0.054 C 
HETATM   19  C8  UNL     1       1.301  -9.810  -3.275  1.00  0.00     0.006 C 
HETATM   20  C9  UNL     1       0.993 -10.221  -4.681  1.00  0.00     0.000 C 
HETATM   21  C10 UNL     1       0.895  -9.074  -5.643  1.00  0.00     0.000 C 
HETATM   22  C11 UNL     1       2.217  -8.840  -6.338  1.00  0.00     0.006 C 
ATOM     23  H5  UNL     1       5.129  -8.583  -4.279  1.00  0.00     0.186 HD
ENDBRANCH  13  15
ENDBRANCH   1  13
TORSDOF 4
ENDMDL
MODEL 4
REMARK VINA RESULT: -7.217849787      1.629      1.985
REMARK  4 active torsions:
REMARK  status: ('A' for Active; 'I' for Inactive)
REMARK    1  A    between atoms: N2_5  and  C4_6 
REMARK    2  A    between atoms: N3_7  and  C5_9 
REMARK    3  A    between atoms: C5_9  and  N4_11 
REMARK    4  A    between atoms: N4_11  and  N5_13 
ROOT
HETATM    1  C5  UNL     1       5.175  -7.934  -1.233  1.00  0.00     0.191 C 
HETATM    2  S1  UNL     1       5.179  -8.429   0.307  1.00  0.00    -0.039 SA
ENDROOT
BRANCH   1   3
HETATM    3  N3  UNL     1       5.586  -6.614  -1.534  1.00  0.00    -0.328 N 
HETATM    4  C4  UNL     1       6.780  -6.295  -1.893  1.00  0.00     0.180 C 
ATOM      5  H3  UNL     1       4.893  -5.869  -1.462  1.00  0.00     0.169 HD
BRANCH   4   6
HETATM    6  N2  UNL     1       7.776  -7.295  -2.009  1.00  0.00    -0.374 N 
HETATM    7  C3  UNL     1       8.524  -7.687  -0.833  1.00  0.00     0.154 C 
HETATM    8  C2  UNL     1       9.185  -9.003  -1.116  1.00  0.00     0.291 C 
HETATM    9  N1  UNL     1      10.093  -8.867  -2.208  1.00  0.00     0.087 N 
HETATM   10  C1  UNL     1      10.840 -10.053  -2.496  1.00  0.00     0.310 C 
HETATM   11  C14 UNL     1       9.564  -8.202  -3.352  1.00  0.00     0.291 C 
HETATM   12  C13 UNL     1       8.078  -7.942  -3.266  1.00  0.00     0.154 C 
ENDBRANCH   4   6
ENDBRANCH   1   3
BRANCH   1  13
HETATM   13  N4  UNL     1       4.774  -8.779  -2.298  1.00  0.00    -0.276 N 
ATOM     14  H4  UNL     1       5.484  -9.318  -2.794  1.00  0.00     0.189 HD
BRANCH  13  15
HETATM   15  N5  UNL     1       3.455  -8.899  -2.687  1.00  0.00    -0.307 N 
HETATM   16  C6  UNL     1       3.055  -9.272  -3.855  1.00  0.00     0.004 C 
HETATM   17  C7  UNL     1       4.041  -9.605  -4.886  1.00  0.00     0.054 C 
HETATM   18  C12 UNL     1       1.576  -9.306  -3.976  1.00  0.00     0.054 C 
HETATM   19  C8  UNL     1       4.332  -8.446  -5.814  1.00  0.00     0.006 C 
HETATM   20  C9  UNL     1       3.096  -7.803  -6.361  1.00  0.00     0.000 C 
HETATM   21  C10 UNL     1       1.900  -8.708  -6.391  1.00  0.00     0.000 C 
HETATM   22  C11 UNL     1       1.059  -8.529  -5.147  1.00  0.00     0.006 C 
ATOM     23  H5  UNL     1       2.740  -8.675  -1.995  1.00  0.00     0.186 HD
ENDBRANCH  13  15
ENDBRANCH   1  13
TORSDOF 4
ENDMDL
MODEL 5
REMARK VINA RESULT: -7.151591224      1.428      1.935
REMARK  4 active torsions:
REMARK  status: ('A' for Active; 'I' for Inactive)
REMARK    1  A    between atoms: N2_5  and  C4_6 
REMARK    2  A    between atoms: N3_7  and  C5_9 
REMARK    3  A    between atoms: C5_9  and  N4_11 
REMARK    4  A    between atoms: N4_11  and  N5_13 
ROOT
HETATM    1  C5  UNL     1       6.235  -7.695  -2.435  1.00  0.00     0.191 C 
HETATM    2  S1  UNL     1       7.469  -7.619  -3.479  1.00  0.00    -0.039 SA
ENDROOT
BRANCH   1   3
HETATM    3  N3  UNL     1       5.983  -6.593  -1.585  1.00  0.00    -0.328 N 
HETATM    4  C4  UNL     1       6.308  -6.554  -0.340  1.00  0.00     0.180 C 
ATOM      5  H3  UNL     1       5.516  -5.779  -1.983  1.00  0.00     0.169 HD
BRANCH   4   6
HETATM    6  N2  UNL     1       6.960  -7.659   0.258  1.00  0.00    -0.374 N 
HETATM    7  C3  UNL     1       6.182  -8.608   1.028  1.00  0.00     0.154 C 
HETATM    8  C2  UNL     1       6.992  -9.860   1.184  1.00  0.00     0.291 C 
HETATM    9  N1  UNL     1       8.196  -9.575   1.895  1.00  0.00     0.087 N 
HETATM   10  C1  UNL     1       8.996 -10.728   2.173  1.00  0.00     0.310 C 
HETATM   11  C14 UNL     1       8.923  -8.444   1.422  1.00  0.00     0.291 C 
HETATM   12  C13 UNL     1       8.383  -7.878   0.129  1.00  0.00     0.154 C 
ENDBRANCH   4   6
ENDBRANCH   1   3
BRANCH   1  13
HETATM   13  N4  UNL     1       5.392  -8.832  -2.340  1.00  0.00    -0.276 N 
ATOM     14  H4  UNL     1       5.802  -9.728  -2.077  1.00  0.00     0.189 HD
BRANCH  13  15
HETATM   15  N5  UNL     1       4.038  -8.767  -2.593  1.00  0.00    -0.307 N 
HETATM   16  C6  UNL     1       3.468  -9.130  -3.692  1.00  0.00     0.004 C 
HETATM   17  C7  UNL     1       4.283  -9.659  -4.790  1.00  0.00     0.054 C 
HETATM   18  C12 UNL     1       1.996  -8.943  -3.670  1.00  0.00     0.054 C 
HETATM   19  C8  UNL     1       4.644  -8.604  -5.812  1.00  0.00     0.006 C 
HETATM   20  C9  UNL     1       3.466  -7.807  -6.279  1.00  0.00     0.000 C 
HETATM   21  C10 UNL     1       2.153  -8.519  -6.138  1.00  0.00     0.000 C 
HETATM   22  C11 UNL     1       1.481  -8.154  -4.834  1.00  0.00     0.006 C 
ATOM     23  H5  UNL     1       3.439  -8.403  -1.853  1.00  0.00     0.186 HD
ENDBRANCH  13  15
ENDBRANCH   1  13
TORSDOF 4
ENDMDL
