MODEL 1
REMARK VINA RESULT: -7.478972551      0.000      0.000
REMARK  3 active torsions:
REMARK  status: ('A' for Active; 'I' for Inactive)
REMARK    1  A    between atoms: C5_6  and  C6_7 
REMARK    2  A    between atoms: C6_7  and  N1_8 
REMARK    3  A    between atoms: N2_11  and  C9_12 
ROOT
HETATM    1  N1  UNL     1       7.241  -8.267  -2.146  1.00  0.00     0.093 N 
HETATM    2  C7  UNL     1       7.213  -7.948  -3.511  1.00  0.00     0.291 C 
HETATM    3  C8  UNL     1       6.098  -8.485  -4.333  1.00  0.00     0.147 C 
HETATM    4  N2  UNL     1       4.933  -8.853  -3.602  1.00  0.00    -0.405 N 
HETATM    5  C16 UNL     1       4.887  -8.093  -2.395  1.00  0.00     0.147 C 
HETATM    6  C17 UNL     1       6.020  -8.679  -1.540  1.00  0.00     0.291 C 
ENDROOT
BRANCH   1   7
HETATM    7  C6  UNL     1       7.836  -7.252  -1.299  1.00  0.00     0.297 C 
BRANCH   7   8
HETATM    8  C5  UNL     1       7.766  -7.613   0.170  1.00  0.00     0.112 C 
HETATM    9  C4  UNL     1       7.491  -6.406   1.002  1.00  0.00     0.027 C 
HETATM   10  C3  UNL     1       7.898  -6.493   2.432  1.00  0.00     0.011 C 
HETATM   11  C2  UNL     1       8.317  -7.861   2.892  1.00  0.00     0.103 C 
HETATM   12  C1  UNL     1       9.318  -8.366   1.921  1.00  0.00     0.217 C 
HETATM   13  O1  UNL     1      10.415  -8.829   2.291  1.00  0.00    -0.274 OA
HETATM   14  N3  UNL     1       8.984  -8.302   0.546  1.00  0.00    -0.355 N 
ATOM     15  H3  UNL     1       9.584  -8.730  -0.159  1.00  0.00     0.162 HD
ENDBRANCH   7   8
ENDBRANCH   1   7
BRANCH   4  16
HETATM   16  C9  UNL     1       3.739  -9.032  -4.317  1.00  0.00     0.079 C 
HETATM   17  C10 UNL     1       2.572  -8.778  -3.383  1.00  0.00     0.025 C 
HETATM   18  C11 UNL     1       1.411  -9.713  -3.637  1.00  0.00     0.002 C 
HETATM   19  C12 UNL     1       0.558  -9.224  -4.794  1.00  0.00     0.000 C 
HETATM   20  C13 UNL     1       1.411  -9.370  -6.040  1.00  0.00     0.000 C 
HETATM   21  C14 UNL     1       2.270  -8.154  -6.165  1.00  0.00     0.002 C 
HETATM   22  C15 UNL     1       3.642  -8.283  -5.607  1.00  0.00     0.025 C 
ENDBRANCH   4  16
TORSDOF 3
ENDMDL
MODEL 2
REMARK VINA RESULT: -7.439104860      0.649      1.461
REMARK  3 active torsions:
REMARK  status: ('A' for Active; 'I' for Inactive)
REMARK    1  A    between atoms: C5_6  and  C6_7 
REMARK    2  A    between atoms: C6_7  and  N1_8 
REMARK    3  A    between atoms: N2_11  and  C9_12 
ROOT
HETATM    1  N1  UNL     1       7.067  -8.179  -1.665  1.00  0.00     0.093 N 
HETATM    2  C7  UNL     1       7.221  -8.021  -3.050  1.00  0.00     0.291 C 
HETATM    3  C8  UNL     1       6.081  -8.389  -3.928  1.00  0.00     0.147 C 
HETATM    4  N2  UNL     1       4.809  -8.403  -3.291  1.00  0.00    -0.405 N 
HETATM    5  C16 UNL     1       4.844  -7.518  -2.171  1.00  0.00     0.147 C 
HETATM    6  C17 UNL     1       5.740  -8.239  -1.153  1.00  0.00     0.291 C 
ENDROOT
BRANCH   1   7
HETATM    7  C6  UNL     1       7.811  -7.231  -0.861  1.00  0.00     0.297 C 
BRANCH   7   8
HETATM    8  C5  UNL     1       7.780  -7.576   0.614  1.00  0.00     0.112 C 
HETATM    9  C4  UNL     1       7.823  -6.342   1.451  1.00  0.00     0.027 C 
HETATM   10  C3  UNL     1       8.311  -6.517   2.847  1.00  0.00     0.011 C 
HETATM   11  C2  UNL     1       8.474  -7.945   3.289  1.00  0.00     0.103 C 
HETATM   12  C1  UNL     1       9.272  -8.640   2.252  1.00  0.00     0.217 C 
HETATM   13  O1  UNL     1      10.276  -9.322   2.543  1.00  0.00    -0.274 OA
HETATM   14  N3  UNL     1       8.855  -8.504   0.905  1.00  0.00    -0.355 N 
ATOM     15  H3  UNL     1       9.299  -9.043   0.162  1.00  0.00     0.162 HD
ENDBRANCH   7   8
ENDBRANCH   1   7
BRANCH   4  16
HETATM   16  C9  UNL     1       3.666  -8.394  -4.105  1.00  0.00     0.079 C 
HETATM   17  C10 UNL     1       4.071  -8.782  -5.514  1.00  0.00     0.025 C 
HETATM   18  C11 UNL     1       3.311  -8.011  -6.569  1.00  0.00     0.002 C 
HETATM   19  C12 UNL     1       1.947  -8.627  -6.820  1.00  0.00     0.000 C 
HETATM   20  C13 UNL     1       1.138  -8.394  -5.558  1.00  0.00     0.000 C 
HETATM   21  C14 UNL     1       1.451  -9.490  -4.592  1.00  0.00     0.002 C 
HETATM   22  C15 UNL     1       2.500  -9.172  -3.587  1.00  0.00     0.025 C 
ENDBRANCH   4  16
TORSDOF 3
ENDMDL
MODEL 3
REMARK VINA RESULT: -7.333715084      2.728      8.075
REMARK  3 active torsions:
REMARK  status: ('A' for Active; 'I' for Inactive)
REMARK    1  A    between atoms: C5_6  and  C6_7 
REMARK    2  A    between atoms: C6_7  and  N1_8 
REMARK    3  A    between atoms: N2_11  and  C9_12 
ROOT
HETATM    1  N1  UNL     1       5.098  -8.149  -2.237  1.00  0.00     0.093 N 
HETATM    2  C7  UNL     1       5.475  -6.845  -1.888  1.00  0.00     0.291 C 
HETATM    3  C8  UNL     1       6.230  -6.648  -0.624  1.00  0.00     0.147 C 
HETATM    4  N2  UNL     1       6.907  -7.802  -0.140  1.00  0.00    -0.405 N 
HETATM    5  C16 UNL     1       7.190  -8.666  -1.240  1.00  0.00     0.147 C 
HETATM    6  C17 UNL     1       5.815  -9.224  -1.640  1.00  0.00     0.291 C 
ENDROOT
BRANCH   1   7
HETATM    7  C6  UNL     1       5.030  -8.399  -3.663  1.00  0.00     0.297 C 
BRANCH   7   8
HETATM    8  C5  UNL     1       3.811  -9.212  -4.048  1.00  0.00     0.112 C 
HETATM    9  C4  UNL     1       3.325  -8.832  -5.406  1.00  0.00     0.027 C 
HETATM   10  C3  UNL     1       1.898  -9.143  -5.699  1.00  0.00     0.011 C 
HETATM   11  C2  UNL     1       1.211 -10.000  -4.674  1.00  0.00     0.103 C 
HETATM   12  C1  UNL     1       1.462  -9.389  -3.347  1.00  0.00     0.217 C 
HETATM   13  O1  UNL     1       0.535  -9.161  -2.543  1.00  0.00    -0.274 OA
HETATM   14  N3  UNL     1       2.802  -9.069  -3.018  1.00  0.00    -0.355 N 
ATOM     15  H3  UNL     1       3.049  -8.747  -2.082  1.00  0.00     0.162 HD
ENDBRANCH   7   8
ENDBRANCH   1   7
BRANCH   4  16
HETATM   16  C9  UNL     1       7.905  -7.620   0.830  1.00  0.00     0.079 C 
HETATM   17  C10 UNL     1       9.260  -7.721   0.158  1.00  0.00     0.025 C 
HETATM   18  C11 UNL     1      10.286  -8.418   1.023  1.00  0.00     0.002 C 
HETATM   19  C12 UNL     1      10.889  -7.461   2.035  1.00  0.00     0.000 C 
HETATM   20  C13 UNL     1       9.777  -7.119   3.009  1.00  0.00     0.000 C 
HETATM   21  C14 UNL     1       8.976  -5.997   2.431  1.00  0.00     0.002 C 
HETATM   22  C15 UNL     1       7.755  -6.404   1.686  1.00  0.00     0.025 C 
ENDBRANCH   4  16
TORSDOF 3
ENDMDL
MODEL 4
REMARK VINA RESULT: -7.300369167      1.319      2.300
REMARK  3 active torsions:
REMARK  status: ('A' for Active; 'I' for Inactive)
REMARK    1  A    between atoms: C5_6  and  C6_7 
REMARK    2  A    between atoms: C6_7  and  N1_8 
REMARK    3  A    between atoms: N2_11  and  C9_12 
ROOT
HETATM    1  N1  UNL     1       6.881  -8.004  -1.510  1.00  0.00     0.093 N 
HETATM    2  C7  UNL     1       5.753  -8.721  -1.087  1.00  0.00     0.291 C 
HETATM    3  C8  UNL     1       4.486  -8.541  -1.840  1.00  0.00     0.147 C 
HETATM    4  N2  UNL     1       4.637  -8.056  -3.169  1.00  0.00    -0.405 N 
HETATM    5  C16 UNL     1       5.933  -8.418  -3.647  1.00  0.00     0.147 C 
HETATM    6  C17 UNL     1       6.889  -7.519  -2.849  1.00  0.00     0.291 C 
ENDROOT
BRANCH   1   7
HETATM    7  C6  UNL     1       8.147  -8.669  -1.272  1.00  0.00     0.297 C 
BRANCH   7   8
HETATM    8  C5  UNL     1       8.744  -8.309   0.072  1.00  0.00     0.112 C 
HETATM    9  C4  UNL     1       8.549  -9.415   1.055  1.00  0.00     0.027 C 
HETATM   10  C3  UNL     1       8.603  -9.027   2.492  1.00  0.00     0.011 C 
HETATM   11  C2  UNL     1       9.072  -7.624   2.755  1.00  0.00     0.103 C 
HETATM   12  C1  UNL     1       8.275  -6.722   1.890  1.00  0.00     0.217 C 
HETATM   13  O1  UNL     1       7.700  -5.714   2.347  1.00  0.00    -0.274 OA
HETATM   14  N3  UNL     1       8.187  -7.046   0.514  1.00  0.00    -0.355 N 
ATOM     15  H3  UNL     1       7.744  -6.408  -0.147  1.00  0.00     0.162 HD
ENDBRANCH   7   8
ENDBRANCH   1   7
BRANCH   4  16
HETATM   16  C9  UNL     1       3.549  -8.190  -4.045  1.00  0.00     0.079 C 
HETATM   17  C10 UNL     1       4.071  -8.594  -5.410  1.00  0.00     0.025 C 
HETATM   18  C11 UNL     1       3.306  -7.942  -6.540  1.00  0.00     0.002 C 
HETATM   19  C12 UNL     1       2.022  -8.696  -6.836  1.00  0.00     0.000 C 
HETATM   20  C13 UNL     1       1.122  -8.490  -5.633  1.00  0.00     0.000 C 
HETATM   21  C14 UNL     1       1.478  -9.510  -4.601  1.00  0.00     0.002 C 
HETATM   22  C15 UNL     1       2.431  -9.054  -3.556  1.00  0.00     0.025 C 
ENDBRANCH   4  16
TORSDOF 3
ENDMDL
MODEL 5
REMARK VINA RESULT: -7.264581999      1.787      2.622
REMARK  3 active torsions:
REMARK  status: ('A' for Active; 'I' for Inactive)
REMARK    1  A    between atoms: C5_6  and  C6_7 
REMARK    2  A    between atoms: C6_7  and  N1_8 
REMARK    3  A    between atoms: N2_11  and  C9_12 
ROOT
HETATM    1  N1  UNL     1       7.177  -8.745  -1.430  1.00  0.00     0.093 N 
HETATM    2  C7  UNL     1       7.320  -8.008  -2.615  1.00  0.00     0.291 C 
HETATM    3  C8  UNL     1       6.269  -8.141  -3.655  1.00  0.00     0.147 C 
HETATM    4  N2  UNL     1       5.009  -8.604  -3.182  1.00  0.00    -0.405 N 
HETATM    5  C16 UNL     1       4.881  -8.266  -1.802  1.00  0.00     0.147 C 
HETATM    6  C17 UNL     1       5.871  -9.204  -1.095  1.00  0.00     0.291 C 
ENDROOT
BRANCH   1   7
HETATM    7  C6  UNL     1       7.742  -8.116  -0.253  1.00  0.00     0.297 C 
BRANCH   7   8
HETATM    8  C5  UNL     1       8.779  -8.988   0.424  1.00  0.00     0.112 C 
HETATM    9  C4  UNL     1       9.695  -9.604  -0.580  1.00  0.00     0.027 C 
HETATM   10  C3  UNL     1      10.400 -10.842  -0.147  1.00  0.00     0.011 C 
HETATM   11  C2  UNL     1      10.268 -11.171   1.314  1.00  0.00     0.103 C 
HETATM   12  C1  UNL     1       8.826 -11.118   1.651  1.00  0.00     0.217 C 
HETATM   13  O1  UNL     1       8.258 -12.049   2.256  1.00  0.00    -0.274 OA
HETATM   14  N3  UNL     1       8.105  -9.964   1.258  1.00  0.00    -0.355 N 
ATOM     15  H3  UNL     1       7.139  -9.823   1.554  1.00  0.00     0.162 HD
ENDBRANCH   7   8
ENDBRANCH   1   7
BRANCH   4  16
HETATM   16  C9  UNL     1       3.891  -8.426  -4.012  1.00  0.00     0.079 C 
HETATM   17  C10 UNL     1       4.236  -8.919  -5.404  1.00  0.00     0.025 C 
HETATM   18  C11 UNL     1       3.628  -8.063  -6.491  1.00  0.00     0.002 C 
HETATM   19  C12 UNL     1       2.180  -8.447  -6.743  1.00  0.00     0.000 C 
HETATM   20  C13 UNL     1       1.412  -8.040  -5.499  1.00  0.00     0.000 C 
HETATM   21  C14 UNL     1       1.526  -9.143  -4.497  1.00  0.00     0.002 C 
HETATM   22  C15 UNL     1       2.605  -8.978  -3.488  1.00  0.00     0.025 C 
ENDBRANCH   4  16
TORSDOF 3
ENDMDL
