MODEL 1
REMARK VINA RESULT: -7.235710035      0.000      0.000
REMARK  3 active torsions:
REMARK  status: ('A' for Active; 'I' for Inactive)
REMARK    1  A    between atoms: O1_2  and  C2_3 
REMARK    2  A    between atoms: C4_7  and  C5_8 
REMARK    3  A    between atoms: C10_13  and  C11_14 
ROOT
HETATM    1  C2  UNL     1       6.461  -7.752  -0.177  1.00  0.00     0.076 C 
HETATM    2  C3  UNL     1       5.299  -8.589  -0.585  1.00  0.00     0.152 C 
HETATM    3  N1  UNL     1       5.490  -9.284  -1.818  1.00  0.00    -0.409 N 
ATOM      4  H1  UNL     1       5.522 -10.303  -1.869  1.00  0.00     0.154 HD
HETATM    5  C4  UNL     1       5.633  -8.466  -2.967  1.00  0.00     0.030 C 
HETATM    6  C12 UNL     1       7.093  -8.405  -3.329  1.00  0.00     0.036 C 
HETATM    7  C13 UNL     1       7.610  -7.411  -2.278  1.00  0.00    -0.005 C 
HETATM    8  C14 UNL     1       7.736  -8.081  -0.930  1.00  0.00     0.045 C 
HETATM    9  C15 UNL     1       6.517  -6.401  -2.094  1.00  0.00    -0.005 C 
HETATM   10  C16 UNL     1       6.246  -6.298  -0.608  1.00  0.00     0.045 C 
HETATM   11  C17 UNL     1       5.314  -7.007  -2.740  1.00  0.00     0.036 C 
ENDROOT
BRANCH   5  12
HETATM   12  C5  UNL     1       4.772  -9.010  -4.077  1.00  0.00     0.027 C 
HETATM   13  C6  UNL     1       5.586  -9.368  -5.299  1.00  0.00     0.008 C 
HETATM   14  C7  UNL     1       5.663  -8.272  -6.314  1.00  0.00     0.001 C 
HETATM   15  C8  UNL     1       4.316  -7.771  -6.755  1.00  0.00     0.001 C 
HETATM   16  C9  UNL     1       3.272  -8.391  -5.887  1.00  0.00     0.016 C 
HETATM   17  C10 UNL     1       3.591  -8.157  -4.404  1.00  0.00     0.093 C 
BRANCH  17  18
HETATM   18  C11 UNL     1       2.398  -8.603  -3.656  1.00  0.00     0.177 C 
HETATM   19  O2  UNL     1       2.513  -9.200  -2.566  1.00  0.00    -0.648 OA
HETATM   20  O3  UNL     1       1.145  -8.355  -4.173  1.00  0.00    -0.648 OA
ENDBRANCH  17  18
ENDBRANCH   5  12
BRANCH   1  21
HETATM   21  O1  UNL     1       6.669  -7.785   1.197  1.00  0.00    -0.383 OA
HETATM   22  C1  UNL     1       7.093  -9.049   1.553  1.00  0.00     0.202 C 
ENDBRANCH   1  21
TORSDOF 3
ENDMDL
MODEL 2
REMARK VINA RESULT: -7.054326026      2.388      6.000
REMARK  3 active torsions:
REMARK  status: ('A' for Active; 'I' for Inactive)
REMARK    1  A    between atoms: O1_2  and  C2_3 
REMARK    2  A    between atoms: C4_7  and  C5_8 
REMARK    3  A    between atoms: C10_13  and  C11_14 
ROOT
HETATM    1  C2  UNL     1       2.731  -8.242  -6.541  1.00  0.00     0.076 C 
HETATM    2  C3  UNL     1       4.218  -8.261  -6.459  1.00  0.00     0.152 C 
HETATM    3  N1  UNL     1       4.728  -9.065  -5.394  1.00  0.00    -0.409 N 
ATOM      4  H1  UNL     1       5.289  -9.900  -5.564  1.00  0.00     0.154 HD
HETATM    5  C4  UNL     1       4.404  -8.627  -4.086  1.00  0.00     0.030 C 
HETATM    6  C12 UNL     1       3.287  -9.489  -3.558  1.00  0.00     0.036 C 
HETATM    7  C13 UNL     1       2.085  -8.889  -4.302  1.00  0.00    -0.005 C 
HETATM    8  C14 UNL     1       2.068  -9.347  -5.742  1.00  0.00     0.045 C 
HETATM    9  C15 UNL     1       2.343  -7.414  -4.381  1.00  0.00    -0.005 C 
HETATM   10  C16 UNL     1       2.175  -7.006  -5.830  1.00  0.00     0.045 C 
HETATM   11  C17 UNL     1       3.783  -7.251  -4.022  1.00  0.00     0.036 C 
ENDROOT
BRANCH   5  12
HETATM   12  C5  UNL     1       5.639  -8.670  -3.224  1.00  0.00     0.027 C 
HETATM   13  C6  UNL     1       5.305  -8.917  -1.770  1.00  0.00     0.008 C 
HETATM   14  C7  UNL     1       5.163  -7.664  -0.964  1.00  0.00     0.001 C 
HETATM   15  C8  UNL     1       6.365  -6.764  -1.043  1.00  0.00     0.001 C 
HETATM   16  C9  UNL     1       7.292  -7.300  -2.083  1.00  0.00     0.016 C 
HETATM   17  C10 UNL     1       6.554  -7.505  -3.413  1.00  0.00     0.093 C 
BRANCH  17  18
HETATM   18  C11 UNL     1       7.597  -7.814  -4.414  1.00  0.00     0.177 C 
HETATM   19  O2  UNL     1       7.429  -7.535  -5.618  1.00  0.00    -0.648 OA
HETATM   20  O3  UNL     1       8.766  -8.417  -4.006  1.00  0.00    -0.648 OA
ENDBRANCH  17  18
ENDBRANCH   5  12
BRANCH   1  21
HETATM   21  O1  UNL     1       2.284  -8.239  -7.857  1.00  0.00    -0.383 OA
HETATM   22  C1  UNL     1       3.300  -7.783  -8.672  1.00  0.00     0.202 C 
ENDBRANCH   1  21
TORSDOF 3
ENDMDL
MODEL 3
REMARK VINA RESULT: -6.915096248      2.686      4.002
REMARK  3 active torsions:
REMARK  status: ('A' for Active; 'I' for Inactive)
REMARK    1  A    between atoms: O1_2  and  C2_3 
REMARK    2  A    between atoms: C4_7  and  C5_8 
REMARK    3  A    between atoms: C10_13  and  C11_14 
ROOT
HETATM    1  C2  UNL     1       8.329  -8.612   1.382  1.00  0.00     0.076 C 
HETATM    2  C3  UNL     1       8.756  -8.040   0.075  1.00  0.00     0.152 C 
HETATM    3  N1  UNL     1       7.747  -7.267  -0.576  1.00  0.00    -0.409 N 
ATOM      4  H1  UNL     1       7.852  -6.266  -0.743  1.00  0.00     0.154 HD
HETATM    5  C4  UNL     1       6.590  -7.982  -0.975  1.00  0.00     0.030 C 
HETATM    6  C12 UNL     1       5.490  -7.698   0.015  1.00  0.00     0.036 C 
HETATM    7  C13 UNL     1       5.918  -8.596   1.186  1.00  0.00    -0.005 C 
HETATM    8  C14 UNL     1       7.071  -7.973   1.939  1.00  0.00     0.045 C 
HETATM    9  C15 UNL     1       6.498  -9.832   0.567  1.00  0.00    -0.005 C 
HETATM   10  C16 UNL     1       7.856 -10.057   1.201  1.00  0.00     0.045 C 
HETATM   11  C17 UNL     1       6.714  -9.484  -0.869  1.00  0.00     0.036 C 
ENDROOT
BRANCH   5  12
HETATM   12  C5  UNL     1       6.227  -7.598  -2.385  1.00  0.00     0.027 C 
HETATM   13  C6  UNL     1       4.731  -7.607  -2.606  1.00  0.00     0.008 C 
HETATM   14  C7  UNL     1       4.211  -8.899  -3.154  1.00  0.00     0.001 C 
HETATM   15  C8  UNL     1       4.895  -9.327  -4.423  1.00  0.00     0.001 C 
HETATM   16  C9  UNL     1       6.054  -8.420  -4.667  1.00  0.00     0.016 C 
HETATM   17  C10 UNL     1       6.967  -8.362  -3.434  1.00  0.00     0.093 C 
BRANCH  17  18
HETATM   18  C11 UNL     1       8.179  -7.632  -3.858  1.00  0.00     0.177 C 
HETATM   19  O2  UNL     1       9.252  -7.759  -3.234  1.00  0.00    -0.648 OA
HETATM   20  O3  UNL     1       8.118  -6.803  -4.956  1.00  0.00    -0.648 OA
ENDBRANCH  17  18
ENDBRANCH   5  12
BRANCH   1  21
HETATM   21  O1  UNL     1       9.356  -8.593   2.319  1.00  0.00    -0.383 OA
HETATM   22  C1  UNL     1       8.886  -8.023   3.484  1.00  0.00     0.202 C 
ENDBRANCH   1  21
TORSDOF 3
ENDMDL
MODEL 4
REMARK VINA RESULT: -6.884469258      2.381      5.717
REMARK  3 active torsions:
REMARK  status: ('A' for Active; 'I' for Inactive)
REMARK    1  A    between atoms: O1_2  and  C2_3 
REMARK    2  A    between atoms: C4_7  and  C5_8 
REMARK    3  A    between atoms: C10_13  and  C11_14 
ROOT
HETATM    1  C2  UNL     1       1.176  -9.324  -4.835  1.00  0.00     0.076 C 
HETATM    2  C3  UNL     1       2.097 -10.092  -3.951  1.00  0.00     0.152 C 
HETATM    3  N1  UNL     1       3.017  -9.275  -3.226  1.00  0.00    -0.409 N 
ATOM      4  H1  UNL     1       3.001  -9.212  -2.208  1.00  0.00     0.154 HD
HETATM    5  C4  UNL     1       3.954  -8.560  -4.013  1.00  0.00     0.030 C 
HETATM    6  C12 UNL     1       3.501  -7.127  -4.107  1.00  0.00     0.036 C 
HETATM    7  C13 UNL     1       2.377  -7.248  -5.147  1.00  0.00    -0.005 C 
HETATM    8  C14 UNL     1       1.136  -7.840  -4.522  1.00  0.00     0.045 C 
HETATM    9  C15 UNL     1       2.834  -8.284  -6.129  1.00  0.00    -0.005 C 
HETATM   10  C16 UNL     1       1.715  -9.295  -6.268  1.00  0.00     0.045 C 
HETATM   11  C17 UNL     1       3.988  -8.965  -5.468  1.00  0.00     0.036 C 
ENDROOT
BRANCH   5  12
HETATM   12  C5  UNL     1       5.327  -8.706  -3.411  1.00  0.00     0.027 C 
HETATM   13  C6  UNL     1       5.270  -8.895  -1.912  1.00  0.00     0.008 C 
HETATM   14  C7  UNL     1       5.404  -7.621  -1.138  1.00  0.00     0.001 C 
HETATM   15  C8  UNL     1       6.641  -6.840  -1.484  1.00  0.00     0.001 C 
HETATM   16  C9  UNL     1       7.290  -7.479  -2.667  1.00  0.00     0.016 C 
HETATM   17  C10 UNL     1       6.286  -7.636  -3.818  1.00  0.00     0.093 C 
BRANCH  17  18
HETATM   18  C11 UNL     1       7.076  -8.058  -4.993  1.00  0.00     0.177 C 
HETATM   19  O2  UNL     1       8.119  -8.729  -4.853  1.00  0.00    -0.648 OA
HETATM   20  O3  UNL     1       6.652  -7.705  -6.254  1.00  0.00    -0.648 OA
ENDBRANCH  17  18
ENDBRANCH   5  12
BRANCH   1  21
HETATM   21  O1  UNL     1      -0.103  -9.867  -4.850  1.00  0.00    -0.383 OA
HETATM   22  C1  UNL     1      -0.817  -9.355  -3.785  1.00  0.00     0.202 C 
ENDBRANCH   1  21
TORSDOF 3
ENDMDL
MODEL 5
REMARK VINA RESULT: -6.861124160      2.212      6.529
REMARK  3 active torsions:
REMARK  status: ('A' for Active; 'I' for Inactive)
REMARK    1  A    between atoms: O1_2  and  C2_3 
REMARK    2  A    between atoms: C4_7  and  C5_8 
REMARK    3  A    between atoms: C10_13  and  C11_14 
ROOT
HETATM    1  C2  UNL     1       5.915  -8.378  -2.324  1.00  0.00     0.076 C 
HETATM    2  C3  UNL     1       6.010  -9.286  -1.147  1.00  0.00     0.152 C 
HETATM    3  N1  UNL     1       6.003  -8.607   0.110  1.00  0.00    -0.409 N 
ATOM      4  H1  UNL     1       5.251  -8.728   0.788  1.00  0.00     0.154 HD
HETATM    5  C4  UNL     1       7.110  -7.756   0.353  1.00  0.00     0.030 C 
HETATM    6  C12 UNL     1       6.674  -6.333   0.126  1.00  0.00     0.036 C 
HETATM    7  C13 UNL     1       6.675  -6.272  -1.409  1.00  0.00    -0.005 C 
HETATM    8  C14 UNL     1       5.461  -6.975  -1.969  1.00  0.00     0.045 C 
HETATM    9  C15 UNL     1       7.834  -7.113  -1.854  1.00  0.00    -0.005 C 
HETATM   10  C16 UNL     1       7.310  -8.090  -2.886  1.00  0.00     0.045 C 
HETATM   11  C17 UNL     1       8.236  -7.893  -0.646  1.00  0.00     0.036 C 
ENDROOT
BRANCH   5  12
HETATM   12  C5  UNL     1       7.630  -7.999   1.745  1.00  0.00     0.027 C 
HETATM   13  C6  UNL     1       7.777  -6.712   2.526  1.00  0.00     0.008 C 
HETATM   14  C7  UNL     1       9.147  -6.115   2.451  1.00  0.00     0.001 C 
HETATM   15  C8  UNL     1      10.235  -7.065   2.868  1.00  0.00     0.001 C 
HETATM   16  C9  UNL     1       9.638  -8.421   3.050  1.00  0.00     0.016 C 
HETATM   17  C10 UNL     1       8.861  -8.844   1.796  1.00  0.00     0.093 C 
BRANCH  17  18
HETATM   18  C11 UNL     1       8.512 -10.266   1.994  1.00  0.00     0.177 C 
HETATM   19  O2  UNL     1       7.321 -10.635   2.016  1.00  0.00    -0.648 OA
HETATM   20  O3  UNL     1       9.520 -11.192   2.155  1.00  0.00    -0.648 OA
ENDBRANCH  17  18
ENDBRANCH   5  12
BRANCH   1  21
HETATM   21  O1  UNL     1       5.128  -8.918  -3.334  1.00  0.00    -0.383 OA
HETATM   22  C1  UNL     1       3.806  -8.622  -3.077  1.00  0.00     0.202 C 
ENDBRANCH   1  21
TORSDOF 3
ENDMDL
