MODEL 1
REMARK VINA RESULT: -7.143406768      0.000      0.000
REMARK  15 active torsions:
REMARK  status: ('A' for Active; 'I' for Inactive)
REMARK    1  A    between atoms: C3_3  and  C5_5 
REMARK    2  A    between atoms: C5_5  and  O2_7 
REMARK    3  A    between atoms: O2_7  and  C6_8 
REMARK    4  A    between atoms: C8_10  and  O3_11 
REMARK    5  A    between atoms: C8_10  and  C9_13 
REMARK    6  A    between atoms: C9_13  and  O4_14 
REMARK    7  A    between atoms: O4_14  and  C10_15 
REMARK    8  A    between atoms: C10_15  and  C11_17 
REMARK    9  A    between atoms: C11_17  and  N1_18 
REMARK   10  A    between atoms: C11_17  and  C14_23 
REMARK       I    between atoms: N1_18  and  C12_20 
REMARK   11  A    between atoms: C16_26  and  N2_27 
REMARK   12  A    between atoms: C18_33  and  O7_34 
REMARK   13  A    between atoms: O7_34  and  C19_35 
REMARK   14  A    between atoms: C21_38  and  O9_39 
REMARK   15  A    between atoms: O9_39  and  C22_40 
ROOT
HETATM    1  C6  UNL     1     -32.024   8.410 -26.356  1.00  0.00     0.167 C 
HETATM    2  C7  UNL     1     -32.802   8.077 -25.119  1.00  0.00     0.075 C 
HETATM    3  C8  UNL     1     -32.082   7.171 -24.172  1.00  0.00     0.085 C 
HETATM    4  C17 UNL     1     -30.618   7.055 -24.389  1.00  0.00     0.075 C 
HETATM    5  C18 UNL     1     -30.112   7.058 -25.780  1.00  0.00     0.166 C 
HETATM    6  C21 UNL     1     -31.238   7.203 -26.751  1.00  0.00     0.191 C 
ENDROOT
BRANCH   3   7
HETATM    7  O3  UNL     1     -32.679   5.902 -24.183  1.00  0.00    -0.387 OA
ATOM      8  H3  UNL     1     -33.193   5.783 -23.393  1.00  0.00     0.210 HD
ENDBRANCH   3   7
BRANCH   3   9
HETATM    9  C9  UNL     1     -32.280   7.722 -22.774  1.00  0.00     0.216 C 
BRANCH   9  10
HETATM   10  O4  UNL     1     -33.008   8.934 -22.787  1.00  0.00    -0.317 OA
BRANCH  10  11
HETATM   11  C10 UNL     1     -33.937   9.259 -21.823  1.00  0.00     0.287 C 
HETATM   12  O5  UNL     1     -33.657   8.932 -20.634  1.00  0.00    -0.262 OA
BRANCH  11  13
HETATM   13  C11 UNL     1     -35.213   9.957 -22.127  1.00  0.00     0.235 C 
BRANCH  13  14
HETATM   14  N1  UNL     1     -35.990  10.181 -20.935  1.00  0.00    -0.343 N 
HETATM   15  C12 UNL     1     -35.886  11.377 -20.161  1.00  0.00     0.214 C 
HETATM   16  C13 UNL     1     -36.706  11.565 -18.938  1.00  0.00     0.117 C 
HETATM   17  O6  UNL     1     -35.107  12.312 -20.475  1.00  0.00    -0.274 OA
ATOM     18  H1  UNL     1     -36.640   9.456 -20.631  1.00  0.00     0.163 HD
ENDBRANCH  13  14
BRANCH  13  19
HETATM   19  C14 UNL     1     -36.023   9.142 -23.131  1.00  0.00     0.050 A 
HETATM   20  C15 UNL     1     -36.506   9.711 -24.278  1.00  0.00     0.081 A 
HETATM   21  S1  UNL     1     -37.313   8.406 -25.017  1.00  0.00    -0.064 SA
HETATM   22  C16 UNL     1     -36.996   7.221 -23.839  1.00  0.00     0.142 A 
HETATM   23  N3  UNL     1     -36.283   7.871 -22.925  1.00  0.00    -0.338 N 
ATOM     24  H3  UNL     1     -35.947   7.397 -22.087  1.00  0.00     0.168 HD
BRANCH  22  25
HETATM   25  N2  UNL     1     -37.354   5.955 -23.807  1.00  0.00    -0.380 N 
ATOM     26  H22 UNL     1     -38.299   5.588 -23.694  1.00  0.00     0.158 HD
ATOM     27  H21 UNL     1     -36.779   5.116 -23.886  1.00  0.00     0.158 HD
ENDBRANCH  22  25
ENDBRANCH  13  19
ENDBRANCH  11  13
ENDBRANCH  10  11
ENDBRANCH   9  10
ENDBRANCH   3   9
BRANCH   1  28
HETATM   28  O2  UNL     1     -31.146   9.491 -25.995  1.00  0.00    -0.309 OA
BRANCH  28  29
HETATM   29  C5  UNL     1     -31.245  10.717 -26.641  1.00  0.00     0.289 C 
HETATM   30  O1  UNL     1     -30.221  11.451 -26.628  1.00  0.00    -0.260 OA
BRANCH  29  31
HETATM   31  C3  UNL     1     -32.451  11.160 -27.304  1.00  0.00     0.009 C 
HETATM   32  C2  UNL     1     -33.501  11.653 -26.709  1.00  0.00    -0.018 C 
HETATM   33  C1  UNL     1     -33.655  11.846 -25.266  1.00  0.00     0.036 C 
HETATM   34  C4  UNL     1     -32.485  11.040 -28.808  1.00  0.00     0.054 C 
ENDBRANCH  29  31
ENDBRANCH  28  29
ENDBRANCH   1  28
BRANCH   5  35
HETATM   35  O7  UNL     1     -29.309   5.918 -26.050  1.00  0.00    -0.314 OA
BRANCH  35  36
HETATM   36  C19 UNL     1     -29.850   4.655 -25.977  1.00  0.00     0.255 C 
HETATM   37  C20 UNL     1     -30.103   3.782 -27.152  1.00  0.00     0.126 C 
HETATM   38  O8  UNL     1     -30.159   4.193 -24.842  1.00  0.00    -0.266 OA
ENDBRANCH  35  36
ENDBRANCH   5  35
BRANCH   6  39
HETATM   39  O9  UNL     1     -30.866   7.164 -28.091  1.00  0.00    -0.311 OA
BRANCH  39  40
HETATM   40  C22 UNL     1     -31.708   6.819 -29.108  1.00  0.00     0.255 C 
HETATM   41  C23 UNL     1     -31.707   7.624 -30.355  1.00  0.00     0.126 C 
HETATM   42  O10 UNL     1     -32.443   5.818 -28.914  1.00  0.00    -0.266 OA
ENDBRANCH  39  40
ENDBRANCH   6  39
TORSDOF 15
ENDMDL
MODEL 2
REMARK VINA RESULT: -6.975714938      1.571      2.951
REMARK  15 active torsions:
REMARK  status: ('A' for Active; 'I' for Inactive)
REMARK    1  A    between atoms: C3_3  and  C5_5 
REMARK    2  A    between atoms: C5_5  and  O2_7 
REMARK    3  A    between atoms: O2_7  and  C6_8 
REMARK    4  A    between atoms: C8_10  and  O3_11 
REMARK    5  A    between atoms: C8_10  and  C9_13 
REMARK    6  A    between atoms: C9_13  and  O4_14 
REMARK    7  A    between atoms: O4_14  and  C10_15 
REMARK    8  A    between atoms: C10_15  and  C11_17 
REMARK    9  A    between atoms: C11_17  and  N1_18 
REMARK   10  A    between atoms: C11_17  and  C14_23 
REMARK       I    between atoms: N1_18  and  C12_20 
REMARK   11  A    between atoms: C16_26  and  N2_27 
REMARK   12  A    between atoms: C18_33  and  O7_34 
REMARK   13  A    between atoms: O7_34  and  C19_35 
REMARK   14  A    between atoms: C21_38  and  O9_39 
REMARK   15  A    between atoms: O9_39  and  C22_40 
ROOT
HETATM    1  C6  UNL     1     -32.063   8.420 -26.317  1.00  0.00     0.167 C 
HETATM    2  C7  UNL     1     -32.781   8.045 -25.056  1.00  0.00     0.075 C 
HETATM    3  C8  UNL     1     -32.011   7.121 -24.169  1.00  0.00     0.085 C 
HETATM    4  C17 UNL     1     -30.557   7.025 -24.454  1.00  0.00     0.075 C 
HETATM    5  C18 UNL     1     -30.115   7.071 -25.866  1.00  0.00     0.166 C 
HETATM    6  C21 UNL     1     -31.285   7.231 -26.781  1.00  0.00     0.191 C 
ENDROOT
BRANCH   3   7
HETATM    7  O3  UNL     1     -32.597   5.847 -24.188  1.00  0.00    -0.387 OA
ATOM      8  H3  UNL     1     -33.334   5.842 -24.788  1.00  0.00     0.210 HD
ENDBRANCH   3   7
BRANCH   3   9
HETATM    9  C9  UNL     1     -32.150   7.631 -22.748  1.00  0.00     0.216 C 
BRANCH   9  10
HETATM   10  O4  UNL     1     -32.973   8.778 -22.681  1.00  0.00    -0.317 OA
BRANCH  10  11
HETATM   11  C10 UNL     1     -33.900   8.978 -21.683  1.00  0.00     0.287 C 
HETATM   12  O5  UNL     1     -33.464   8.968 -20.495  1.00  0.00    -0.262 OA
BRANCH  11  13
HETATM   13  C11 UNL     1     -35.346   9.195 -21.947  1.00  0.00     0.235 C 
BRANCH  13  14
HETATM   14  N1  UNL     1     -35.578   9.628 -23.301  1.00  0.00    -0.343 N 
HETATM   15  C12 UNL     1     -36.257   8.819 -24.264  1.00  0.00     0.214 C 
HETATM   16  C13 UNL     1     -36.473   9.306 -25.649  1.00  0.00     0.117 C 
HETATM   17  O6  UNL     1     -36.696   7.674 -23.985  1.00  0.00    -0.274 OA
ATOM     18  H1  UNL     1     -35.243  10.549 -23.584  1.00  0.00     0.163 HD
ENDBRANCH  13  14
BRANCH  13  19
HETATM   19  C14 UNL     1     -35.903  10.225 -20.969  1.00  0.00     0.050 A 
HETATM   20  C15 UNL     1     -36.983   9.938 -20.178  1.00  0.00     0.081 A 
HETATM   21  S1  UNL     1     -37.186  11.386 -19.304  1.00  0.00    -0.064 SA
HETATM   22  C16 UNL     1     -35.901  12.268 -19.986  1.00  0.00     0.142 A 
HETATM   23  N3  UNL     1     -35.365  11.418 -20.857  1.00  0.00    -0.338 N 
ATOM     24  H3  UNL     1     -34.559  11.684 -21.422  1.00  0.00     0.168 HD
BRANCH  22  25
HETATM   25  N2  UNL     1     -35.503  13.497 -19.736  1.00  0.00    -0.380 N 
ATOM     26  H22 UNL     1     -36.017  14.215 -19.224  1.00  0.00     0.158 HD
ATOM     27  H21 UNL     1     -34.633  13.963 -19.995  1.00  0.00     0.158 HD
ENDBRANCH  22  25
ENDBRANCH  13  19
ENDBRANCH  11  13
ENDBRANCH  10  11
ENDBRANCH   9  10
ENDBRANCH   3   9
BRANCH   1  28
HETATM   28  O2  UNL     1     -31.178   9.498 -25.966  1.00  0.00    -0.309 OA
BRANCH  28  29
HETATM   29  C5  UNL     1     -31.237  10.703 -26.656  1.00  0.00     0.289 C 
HETATM   30  O1  UNL     1     -30.205  11.425 -26.628  1.00  0.00    -0.260 OA
BRANCH  29  31
HETATM   31  C3  UNL     1     -32.411  11.136 -27.381  1.00  0.00     0.009 C 
HETATM   32  C2  UNL     1     -33.472  11.672 -26.846  1.00  0.00    -0.018 C 
HETATM   33  C1  UNL     1     -33.674  11.930 -25.419  1.00  0.00     0.036 C 
HETATM   34  C4  UNL     1     -32.394  10.951 -28.878  1.00  0.00     0.054 C 
ENDBRANCH  29  31
ENDBRANCH  28  29
ENDBRANCH   1  28
BRANCH   5  35
HETATM   35  O7  UNL     1     -29.315   5.946 -26.204  1.00  0.00    -0.314 OA
BRANCH  35  36
HETATM   36  C19 UNL     1     -29.813   4.672 -26.056  1.00  0.00     0.255 C 
HETATM   37  C20 UNL     1     -30.078   3.740 -27.182  1.00  0.00     0.126 C 
HETATM   38  O8  UNL     1     -30.068   4.252 -24.892  1.00  0.00    -0.266 OA
ENDBRANCH  35  36
ENDBRANCH   5  35
BRANCH   6  39
HETATM   39  O9  UNL     1     -30.974   7.233 -28.137  1.00  0.00    -0.311 OA
BRANCH  39  40
HETATM   40  C22 UNL     1     -31.558   6.410 -29.055  1.00  0.00     0.255 C 
HETATM   41  C23 UNL     1     -30.743   5.883 -30.178  1.00  0.00     0.126 C 
HETATM   42  O10 UNL     1     -32.775   6.148 -28.882  1.00  0.00    -0.266 OA
ENDBRANCH  39  40
ENDBRANCH   6  39
TORSDOF 15
ENDMDL
MODEL 3
REMARK VINA RESULT: -6.883553382      3.419      5.781
REMARK  15 active torsions:
REMARK  status: ('A' for Active; 'I' for Inactive)
REMARK    1  A    between atoms: C3_3  and  C5_5 
REMARK    2  A    between atoms: C5_5  and  O2_7 
REMARK    3  A    between atoms: O2_7  and  C6_8 
REMARK    4  A    between atoms: C8_10  and  O3_11 
REMARK    5  A    between atoms: C8_10  and  C9_13 
REMARK    6  A    between atoms: C9_13  and  O4_14 
REMARK    7  A    between atoms: O4_14  and  C10_15 
REMARK    8  A    between atoms: C10_15  and  C11_17 
REMARK    9  A    between atoms: C11_17  and  N1_18 
REMARK   10  A    between atoms: C11_17  and  C14_23 
REMARK       I    between atoms: N1_18  and  C12_20 
REMARK   11  A    between atoms: C16_26  and  N2_27 
REMARK   12  A    between atoms: C18_33  and  O7_34 
REMARK   13  A    between atoms: O7_34  and  C19_35 
REMARK   14  A    between atoms: C21_38  and  O9_39 
REMARK   15  A    between atoms: O9_39  and  C22_40 
ROOT
HETATM    1  C6  UNL     1     -31.088   5.203 -29.930  1.00  0.00     0.167 C 
HETATM    2  C7  UNL     1     -30.848   5.418 -28.467  1.00  0.00     0.075 C 
HETATM    3  C8  UNL     1     -29.403   5.493 -28.092  1.00  0.00     0.085 C 
HETATM    4  C17 UNL     1     -28.463   5.731 -29.216  1.00  0.00     0.075 C 
HETATM    5  C18 UNL     1     -28.752   5.093 -30.520  1.00  0.00     0.166 C 
HETATM    6  C21 UNL     1     -30.016   4.301 -30.451  1.00  0.00     0.191 C 
ENDROOT
BRANCH   3   7
HETATM    7  O3  UNL     1     -29.036   4.338 -27.385  1.00  0.00    -0.387 OA
ATOM      8  H3  UNL     1     -28.102   4.189 -27.477  1.00  0.00     0.210 HD
ENDBRANCH   3   7
BRANCH   3   9
HETATM    9  C9  UNL     1     -29.241   6.651 -27.127  1.00  0.00     0.216 C 
BRANCH   9  10
HETATM   10  O4  UNL     1     -30.299   7.581 -27.243  1.00  0.00    -0.317 OA
BRANCH  10  11
HETATM   11  C10 UNL     1     -30.746   8.342 -26.186  1.00  0.00     0.287 C 
HETATM   12  O5  UNL     1     -30.215   9.482 -26.045  1.00  0.00    -0.262 OA
BRANCH  11  13
HETATM   13  C11 UNL     1     -31.793   7.883 -25.237  1.00  0.00     0.235 C 
BRANCH  13  14
HETATM   14  N1  UNL     1     -31.704   6.466 -24.995  1.00  0.00    -0.343 N 
HETATM   15  C12 UNL     1     -31.379   5.922 -23.714  1.00  0.00     0.214 C 
HETATM   16  C13 UNL     1     -31.296   4.454 -23.510  1.00  0.00     0.117 C 
HETATM   17  O6  UNL     1     -31.152   6.651 -22.716  1.00  0.00    -0.274 OA
ATOM     18  H1  UNL     1     -31.878   5.825 -25.769  1.00  0.00     0.163 HD
ENDBRANCH  13  14
BRANCH  13  19
HETATM   19  C14 UNL     1     -33.175   8.231 -25.783  1.00  0.00     0.050 A 
HETATM   20  C15 UNL     1     -34.280   8.214 -24.975  1.00  0.00     0.081 A 
HETATM   21  S1  UNL     1     -35.521   8.663 -26.051  1.00  0.00    -0.064 SA
HETATM   22  C16 UNL     1     -34.578   8.845 -27.454  1.00  0.00     0.142 A 
HETATM   23  N3  UNL     1     -33.347   8.555 -27.044  1.00  0.00    -0.338 N 
ATOM     24  H3  UNL     1     -32.559   8.584 -27.690  1.00  0.00     0.168 HD
BRANCH  22  25
HETATM   25  N2  UNL     1     -34.944   9.189 -28.671  1.00  0.00    -0.380 N 
ATOM     26  H22 UNL     1     -35.874   9.484 -28.970  1.00  0.00     0.158 HD
ATOM     27  H21 UNL     1     -34.393   9.227 -29.528  1.00  0.00     0.158 HD
ENDBRANCH  22  25
ENDBRANCH  13  19
ENDBRANCH  11  13
ENDBRANCH  10  11
ENDBRANCH   9  10
ENDBRANCH   3   9
BRANCH   1  28
HETATM   28  O2  UNL     1     -30.999   6.501 -30.543  1.00  0.00    -0.309 OA
BRANCH  28  29
HETATM   29  C5  UNL     1     -32.109   7.336 -30.577  1.00  0.00     0.289 C 
HETATM   30  O1  UNL     1     -32.113   8.310 -29.779  1.00  0.00    -0.260 OA
BRANCH  29  31
HETATM   31  C3  UNL     1     -33.224   7.123 -31.474  1.00  0.00     0.009 C 
HETATM   32  C2  UNL     1     -34.304   6.451 -31.188  1.00  0.00    -0.018 C 
HETATM   33  C1  UNL     1     -34.586   5.786 -29.914  1.00  0.00     0.036 C 
HETATM   34  C4  UNL     1     -33.120   7.737 -32.848  1.00  0.00     0.054 C 
ENDBRANCH  29  31
ENDBRANCH  28  29
ENDBRANCH   1  28
BRANCH   5  35
HETATM   35  O7  UNL     1     -27.654   4.318 -30.982  1.00  0.00    -0.314 OA
BRANCH  35  36
HETATM   36  C19 UNL     1     -26.935   4.724 -32.083  1.00  0.00     0.255 C 
HETATM   37  C20 UNL     1     -27.290   4.388 -33.485  1.00  0.00     0.126 C 
HETATM   38  O8  UNL     1     -25.901   5.428 -31.906  1.00  0.00    -0.266 OA
ENDBRANCH  35  36
ENDBRANCH   5  35
BRANCH   6  39
HETATM   39  O9  UNL     1     -30.346   3.619 -31.618  1.00  0.00    -0.311 OA
BRANCH  39  40
HETATM   40  C22 UNL     1     -31.397   3.949 -32.423  1.00  0.00     0.255 C 
HETATM   41  C23 UNL     1     -31.150   4.761 -33.641  1.00  0.00     0.126 C 
HETATM   42  O10 UNL     1     -32.529   3.530 -32.071  1.00  0.00    -0.266 OA
ENDBRANCH  39  40
ENDBRANCH   6  39
TORSDOF 15
ENDMDL
MODEL 4
REMARK VINA RESULT: -6.840491962      0.906      1.329
REMARK  15 active torsions:
REMARK  status: ('A' for Active; 'I' for Inactive)
REMARK    1  A    between atoms: C3_3  and  C5_5 
REMARK    2  A    between atoms: C5_5  and  O2_7 
REMARK    3  A    between atoms: O2_7  and  C6_8 
REMARK    4  A    between atoms: C8_10  and  O3_11 
REMARK    5  A    between atoms: C8_10  and  C9_13 
REMARK    6  A    between atoms: C9_13  and  O4_14 
REMARK    7  A    between atoms: O4_14  and  C10_15 
REMARK    8  A    between atoms: C10_15  and  C11_17 
REMARK    9  A    between atoms: C11_17  and  N1_18 
REMARK   10  A    between atoms: C11_17  and  C14_23 
REMARK       I    between atoms: N1_18  and  C12_20 
REMARK   11  A    between atoms: C16_26  and  N2_27 
REMARK   12  A    between atoms: C18_33  and  O7_34 
REMARK   13  A    between atoms: O7_34  and  C19_35 
REMARK   14  A    between atoms: C21_38  and  O9_39 
REMARK   15  A    between atoms: O9_39  and  C22_40 
ROOT
HETATM    1  C6  UNL     1     -32.176   8.477 -26.255  1.00  0.00     0.167 C 
HETATM    2  C7  UNL     1     -32.909   8.042 -25.023  1.00  0.00     0.075 C 
HETATM    3  C8  UNL     1     -32.123   7.131 -24.136  1.00  0.00     0.085 C 
HETATM    4  C17 UNL     1     -30.660   7.103 -24.385  1.00  0.00     0.075 C 
HETATM    5  C18 UNL     1     -30.184   7.202 -25.783  1.00  0.00     0.166 C 
HETATM    6  C21 UNL     1     -31.335   7.334 -26.725  1.00  0.00     0.191 C 
ENDROOT
BRANCH   3   7
HETATM    7  O3  UNL     1     -32.653   5.834 -24.200  1.00  0.00    -0.387 OA
ATOM      8  H3  UNL     1     -32.379   5.337 -23.437  1.00  0.00     0.210 HD
ENDBRANCH   3   7
BRANCH   3   9
HETATM    9  C9  UNL     1     -32.321   7.600 -22.708  1.00  0.00     0.216 C 
BRANCH   9  10
HETATM   10  O4  UNL     1     -33.019   8.828 -22.653  1.00  0.00    -0.317 OA
BRANCH  10  11
HETATM   11  C10 UNL     1     -33.858   9.166 -21.614  1.00  0.00     0.287 C 
HETATM   12  O5  UNL     1     -33.515   8.777 -20.460  1.00  0.00    -0.262 OA
BRANCH  11  13
HETATM   13  C11 UNL     1     -35.109   9.946 -21.800  1.00  0.00     0.235 C 
BRANCH  13  14
HETATM   14  N1  UNL     1     -35.389  10.777 -20.658  1.00  0.00    -0.343 N 
HETATM   15  C12 UNL     1     -35.587  12.189 -20.761  1.00  0.00     0.214 C 
HETATM   16  C13 UNL     1     -35.873  13.007 -19.556  1.00  0.00     0.117 C 
HETATM   17  O6  UNL     1     -35.530  12.793 -21.862  1.00  0.00    -0.274 OA
ATOM     18  H1  UNL     1     -35.447  10.341 -19.738  1.00  0.00     0.163 HD
ENDBRANCH  13  14
BRANCH  13  19
HETATM   19  C14 UNL     1     -36.278   8.998 -22.052  1.00  0.00     0.050 A 
HETATM   20  C15 UNL     1     -37.452   9.123 -21.360  1.00  0.00     0.081 A 
HETATM   21  S1  UNL     1     -38.389   7.855 -22.005  1.00  0.00    -0.064 SA
HETATM   22  C16 UNL     1     -37.247   7.242 -23.107  1.00  0.00     0.142 A 
HETATM   23  N3  UNL     1     -36.193   8.033 -22.939  1.00  0.00    -0.338 N 
ATOM     24  H3  UNL     1     -35.341   7.895 -23.482  1.00  0.00     0.168 HD
BRANCH  22  25
HETATM   25  N2  UNL     1     -37.350   6.229 -23.942  1.00  0.00    -0.380 N 
ATOM     26  H22 UNL     1     -36.620   5.558 -24.183  1.00  0.00     0.158 HD
ATOM     27  H21 UNL     1     -38.150   5.924 -24.496  1.00  0.00     0.158 HD
ENDBRANCH  22  25
ENDBRANCH  13  19
ENDBRANCH  11  13
ENDBRANCH  10  11
ENDBRANCH   9  10
ENDBRANCH   3   9
BRANCH   1  28
HETATM   28  O2  UNL     1     -31.348   9.583 -25.856  1.00  0.00    -0.309 OA
BRANCH  28  29
HETATM   29  C5  UNL     1     -31.378  10.773 -26.573  1.00  0.00     0.289 C 
HETATM   30  O1  UNL     1     -30.278  11.360 -26.749  1.00  0.00    -0.260 OA
BRANCH  29  31
HETATM   31  C3  UNL     1     -32.599  11.337 -27.105  1.00  0.00     0.009 C 
HETATM   32  C2  UNL     1     -33.035  11.178 -28.324  1.00  0.00    -0.018 C 
HETATM   33  C1  UNL     1     -32.371  10.407 -29.376  1.00  0.00     0.036 C 
HETATM   34  C4  UNL     1     -33.431  12.173 -26.164  1.00  0.00     0.054 C 
ENDBRANCH  29  31
ENDBRANCH  28  29
ENDBRANCH   1  28
BRANCH   5  35
HETATM   35  O7  UNL     1     -29.328   6.121 -26.124  1.00  0.00    -0.314 OA
BRANCH  35  36
HETATM   36  C19 UNL     1     -29.798   4.828 -26.093  1.00  0.00     0.255 C 
HETATM   37  C20 UNL     1     -29.993   3.979 -27.296  1.00  0.00     0.126 C 
HETATM   38  O8  UNL     1     -30.087   4.315 -24.976  1.00  0.00    -0.266 OA
ENDBRANCH  35  36
ENDBRANCH   5  35
BRANCH   6  39
HETATM   39  O9  UNL     1     -30.990   7.381 -28.071  1.00  0.00    -0.311 OA
BRANCH  39  40
HETATM   40  C22 UNL     1     -31.616   6.660 -29.046  1.00  0.00     0.255 C 
HETATM   41  C23 UNL     1     -30.971   6.528 -30.376  1.00  0.00     0.126 C 
HETATM   42  O10 UNL     1     -32.722   6.145 -28.743  1.00  0.00    -0.266 OA
ENDBRANCH  39  40
ENDBRANCH   6  39
TORSDOF 15
ENDMDL
MODEL 5
REMARK VINA RESULT: -6.772837287      3.557      7.306
REMARK  15 active torsions:
REMARK  status: ('A' for Active; 'I' for Inactive)
REMARK    1  A    between atoms: C3_3  and  C5_5 
REMARK    2  A    between atoms: C5_5  and  O2_7 
REMARK    3  A    between atoms: O2_7  and  C6_8 
REMARK    4  A    between atoms: C8_10  and  O3_11 
REMARK    5  A    between atoms: C8_10  and  C9_13 
REMARK    6  A    between atoms: C9_13  and  O4_14 
REMARK    7  A    between atoms: O4_14  and  C10_15 
REMARK    8  A    between atoms: C10_15  and  C11_17 
REMARK    9  A    between atoms: C11_17  and  N1_18 
REMARK   10  A    between atoms: C11_17  and  C14_23 
REMARK       I    between atoms: N1_18  and  C12_20 
REMARK   11  A    between atoms: C16_26  and  N2_27 
REMARK   12  A    between atoms: C18_33  and  O7_34 
REMARK   13  A    between atoms: O7_34  and  C19_35 
REMARK   14  A    between atoms: C21_38  and  O9_39 
REMARK   15  A    between atoms: O9_39  and  C22_40 
ROOT
HETATM    1  C6  UNL     1     -32.122   8.381 -25.899  1.00  0.00     0.167 C 
HETATM    2  C7  UNL     1     -30.983   9.069 -26.589  1.00  0.00     0.075 C 
HETATM    3  C8  UNL     1     -29.788   8.198 -26.809  1.00  0.00     0.085 C 
HETATM    4  C17 UNL     1     -30.030   6.739 -26.679  1.00  0.00     0.075 C 
HETATM    5  C18 UNL     1     -30.977   6.274 -25.642  1.00  0.00     0.166 C 
HETATM    6  C21 UNL     1     -31.552   7.432 -24.895  1.00  0.00     0.191 C 
ENDROOT
BRANCH   3   7
HETATM    7  O3  UNL     1     -28.747   8.598 -25.959  1.00  0.00    -0.387 OA
ATOM      8  H3  UNL     1     -28.003   8.885 -26.476  1.00  0.00     0.210 HD
ENDBRANCH   3   7
BRANCH   3   9
HETATM    9  C9  UNL     1     -29.300   8.442 -28.223  1.00  0.00     0.216 C 
BRANCH   9  10
HETATM   10  O4  UNL     1     -30.364   8.755 -29.098  1.00  0.00    -0.317 OA
BRANCH  10  11
HETATM   11  C10 UNL     1     -30.838   7.874 -30.045  1.00  0.00     0.287 C 
HETATM   12  O5  UNL     1     -31.546   8.366 -30.972  1.00  0.00    -0.262 OA
BRANCH  11  13
HETATM   13  C11 UNL     1     -30.556   6.416 -30.014  1.00  0.00     0.235 C 
BRANCH  13  14
HETATM   14  N1  UNL     1     -29.449   6.073 -30.867  1.00  0.00    -0.343 N 
HETATM   15  C12 UNL     1     -28.239   5.498 -30.368  1.00  0.00     0.214 C 
HETATM   16  C13 UNL     1     -27.122   5.160 -31.285  1.00  0.00     0.117 C 
HETATM   17  O6  UNL     1     -28.069   5.255 -29.146  1.00  0.00    -0.274 OA
ATOM     18  H1  UNL     1     -29.530   6.247 -31.869  1.00  0.00     0.163 HD
ENDBRANCH  13  14
BRANCH  13  19
HETATM   19  C14 UNL     1     -31.799   5.639 -30.436  1.00  0.00     0.050 A 
HETATM   20  C15 UNL     1     -31.833   4.946 -31.617  1.00  0.00     0.081 A 
HETATM   21  S1  UNL     1     -33.402   4.283 -31.601  1.00  0.00    -0.064 SA
HETATM   22  C16 UNL     1     -33.923   4.916 -30.111  1.00  0.00     0.142 A 
HETATM   23  N3  UNL     1     -32.874   5.611 -29.682  1.00  0.00    -0.338 N 
ATOM     24  H3  UNL     1     -32.903   6.109 -28.793  1.00  0.00     0.168 HD
BRANCH  22  25
HETATM   25  N2  UNL     1     -35.079   4.773 -29.499  1.00  0.00    -0.380 N 
ATOM     26  H22 UNL     1     -35.688   3.955 -29.524  1.00  0.00     0.158 HD
ATOM     27  H21 UNL     1     -35.581   5.428 -28.899  1.00  0.00     0.158 HD
ENDBRANCH  22  25
ENDBRANCH  13  19
ENDBRANCH  11  13
ENDBRANCH  10  11
ENDBRANCH   9  10
ENDBRANCH   3   9
BRANCH   1  28
HETATM   28  O2  UNL     1     -32.835   7.666 -26.923  1.00  0.00    -0.309 OA
BRANCH  28  29
HETATM   29  C5  UNL     1     -34.039   8.159 -27.411  1.00  0.00     0.289 C 
HETATM   30  O1  UNL     1     -34.359   7.823 -28.582  1.00  0.00    -0.260 OA
BRANCH  29  31
HETATM   31  C3  UNL     1     -34.905   9.019 -26.636  1.00  0.00     0.009 C 
HETATM   32  C2  UNL     1     -34.954  10.319 -26.726  1.00  0.00    -0.018 C 
HETATM   33  C1  UNL     1     -34.141  11.146 -27.619  1.00  0.00     0.036 C 
HETATM   34  C4  UNL     1     -35.828   8.347 -25.649  1.00  0.00     0.054 C 
ENDBRANCH  29  31
ENDBRANCH  28  29
ENDBRANCH   1  28
BRANCH   5  35
HETATM   35  O7  UNL     1     -30.382   5.315 -24.778  1.00  0.00    -0.314 OA
BRANCH  35  36
HETATM   36  C19 UNL     1     -31.079   4.186 -24.411  1.00  0.00     0.255 C 
HETATM   37  C20 UNL     1     -31.339   3.782 -23.006  1.00  0.00     0.126 C 
HETATM   38  O8  UNL     1     -31.533   3.433 -25.318  1.00  0.00    -0.266 OA
ENDBRANCH  35  36
ENDBRANCH   5  35
BRANCH   6  39
HETATM   39  O9  UNL     1     -32.418   7.091 -23.861  1.00  0.00    -0.311 OA
BRANCH  39  40
HETATM   40  C22 UNL     1     -32.497   7.766 -22.677  1.00  0.00     0.255 C 
HETATM   41  C23 UNL     1     -33.357   8.973 -22.587  1.00  0.00     0.126 C 
HETATM   42  O10 UNL     1     -31.821   7.308 -21.722  1.00  0.00    -0.266 OA
ENDBRANCH  39  40
ENDBRANCH   6  39
TORSDOF 15
ENDMDL
