MODEL 1
REMARK VINA RESULT: -5.378694186      0.000      0.000
REMARK  10 active torsions:
REMARK  status: ('A' for Active; 'I' for Inactive)
REMARK    1  A    between atoms: O1_2  and  C2_3 
REMARK    2  A    between atoms: C3_4  and  O2_5 
REMARK    3  A    between atoms: C4_7  and  O3_8 
REMARK    4  A    between atoms: O3_8  and  C5_9 
REMARK    5  A    between atoms: C7_12  and  O5_13 
REMARK    6  A    between atoms: C8_15  and  O6_16 
REMARK    7  A    between atoms: C9_18  and  O7_19 
REMARK    8  A    between atoms: C10_21  and  O8_22 
REMARK    9  A    between atoms: C12_24  and  O9_25 
REMARK   10  A    between atoms: C14_29  and  O10_30 
ROOT
HETATM    1  C2  UNL     1     -32.724  10.937 -26.773  1.00  0.00     0.185 C 
HETATM    2  C3  UNL     1     -31.941   9.649 -26.831  1.00  0.00     0.181 C 
HETATM    3  C4  UNL     1     -32.824   8.437 -26.909  1.00  0.00     0.189 C 
HETATM    4  C10 UNL     1     -34.163   8.626 -26.247  1.00  0.00     0.204 C 
HETATM    5  C12 UNL     1     -34.175   9.648 -25.166  1.00  0.00     0.203 C 
HETATM    6  C13 UNL     1     -33.639   9.097 -23.896  1.00  0.00     0.103 C 
HETATM    7  N1  UNL     1     -33.208   8.674 -22.912  1.00  0.00    -0.194 NA
HETATM    8  C14 UNL     1     -33.531  10.951 -25.500  1.00  0.00     0.204 C 
ENDROOT
BRANCH   5   9
HETATM    9  O9  UNL     1     -35.534   9.928 -24.880  1.00  0.00    -0.371 OA
ATOM     10  H9  UNL     1     -35.541  10.558 -24.169  1.00  0.00     0.212 HD
ENDBRANCH   5   9
BRANCH   4  11
HETATM   11  O8  UNL     1     -35.177   8.926 -27.148  1.00  0.00    -0.384 OA
HETATM   12  C11 UNL     1     -35.221   8.027 -28.209  1.00  0.00     0.202 C 
ENDBRANCH   4  11
BRANCH   8  13
HETATM   13  O10 UNL     1     -34.440  12.000 -25.600  1.00  0.00    -0.384 OA
HETATM   14  C15 UNL     1     -33.943  13.158 -24.973  1.00  0.00     0.202 C 
ENDBRANCH   8  13
BRANCH   3  15
HETATM   15  O3  UNL     1     -32.113   7.368 -26.373  1.00  0.00    -0.348 OA
BRANCH  15  16
HETATM   16  C5  UNL     1     -31.085   6.936 -27.186  1.00  0.00     0.291 C 
HETATM   17  O4  UNL     1     -31.590   5.837 -27.916  1.00  0.00    -0.356 OA
HETATM   18  C6  UNL     1     -30.760   5.669 -29.000  1.00  0.00     0.205 C 
HETATM   19  C7  UNL     1     -29.392   5.247 -28.588  1.00  0.00     0.173 C 
HETATM   20  C8  UNL     1     -29.072   5.433 -27.153  1.00  0.00     0.182 C 
HETATM   21  C9  UNL     1     -29.888   6.447 -26.436  1.00  0.00     0.204 C 
BRANCH  19  22
HETATM   22  O5  UNL     1     -28.474   5.900 -29.438  1.00  0.00    -0.391 OA
ATOM     23  H5  UNL     1     -27.665   5.404 -29.416  1.00  0.00     0.210 HD
ENDBRANCH  19  22
BRANCH  20  24
HETATM   24  O6  UNL     1     -29.079   4.179 -26.497  1.00  0.00    -0.390 OA
ATOM     25  H6  UNL     1     -29.890   4.074 -26.014  1.00  0.00     0.210 HD
ENDBRANCH  20  24
BRANCH  21  26
HETATM   26  O7  UNL     1     -29.109   7.526 -25.958  1.00  0.00    -0.388 OA
ATOM     27  H7  UNL     1     -28.307   7.618 -26.459  1.00  0.00     0.210 HD
ENDBRANCH  21  26
ENDBRANCH  15  16
ENDBRANCH   3  15
BRANCH   1  28
HETATM   28  O1  UNL     1     -33.474  11.133 -27.901  1.00  0.00    -0.385 OA
HETATM   29  C1  UNL     1     -32.871  12.076 -28.709  1.00  0.00     0.202 C 
ENDBRANCH   1  28
BRANCH   2  30
HETATM   30  O2  UNL     1     -31.152   9.582 -25.683  1.00  0.00    -0.390 OA
ATOM     31  H2  UNL     1     -31.112   8.672 -25.413  1.00  0.00     0.210 HD
ENDBRANCH   2  30
TORSDOF 10
ENDMDL
MODEL 2
REMARK VINA RESULT: -5.264831696      2.467      6.295
REMARK  10 active torsions:
REMARK  status: ('A' for Active; 'I' for Inactive)
REMARK    1  A    between atoms: O1_2  and  C2_3 
REMARK    2  A    between atoms: C3_4  and  O2_5 
REMARK    3  A    between atoms: C4_7  and  O3_8 
REMARK    4  A    between atoms: O3_8  and  C5_9 
REMARK    5  A    between atoms: C7_12  and  O5_13 
REMARK    6  A    between atoms: C8_15  and  O6_16 
REMARK    7  A    between atoms: C9_18  and  O7_19 
REMARK    8  A    between atoms: C10_21  and  O8_22 
REMARK    9  A    between atoms: C12_24  and  O9_25 
REMARK   10  A    between atoms: C14_29  and  O10_30 
ROOT
HETATM    1  C2  UNL     1     -30.543   6.968 -25.706  1.00  0.00     0.185 C 
HETATM    2  C3  UNL     1     -30.326   8.460 -25.770  1.00  0.00     0.181 C 
HETATM    3  C4  UNL     1     -31.505   9.194 -26.344  1.00  0.00     0.189 C 
HETATM    4  C10 UNL     1     -32.301   8.375 -27.326  1.00  0.00     0.204 C 
HETATM    5  C12 UNL     1     -31.524   7.303 -28.004  1.00  0.00     0.203 C 
HETATM    6  C13 UNL     1     -30.719   7.846 -29.127  1.00  0.00     0.103 C 
HETATM    7  N1  UNL     1     -30.082   8.270 -29.991  1.00  0.00    -0.194 NA
HETATM    8  C14 UNL     1     -30.690   6.446 -27.112  1.00  0.00     0.204 C 
ENDROOT
BRANCH   5   9
HETATM    9  O9  UNL     1     -32.463   6.446 -28.628  1.00  0.00    -0.371 OA
ATOM     10  H9  UNL     1     -32.135   6.268 -29.502  1.00  0.00     0.212 HD
ENDBRANCH   5   9
BRANCH   4  11
HETATM   11  O8  UNL     1     -33.437   7.807 -26.765  1.00  0.00    -0.384 OA
HETATM   12  C11 UNL     1     -34.162   8.722 -26.007  1.00  0.00     0.202 C 
ENDBRANCH   4  11
BRANCH   8  13
HETATM   13  O10 UNL     1     -31.157   5.138 -27.018  1.00  0.00    -0.384 OA
HETATM   14  C15 UNL     1     -30.100   4.241 -26.777  1.00  0.00     0.202 C 
ENDBRANCH   8  13
BRANCH   3  15
HETATM   15  O3  UNL     1     -31.029  10.376 -26.901  1.00  0.00    -0.348 OA
BRANCH  15  16
HETATM   16  C5  UNL     1     -32.034  11.252 -27.257  1.00  0.00     0.291 C 
HETATM   17  O4  UNL     1     -32.298  11.020 -28.625  1.00  0.00    -0.356 OA
HETATM   18  C6  UNL     1     -33.539  11.554 -28.883  1.00  0.00     0.205 C 
HETATM   19  C7  UNL     1     -33.540  13.038 -28.749  1.00  0.00     0.173 C 
HETATM   20  C8  UNL     1     -32.374  13.616 -28.040  1.00  0.00     0.182 C 
HETATM   21  C9  UNL     1     -31.652  12.692 -27.126  1.00  0.00     0.204 C 
BRANCH  19  22
HETATM   22  O5  UNL     1     -34.770  13.409 -28.165  1.00  0.00    -0.391 OA
ATOM     23  H5  UNL     1     -34.926  12.822 -27.436  1.00  0.00     0.210 HD
ENDBRANCH  19  22
BRANCH  20  24
HETATM   24  O6  UNL     1     -31.507  14.233 -28.972  1.00  0.00    -0.390 OA
ATOM     25  H6  UNL     1     -32.004  14.818 -29.532  1.00  0.00     0.210 HD
ENDBRANCH  20  24
BRANCH  21  26
HETATM   26  O7  UNL     1     -31.709  13.114 -25.778  1.00  0.00    -0.388 OA
ATOM     27  H7  UNL     1     -30.845  13.110 -25.380  1.00  0.00     0.210 HD
ENDBRANCH  21  26
ENDBRANCH  15  16
ENDBRANCH   3  15
BRANCH   1  28
HETATM   28  O1  UNL     1     -31.586   6.636 -24.885  1.00  0.00    -0.385 OA
HETATM   29  C1  UNL     1     -31.219   6.813 -23.566  1.00  0.00     0.202 C 
ENDBRANCH   1  28
BRANCH   2  30
HETATM   30  O2  UNL     1     -29.200   8.691 -26.559  1.00  0.00    -0.390 OA
ATOM     31  H2  UNL     1     -28.984   9.613 -26.491  1.00  0.00     0.210 HD
ENDBRANCH   2  30
TORSDOF 10
ENDMDL
MODEL 3
REMARK VINA RESULT: -5.255200156      2.856      4.786
REMARK  10 active torsions:
REMARK  status: ('A' for Active; 'I' for Inactive)
REMARK    1  A    between atoms: O1_2  and  C2_3 
REMARK    2  A    between atoms: C3_4  and  O2_5 
REMARK    3  A    between atoms: C4_7  and  O3_8 
REMARK    4  A    between atoms: O3_8  and  C5_9 
REMARK    5  A    between atoms: C7_12  and  O5_13 
REMARK    6  A    between atoms: C8_15  and  O6_16 
REMARK    7  A    between atoms: C9_18  and  O7_19 
REMARK    8  A    between atoms: C10_21  and  O8_22 
REMARK    9  A    between atoms: C12_24  and  O9_25 
REMARK   10  A    between atoms: C14_29  and  O10_30 
ROOT
HETATM    1  C2  UNL     1     -36.684   8.782 -23.664  1.00  0.00     0.185 C 
HETATM    2  C3  UNL     1     -35.338   8.387 -24.220  1.00  0.00     0.181 C 
HETATM    3  C4  UNL     1     -34.220   8.606 -23.242  1.00  0.00     0.189 C 
HETATM    4  C10 UNL     1     -34.479   9.731 -22.275  1.00  0.00     0.204 C 
HETATM    5  C12 UNL     1     -35.414  10.771 -22.780  1.00  0.00     0.203 C 
HETATM    6  C13 UNL     1     -34.724  11.724 -23.686  1.00  0.00     0.103 C 
HETATM    7  N1  UNL     1     -34.192  12.457 -24.402  1.00  0.00    -0.194 NA
HETATM    8  C14 UNL     1     -36.675  10.264 -23.396  1.00  0.00     0.204 C 
ENDROOT
BRANCH   5   9
HETATM    9  O9  UNL     1     -35.794  11.559 -21.666  1.00  0.00    -0.371 OA
ATOM     10  H9  UNL     1     -35.866  12.455 -21.974  1.00  0.00     0.212 HD
ENDBRANCH   5   9
BRANCH   4  11
HETATM   11  O8  UNL     1     -34.936   9.291 -21.040  1.00  0.00    -0.384 OA
HETATM   12  C11 UNL     1     -33.893   9.033 -20.155  1.00  0.00     0.202 C 
ENDBRANCH   4  11
BRANCH   8  13
HETATM   13  O10 UNL     1     -37.807  10.553 -22.638  1.00  0.00    -0.384 OA
HETATM   14  C15 UNL     1     -38.870  10.972 -23.459  1.00  0.00     0.202 C 
ENDBRANCH   8  13
BRANCH   3  15
HETATM   15  O3  UNL     1     -33.054   8.796 -23.977  1.00  0.00    -0.348 OA
BRANCH  15  16
HETATM   16  C5  UNL     1     -32.512   7.619 -24.451  1.00  0.00     0.291 C 
HETATM   17  O4  UNL     1     -31.522   7.234 -23.520  1.00  0.00    -0.356 OA
HETATM   18  C6  UNL     1     -31.278   5.897 -23.732  1.00  0.00     0.205 C 
HETATM   19  C7  UNL     1     -30.653   5.655 -25.063  1.00  0.00     0.173 C 
HETATM   20  C8  UNL     1     -30.740   6.781 -26.023  1.00  0.00     0.182 C 
HETATM   21  C9  UNL     1     -31.833   7.757 -25.775  1.00  0.00     0.204 C 
BRANCH  19  22
HETATM   22  O5  UNL     1     -31.200   4.460 -25.575  1.00  0.00    -0.391 OA
ATOM     23  H5  UNL     1     -30.620   4.154 -26.262  1.00  0.00     0.210 HD
ENDBRANCH  19  22
BRANCH  20  24
HETATM   24  O6  UNL     1     -29.477   7.407 -26.138  1.00  0.00    -0.390 OA
ATOM     25  H6  UNL     1     -29.467   7.969 -26.904  1.00  0.00     0.210 HD
ENDBRANCH  20  24
BRANCH  21  26
HETATM   26  O7  UNL     1     -32.774   7.793 -26.830  1.00  0.00    -0.388 OA
ATOM     27  H7  UNL     1     -33.643   8.001 -26.508  1.00  0.00     0.210 HD
ENDBRANCH  21  26
ENDBRANCH  15  16
ENDBRANCH   3  15
BRANCH   1  28
HETATM   28  O1  UNL     1     -37.030   8.028 -22.575  1.00  0.00    -0.385 OA
HETATM   29  C1  UNL     1     -37.558   6.821 -22.988  1.00  0.00     0.202 C 
ENDBRANCH   1  28
BRANCH   2  30
HETATM   30  O2  UNL     1     -35.115   9.149 -25.367  1.00  0.00    -0.390 OA
ATOM     31  H2  UNL     1     -34.410   8.738 -25.854  1.00  0.00     0.210 HD
ENDBRANCH   2  30
TORSDOF 10
ENDMDL
MODEL 4
REMARK VINA RESULT: -5.198004475      2.715      3.862
REMARK  10 active torsions:
REMARK  status: ('A' for Active; 'I' for Inactive)
REMARK    1  A    between atoms: O1_2  and  C2_3 
REMARK    2  A    between atoms: C3_4  and  O2_5 
REMARK    3  A    between atoms: C4_7  and  O3_8 
REMARK    4  A    between atoms: O3_8  and  C5_9 
REMARK    5  A    between atoms: C7_12  and  O5_13 
REMARK    6  A    between atoms: C8_15  and  O6_16 
REMARK    7  A    between atoms: C9_18  and  O7_19 
REMARK    8  A    between atoms: C10_21  and  O8_22 
REMARK    9  A    between atoms: C12_24  and  O9_25 
REMARK   10  A    between atoms: C14_29  and  O10_30 
ROOT
HETATM    1  C2  UNL     1     -35.588  10.739 -22.733  1.00  0.00     0.185 C 
HETATM    2  C3  UNL     1     -34.495   9.707 -22.859  1.00  0.00     0.181 C 
HETATM    3  C4  UNL     1     -34.413   9.114 -24.237  1.00  0.00     0.189 C 
HETATM    4  C10 UNL     1     -35.734   9.093 -24.960  1.00  0.00     0.204 C 
HETATM    5  C12 UNL     1     -36.923   9.069 -24.068  1.00  0.00     0.203 C 
HETATM    6  C13 UNL     1     -37.192   7.699 -23.563  1.00  0.00     0.103 C 
HETATM    7  N1  UNL     1     -37.393   6.637 -23.158  1.00  0.00    -0.194 NA
HETATM    8  C14 UNL     1     -36.915  10.060 -22.952  1.00  0.00     0.204 C 
ENDROOT
BRANCH   5   9
HETATM    9  O9  UNL     1     -38.048   9.373 -24.873  1.00  0.00    -0.371 OA
ATOM     10  H9  UNL     1     -38.145   8.659 -25.491  1.00  0.00     0.212 HD
ENDBRANCH   5   9
BRANCH   4  11
HETATM   11  O8  UNL     1     -35.878  10.143 -25.857  1.00  0.00    -0.384 OA
HETATM   12  C11 UNL     1     -34.754  10.304 -26.664  1.00  0.00     0.202 C 
ENDBRANCH   4  11
BRANCH   8  13
HETATM   13  O10 UNL     1     -37.870  11.061 -23.105  1.00  0.00    -0.384 OA
HETATM   14  C15 UNL     1     -38.478  11.370 -21.873  1.00  0.00     0.202 C 
ENDBRANCH   8  13
BRANCH   3  15
HETATM   15  O3  UNL     1     -33.856   7.845 -24.112  1.00  0.00    -0.348 OA
BRANCH  15  16
HETATM   16  C5  UNL     1     -32.571   7.765 -24.606  1.00  0.00     0.291 C 
HETATM   17  O4  UNL     1     -32.692   7.526 -25.993  1.00  0.00    -0.356 OA
HETATM   18  C6  UNL     1     -31.483   7.860 -26.559  1.00  0.00     0.205 C 
HETATM   19  C7  UNL     1     -30.395   6.943 -26.116  1.00  0.00     0.173 C 
HETATM   20  C8  UNL     1     -30.704   6.114 -24.928  1.00  0.00     0.182 C 
HETATM   21  C9  UNL     1     -31.776   6.633 -24.039  1.00  0.00     0.204 C 
BRANCH  19  22
HETATM   22  O5  UNL     1     -29.230   7.721 -25.948  1.00  0.00    -0.391 OA
ATOM     23  H5  UNL     1     -29.087   8.197 -26.758  1.00  0.00     0.210 HD
ENDBRANCH  19  22
BRANCH  20  24
HETATM   24  O6  UNL     1     -30.940   4.777 -25.328  1.00  0.00    -0.390 OA
ATOM     25  H6  UNL     1     -30.343   4.543 -26.029  1.00  0.00     0.210 HD
ENDBRANCH  20  24
BRANCH  21  26
HETATM   26  O7  UNL     1     -31.300   6.943 -22.744  1.00  0.00    -0.388 OA
ATOM     27  H7  UNL     1     -30.392   6.681 -22.640  1.00  0.00     0.210 HD
ENDBRANCH  21  26
ENDBRANCH  15  16
ENDBRANCH   3  15
BRANCH   1  28
HETATM   28  O1  UNL     1     -35.377  11.812 -23.555  1.00  0.00    -0.385 OA
HETATM   29  C1  UNL     1     -34.982  12.904 -22.809  1.00  0.00     0.202 C 
ENDBRANCH   1  28
BRANCH   2  30
HETATM   30  O2  UNL     1     -34.754   8.700 -21.929  1.00  0.00    -0.390 OA
ATOM     31  H2  UNL     1     -35.261   8.026 -22.367  1.00  0.00     0.210 HD
ENDBRANCH   2  30
TORSDOF 10
ENDMDL
MODEL 5
REMARK VINA RESULT: -5.118857598      1.025      1.056
REMARK  10 active torsions:
REMARK  status: ('A' for Active; 'I' for Inactive)
REMARK    1  A    between atoms: O1_2  and  C2_3 
REMARK    2  A    between atoms: C3_4  and  O2_5 
REMARK    3  A    between atoms: C4_7  and  O3_8 
REMARK    4  A    between atoms: O3_8  and  C5_9 
REMARK    5  A    between atoms: C7_12  and  O5_13 
REMARK    6  A    between atoms: C8_15  and  O6_16 
REMARK    7  A    between atoms: C9_18  and  O7_19 
REMARK    8  A    between atoms: C10_21  and  O8_22 
REMARK    9  A    between atoms: C12_24  and  O9_25 
REMARK   10  A    between atoms: C14_29  and  O10_30 
ROOT
HETATM    1  C2  UNL     1     -32.631  11.121 -26.259  1.00  0.00     0.185 C 
HETATM    2  C3  UNL     1     -31.917   9.796 -26.353  1.00  0.00     0.181 C 
HETATM    3  C4  UNL     1     -32.621   8.819 -27.251  1.00  0.00     0.189 C 
HETATM    4  C10 UNL     1     -34.112   9.024 -27.308  1.00  0.00     0.204 C 
HETATM    5  C12 UNL     1     -34.689   9.675 -26.101  1.00  0.00     0.203 C 
HETATM    6  C13 UNL     1     -34.878   8.700 -24.998  1.00  0.00     0.103 C 
HETATM    7  N1  UNL     1     -35.010   7.945 -24.135  1.00  0.00    -0.194 NA
HETATM    8  C14 UNL     1     -33.978  10.896 -25.622  1.00  0.00     0.204 C 
ENDROOT
BRANCH   5   9
HETATM    9  O9  UNL     1     -36.004  10.079 -26.440  1.00  0.00    -0.371 OA
ATOM     10  H9  UNL     1     -36.597   9.487 -25.994  1.00  0.00     0.212 HD
ENDBRANCH   5   9
BRANCH   4  11
HETATM   11  O8  UNL     1     -34.520   9.734 -28.429  1.00  0.00    -0.384 OA
HETATM   12  C11 UNL     1     -33.961   9.233 -29.601  1.00  0.00     0.202 C 
ENDBRANCH   4  11
BRANCH   8  13
HETATM   13  O10 UNL     1     -34.716  12.063 -25.797  1.00  0.00    -0.384 OA
HETATM   14  C15 UNL     1     -34.637  12.885 -24.657  1.00  0.00     0.202 C 
ENDBRANCH   8  13
BRANCH   3  15
HETATM   15  O3  UNL     1     -32.277   7.540 -26.827  1.00  0.00    -0.348 OA
BRANCH  15  16
HETATM   16  C5  UNL     1     -31.181   7.025 -27.487  1.00  0.00     0.291 C 
HETATM   17  O4  UNL     1     -31.649   5.920 -28.234  1.00  0.00    -0.356 OA
HETATM   18  C6  UNL     1     -30.701   5.666 -29.198  1.00  0.00     0.205 C 
HETATM   19  C7  UNL     1     -29.419   5.197 -28.602  1.00  0.00     0.173 C 
HETATM   20  C8  UNL     1     -29.270   5.429 -27.146  1.00  0.00     0.182 C 
HETATM   21  C9  UNL     1     -30.113   6.512 -26.575  1.00  0.00     0.204 C 
BRANCH  19  22
HETATM   22  O5  UNL     1     -28.370   5.768 -29.354  1.00  0.00    -0.391 OA
ATOM     23  H5  UNL     1     -27.929   6.396 -28.795  1.00  0.00     0.210 HD
ENDBRANCH  19  22
BRANCH  20  24
HETATM   24  O6  UNL     1     -29.423   4.207 -26.451  1.00  0.00    -0.390 OA
ATOM     25  H6  UNL     1     -29.624   4.381 -25.538  1.00  0.00     0.210 HD
ENDBRANCH  20  24
BRANCH  21  26
HETATM   26  O7  UNL     1     -29.343   7.572 -26.044  1.00  0.00    -0.388 OA
ATOM     27  H7  UNL     1     -28.539   7.692 -26.535  1.00  0.00     0.210 HD
ENDBRANCH  21  26
ENDBRANCH  15  16
ENDBRANCH   3  15
BRANCH   1  28
HETATM   28  O1  UNL     1     -32.696  11.755 -27.471  1.00  0.00    -0.385 OA
HETATM   29  C1  UNL     1     -31.880  12.869 -27.461  1.00  0.00     0.202 C 
ENDBRANCH   1  28
BRANCH   2  30
HETATM   30  O2  UNL     1     -31.830   9.270 -25.063  1.00  0.00    -0.390 OA
ATOM     31  H2  UNL     1     -31.179   8.579 -25.077  1.00  0.00     0.210 HD
ENDBRANCH   2  30
TORSDOF 10
ENDMDL
