MODEL 1
REMARK VINA RESULT: -7.131179394      0.000      0.000
REMARK  8 active torsions:
REMARK  status: ('A' for Active; 'I' for Inactive)
REMARK    1  A    between atoms: N1_1  and  C1_4 
REMARK    2  A    between atoms: C2_7  and  N3_8 
REMARK    3  A    between atoms: C5_13  and  N5_14 
REMARK    4  A    between atoms: N6_17  and  C8_18 
REMARK    5  A    between atoms: C10_20  and  N7_21 
REMARK    6  A    between atoms: N7_21  and  C11_23 
REMARK    7  A    between atoms: C11_23  and  C12_24 
REMARK    8  A    between atoms: C12_24  and  O1_25 
ROOT
HETATM    1  N5  UNL     1     -30.683   7.428 -27.143  1.00  0.00    -0.155 N 
HETATM    2  C6  UNL     1     -29.873   7.278 -25.973  1.00  0.00     0.224 C 
HETATM    3  C7  UNL     1     -30.872   7.588 -24.875  1.00  0.00     0.176 C 
HETATM    4  N6  UNL     1     -31.994   8.217 -25.540  1.00  0.00    -0.325 N 
HETATM    5  C14 UNL     1     -31.486   8.626 -26.853  1.00  0.00     0.314 C 
HETATM    6  N10 UNL     1     -30.604   9.752 -26.771  1.00  0.00    -0.348 N 
ATOM      7  H10 UNL     1     -30.956  10.669 -27.046  1.00  0.00     0.164 HD
HETATM    8  C15 UNL     1     -29.380   9.654 -26.363  1.00  0.00     0.176 C 
HETATM    9  N11 UNL     1     -28.902   8.372 -25.984  1.00  0.00    -0.363 N 
ATOM     10  H11 UNL     1     -27.925   8.221 -25.732  1.00  0.00     0.162 HD
ENDROOT
BRANCH   1  11
HETATM   11  C5  UNL     1     -30.809   6.676 -28.340  1.00  0.00     0.714 A 
HETATM   12  N4  UNL     1     -29.751   6.313 -29.087  1.00  0.00    -0.021 N 
HETATM   13  C2  UNL     1     -29.902   5.601 -30.214  1.00  0.00     0.709 A 
ATOM     14  H4  UNL     1     -28.814   6.586 -28.791  1.00  0.00     0.203 HD
HETATM   15  N2  UNL     1     -31.120   5.216 -30.650  1.00  0.00    -0.022 N 
HETATM   16  C1  UNL     1     -32.182   5.571 -29.916  1.00  0.00     0.705 A 
ATOM     17  H2  UNL     1     -31.227   4.675 -31.509  1.00  0.00     0.203 HD
HETATM   18  N12 UNL     1     -32.029   6.280 -28.794  1.00  0.00    -0.021 N 
ATOM     19  H12 UNL     1     -32.858   6.533 -28.257  1.00  0.00     0.203 HD
BRANCH  13  20
HETATM   20  N3  UNL     1     -28.734   5.243 -30.954  1.00  0.00    -0.214 N 
HETATM   21  C3  UNL     1     -28.207   4.509 -32.161  1.00  0.00     0.161 A 
HETATM   22  C4  UNL     1     -27.325   5.195 -31.245  1.00  0.00     0.161 A 
ENDBRANCH  13  20
BRANCH  16  23
HETATM   23  N1  UNL     1     -33.349   5.218 -30.313  1.00  0.00    -0.234 N 
ATOM     24  H12 UNL     1     -33.469   4.409 -30.921  1.00  0.00     0.174 HD
ATOM     25  H11 UNL     1     -34.155   5.763 -30.007  1.00  0.00     0.174 HD
ENDBRANCH  16  23
ENDBRANCH   1  11
BRANCH   4  26
HETATM   26  C8  UNL     1     -33.320   8.425 -25.124  1.00  0.00     0.110 A 
HETATM   27  C9  UNL     1     -33.636   8.459 -23.783  1.00  0.00     0.096 A 
HETATM   28  C10 UNL     1     -34.943   8.672 -23.406  1.00  0.00     0.105 A 
HETATM   29  N8  UNL     1     -35.891   8.846 -24.363  1.00  0.00    -0.339 N 
HETATM   30  C13 UNL     1     -35.564   8.809 -25.661  1.00  0.00     0.183 A 
ATOM     31  H8  UNL     1     -36.861   9.004 -24.090  1.00  0.00     0.168 HD
HETATM   32  N9  UNL     1     -34.308   8.605 -26.011  1.00  0.00    -0.339 N 
ATOM     33  H9  UNL     1     -34.079   8.582 -27.005  1.00  0.00     0.168 HD
BRANCH  28  34
HETATM   34  N7  UNL     1     -35.258   8.704 -22.140  1.00  0.00    -0.374 N 
ATOM     35  H7  UNL     1     -36.193   8.453 -21.820  1.00  0.00     0.161 HD
BRANCH  34  36
HETATM   36  C11 UNL     1     -34.222   9.112 -21.199  1.00  0.00     0.147 C 
BRANCH  36  37
HETATM   37  C12 UNL     1     -34.800   9.733 -19.961  1.00  0.00     0.183 C 
BRANCH  37  38
HETATM   38  O1  UNL     1     -34.148   9.147 -18.864  1.00  0.00    -0.399 OA
ATOM     39  H1  UNL     1     -34.819   8.910 -18.236  1.00  0.00     0.209 HD
ENDBRANCH  37  38
ENDBRANCH  36  37
ENDBRANCH  34  36
ENDBRANCH  28  34
ENDBRANCH   4  26
TORSDOF 8
ENDMDL
MODEL 2
REMARK VINA RESULT: -7.044222919      1.769      2.720
REMARK  8 active torsions:
REMARK  status: ('A' for Active; 'I' for Inactive)
REMARK    1  A    between atoms: N1_1  and  C1_4 
REMARK    2  A    between atoms: C2_7  and  N3_8 
REMARK    3  A    between atoms: C5_13  and  N5_14 
REMARK    4  A    between atoms: N6_17  and  C8_18 
REMARK    5  A    between atoms: C10_20  and  N7_21 
REMARK    6  A    between atoms: N7_21  and  C11_23 
REMARK    7  A    between atoms: C11_23  and  C12_24 
REMARK    8  A    between atoms: C12_24  and  O1_25 
ROOT
HETATM    1  N5  UNL     1     -31.366   8.143 -27.844  1.00  0.00    -0.155 N 
HETATM    2  C6  UNL     1     -31.212   9.550 -28.060  1.00  0.00     0.224 C 
HETATM    3  C7  UNL     1     -31.656  10.110 -26.723  1.00  0.00     0.176 C 
HETATM    4  N6  UNL     1     -32.338   9.021 -26.056  1.00  0.00    -0.325 N 
HETATM    5  C14 UNL     1     -32.638   8.048 -27.110  1.00  0.00     0.314 C 
HETATM    6  N10 UNL     1     -33.692   8.486 -27.974  1.00  0.00    -0.348 N 
ATOM      7  H10 UNL     1     -34.620   8.077 -27.860  1.00  0.00     0.164 HD
HETATM    8  C15 UNL     1     -33.518   9.381 -28.893  1.00  0.00     0.176 C 
HETATM    9  N11 UNL     1     -32.223   9.943 -29.041  1.00  0.00    -0.363 N 
ATOM     10  H11 UNL     1     -32.007  10.592 -29.799  1.00  0.00     0.162 HD
ENDROOT
BRANCH   1  11
HETATM   11  C5  UNL     1     -30.567   7.017 -28.170  1.00  0.00     0.714 A 
HETATM   12  N4  UNL     1     -30.236   6.700 -29.434  1.00  0.00    -0.021 N 
HETATM   13  C2  UNL     1     -29.477   5.629 -29.710  1.00  0.00     0.709 A 
ATOM     14  H4  UNL     1     -30.569   7.287 -30.199  1.00  0.00     0.203 HD
HETATM   15  N2  UNL     1     -29.013   4.820 -28.735  1.00  0.00    -0.022 N 
HETATM   16  C1  UNL     1     -29.335   5.124 -27.472  1.00  0.00     0.705 A 
ATOM     17  H2  UNL     1     -28.437   4.006 -28.953  1.00  0.00     0.203 HD
HETATM   18  N12 UNL     1     -30.090   6.192 -27.199  1.00  0.00    -0.021 N 
ATOM     19  H12 UNL     1     -30.317   6.396 -26.226  1.00  0.00     0.203 HD
BRANCH  13  20
HETATM   20  N3  UNL     1     -29.157   5.356 -31.075  1.00  0.00    -0.214 N 
HETATM   21  C3  UNL     1     -28.044   5.110 -32.063  1.00  0.00     0.161 A 
HETATM   22  C4  UNL     1     -29.431   5.120 -32.469  1.00  0.00     0.161 A 
ENDBRANCH  13  20
BRANCH  16  23
HETATM   23  N1  UNL     1     -28.907   4.368 -26.529  1.00  0.00    -0.234 N 
ATOM     24  H12 UNL     1     -28.131   3.726 -26.688  1.00  0.00     0.174 HD
ATOM     25  H11 UNL     1     -29.357   4.422 -25.615  1.00  0.00     0.174 HD
ENDBRANCH  16  23
ENDBRANCH   1  11
BRANCH   4  26
HETATM   26  C8  UNL     1     -32.671   8.826 -24.704  1.00  0.00     0.110 A 
HETATM   27  C9  UNL     1     -33.695   9.544 -24.125  1.00  0.00     0.096 A 
HETATM   28  C10 UNL     1     -34.003   9.326 -22.801  1.00  0.00     0.105 A 
HETATM   29  N8  UNL     1     -33.294   8.407 -22.096  1.00  0.00    -0.339 N 
HETATM   30  C13 UNL     1     -32.302   7.719 -22.676  1.00  0.00     0.183 A 
ATOM     31  H8  UNL     1     -33.517   8.241 -21.115  1.00  0.00     0.168 HD
HETATM   32  N9  UNL     1     -32.015   7.937 -23.946  1.00  0.00    -0.339 N 
ATOM     33  H9  UNL     1     -31.258   7.402 -24.371  1.00  0.00     0.168 HD
BRANCH  28  34
HETATM   34  N7  UNL     1     -34.969  10.001 -22.238  1.00  0.00    -0.374 N 
ATOM     35  H7  UNL     1     -35.253  10.914 -22.593  1.00  0.00     0.161 HD
BRANCH  34  36
HETATM   36  C11 UNL     1     -35.625   9.401 -21.084  1.00  0.00     0.147 C 
BRANCH  36  37
HETATM   37  C12 UNL     1     -35.239  10.079 -19.802  1.00  0.00     0.183 C 
BRANCH  37  38
HETATM   38  O1  UNL     1     -34.183   9.338 -19.247  1.00  0.00    -0.399 OA
ATOM     39  H1  UNL     1     -34.158   9.542 -18.319  1.00  0.00     0.209 HD
ENDBRANCH  37  38
ENDBRANCH  36  37
ENDBRANCH  34  36
ENDBRANCH  28  34
ENDBRANCH   4  26
TORSDOF 8
ENDMDL
MODEL 3
REMARK VINA RESULT: -7.019616391      2.413      4.694
REMARK  8 active torsions:
REMARK  status: ('A' for Active; 'I' for Inactive)
REMARK    1  A    between atoms: N1_1  and  C1_4 
REMARK    2  A    between atoms: C2_7  and  N3_8 
REMARK    3  A    between atoms: C5_13  and  N5_14 
REMARK    4  A    between atoms: N6_17  and  C8_18 
REMARK    5  A    between atoms: C10_20  and  N7_21 
REMARK    6  A    between atoms: N7_21  and  C11_23 
REMARK    7  A    between atoms: C11_23  and  C12_24 
REMARK    8  A    between atoms: C12_24  and  O1_25 
ROOT
HETATM    1  N5  UNL     1     -33.298   9.235 -25.608  1.00  0.00    -0.155 N 
HETATM    2  C6  UNL     1     -33.996  10.438 -25.949  1.00  0.00     0.224 C 
HETATM    3  C7  UNL     1     -34.523  10.872 -24.595  1.00  0.00     0.176 C 
HETATM    4  N6  UNL     1     -34.385   9.714 -23.737  1.00  0.00    -0.325 N 
HETATM    5  C14 UNL     1     -34.197   8.579 -24.645  1.00  0.00     0.314 C 
HETATM    6  N10 UNL     1     -35.404   8.220 -25.327  1.00  0.00    -0.348 N 
ATOM      7  H10 UNL     1     -35.915   7.394 -25.014  1.00  0.00     0.164 HD
HETATM    8  C15 UNL     1     -35.875   8.899 -26.323  1.00  0.00     0.176 C 
HETATM    9  N11 UNL     1     -35.155  10.046 -26.750  1.00  0.00    -0.363 N 
ATOM     10  H11 UNL     1     -35.434  10.573 -27.578  1.00  0.00     0.162 HD
ENDROOT
BRANCH   1  11
HETATM   11  C5  UNL     1     -32.044   8.696 -25.997  1.00  0.00     0.714 A 
HETATM   12  N4  UNL     1     -31.888   7.415 -26.374  1.00  0.00    -0.021 N 
HETATM   13  C2  UNL     1     -30.689   6.935 -26.738  1.00  0.00     0.709 A 
ATOM     14  H4  UNL     1     -32.698   6.795 -26.383  1.00  0.00     0.203 HD
HETATM   15  N2  UNL     1     -29.586   7.713 -26.741  1.00  0.00    -0.022 N 
HETATM   16  C1  UNL     1     -29.728   8.991 -26.368  1.00  0.00     0.705 A 
ATOM     17  H2  UNL     1     -28.677   7.341 -27.018  1.00  0.00     0.203 HD
HETATM   18  N12 UNL     1     -30.923   9.467 -26.007  1.00  0.00    -0.021 N 
ATOM     19  H12 UNL     1     -30.997  10.445 -25.728  1.00  0.00     0.203 HD
BRANCH  13  20
HETATM   20  N3  UNL     1     -30.596   5.566 -27.135  1.00  0.00    -0.214 N 
HETATM   21  C3  UNL     1     -30.635   4.606 -28.297  1.00  0.00     0.161 A 
HETATM   22  C4  UNL     1     -30.438   4.148 -26.941  1.00  0.00     0.161 A 
ENDBRANCH  13  20
BRANCH  16  23
HETATM   23  N1  UNL     1     -28.693   9.748 -26.361  1.00  0.00    -0.234 N 
ATOM     24  H12 UNL     1     -27.883   9.527 -26.939  1.00  0.00     0.174 HD
ATOM     25  H11 UNL     1     -28.698  10.577 -25.767  1.00  0.00     0.174 HD
ENDBRANCH  16  23
ENDBRANCH   1  11
BRANCH   4  26
HETATM   26  C8  UNL     1     -34.392   9.592 -22.337  1.00  0.00     0.110 A 
HETATM   27  C9  UNL     1     -35.250  10.352 -21.572  1.00  0.00     0.096 A 
HETATM   28  C10 UNL     1     -35.240  10.204 -20.203  1.00  0.00     0.105 A 
HETATM   29  N8  UNL     1     -34.386   9.313 -19.637  1.00  0.00    -0.339 N 
HETATM   30  C13 UNL     1     -33.559   8.583 -20.397  1.00  0.00     0.183 A 
ATOM     31  H8  UNL     1     -34.374   9.198 -18.624  1.00  0.00     0.168 HD
HETATM   32  N9  UNL     1     -33.578   8.732 -21.708  1.00  0.00    -0.339 N 
ATOM     33  H9  UNL     1     -32.943   8.166 -22.270  1.00  0.00     0.168 HD
BRANCH  28  34
HETATM   34  N7  UNL     1     -36.045  10.920 -19.466  1.00  0.00    -0.374 N 
ATOM     35  H7  UNL     1     -36.260  10.653 -18.505  1.00  0.00     0.161 HD
BRANCH  34  36
HETATM   36  C11 UNL     1     -36.624  12.114 -20.066  1.00  0.00     0.147 C 
BRANCH  36  37
HETATM   37  C12 UNL     1     -36.280  13.355 -19.296  1.00  0.00     0.183 C 
BRANCH  37  38
HETATM   38  O1  UNL     1     -35.138  13.909 -19.898  1.00  0.00    -0.399 OA
ATOM     39  H1  UNL     1     -34.931  14.704 -19.422  1.00  0.00     0.209 HD
ENDBRANCH  37  38
ENDBRANCH  36  37
ENDBRANCH  34  36
ENDBRANCH  28  34
ENDBRANCH   4  26
TORSDOF 8
ENDMDL
MODEL 4
REMARK VINA RESULT: -6.862151415      2.600      3.670
REMARK  8 active torsions:
REMARK  status: ('A' for Active; 'I' for Inactive)
REMARK    1  A    between atoms: N1_1  and  C1_4 
REMARK    2  A    between atoms: C2_7  and  N3_8 
REMARK    3  A    between atoms: C5_13  and  N5_14 
REMARK    4  A    between atoms: N6_17  and  C8_18 
REMARK    5  A    between atoms: C10_20  and  N7_21 
REMARK    6  A    between atoms: N7_21  and  C11_23 
REMARK    7  A    between atoms: C11_23  and  C12_24 
REMARK    8  A    between atoms: C12_24  and  O1_25 
ROOT
HETATM    1  N5  UNL     1     -31.802   7.854 -28.945  1.00  0.00    -0.155 N 
HETATM    2  C6  UNL     1     -31.987   9.145 -29.535  1.00  0.00     0.224 C 
HETATM    3  C7  UNL     1     -32.521   9.938 -28.359  1.00  0.00     0.176 C 
HETATM    4  N6  UNL     1     -32.914   8.952 -27.374  1.00  0.00    -0.325 N 
HETATM    5  C14 UNL     1     -33.000   7.686 -28.107  1.00  0.00     0.314 C 
HETATM    6  N10 UNL     1     -34.146   7.627 -28.964  1.00  0.00    -0.348 N 
ATOM      7  H10 UNL     1     -34.948   7.070 -28.670  1.00  0.00     0.164 HD
HETATM    8  C15 UNL     1     -34.206   8.251 -30.097  1.00  0.00     0.176 C 
HETATM    9  N11 UNL     1     -33.082   9.021 -30.496  1.00  0.00    -0.363 N 
ATOM     10  H11 UNL     1     -33.041   9.468 -31.412  1.00  0.00     0.162 HD
ENDROOT
BRANCH   1  11
HETATM   11  C5  UNL     1     -30.767   6.886 -29.031  1.00  0.00     0.714 A 
HETATM   12  N4  UNL     1     -30.236   6.490 -30.201  1.00  0.00    -0.021 N 
HETATM   13  C2  UNL     1     -29.258   5.573 -30.249  1.00  0.00     0.709 A 
ATOM     14  H4  UNL     1     -30.585   6.895 -31.070  1.00  0.00     0.203 HD
HETATM   15  N2  UNL     1     -28.763   5.006 -29.129  1.00  0.00    -0.022 N 
HETATM   16  C1  UNL     1     -29.284   5.392 -27.957  1.00  0.00     0.705 A 
ATOM     17  H2  UNL     1     -28.019   4.308 -29.173  1.00  0.00     0.203 HD
HETATM   18  N12 UNL     1     -30.257   6.305 -27.911  1.00  0.00    -0.021 N 
ATOM     19  H12 UNL     1     -30.631   6.577 -27.003  1.00  0.00     0.203 HD
BRANCH  13  20
HETATM   20  N3  UNL     1     -28.733   5.205 -31.525  1.00  0.00    -0.214 N 
HETATM   21  C3  UNL     1     -29.058   4.630 -32.882  1.00  0.00     0.161 A 
HETATM   22  C4  UNL     1     -27.715   5.031 -32.529  1.00  0.00     0.161 A 
ENDBRANCH  13  20
BRANCH  16  23
HETATM   23  N1  UNL     1     -28.830   4.864 -26.880  1.00  0.00    -0.234 N 
ATOM     24  H12 UNL     1     -28.042   4.218 -26.908  1.00  0.00     0.174 HD
ATOM     25  H11 UNL     1     -29.273   5.105 -25.993  1.00  0.00     0.174 HD
ENDBRANCH  16  23
ENDBRANCH   1  11
BRANCH   4  26
HETATM   26  C8  UNL     1     -33.164   9.067 -25.996  1.00  0.00     0.110 A 
HETATM   27  C9  UNL     1     -32.577   8.198 -25.102  1.00  0.00     0.096 A 
HETATM   28  C10 UNL     1     -32.835   8.341 -23.757  1.00  0.00     0.105 A 
HETATM   29  N8  UNL     1     -33.661   9.336 -23.341  1.00  0.00    -0.339 N 
HETATM   30  C13 UNL     1     -34.223  10.171 -24.225  1.00  0.00     0.183 A 
ATOM     31  H8  UNL     1     -33.856   9.447 -22.347  1.00  0.00     0.168 HD
HETATM   32  N9  UNL     1     -33.968  10.024 -25.512  1.00  0.00    -0.339 N 
ATOM     33  H9  UNL     1     -34.404  10.671 -26.169  1.00  0.00     0.168 HD
BRANCH  28  34
HETATM   34  N7  UNL     1     -32.288   7.524 -22.899  1.00  0.00    -0.374 N 
ATOM     35  H7  UNL     1     -32.621   7.466 -21.937  1.00  0.00     0.161 HD
BRANCH  34  36
HETATM   36  C11 UNL     1     -31.185   6.696 -23.368  1.00  0.00     0.147 C 
BRANCH  36  37
HETATM   37  C12 UNL     1     -31.614   5.282 -23.631  1.00  0.00     0.183 C 
BRANCH  37  38
HETATM   38  O1  UNL     1     -31.148   4.943 -24.912  1.00  0.00    -0.399 OA
ATOM     39  H1  UNL     1     -30.997   4.005 -24.913  1.00  0.00     0.209 HD
ENDBRANCH  37  38
ENDBRANCH  36  37
ENDBRANCH  34  36
ENDBRANCH  28  34
ENDBRANCH   4  26
TORSDOF 8
ENDMDL
MODEL 5
REMARK VINA RESULT: -6.849393086      4.539      9.551
REMARK  8 active torsions:
REMARK  status: ('A' for Active; 'I' for Inactive)
REMARK    1  A    between atoms: N1_1  and  C1_4 
REMARK    2  A    between atoms: C2_7  and  N3_8 
REMARK    3  A    between atoms: C5_13  and  N5_14 
REMARK    4  A    between atoms: N6_17  and  C8_18 
REMARK    5  A    between atoms: C10_20  and  N7_21 
REMARK    6  A    between atoms: N7_21  and  C11_23 
REMARK    7  A    between atoms: C11_23  and  C12_24 
REMARK    8  A    between atoms: C12_24  and  O1_25 
ROOT
HETATM    1  N5  UNL     1     -31.279   6.657 -29.070  1.00  0.00    -0.155 N 
HETATM    2  C6  UNL     1     -32.311   5.741 -29.453  1.00  0.00     0.224 C 
HETATM    3  C7  UNL     1     -31.614   4.940 -30.534  1.00  0.00     0.176 C 
HETATM    4  N6  UNL     1     -30.438   5.706 -30.886  1.00  0.00    -0.325 N 
HETATM    5  C14 UNL     1     -30.678   7.050 -30.354  1.00  0.00     0.314 C 
HETATM    6  N10 UNL     1     -31.658   7.770 -31.110  1.00  0.00    -0.348 N 
ATOM      7  H10 UNL     1     -31.342   8.497 -31.753  1.00  0.00     0.164 HD
HETATM    8  C15 UNL     1     -32.927   7.539 -31.011  1.00  0.00     0.176 C 
HETATM    9  N11 UNL     1     -33.354   6.527 -30.112  1.00  0.00    -0.363 N 
ATOM     10  H11 UNL     1     -34.344   6.355 -29.933  1.00  0.00     0.162 HD
ENDROOT
BRANCH   1  11
HETATM   11  C5  UNL     1     -30.821   7.134 -27.814  1.00  0.00     0.714 A 
HETATM   12  N4  UNL     1     -31.221   6.606 -26.644  1.00  0.00    -0.021 N 
HETATM   13  C2  UNL     1     -30.768   7.079 -25.473  1.00  0.00     0.709 A 
ATOM     14  H4  UNL     1     -31.883   5.830 -26.647  1.00  0.00     0.203 HD
HETATM   15  N2  UNL     1     -29.893   8.104 -25.414  1.00  0.00    -0.022 N 
HETATM   16  C1  UNL     1     -29.486   8.639 -26.573  1.00  0.00     0.705 A 
ATOM     17  H2  UNL     1     -29.553   8.459 -24.520  1.00  0.00     0.203 HD
HETATM   18  N12 UNL     1     -29.938   8.166 -27.738  1.00  0.00    -0.021 N 
ATOM     19  H12 UNL     1     -29.608   8.596 -28.602  1.00  0.00     0.203 HD
BRANCH  13  20
HETATM   20  N3  UNL     1     -31.228   6.466 -24.268  1.00  0.00    -0.214 N 
HETATM   21  C3  UNL     1     -31.603   6.692 -22.825  1.00  0.00     0.161 A 
HETATM   22  C4  UNL     1     -31.661   5.380 -23.427  1.00  0.00     0.161 A 
ENDBRANCH  13  20
BRANCH  16  23
HETATM   23  N1  UNL     1     -28.656   9.616 -26.541  1.00  0.00    -0.234 N 
ATOM     24  H12 UNL     1     -27.725   9.495 -26.144  1.00  0.00     0.174 HD
ATOM     25  H11 UNL     1     -28.946  10.517 -26.922  1.00  0.00     0.174 HD
ENDBRANCH  16  23
ENDBRANCH   1  11
BRANCH   4  26
HETATM   26  C8  UNL     1     -29.263   5.341 -31.565  1.00  0.00     0.110 A 
HETATM   27  C9  UNL     1     -29.311   4.938 -32.882  1.00  0.00     0.096 A 
HETATM   28  C10 UNL     1     -28.142   4.594 -33.523  1.00  0.00     0.105 A 
HETATM   29  N8  UNL     1     -26.968   4.659 -32.844  1.00  0.00    -0.339 N 
HETATM   30  C13 UNL     1     -26.941   5.053 -31.564  1.00  0.00     0.183 A 
ATOM     31  H8  UNL     1     -26.098   4.406 -33.313  1.00  0.00     0.168 HD
HETATM   32  N9  UNL     1     -28.067   5.382 -30.960  1.00  0.00    -0.339 N 
ATOM     33  H9  UNL     1     -28.026   5.680 -29.986  1.00  0.00     0.168 HD
BRANCH  28  34
HETATM   34  N7  UNL     1     -28.173   4.207 -34.769  1.00  0.00    -0.374 N 
ATOM     35  H7  UNL     1     -28.257   3.221 -35.016  1.00  0.00     0.161 HD
BRANCH  34  36
HETATM   36  C11 UNL     1     -28.083   5.238 -35.796  1.00  0.00     0.147 C 
BRANCH  36  37
HETATM   37  C12 UNL     1     -26.660   5.553 -36.152  1.00  0.00     0.183 C 
BRANCH  37  38
HETATM   38  O1  UNL     1     -25.903   4.401 -35.880  1.00  0.00    -0.399 OA
ATOM     39  H1  UNL     1     -26.455   3.820 -35.371  1.00  0.00     0.209 HD
ENDBRANCH  37  38
ENDBRANCH  36  37
ENDBRANCH  34  36
ENDBRANCH  28  34
ENDBRANCH   4  26
TORSDOF 8
ENDMDL
