MODEL 1
REMARK VINA RESULT: -3.482964852      0.000      0.000
REMARK  2 active torsions:
REMARK  status: ('A' for Active; 'I' for Inactive)
REMARK    1  A    between atoms: N1_2  and  O1_4 
REMARK    2  A    between atoms: O1_4  and  C2_5 
ROOT
HETATM    1  O1  UNL     1       1.257 101.313  24.044  1.00  0.00    -0.275 OA
ENDROOT
BRANCH   1   2
HETATM    2  N1  UNL     1       2.567 101.257  23.876  1.00  0.00    -0.306 N 
HETATM    3  C1  UNL     1       3.242 100.254  24.630  1.00  0.00     0.175 C 
ATOM      4  H1  UNL     1       3.062 101.890  23.248  1.00  0.00     0.186 HD
ENDBRANCH   1   2
BRANCH   1   5
HETATM    5  C2  UNL     1       0.789 102.494  24.583  1.00  0.00     0.077 C 
HETATM    6  C3  UNL     1      -0.558 102.827  23.974  1.00  0.00     0.048 C 
HETATM    7  C4  UNL     1       1.687 103.663  24.395  1.00  0.00     0.048 C 
HETATM    8  C5  UNL     1       0.539 102.315  26.085  1.00  0.00     0.048 C 
ENDBRANCH   1   5
TORSDOF 2
ENDMDL
MODEL 2
REMARK VINA RESULT: -3.480139157      0.189      1.622
REMARK  2 active torsions:
REMARK  status: ('A' for Active; 'I' for Inactive)
REMARK    1  A    between atoms: N1_2  and  O1_4 
REMARK    2  A    between atoms: O1_4  and  C2_5 
ROOT
HETATM    1  O1  UNL     1       1.445 101.237  24.042  1.00  0.00    -0.275 OA
ENDROOT
BRANCH   1   2
HETATM    2  N1  UNL     1       2.764 101.301  23.972  1.00  0.00    -0.306 N 
HETATM    3  C1  UNL     1       3.465 100.211  24.565  1.00  0.00     0.175 C 
ATOM      4  H1  UNL     1       3.248 102.079  23.523  1.00  0.00     0.186 HD
ENDBRANCH   1   2
BRANCH   1   5
HETATM    5  C2  UNL     1       0.836 102.355  24.577  1.00  0.00     0.077 C 
HETATM    6  C3  UNL     1       0.689 102.179  26.074  1.00  0.00     0.048 C 
HETATM    7  C4  UNL     1      -0.502 102.666  24.010  1.00  0.00     0.048 C 
HETATM    8  C5  UNL     1       1.739 103.579  24.384  1.00  0.00     0.048 C 
ENDBRANCH   1   5
TORSDOF 2
ENDMDL
MODEL 3
REMARK VINA RESULT: -3.465102949      0.083      1.572
REMARK  2 active torsions:
REMARK  status: ('A' for Active; 'I' for Inactive)
REMARK    1  A    between atoms: N1_2  and  O1_4 
REMARK    2  A    between atoms: O1_4  and  C2_5 
ROOT
HETATM    1  O1  UNL     1       1.292 101.313  24.089  1.00  0.00    -0.275 OA
ENDROOT
BRANCH   1   2
HETATM    2  N1  UNL     1       2.604 101.292  23.925  1.00  0.00    -0.306 N 
HETATM    3  C1  UNL     1       3.294 100.252  24.615  1.00  0.00     0.175 C 
ATOM      4  H1  UNL     1       3.091 101.974  23.344  1.00  0.00     0.186 HD
ENDBRANCH   1   2
BRANCH   1   5
HETATM    5  C2  UNL     1       0.794 102.473  24.646  1.00  0.00     0.077 C 
HETATM    6  C3  UNL     1       1.713 103.629  24.307  1.00  0.00     0.048 C 
HETATM    7  C4  UNL     1       0.622 102.431  26.121  1.00  0.00     0.048 C 
HETATM    8  C5  UNL     1      -0.560 102.812  24.012  1.00  0.00     0.048 C 
ENDBRANCH   1   5
TORSDOF 2
ENDMDL
MODEL 4
REMARK VINA RESULT: -3.350319691      1.581      2.227
REMARK  2 active torsions:
REMARK  status: ('A' for Active; 'I' for Inactive)
REMARK    1  A    between atoms: N1_2  and  O1_4 
REMARK    2  A    between atoms: O1_4  and  C2_5 
ROOT
HETATM    1  O1  UNL     1       2.180 102.991  24.558  1.00  0.00    -0.275 OA
ENDROOT
BRANCH   1   2
HETATM    2  N1  UNL     1       3.095 102.469  23.759  1.00  0.00    -0.306 N 
HETATM    3  C1  UNL     1       4.246 103.277  23.530  1.00  0.00     0.175 C 
ATOM      4  H1  UNL     1       2.985 101.547  23.335  1.00  0.00     0.186 HD
ENDBRANCH   1   2
BRANCH   1   5
HETATM    5  C2  UNL     1       1.195 102.114  24.966  1.00  0.00     0.077 C 
HETATM    6  C3  UNL     1       1.805 100.747  25.201  1.00  0.00     0.048 C 
HETATM    7  C4  UNL     1       0.063 101.963  24.016  1.00  0.00     0.048 C 
HETATM    8  C5  UNL     1       0.632 102.562  26.320  1.00  0.00     0.048 C 
ENDBRANCH   1   5
TORSDOF 2
ENDMDL
MODEL 5
REMARK VINA RESULT: -3.343341890      1.567      2.051
REMARK  2 active torsions:
REMARK  status: ('A' for Active; 'I' for Inactive)
REMARK    1  A    between atoms: N1_2  and  O1_4 
REMARK    2  A    between atoms: O1_4  and  C2_5 
ROOT
HETATM    1  O1  UNL     1       2.119 103.021  24.497  1.00  0.00    -0.275 OA
ENDROOT
BRANCH   1   2
HETATM    2  N1  UNL     1       3.067 102.468  23.760  1.00  0.00    -0.306 N 
HETATM    3  C1  UNL     1       4.232 103.264  23.557  1.00  0.00     0.175 C 
ATOM      4  H1  UNL     1       2.971 101.534  23.362  1.00  0.00     0.186 HD
ENDBRANCH   1   2
BRANCH   1   5
HETATM    5  C2  UNL     1       1.191 102.138  25.011  1.00  0.00     0.077 C 
HETATM    6  C3  UNL     1       0.060 101.962  24.018  1.00  0.00     0.048 C 
HETATM    7  C4  UNL     1       0.607 102.538  26.317  1.00  0.00     0.048 C 
HETATM    8  C5  UNL     1       1.829 100.753  25.171  1.00  0.00     0.048 C 
ENDBRANCH   1   5
TORSDOF 2
ENDMDL
