MODEL 1
REMARK VINA RESULT: -4.178829753      0.000      0.000
REMARK  0 active torsions:
REMARK  status: ('A' for Active; 'I' for Inactive)
ROOT
HETATM    1  C1  UNL     1       2.825 103.370  24.122  1.00  0.00     0.013 C 
HETATM    2  C2  UNL     1       1.790 102.849  25.053  1.00  0.00     0.022 C 
HETATM    3  C3  UNL     1       0.432 103.455  24.659  1.00  0.00     0.136 C 
HETATM    4  N1  UNL     1      -0.255 102.397  23.983  1.00  0.00    -0.147 NA
HETATM    5  N2  UNL     1       0.626 101.354  23.777  1.00  0.00    -0.139 NA
HETATM    6  C4  UNL     1       1.488 101.393  24.911  1.00  0.00     0.044 C 
HETATM    7  C5  UNL     1       2.673 100.506  24.841  1.00  0.00     0.035 C 
HETATM    8  C6  UNL     1       0.662 100.970  26.127  1.00  0.00     0.035 C 
ENDROOT
TORSDOF 0
ENDMDL
MODEL 2
REMARK VINA RESULT: -3.962980221      1.555      2.608
REMARK  0 active torsions:
REMARK  status: ('A' for Active; 'I' for Inactive)
ROOT
HETATM    1  C1  UNL     1       3.317 102.152  24.324  1.00  0.00     0.013 C 
HETATM    2  C2  UNL     1       1.867 101.858  24.191  1.00  0.00     0.022 C 
HETATM    3  C3  UNL     1       1.483 100.813  25.253  1.00  0.00     0.136 C 
HETATM    4  N1  UNL     1       0.803 101.560  26.267  1.00  0.00    -0.147 NA
HETATM    5  N2  UNL     1       0.941 102.907  25.997  1.00  0.00    -0.139 NA
HETATM    6  C4  UNL     1       0.957 102.979  24.573  1.00  0.00     0.044 C 
HETATM    7  C5  UNL     1       1.313 104.302  24.007  1.00  0.00     0.035 C 
HETATM    8  C6  UNL     1      -0.448 102.626  24.081  1.00  0.00     0.035 C 
ENDROOT
TORSDOF 0
ENDMDL
MODEL 3
REMARK VINA RESULT: -3.822823622      1.109      1.626
REMARK  0 active torsions:
REMARK  status: ('A' for Active; 'I' for Inactive)
ROOT
HETATM    1  C1  UNL     1       2.355 101.176  24.098  1.00  0.00     0.013 C 
HETATM    2  C2  UNL     1       1.787 102.190  25.024  1.00  0.00     0.022 C 
HETATM    3  C3  UNL     1       1.066 103.262  24.189  1.00  0.00     0.136 C 
HETATM    4  N1  UNL     1      -0.326 102.965  24.341  1.00  0.00    -0.147 NA
HETATM    5  N2  UNL     1      -0.455 101.752  24.986  1.00  0.00    -0.139 NA
HETATM    6  C4  UNL     1       0.658 101.707  25.875  1.00  0.00     0.044 C 
HETATM    7  C5  UNL     1       0.886 100.405  26.545  1.00  0.00     0.035 C 
HETATM    8  C6  UNL     1       0.416 102.754  26.964  1.00  0.00     0.035 C 
ENDROOT
TORSDOF 0
ENDMDL
MODEL 4
REMARK VINA RESULT: -3.745099506      1.559      2.738
REMARK  0 active torsions:
REMARK  status: ('A' for Active; 'I' for Inactive)
ROOT
HETATM    1  C1  UNL     1       1.985 101.066  24.513  1.00  0.00     0.013 C 
HETATM    2  C2  UNL     1       0.898 102.041  24.238  1.00  0.00     0.022 C 
HETATM    3  C3  UNL     1      -0.248 101.787  25.233  1.00  0.00     0.136 C 
HETATM    4  N1  UNL     1      -0.131 102.837  26.198  1.00  0.00    -0.147 NA
HETATM    5  N2  UNL     1       1.050 103.517  25.975  1.00  0.00    -0.139 NA
HETATM    6  C4  UNL     1       1.226 103.462  24.562  1.00  0.00     0.044 C 
HETATM    7  C5  UNL     1       2.539 103.935  24.065  1.00  0.00     0.035 C 
HETATM    8  C6  UNL     1       0.145 104.343  23.932  1.00  0.00     0.035 C 
ENDROOT
TORSDOF 0
ENDMDL
MODEL 5
REMARK VINA RESULT: -3.726414446      0.989      2.859
REMARK  0 active torsions:
REMARK  status: ('A' for Active; 'I' for Inactive)
ROOT
HETATM    1  C1  UNL     1       0.907 100.240  26.576  1.00  0.00     0.013 C 
HETATM    2  C2  UNL     1       1.641 101.309  25.851  1.00  0.00     0.022 C 
HETATM    3  C3  UNL     1       2.265 100.698  24.584  1.00  0.00     0.136 C 
HETATM    4  N1  UNL     1       1.422 101.142  23.515  1.00  0.00    -0.147 NA
HETATM    5  N2  UNL     1       0.305 101.749  24.051  1.00  0.00    -0.139 NA
HETATM    6  C4  UNL     1       0.779 102.368  25.244  1.00  0.00     0.044 C 
HETATM    7  C5  UNL     1      -0.268 102.916  26.137  1.00  0.00     0.035 C 
HETATM    8  C6  UNL     1       1.689 103.525  24.829  1.00  0.00     0.035 C 
ENDROOT
TORSDOF 0
ENDMDL
