MODEL 1
REMARK VINA RESULT: -8.442449616      0.000      0.000
REMARK  8 active torsions:
REMARK  status: ('A' for Active; 'I' for Inactive)
REMARK    1  A    between atoms: C2_2  and  C4_4 
REMARK    2  A    between atoms: C7_7  and  C8_8 
REMARK    3  A    between atoms: C8_8  and  C9_9 
REMARK    4  A    between atoms: C9_9  and  C10_10 
REMARK    5  A    between atoms: C10_10  and  C11_11 
REMARK    6  A    between atoms: C11_11  and  O2_13 
REMARK    7  A    between atoms: C19_21  and  O3_22 
REMARK    8  A    between atoms: C25_29  and  O4_30 
ROOT
HETATM    1  C4  UNL     1      71.452  47.862   9.973  1.00  0.00     0.043 C 
HETATM    2  C5  UNL     1      71.707  48.081   8.475  1.00  0.00     0.014 C 
HETATM    3  C6  UNL     1      70.346  48.452   7.912  1.00  0.00     0.018 C 
HETATM    4  C7  UNL     1      69.450  48.696   9.080  1.00  0.00     0.011 C 
HETATM    5  C13 UNL     1      70.422  48.898  10.199  1.00  0.00    -0.057 C 
HETATM    6  C14 UNL     1      70.006  49.844  11.019  1.00  0.00    -0.065 C 
HETATM    7  C15 UNL     1      70.498  50.334  12.315  1.00  0.00     0.036 C 
HETATM    8  C16 UNL     1      69.703  51.471  12.832  1.00  0.00     0.009 C 
HETATM    9  C17 UNL     1      68.264  51.517  12.554  1.00  0.00    -0.007 C 
HETATM   10  C18 UNL     1      67.383  51.031  13.711  1.00  0.00     0.037 C 
HETATM   11  C19 UNL     1      65.966  51.473  13.406  1.00  0.00     0.118 C 
HETATM   12  C20 UNL     1      65.810  52.048  12.044  1.00  0.00     0.032 C 
HETATM   13  C21 UNL     1      66.505  51.296  10.935  1.00  0.00     0.009 C 
HETATM   14  C22 UNL     1      67.795  50.676  11.347  1.00  0.00     0.005 C 
HETATM   15  C23 UNL     1      68.905  50.667  10.384  1.00  0.00     0.011 C 
HETATM   16  C24 UNL     1      69.435  52.094  10.152  1.00  0.00     0.023 C 
HETATM   17  C25 UNL     1      68.761  50.071   9.047  1.00  0.00     0.143 C 
ENDROOT
BRANCH   4  18
HETATM   18  C8  UNL     1      68.373  47.713   9.252  1.00  0.00     0.017 C 
BRANCH  18  19
HETATM   19  C9  UNL     1      68.204  46.562   8.347  1.00  0.00     0.011 C 
BRANCH  19  20
HETATM   20  C10 UNL     1      66.758  46.520   7.858  1.00  0.00     0.111 C 
BRANCH  20  21
HETATM   21  C11 UNL     1      65.945  45.463   8.467  1.00  0.00     0.258 C 
HETATM   22  O1  UNL     1      65.968  45.064   9.647  1.00  0.00    -0.265 OA
BRANCH  21  23
HETATM   23  O2  UNL     1      65.029  44.826   7.614  1.00  0.00    -0.326 OA
HETATM   24  C12 UNL     1      63.645  45.071   7.747  1.00  0.00     0.213 C 
ENDBRANCH  21  23
ENDBRANCH  20  21
ENDBRANCH  19  20
ENDBRANCH  18  19
ENDBRANCH   4  18
BRANCH  17  25
HETATM   25  O4  UNL     1      67.498  50.035   8.544  1.00  0.00    -0.393 OA
ATOM     26  H4  UNL     1      66.838  50.350   9.150  1.00  0.00     0.210 HD
ENDBRANCH  17  25
BRANCH   1  27
HETATM   27  C2  UNL     1      72.696  47.955  10.742  1.00  0.00    -0.085 C 
HETATM   28  C1  UNL     1      73.613  48.882  10.497  1.00  0.00     0.014 C 
HETATM   29  C3  UNL     1      73.083  46.988  11.834  1.00  0.00     0.043 C 
ENDBRANCH   1  27
BRANCH  11  30
HETATM   30  O3  UNL     1      65.054  50.454  13.681  1.00  0.00    -0.396 OA
ATOM     31  H3  UNL     1      65.120  49.755  13.040  1.00  0.00     0.210 HD
ENDBRANCH  11  30
TORSDOF 8
ENDMDL
MODEL 2
REMARK VINA RESULT: -8.343653144      3.662      7.070
REMARK  8 active torsions:
REMARK  status: ('A' for Active; 'I' for Inactive)
REMARK    1  A    between atoms: C2_2  and  C4_4 
REMARK    2  A    between atoms: C7_7  and  C8_8 
REMARK    3  A    between atoms: C8_8  and  C9_9 
REMARK    4  A    between atoms: C9_9  and  C10_10 
REMARK    5  A    between atoms: C10_10  and  C11_11 
REMARK    6  A    between atoms: C11_11  and  O2_13 
REMARK    7  A    between atoms: C19_21  and  O3_22 
REMARK    8  A    between atoms: C25_29  and  O4_30 
ROOT
HETATM    1  C4  UNL     1      70.653  48.684  10.852  1.00  0.00     0.043 C 
HETATM    2  C5  UNL     1      71.422  49.385  11.981  1.00  0.00     0.014 C 
HETATM    3  C6  UNL     1      72.881  49.081  11.686  1.00  0.00     0.018 C 
HETATM    4  C7  UNL     1      72.928  48.483  10.320  1.00  0.00     0.011 C 
HETATM    5  C13 UNL     1      71.607  48.886   9.743  1.00  0.00    -0.057 C 
HETATM    6  C14 UNL     1      71.728  49.200   8.467  1.00  0.00    -0.065 C 
HETATM    7  C15 UNL     1      70.750  49.525   7.418  1.00  0.00     0.036 C 
HETATM    8  C16 UNL     1      71.391  49.861   6.127  1.00  0.00     0.009 C 
HETATM    9  C17 UNL     1      72.635  49.183   5.753  1.00  0.00    -0.007 C 
HETATM   10  C18 UNL     1      72.448  48.015   4.777  1.00  0.00     0.037 C 
HETATM   11  C19 UNL     1      73.817  47.669   4.228  1.00  0.00     0.118 C 
HETATM   12  C20 UNL     1      74.922  48.395   4.909  1.00  0.00     0.032 C 
HETATM   13  C21 UNL     1      74.828  48.462   6.414  1.00  0.00     0.009 C 
HETATM   14  C22 UNL     1      73.433  48.567   6.923  1.00  0.00     0.005 C 
HETATM   15  C23 UNL     1      73.180  49.417   8.096  1.00  0.00     0.011 C 
HETATM   16  C24 UNL     1      73.376  50.904   7.743  1.00  0.00     0.023 C 
HETATM   17  C25 UNL     1      73.891  49.210   9.366  1.00  0.00     0.143 C 
ENDROOT
BRANCH   4  18
HETATM   18  C8  UNL     1      73.312  47.067  10.275  1.00  0.00     0.017 C 
BRANCH  18  19
HETATM   19  C9  UNL     1      72.371  46.006   9.873  1.00  0.00     0.011 C 
BRANCH  19  20
HETATM   20  C10 UNL     1      72.861  45.368   8.576  1.00  0.00     0.111 C 
BRANCH  20  21
HETATM   21  C11 UNL     1      71.914  45.460   7.461  1.00  0.00     0.258 C 
HETATM   22  O1  UNL     1      70.774  45.963   7.466  1.00  0.00    -0.265 OA
BRANCH  21  23
HETATM   23  O2  UNL     1      72.347  44.915   6.242  1.00  0.00    -0.326 OA
HETATM   24  C12 UNL     1      71.574  43.930   5.589  1.00  0.00     0.213 C 
ENDBRANCH  21  23
ENDBRANCH  20  21
ENDBRANCH  19  20
ENDBRANCH  18  19
ENDBRANCH   4  18
BRANCH  17  25
HETATM   25  O4  UNL     1      75.114  48.620   9.275  1.00  0.00    -0.393 OA
ATOM     26  H4  UNL     1      75.386  48.446   8.382  1.00  0.00     0.210 HD
ENDBRANCH  17  25
BRANCH   1  27
HETATM   27  C2  UNL     1      69.304  49.240  10.704  1.00  0.00    -0.085 C 
HETATM   28  C1  UNL     1      68.937  50.373  11.287  1.00  0.00     0.014 C 
HETATM   29  C3  UNL     1      68.196  48.562   9.934  1.00  0.00     0.043 C 
ENDBRANCH   1  27
BRANCH  11  30
HETATM   30  O3  UNL     1      74.007  46.289   4.188  1.00  0.00    -0.396 OA
ATOM     31  H3  UNL     1      74.929  46.073   4.102  1.00  0.00     0.210 HD
ENDBRANCH  11  30
TORSDOF 8
ENDMDL
MODEL 3
REMARK VINA RESULT: -8.331311252      2.518      5.443
REMARK  8 active torsions:
REMARK  status: ('A' for Active; 'I' for Inactive)
REMARK    1  A    between atoms: C2_2  and  C4_4 
REMARK    2  A    between atoms: C7_7  and  C8_8 
REMARK    3  A    between atoms: C8_8  and  C9_9 
REMARK    4  A    between atoms: C9_9  and  C10_10 
REMARK    5  A    between atoms: C10_10  and  C11_11 
REMARK    6  A    between atoms: C11_11  and  O2_13 
REMARK    7  A    between atoms: C19_21  and  O3_22 
REMARK    8  A    between atoms: C25_29  and  O4_30 
ROOT
HETATM    1  C4  UNL     1      66.299  48.881  10.243  1.00  0.00     0.043 C 
HETATM    2  C5  UNL     1      65.491  50.117   9.824  1.00  0.00     0.014 C 
HETATM    3  C6  UNL     1      65.903  51.189  10.818  1.00  0.00     0.018 C 
HETATM    4  C7  UNL     1      67.076  50.653  11.567  1.00  0.00     0.011 C 
HETATM    5  C13 UNL     1      67.546  49.541  10.683  1.00  0.00    -0.057 C 
HETATM    6  C14 UNL     1      68.864  49.482  10.660  1.00  0.00    -0.065 C 
HETATM    7  C15 UNL     1      69.814  48.524  10.077  1.00  0.00     0.036 C 
HETATM    8  C16 UNL     1      71.224  48.925  10.281  1.00  0.00     0.009 C 
HETATM    9  C17 UNL     1      71.591  49.631  11.512  1.00  0.00    -0.007 C 
HETATM   10  C18 UNL     1      72.220  48.737  12.588  1.00  0.00     0.037 C 
HETATM   11  C19 UNL     1      72.853  49.654  13.614  1.00  0.00     0.118 C 
HETATM   12  C20 UNL     1      72.528  51.089  13.400  1.00  0.00     0.032 C 
HETATM   13  C21 UNL     1      71.086  51.388  13.069  1.00  0.00     0.009 C 
HETATM   14  C22 UNL     1      70.429  50.336  12.245  1.00  0.00     0.005 C 
HETATM   15  C23 UNL     1      69.473  50.755  11.209  1.00  0.00     0.011 C 
HETATM   16  C24 UNL     1      70.199  51.483  10.062  1.00  0.00     0.023 C 
HETATM   17  C25 UNL     1      68.302  51.583  11.532  1.00  0.00     0.143 C 
ENDROOT
BRANCH   4  18
HETATM   18  C8  UNL     1      66.830  50.369  12.986  1.00  0.00     0.017 C 
BRANCH  18  19
HETATM   19  C9  UNL     1      65.520  50.598  13.620  1.00  0.00     0.011 C 
BRANCH  19  20
HETATM   20  C10 UNL     1      64.731  49.292  13.624  1.00  0.00     0.111 C 
BRANCH  20  21
HETATM   21  C11 UNL     1      63.461  49.350  12.894  1.00  0.00     0.258 C 
HETATM   22  O1  UNL     1      62.547  50.188  13.016  1.00  0.00    -0.265 OA
BRANCH  21  23
HETATM   23  O2  UNL     1      63.253  48.339  11.943  1.00  0.00    -0.326 OA
HETATM   24  C12 UNL     1      63.698  47.022  12.197  1.00  0.00     0.213 C 
ENDBRANCH  21  23
ENDBRANCH  20  21
ENDBRANCH  19  20
ENDBRANCH  18  19
ENDBRANCH   4  18
BRANCH  17  25
HETATM   25  O4  UNL     1      68.416  52.374  12.633  1.00  0.00    -0.393 OA
ATOM     26  H4  UNL     1      69.214  52.227  13.125  1.00  0.00     0.210 HD
ENDBRANCH  17  25
BRANCH   1  27
HETATM   27  C2  UNL     1      66.389  47.910   9.148  1.00  0.00    -0.085 C 
HETATM   28  C1  UNL     1      66.144  46.618   9.325  1.00  0.00     0.014 C 
HETATM   29  C3  UNL     1      66.819  48.263   7.745  1.00  0.00     0.043 C 
ENDBRANCH   1  27
BRANCH  11  30
HETATM   30  O3  UNL     1      72.584  49.216  14.910  1.00  0.00    -0.396 OA
ATOM     31  H3  UNL     1      73.375  49.202  15.437  1.00  0.00     0.210 HD
ENDBRANCH  11  30
TORSDOF 8
ENDMDL
MODEL 4
REMARK VINA RESULT: -8.323837151      2.792      5.835
REMARK  8 active torsions:
REMARK  status: ('A' for Active; 'I' for Inactive)
REMARK    1  A    between atoms: C2_2  and  C4_4 
REMARK    2  A    between atoms: C7_7  and  C8_8 
REMARK    3  A    between atoms: C8_8  and  C9_9 
REMARK    4  A    between atoms: C9_9  and  C10_10 
REMARK    5  A    between atoms: C10_10  and  C11_11 
REMARK    6  A    between atoms: C11_11  and  O2_13 
REMARK    7  A    between atoms: C19_21  and  O3_22 
REMARK    8  A    between atoms: C25_29  and  O4_30 
ROOT
HETATM    1  C4  UNL     1      66.957  48.284   9.538  1.00  0.00     0.043 C 
HETATM    2  C5  UNL     1      66.187  49.439   8.883  1.00  0.00     0.014 C 
HETATM    3  C6  UNL     1      66.391  50.611   9.828  1.00  0.00     0.018 C 
HETATM    4  C7  UNL     1      67.443  50.198  10.802  1.00  0.00     0.011 C 
HETATM    5  C13 UNL     1      68.090  49.039  10.111  1.00  0.00    -0.057 C 
HETATM    6  C14 UNL     1      69.395  49.044  10.307  1.00  0.00    -0.065 C 
HETATM    7  C15 UNL     1      70.461  48.087   9.974  1.00  0.00     0.036 C 
HETATM    8  C16 UNL     1      71.803  48.573  10.365  1.00  0.00     0.009 C 
HETATM    9  C17 UNL     1      71.938  49.398  11.570  1.00  0.00    -0.007 C 
HETATM   10  C18 UNL     1      72.411  48.630  12.810  1.00  0.00     0.037 C 
HETATM   11  C19 UNL     1      72.835  49.660  13.837  1.00  0.00     0.118 C 
HETATM   12  C20 UNL     1      72.500  51.054  13.442  1.00  0.00     0.032 C 
HETATM   13  C21 UNL     1      71.123  51.253  12.857  1.00  0.00     0.009 C 
HETATM   14  C22 UNL     1      70.647  50.104  12.038  1.00  0.00     0.005 C 
HETATM   15  C23 UNL     1      69.861  50.386  10.828  1.00  0.00     0.011 C 
HETATM   16  C24 UNL     1      70.740  51.050   9.751  1.00  0.00     0.023 C 
HETATM   17  C25 UNL     1      68.625  51.181  10.880  1.00  0.00     0.143 C 
ENDROOT
BRANCH   4  18
HETATM   18  C8  UNL     1      66.976  50.023  12.183  1.00  0.00     0.017 C 
BRANCH  18  19
HETATM   19  C9  UNL     1      65.583  50.286  12.583  1.00  0.00     0.011 C 
BRANCH  19  20
HETATM   20  C10 UNL     1      65.535  51.563  13.419  1.00  0.00     0.111 C 
BRANCH  20  21
HETATM   21  C11 UNL     1      65.042  52.740  12.697  1.00  0.00     0.258 C 
HETATM   22  O1  UNL     1      63.884  53.199  12.685  1.00  0.00    -0.265 OA
BRANCH  21  23
HETATM   23  O2  UNL     1      65.992  53.431  11.929  1.00  0.00    -0.326 OA
HETATM   24  C12 UNL     1      65.758  54.771  11.547  1.00  0.00     0.213 C 
ENDBRANCH  21  23
ENDBRANCH  20  21
ENDBRANCH  19  20
ENDBRANCH  18  19
ENDBRANCH   4  18
BRANCH  17  25
HETATM   25  O4  UNL     1      68.528  52.067  11.908  1.00  0.00    -0.393 OA
ATOM     26  H4  UNL     1      68.419  52.967  11.624  1.00  0.00     0.210 HD
ENDBRANCH  17  25
BRANCH   1  27
HETATM   27  C2  UNL     1      67.259  47.229   8.566  1.00  0.00    -0.085 C 
HETATM   28  C1  UNL     1      67.880  47.478   7.421  1.00  0.00     0.014 C 
HETATM   29  C3  UNL     1      66.852  45.786   8.738  1.00  0.00     0.043 C 
ENDBRANCH   1  27
BRANCH  11  30
HETATM   30  O3  UNL     1      72.371  49.321  15.107  1.00  0.00    -0.396 OA
ATOM     31  H3  UNL     1      73.093  49.198  15.712  1.00  0.00     0.210 HD
ENDBRANCH  11  30
TORSDOF 8
ENDMDL
MODEL 5
REMARK VINA RESULT: -8.189623920      3.907      7.431
REMARK  8 active torsions:
REMARK  status: ('A' for Active; 'I' for Inactive)
REMARK    1  A    between atoms: C2_2  and  C4_4 
REMARK    2  A    between atoms: C7_7  and  C8_8 
REMARK    3  A    between atoms: C8_8  and  C9_9 
REMARK    4  A    between atoms: C9_9  and  C10_10 
REMARK    5  A    between atoms: C10_10  and  C11_11 
REMARK    6  A    between atoms: C11_11  and  O2_13 
REMARK    7  A    between atoms: C19_21  and  O3_22 
REMARK    8  A    between atoms: C25_29  and  O4_30 
ROOT
HETATM    1  C4  UNL     1      70.662  48.762  10.931  1.00  0.00     0.043 C 
HETATM    2  C5  UNL     1      71.462  49.445  12.049  1.00  0.00     0.014 C 
HETATM    3  C6  UNL     1      72.909  49.111  11.732  1.00  0.00     0.018 C 
HETATM    4  C7  UNL     1      72.924  48.516  10.364  1.00  0.00     0.011 C 
HETATM    5  C13 UNL     1      71.604  48.948   9.807  1.00  0.00    -0.057 C 
HETATM    6  C14 UNL     1      71.712  49.262   8.530  1.00  0.00    -0.065 C 
HETATM    7  C15 UNL     1      70.725  49.609   7.497  1.00  0.00     0.036 C 
HETATM    8  C16 UNL     1      71.353  49.935   6.197  1.00  0.00     0.009 C 
HETATM    9  C17 UNL     1      72.578  49.233   5.804  1.00  0.00    -0.007 C 
HETATM   10  C18 UNL     1      72.352  48.071   4.828  1.00  0.00     0.037 C 
HETATM   11  C19 UNL     1      73.706  47.699   4.258  1.00  0.00     0.118 C 
HETATM   12  C20 UNL     1      74.836  48.400   4.923  1.00  0.00     0.032 C 
HETATM   13  C21 UNL     1      74.765  48.466   6.430  1.00  0.00     0.009 C 
HETATM   14  C22 UNL     1      73.380  48.598   6.961  1.00  0.00     0.005 C 
HETATM   15  C23 UNL     1      73.162  49.450   8.139  1.00  0.00     0.011 C 
HETATM   16  C24 UNL     1      73.384  50.933   7.786  1.00  0.00     0.023 C 
HETATM   17  C25 UNL     1      73.888  49.225   9.397  1.00  0.00     0.143 C 
ENDROOT
BRANCH   4  18
HETATM   18  C8  UNL     1      73.278  47.092  10.311  1.00  0.00     0.017 C 
BRANCH  18  19
HETATM   19  C9  UNL     1      72.482  46.109   9.555  1.00  0.00     0.011 C 
BRANCH  19  20
HETATM   20  C10 UNL     1      73.422  45.090   8.916  1.00  0.00     0.111 C 
BRANCH  20  21
HETATM   21  C11 UNL     1      73.397  45.081   7.450  1.00  0.00     0.258 C 
HETATM   22  O1  UNL     1      72.404  45.159   6.702  1.00  0.00    -0.265 OA
BRANCH  21  23
HETATM   23  O2  UNL     1      74.645  44.971   6.816  1.00  0.00    -0.326 OA
HETATM   24  C12 UNL     1      75.836  45.114   7.562  1.00  0.00     0.213 C 
ENDBRANCH  21  23
ENDBRANCH  20  21
ENDBRANCH  19  20
ENDBRANCH  18  19
ENDBRANCH   4  18
BRANCH  17  25
HETATM   25  O4  UNL     1      75.097  48.611   9.287  1.00  0.00    -0.393 OA
ATOM     26  H4  UNL     1      75.037  47.665   9.218  1.00  0.00     0.210 HD
ENDBRANCH  17  25
BRANCH   1  27
HETATM   27  C2  UNL     1      69.323  49.346  10.804  1.00  0.00    -0.085 C 
HETATM   28  C1  UNL     1      68.987  50.483  11.398  1.00  0.00     0.014 C 
HETATM   29  C3  UNL     1      68.191  48.696  10.046  1.00  0.00     0.043 C 
ENDBRANCH   1  27
BRANCH  11  30
HETATM   30  O3  UNL     1      73.867  46.315   4.212  1.00  0.00    -0.396 OA
ATOM     31  H3  UNL     1      73.869  46.001   3.315  1.00  0.00     0.210 HD
ENDBRANCH  11  30
TORSDOF 8
ENDMDL
