MODEL 1
REMARK VINA RESULT: -8.409202308      0.000      0.000
REMARK  5 active torsions:
REMARK  status: ('A' for Active; 'I' for Inactive)
REMARK    1  A    between atoms: O1_2  and  C2_3 
REMARK    2  A    between atoms: C6_7  and  O2_8 
REMARK    3  A    between atoms: C22_27  and  C23_28 
REMARK    4  A    between atoms: C23_28  and  S1_29 
REMARK    5  A    between atoms: C24_33  and  O7_34 
ROOT
HETATM    1  C2  UNL     1      64.949  47.056  11.366  1.00  0.00     0.151 C 
HETATM    2  C3  UNL     1      66.228  47.300  10.592  1.00  0.00     0.048 C 
HETATM    3  C4  UNL     1      66.003  48.007   9.269  1.00  0.00     0.007 C 
HETATM    4  C5  UNL     1      64.793  47.405   8.590  1.00  0.00     0.020 C 
HETATM    5  C6  UNL     1      65.694  49.429   9.711  1.00  0.00     0.133 C 
HETATM    6  C7  UNL     1      67.031  49.960  10.082  1.00  0.00     0.162 C 
HETATM    7  O3  UNL     1      67.006  50.947  10.843  1.00  0.00    -0.295 OA
HETATM    8  C8  UNL     1      68.358  49.510   9.700  1.00  0.00     0.088 C 
HETATM    9  C9  UNL     1      68.418  48.021   9.333  1.00  0.00     0.013 C 
HETATM   10  C10 UNL     1      69.768  47.657   8.743  1.00  0.00    -0.035 C 
HETATM   11  C11 UNL     1      69.915  46.133   8.955  1.00  0.00     0.016 C 
HETATM   12  C12 UNL     1      70.873  48.249   9.585  1.00  0.00     0.010 C 
HETATM   13  C13 UNL     1      71.441  49.535   9.186  1.00  0.00     0.001 C 
HETATM   14  C14 UNL     1      71.583  49.751   7.705  1.00  0.00     0.005 C 
HETATM   15  C15 UNL     1      71.231  48.568   6.888  1.00  0.00    -0.014 C 
HETATM   16  C16 UNL     1      72.310  47.549   6.762  1.00  0.00     0.010 C 
HETATM   17  C17 UNL     1      69.885  47.937   7.296  1.00  0.00     0.000 C 
HETATM   18  C18 UNL     1      68.800  48.739   6.685  1.00  0.00     0.044 C 
HETATM   19  C19 UNL     1      67.436  48.700   7.269  1.00  0.00     0.179 C 
HETATM   20  F1  UNL     1      66.579  48.334   6.213  1.00  0.00    -0.249 F 
HETATM   21  C20 UNL     1      67.233  47.824   8.449  1.00  0.00     0.002 C 
HETATM   22  C21 UNL     1      67.064  46.432   7.872  1.00  0.00     0.019 C 
HETATM   23  C22 UNL     1      64.772  49.543  10.848  1.00  0.00     0.076 C 
HETATM   24  C24 UNL     1      64.262  48.341  11.564  1.00  0.00     0.155 C 
ENDROOT
BRANCH  23  25
HETATM   25  C23 UNL     1      63.596  50.478  10.732  1.00  0.00     0.176 C 
BRANCH  25  26
HETATM   26  S1  UNL     1      63.196  51.523  12.042  1.00  0.00     0.102 S 
HETATM   27  O4  UNL     1      64.497  51.697  12.857  1.00  0.00    -0.595 OA
HETATM   28  O5  UNL     1      62.926  52.963  11.580  1.00  0.00    -0.595 OA
HETATM   29  O6  UNL     1      62.070  51.033  13.143  1.00  0.00    -0.595 OA
ENDBRANCH  25  26
ENDBRANCH  23  25
BRANCH   5  30
HETATM   30  O2  UNL     1      65.104  50.131   8.657  1.00  0.00    -0.381 OA
ATOM     31  H2  UNL     1      65.098  51.060   8.856  1.00  0.00     0.211 HD
ENDBRANCH   5  30
BRANCH  24  32
HETATM   32  O7  UNL     1      64.150  48.597  12.948  1.00  0.00    -0.392 OA
ATOM     33  H7  UNL     1      63.230  48.615  13.188  1.00  0.00     0.210 HD
ENDBRANCH  24  32
BRANCH   1  34
HETATM   34  O1  UNL     1      64.179  46.038  10.864  1.00  0.00    -0.388 OA
HETATM   35  C1  UNL     1      64.664  44.815  11.298  1.00  0.00     0.202 C 
ENDBRANCH   1  34
TORSDOF 5
ENDMDL
MODEL 2
REMARK VINA RESULT: -7.944631724      7.229     10.187
REMARK  5 active torsions:
REMARK  status: ('A' for Active; 'I' for Inactive)
REMARK    1  A    between atoms: O1_2  and  C2_3 
REMARK    2  A    between atoms: C6_7  and  O2_8 
REMARK    3  A    between atoms: C22_27  and  C23_28 
REMARK    4  A    between atoms: C23_28  and  S1_29 
REMARK    5  A    between atoms: C24_33  and  O7_34 
ROOT
HETATM    1  C2  UNL     1      75.959  43.761   6.855  1.00  0.00     0.151 C 
HETATM    2  C3  UNL     1      74.873  44.794   7.077  1.00  0.00     0.048 C 
HETATM    3  C4  UNL     1      74.000  44.498   8.281  1.00  0.00     0.007 C 
HETATM    4  C5  UNL     1      73.675  43.021   8.300  1.00  0.00     0.020 C 
HETATM    5  C6  UNL     1      74.922  44.841   9.441  1.00  0.00     0.133 C 
HETATM    6  C7  UNL     1      74.907  46.326   9.450  1.00  0.00     0.162 C 
HETATM    7  O3  UNL     1      75.876  46.853  10.031  1.00  0.00    -0.295 OA
HETATM    8  C8  UNL     1      73.944  47.258   8.888  1.00  0.00     0.088 C 
HETATM    9  C9  UNL     1      73.161  46.687   7.698  1.00  0.00     0.013 C 
HETATM   10  C10 UNL     1      72.033  47.616   7.290  1.00  0.00    -0.035 C 
HETATM   11  C11 UNL     1      71.717  47.263   5.819  1.00  0.00     0.016 C 
HETATM   12  C12 UNL     1      72.537  49.038   7.221  1.00  0.00     0.010 C 
HETATM   13  C13 UNL     1      72.352  49.901   8.387  1.00  0.00     0.001 C 
HETATM   14  C14 UNL     1      71.059  49.718   9.132  1.00  0.00     0.005 C 
HETATM   15  C15 UNL     1      70.123  48.769   8.488  1.00  0.00    -0.014 C 
HETATM   16  C16 UNL     1      69.311  49.343   7.378  1.00  0.00     0.010 C 
HETATM   17  C17 UNL     1      70.797  47.443   8.084  1.00  0.00     0.000 C 
HETATM   18  C18 UNL     1      70.899  46.595   9.293  1.00  0.00     0.044 C 
HETATM   19  C19 UNL     1      71.909  45.509   9.349  1.00  0.00     0.179 C 
HETATM   20  F1  UNL     1      71.191  44.333   9.644  1.00  0.00    -0.249 F 
HETATM   21  C20 UNL     1      72.767  45.324   8.152  1.00  0.00     0.002 C 
HETATM   22  C21 UNL     1      71.912  44.527   7.185  1.00  0.00     0.019 C 
HETATM   23  C22 UNL     1      76.299  44.350   9.309  1.00  0.00     0.076 C 
HETATM   24  C24 UNL     1      76.766  43.652   8.079  1.00  0.00     0.155 C 
ENDROOT
BRANCH  23  25
HETATM   25  C23 UNL     1      76.910  43.596  10.462  1.00  0.00     0.176 C 
BRANCH  25  26
HETATM   26  S1  UNL     1      78.158  44.323  11.401  1.00  0.00     0.102 S 
HETATM   27  O4  UNL     1      78.881  45.306  10.455  1.00  0.00    -0.595 OA
HETATM   28  O5  UNL     1      77.605  45.275  12.472  1.00  0.00    -0.595 OA
HETATM   29  O6  UNL     1      79.355  43.371  12.016  1.00  0.00    -0.595 OA
ENDBRANCH  25  26
ENDBRANCH  23  25
BRANCH   5  30
HETATM   30  O2  UNL     1      74.419  44.285  10.620  1.00  0.00    -0.381 OA
ATOM     31  H2  UNL     1      73.843  43.560  10.411  1.00  0.00     0.211 HD
ENDBRANCH   5  30
BRANCH  24  32
HETATM   32  O7  UNL     1      78.102  44.004   7.785  1.00  0.00    -0.392 OA
ATOM     33  H7  UNL     1      78.233  44.924   7.983  1.00  0.00     0.210 HD
ENDBRANCH  24  32
BRANCH   1  34
HETATM   34  O1  UNL     1      75.505  42.578   6.332  1.00  0.00    -0.388 OA
HETATM   35  C1  UNL     1      76.528  41.643   6.307  1.00  0.00     0.202 C 
ENDBRANCH   1  34
TORSDOF 5
ENDMDL
MODEL 3
REMARK VINA RESULT: -7.596166191      4.531      7.556
REMARK  5 active torsions:
REMARK  status: ('A' for Active; 'I' for Inactive)
REMARK    1  A    between atoms: O1_2  and  C2_3 
REMARK    2  A    between atoms: C6_7  and  O2_8 
REMARK    3  A    between atoms: C22_27  and  C23_28 
REMARK    4  A    between atoms: C23_28  and  S1_29 
REMARK    5  A    between atoms: C24_33  and  O7_34 
ROOT
HETATM    1  C2  UNL     1      71.740  47.569   6.168  1.00  0.00     0.151 C 
HETATM    2  C3  UNL     1      71.730  46.085   6.475  1.00  0.00     0.048 C 
HETATM    3  C4  UNL     1      71.910  45.776   7.948  1.00  0.00     0.007 C 
HETATM    4  C5  UNL     1      72.992  46.672   8.509  1.00  0.00     0.020 C 
HETATM    5  C6  UNL     1      70.561  46.168   8.529  1.00  0.00     0.133 C 
HETATM    6  C7  UNL     1      69.682  45.042   8.118  1.00  0.00     0.162 C 
HETATM    7  O3  UNL     1      68.465  45.306   8.117  1.00  0.00    -0.295 OA
HETATM    8  C8  UNL     1      70.020  43.688   7.717  1.00  0.00     0.088 C 
HETATM    9  C9  UNL     1      71.429  43.557   7.123  1.00  0.00     0.013 C 
HETATM   10  C10 UNL     1      71.804  42.101   6.920  1.00  0.00    -0.035 C 
HETATM   11  C11 UNL     1      72.911  42.105   5.841  1.00  0.00     0.016 C 
HETATM   12  C12 UNL     1      70.662  41.362   6.264  1.00  0.00     0.010 C 
HETATM   13  C13 UNL     1      69.722  40.634   7.115  1.00  0.00     0.001 C 
HETATM   14  C14 UNL     1      70.325  39.947   8.308  1.00  0.00     0.005 C 
HETATM   15  C15 UNL     1      71.802  40.020   8.362  1.00  0.00    -0.014 C 
HETATM   16  C16 UNL     1      72.511  39.013   7.522  1.00  0.00     0.010 C 
HETATM   17  C17 UNL     1      72.341  41.445   8.131  1.00  0.00     0.000 C 
HETATM   18  C18 UNL     1      72.211  42.193   9.403  1.00  0.00     0.044 C 
HETATM   19  C19 UNL     1      72.172  43.678   9.384  1.00  0.00     0.179 C 
HETATM   20  F1  UNL     1      73.201  44.098  10.249  1.00  0.00    -0.249 F 
HETATM   21  C20 UNL     1      72.284  44.338   8.061  1.00  0.00     0.002 C 
HETATM   22  C21 UNL     1      73.770  44.339   7.755  1.00  0.00     0.019 C 
HETATM   23  C22 UNL     1      70.015  47.440   8.038  1.00  0.00     0.076 C 
HETATM   24  C24 UNL     1      70.704  48.227   6.977  1.00  0.00     0.155 C 
ENDROOT
BRANCH  23  25
HETATM   25  C23 UNL     1      69.525  48.450   9.042  1.00  0.00     0.176 C 
BRANCH  25  26
HETATM   26  S1  UNL     1      67.842  48.803   9.155  1.00  0.00     0.102 S 
HETATM   27  O4  UNL     1      67.288  48.688   7.717  1.00  0.00    -0.595 OA
HETATM   28  O5  UNL     1      67.060  47.695   9.876  1.00  0.00    -0.595 OA
HETATM   29  O6  UNL     1      67.370  50.295   9.672  1.00  0.00    -0.595 OA
ENDBRANCH  25  26
ENDBRANCH  23  25
BRANCH   5  30
HETATM   30  O2  UNL     1      70.665  46.296   9.916  1.00  0.00    -0.381 OA
ATOM     31  H2  UNL     1      69.981  46.873  10.236  1.00  0.00     0.211 HD
ENDBRANCH   5  30
BRANCH  24  32
HETATM   32  O7  UNL     1      69.761  48.832   6.117  1.00  0.00    -0.392 OA
ATOM     33  H7  UNL     1      68.974  49.035   6.610  1.00  0.00     0.210 HD
ENDBRANCH  24  32
BRANCH   1  34
HETATM   34  O1  UNL     1      72.986  48.139   6.215  1.00  0.00    -0.388 OA
HETATM   35  C1  UNL     1      73.657  47.917   5.023  1.00  0.00     0.202 C 
ENDBRANCH   1  34
TORSDOF 5
ENDMDL
MODEL 4
REMARK VINA RESULT: -7.555431534      6.188      8.807
REMARK  5 active torsions:
REMARK  status: ('A' for Active; 'I' for Inactive)
REMARK    1  A    between atoms: O1_2  and  C2_3 
REMARK    2  A    between atoms: C6_7  and  O2_8 
REMARK    3  A    between atoms: C22_27  and  C23_28 
REMARK    4  A    between atoms: C23_28  and  S1_29 
REMARK    5  A    between atoms: C24_33  and  O7_34 
ROOT
HETATM    1  C2  UNL     1      72.787  41.982  10.143  1.00  0.00     0.151 C 
HETATM    2  C3  UNL     1      72.532  43.407   9.697  1.00  0.00     0.048 C 
HETATM    3  C4  UNL     1      72.820  43.636   8.226  1.00  0.00     0.007 C 
HETATM    4  C5  UNL     1      74.109  42.933   7.862  1.00  0.00     0.020 C 
HETATM    5  C6  UNL     1      71.645  42.942   7.554  1.00  0.00     0.133 C 
HETATM    6  C7  UNL     1      70.528  43.898   7.767  1.00  0.00     0.162 C 
HETATM    7  O3  UNL     1      69.390  43.399   7.673  1.00  0.00    -0.295 OA
HETATM    8  C8  UNL     1      70.554  45.319   8.069  1.00  0.00     0.088 C 
HETATM    9  C9  UNL     1      71.835  45.770   8.784  1.00  0.00     0.013 C 
HETATM   10  C10 UNL     1      71.902  47.282   8.884  1.00  0.00    -0.035 C 
HETATM   11  C11 UNL     1      72.857  47.578  10.062  1.00  0.00     0.016 C 
HETATM   12  C12 UNL     1      70.573  47.827   9.350  1.00  0.00     0.010 C 
HETATM   13  C13 UNL     1      69.616  48.288   8.345  1.00  0.00     0.001 C 
HETATM   14  C14 UNL     1      70.212  48.991   7.157  1.00  0.00     0.005 C 
HETATM   15  C15 UNL     1      71.673  49.209   7.257  1.00  0.00    -0.014 C 
HETATM   16  C16 UNL     1      72.077  50.396   8.062  1.00  0.00     0.010 C 
HETATM   17  C17 UNL     1      72.441  47.940   7.674  1.00  0.00     0.000 C 
HETATM   18  C18 UNL     1      72.604  47.089   6.473  1.00  0.00     0.044 C 
HETATM   19  C19 UNL     1      72.844  45.632   6.629  1.00  0.00     0.179 C 
HETATM   20  F1  UNL     1      74.027  45.361   5.914  1.00  0.00    -0.249 F 
HETATM   21  C20 UNL     1      72.925  45.107   8.014  1.00  0.00     0.002 C 
HETATM   22  C21 UNL     1      74.339  45.424   8.464  1.00  0.00     0.019 C 
HETATM   23  C22 UNL     1      71.297  41.627   8.108  1.00  0.00     0.076 C 
HETATM   24  C24 UNL     1      71.994  41.073   9.302  1.00  0.00     0.155 C 
ENDROOT
BRANCH  23  25
HETATM   25  C23 UNL     1      71.125  40.468   7.161  1.00  0.00     0.176 C 
BRANCH  25  26
HETATM   26  S1  UNL     1      69.551  39.850   6.835  1.00  0.00     0.102 S 
HETATM   27  O4  UNL     1      69.281  40.145   5.342  1.00  0.00    -0.595 OA
HETATM   28  O5  UNL     1      69.508  38.315   6.858  1.00  0.00    -0.595 OA
HETATM   29  O6  UNL     1      68.258  40.490   7.632  1.00  0.00    -0.595 OA
ENDBRANCH  25  26
ENDBRANCH  23  25
BRANCH   5  30
HETATM   30  O2  UNL     1      71.931  42.734   6.203  1.00  0.00    -0.381 OA
ATOM     31  H2  UNL     1      71.125  42.583   5.725  1.00  0.00     0.211 HD
ENDBRANCH   5  30
BRANCH  24  32
HETATM   32  O7  UNL     1      71.090  40.358  10.118  1.00  0.00    -0.392 OA
ATOM     33  H7  UNL     1      70.734  39.628   9.624  1.00  0.00     0.210 HD
ENDBRANCH  24  32
BRANCH   1  34
HETATM   34  O1  UNL     1      74.115  41.668  10.274  1.00  0.00    -0.388 OA
HETATM   35  C1  UNL     1      74.580  42.070  11.516  1.00  0.00     0.202 C 
ENDBRANCH   1  34
TORSDOF 5
ENDMDL
MODEL 5
REMARK VINA RESULT: -7.449024941      4.556      7.669
REMARK  5 active torsions:
REMARK  status: ('A' for Active; 'I' for Inactive)
REMARK    1  A    between atoms: O1_2  and  C2_3 
REMARK    2  A    between atoms: C6_7  and  O2_8 
REMARK    3  A    between atoms: C22_27  and  C23_28 
REMARK    4  A    between atoms: C23_28  and  S1_29 
REMARK    5  A    between atoms: C24_33  and  O7_34 
ROOT
HETATM    1  C2  UNL     1      71.929  47.613   6.011  1.00  0.00     0.151 C 
HETATM    2  C3  UNL     1      72.162  46.267   6.667  1.00  0.00     0.048 C 
HETATM    3  C4  UNL     1      72.677  46.373   8.089  1.00  0.00     0.007 C 
HETATM    4  C5  UNL     1      73.734  47.454   8.149  1.00  0.00     0.020 C 
HETATM    5  C6  UNL     1      71.438  46.819   8.849  1.00  0.00     0.133 C 
HETATM    6  C7  UNL     1      70.636  45.571   8.940  1.00  0.00     0.162 C 
HETATM    7  O3  UNL     1      69.422  45.747   9.154  1.00  0.00    -0.295 OA
HETATM    8  C8  UNL     1      71.046  44.183   8.817  1.00  0.00     0.088 C 
HETATM    9  C9  UNL     1      72.308  43.989   7.967  1.00  0.00     0.013 C 
HETATM   10  C10 UNL     1      72.807  42.558   8.047  1.00  0.00    -0.035 C 
HETATM   11  C11 UNL     1      73.661  42.345   6.776  1.00  0.00     0.016 C 
HETATM   12  C12 UNL     1      71.653  41.600   7.872  1.00  0.00     0.010 C 
HETATM   13  C13 UNL     1      71.002  41.067   9.068  1.00  0.00     0.001 C 
HETATM   14  C14 UNL     1      71.916  40.761  10.222  1.00  0.00     0.005 C 
HETATM   15  C15 UNL     1      73.353  40.940   9.916  1.00  0.00    -0.014 C 
HETATM   16  C16 UNL     1      73.992  39.793   9.210  1.00  0.00     0.010 C 
HETATM   17  C17 UNL     1      73.656  42.284   9.226  1.00  0.00     0.000 C 
HETATM   18  C18 UNL     1      73.701  43.334  10.269  1.00  0.00     0.044 C 
HETATM   19  C19 UNL     1      73.479  44.754   9.896  1.00  0.00     0.179 C 
HETATM   20  F1  UNL     1      74.605  45.454  10.372  1.00  0.00    -0.249 F 
HETATM   21  C20 UNL     1      73.237  45.044   8.462  1.00  0.00     0.002 C 
HETATM   22  C21 UNL     1      74.617  45.058   7.833  1.00  0.00     0.019 C 
HETATM   23  C22 UNL     1      70.653  47.877   8.200  1.00  0.00     0.076 C 
HETATM   24  C24 UNL     1      71.009  48.395   6.849  1.00  0.00     0.155 C 
ENDROOT
BRANCH  23  25
HETATM   25  C23 UNL     1      70.260  49.085   9.010  1.00  0.00     0.176 C 
BRANCH  25  26
HETATM   26  S1  UNL     1      68.596  49.421   9.300  1.00  0.00     0.102 S 
HETATM   27  O4  UNL     1      68.007  49.850   7.938  1.00  0.00    -0.595 OA
HETATM   28  O5  UNL     1      67.786  48.151   9.601  1.00  0.00    -0.595 OA
HETATM   29  O6  UNL     1      68.194  50.638  10.337  1.00  0.00    -0.595 OA
ENDBRANCH  25  26
ENDBRANCH  23  25
BRANCH   5  30
HETATM   30  O2  UNL     1      71.808  47.318  10.100  1.00  0.00    -0.381 OA
ATOM     31  H2  UNL     1      71.195  47.992  10.369  1.00  0.00     0.211 HD
ENDBRANCH   5  30
BRANCH  24  32
HETATM   32  O7  UNL     1      69.844  48.689   6.107  1.00  0.00    -0.392 OA
ATOM     33  H7  UNL     1      69.231  49.157   6.662  1.00  0.00     0.210 HD
ENDBRANCH  24  32
BRANCH   1  34
HETATM   34  O1  UNL     1      73.080  48.254   5.630  1.00  0.00    -0.388 OA
HETATM   35  C1  UNL     1      73.596  47.666   4.485  1.00  0.00     0.202 C 
ENDBRANCH   1  34
TORSDOF 5
ENDMDL
