MODEL 1
REMARK VINA RESULT: -8.583785523      0.000      0.000
REMARK  10 active torsions:
REMARK  status: ('A' for Active; 'I' for Inactive)
REMARK    1  A    between atoms: C11_12  and  N1_13 
REMARK    2  A    between atoms: N1_13  and  C12_15 
REMARK    3  A    between atoms: C12_15  and  C13_16 
REMARK    4  A    between atoms: C13_16  and  C14_17 
REMARK    5  A    between atoms: C14_17  and  C15_18 
REMARK    6  A    between atoms: C15_18  and  C16_19 
REMARK    7  A    between atoms: C16_19  and  C17_20 
REMARK    8  A    between atoms: C17_20  and  N2_21 
REMARK       I    between atoms: N2_21  and  C18_23 
REMARK    9  A    between atoms: C18_23  and  C19_25 
REMARK   10  A    between atoms: C28_35  and  O3_36 
ROOT
HETATM    1  C1  UNL     1      20.411 -42.450   6.202  1.00  0.00     0.023 C 
HETATM    2  C2  UNL     1      20.023 -41.076   6.783  1.00  0.00     0.018 C 
HETATM    3  C3  UNL     1      19.672 -40.250   5.550  1.00  0.00     0.023 C 
HETATM    4  C4  UNL     1      21.300 -40.481   7.237  1.00  0.00     0.135 C 
HETATM    5  O1  UNL     1      22.219 -40.460   6.411  1.00  0.00    -0.297 OA
HETATM    6  C5  UNL     1      21.540 -39.931   8.558  1.00  0.00     0.080 C 
HETATM    7  C6  UNL     1      20.270 -39.728   9.335  1.00  0.00     0.018 C 
HETATM    8  C7  UNL     1      19.348 -40.895   9.204  1.00  0.00    -0.031 C 
HETATM    9  C8  UNL     1      20.101 -42.122   9.741  1.00  0.00     0.016 C 
HETATM   10  C9  UNL     1      18.963 -41.177   7.805  1.00  0.00     0.015 C 
HETATM   11  C10 UNL     1      17.755 -40.457   7.261  1.00  0.00     0.059 C 
HETATM   12  C11 UNL     1      16.613 -40.246   8.189  1.00  0.00    -0.009 C 
HETATM   13  C23 UNL     1      17.140 -39.798   9.533  1.00  0.00     0.044 C 
HETATM   14  C24 UNL     1      16.080 -39.272  10.454  1.00  0.00     0.001 C 
HETATM   15  C25 UNL     1      15.740 -37.881  10.053  1.00  0.00     0.006 C 
HETATM   16  C26 UNL     1      16.243 -36.741  10.845  1.00  0.00     0.003 C 
HETATM   17  C27 UNL     1      15.163 -36.392  11.844  1.00  0.00     0.032 C 
HETATM   18  C28 UNL     1      14.668 -37.674  12.433  1.00  0.00     0.126 C 
HETATM   19  C29 UNL     1      15.752 -38.613  12.902  1.00  0.00    -0.018 C 
HETATM   20  C30 UNL     1      16.799 -37.857  13.634  1.00  0.00     0.018 C 
HETATM   21  C31 UNL     1      15.014 -39.382  14.042  1.00  0.00     0.018 C 
HETATM   22  C32 UNL     1      16.188 -39.613  11.883  1.00  0.00     0.001 C 
HETATM   23  C33 UNL     1      17.497 -40.186  12.356  1.00  0.00     0.007 C 
HETATM   24  C34 UNL     1      18.633 -40.024  11.367  1.00  0.00     0.011 C 
HETATM   25  C35 UNL     1      18.137 -40.744  10.109  1.00  0.00    -0.027 C 
HETATM   26  C36 UNL     1      17.628 -42.109  10.412  1.00  0.00     0.016 C 
ENDROOT
BRANCH  12  27
HETATM   27  N1  UNL     1      15.498 -41.058   8.171  1.00  0.00    -0.376 N 
ATOM     28  H1  UNL     1      14.663 -40.719   8.649  1.00  0.00     0.164 HD
BRANCH  27  29
HETATM   29  C12 UNL     1      15.422 -42.310   7.547  1.00  0.00     0.060 C 
BRANCH  29  30
HETATM   30  C13 UNL     1      15.210 -43.557   8.305  1.00  0.00     0.044 C 
BRANCH  30  31
HETATM   31  C14 UNL     1      13.734 -43.934   8.285  1.00  0.00     0.005 C 
BRANCH  31  32
HETATM   32  C15 UNL     1      13.325 -44.938   9.298  1.00  0.00     0.002 C 
BRANCH  32  33
HETATM   33  C16 UNL     1      12.277 -44.377  10.226  1.00  0.00     0.020 C 
BRANCH  33  34
HETATM   34  C17 UNL     1      11.504 -43.216   9.704  1.00  0.00     0.122 C 
BRANCH  34  35
HETATM   35  N2  UNL     1      11.344 -42.218  10.743  1.00  0.00    -0.361 N 
HETATM   36  C18 UNL     1      12.254 -41.139  10.854  1.00  0.00     0.224 C 
HETATM   37  O2  UNL     1      13.207 -41.037  10.047  1.00  0.00    -0.273 OA
ATOM     38  H2  UNL     1      10.567 -42.293  11.400  1.00  0.00     0.162 HD
BRANCH  36  39
HETATM   39  C19 UNL     1      12.100 -40.108  11.927  1.00  0.00     0.112 C 
HETATM   40  C20 UNL     1      11.392 -40.630  13.153  1.00  0.00     0.020 C 
HETATM   41  C21 UNL     1      10.396 -39.511  13.038  1.00  0.00     0.039 C 
HETATM   42  C22 UNL     1      10.942 -39.180  11.678  1.00  0.00     0.183 C 
HETATM   43  F1  UNL     1      11.312 -37.850  11.533  1.00  0.00    -0.249 F 
ENDBRANCH  36  39
ENDBRANCH  34  35
ENDBRANCH  33  34
ENDBRANCH  32  33
ENDBRANCH  31  32
ENDBRANCH  30  31
ENDBRANCH  29  30
ENDBRANCH  27  29
ENDBRANCH  12  27
BRANCH  18  44
HETATM   44  O3  UNL     1      13.826 -37.310  13.485  1.00  0.00    -0.395 OA
ATOM     45  H3  UNL     1      13.569 -38.122  13.904  1.00  0.00     0.210 HD
ENDBRANCH  18  44
TORSDOF 10
ENDMDL
MODEL 2
REMARK VINA RESULT: -8.538781420      2.599      6.695
REMARK  10 active torsions:
REMARK  status: ('A' for Active; 'I' for Inactive)
REMARK    1  A    between atoms: C11_12  and  N1_13 
REMARK    2  A    between atoms: N1_13  and  C12_15 
REMARK    3  A    between atoms: C12_15  and  C13_16 
REMARK    4  A    between atoms: C13_16  and  C14_17 
REMARK    5  A    between atoms: C14_17  and  C15_18 
REMARK    6  A    between atoms: C15_18  and  C16_19 
REMARK    7  A    between atoms: C16_19  and  C17_20 
REMARK    8  A    between atoms: C17_20  and  N2_21 
REMARK       I    between atoms: N2_21  and  C18_23 
REMARK    9  A    between atoms: C18_23  and  C19_25 
REMARK   10  A    between atoms: C28_35  and  O3_36 
ROOT
HETATM    1  C1  UNL     1      16.672 -38.613   9.652  1.00  0.00     0.023 C 
HETATM    2  C2  UNL     1      16.309 -39.902  10.416  1.00  0.00     0.018 C 
HETATM    3  C3  UNL     1      16.402 -39.489  11.881  1.00  0.00     0.023 C 
HETATM    4  C4  UNL     1      17.481 -40.790  10.241  1.00  0.00     0.135 C 
HETATM    5  O1  UNL     1      18.582 -40.306  10.522  1.00  0.00    -0.297 OA
HETATM    6  C5  UNL     1      17.423 -42.162   9.770  1.00  0.00     0.080 C 
HETATM    7  C6  UNL     1      16.025 -42.713   9.779  1.00  0.00     0.018 C 
HETATM    8  C7  UNL     1      15.039 -41.731   9.237  1.00  0.00    -0.031 C 
HETATM    9  C8  UNL     1      15.470 -41.413   7.796  1.00  0.00     0.016 C 
HETATM   10  C9  UNL     1      15.011 -40.460   9.992  1.00  0.00     0.015 C 
HETATM   11  C10 UNL     1      14.086 -40.382  11.181  1.00  0.00     0.059 C 
HETATM   12  C11 UNL     1      12.772 -41.065  11.067  1.00  0.00    -0.009 C 
HETATM   13  C23 UNL     1      12.971 -42.423  10.432  1.00  0.00     0.044 C 
HETATM   14  C24 UNL     1      11.774 -43.320  10.535  1.00  0.00     0.001 C 
HETATM   15  C25 UNL     1      11.721 -43.898  11.904  1.00  0.00     0.006 C 
HETATM   16  C26 UNL     1      12.126 -45.300  12.128  1.00  0.00     0.003 C 
HETATM   17  C27 UNL     1      10.868 -46.136  12.058  1.00  0.00     0.032 C 
HETATM   18  C28 UNL     1      10.085 -45.665  10.874  1.00  0.00     0.126 C 
HETATM   19  C29 UNL     1      10.884 -45.528   9.602  1.00  0.00    -0.018 C 
HETATM   20  C30 UNL     1      11.780 -46.699   9.435  1.00  0.00     0.018 C 
HETATM   21  C31 UNL     1       9.782 -45.773   8.524  1.00  0.00     0.018 C 
HETATM   22  C32 UNL     1      11.454 -44.167   9.373  1.00  0.00     0.001 C 
HETATM   23  C33 UNL     1      12.511 -44.303   8.310  1.00  0.00     0.007 C 
HETATM   24  C34 UNL     1      13.881 -43.819   8.739  1.00  0.00     0.011 C 
HETATM   25  C35 UNL     1      13.657 -42.349   9.112  1.00  0.00    -0.027 C 
HETATM   26  C36 UNL     1      12.927 -41.610   8.047  1.00  0.00     0.016 C 
ENDROOT
BRANCH  12  27
HETATM   27  N1  UNL     1      11.614 -40.377  10.771  1.00  0.00    -0.376 N 
ATOM     28  H1  UNL     1      11.074 -40.692   9.965  1.00  0.00     0.164 HD
BRANCH  27  29
HETATM   29  C12 UNL     1      11.122 -39.280  11.490  1.00  0.00     0.060 C 
BRANCH  29  30
HETATM   30  C13 UNL     1      10.135 -39.428  12.577  1.00  0.00     0.044 C 
BRANCH  30  31
HETATM   31  C14 UNL     1      10.421 -40.695  13.371  1.00  0.00     0.005 C 
BRANCH  31  32
HETATM   32  C15 UNL     1      10.967 -40.478  14.733  1.00  0.00     0.002 C 
BRANCH  32  33
HETATM   33  C16 UNL     1      12.458 -40.703  14.762  1.00  0.00     0.020 C 
BRANCH  33  34
HETATM   34  C17 UNL     1      13.282 -39.532  15.172  1.00  0.00     0.122 C 
BRANCH  34  35
HETATM   35  N2  UNL     1      13.652 -38.752  14.008  1.00  0.00    -0.361 N 
HETATM   36  C18 UNL     1      13.015 -37.519  13.733  1.00  0.00     0.224 C 
HETATM   37  O2  UNL     1      12.125 -37.088  14.502  1.00  0.00    -0.273 OA
ATOM     38  H2  UNL     1      14.380 -39.096  13.380  1.00  0.00     0.162 HD
BRANCH  36  39
HETATM   39  C19 UNL     1      13.387 -36.710  12.530  1.00  0.00     0.112 C 
HETATM   40  C20 UNL     1      14.842 -36.309  12.512  1.00  0.00     0.020 C 
HETATM   41  C21 UNL     1      14.430 -34.871  12.368  1.00  0.00     0.039 C 
HETATM   42  C22 UNL     1      13.010 -35.259  12.668  1.00  0.00     0.183 C 
HETATM   43  F1  UNL     1      12.100 -34.825  11.714  1.00  0.00    -0.249 F 
ENDBRANCH  36  39
ENDBRANCH  34  35
ENDBRANCH  33  34
ENDBRANCH  32  33
ENDBRANCH  31  32
ENDBRANCH  30  31
ENDBRANCH  29  30
ENDBRANCH  27  29
ENDBRANCH  12  27
BRANCH  18  44
HETATM   44  O3  UNL     1       9.042 -46.579  10.719  1.00  0.00    -0.395 OA
ATOM     45  H3  UNL     1       9.076 -46.860   9.812  1.00  0.00     0.210 HD
ENDBRANCH  18  44
TORSDOF 10
ENDMDL
MODEL 3
REMARK VINA RESULT: -8.507447681      2.773      4.206
REMARK  10 active torsions:
REMARK  status: ('A' for Active; 'I' for Inactive)
REMARK    1  A    between atoms: C11_12  and  N1_13 
REMARK    2  A    between atoms: N1_13  and  C12_15 
REMARK    3  A    between atoms: C12_15  and  C13_16 
REMARK    4  A    between atoms: C13_16  and  C14_17 
REMARK    5  A    between atoms: C14_17  and  C15_18 
REMARK    6  A    between atoms: C15_18  and  C16_19 
REMARK    7  A    between atoms: C16_19  and  C17_20 
REMARK    8  A    between atoms: C17_20  and  N2_21 
REMARK       I    between atoms: N2_21  and  C18_23 
REMARK    9  A    between atoms: C18_23  and  C19_25 
REMARK   10  A    between atoms: C28_35  and  O3_36 
ROOT
HETATM    1  C1  UNL     1      20.931 -42.771   6.902  1.00  0.00     0.023 C 
HETATM    2  C2  UNL     1      20.695 -41.439   7.641  1.00  0.00     0.018 C 
HETATM    3  C3  UNL     1      21.055 -40.383   6.602  1.00  0.00     0.023 C 
HETATM    4  C4  UNL     1      21.805 -41.345   8.617  1.00  0.00     0.135 C 
HETATM    5  O1  UNL     1      22.945 -41.500   8.167  1.00  0.00    -0.297 OA
HETATM    6  C5  UNL     1      21.646 -41.087  10.036  1.00  0.00     0.080 C 
HETATM    7  C6  UNL     1      20.265 -40.604  10.381  1.00  0.00     0.018 C 
HETATM    8  C7  UNL     1      19.211 -41.392   9.677  1.00  0.00    -0.031 C 
HETATM    9  C8  UNL     1      19.379 -42.856  10.113  1.00  0.00     0.016 C 
HETATM   10  C9  UNL     1      19.335 -41.342   8.204  1.00  0.00     0.015 C 
HETATM   11  C10 UNL     1      18.640 -40.210   7.489  1.00  0.00     0.059 C 
HETATM   12  C11 UNL     1      17.318 -39.782   8.016  1.00  0.00    -0.009 C 
HETATM   13  C23 UNL     1      17.382 -39.713   9.524  1.00  0.00     0.044 C 
HETATM   14  C24 UNL     1      16.212 -39.013  10.148  1.00  0.00     0.001 C 
HETATM   15  C25 UNL     1      16.399 -37.544  10.009  1.00  0.00     0.006 C 
HETATM   16  C26 UNL     1      16.821 -36.741  11.175  1.00  0.00     0.003 C 
HETATM   17  C27 UNL     1      15.560 -36.212  11.821  1.00  0.00     0.032 C 
HETATM   18  C28 UNL     1      14.582 -37.342  11.885  1.00  0.00     0.126 C 
HETATM   19  C29 UNL     1      15.141 -38.629  12.438  1.00  0.00    -0.018 C 
HETATM   20  C30 UNL     1      15.978 -38.350  13.631  1.00  0.00     0.018 C 
HETATM   21  C31 UNL     1      13.861 -39.277  13.051  1.00  0.00     0.018 C 
HETATM   22  C32 UNL     1      15.678 -39.564  11.405  1.00  0.00     0.001 C 
HETATM   23  C33 UNL     1      16.525 -40.580  12.125  1.00  0.00     0.007 C 
HETATM   24  C34 UNL     1      17.956 -40.649  11.631  1.00  0.00     0.011 C 
HETATM   25  C35 UNL     1      17.821 -40.995  10.144  1.00  0.00    -0.027 C 
HETATM   26  C36 UNL     1      16.920 -42.158   9.922  1.00  0.00     0.016 C 
ENDROOT
BRANCH  12  27
HETATM   27  N1  UNL     1      16.135 -40.191   7.438  1.00  0.00    -0.376 N 
ATOM     28  H1  UNL     1      15.654 -39.525   6.832  1.00  0.00     0.164 HD
BRANCH  27  29
HETATM   29  C12 UNL     1      15.541 -41.447   7.617  1.00  0.00     0.060 C 
BRANCH  29  30
HETATM   30  C13 UNL     1      14.080 -41.624   7.704  1.00  0.00     0.044 C 
BRANCH  30  31
HETATM   31  C14 UNL     1      13.622 -41.478   9.149  1.00  0.00     0.005 C 
BRANCH  31  32
HETATM   32  C15 UNL     1      13.379 -42.752   9.867  1.00  0.00     0.002 C 
BRANCH  32  33
HETATM   33  C16 UNL     1      12.512 -43.678   9.051  1.00  0.00     0.020 C 
BRANCH  33  34
HETATM   34  C17 UNL     1      12.999 -45.079   8.925  1.00  0.00     0.122 C 
BRANCH  34  35
HETATM   35  N2  UNL     1      14.448 -45.103   8.912  1.00  0.00    -0.361 N 
HETATM   36  C18 UNL     1      15.146 -46.093   8.179  1.00  0.00     0.224 C 
HETATM   37  O2  UNL     1      14.512 -46.955   7.529  1.00  0.00    -0.273 OA
ATOM     38  H2  UNL     1      14.970 -44.401   9.436  1.00  0.00     0.162 HD
BRANCH  36  39
HETATM   39  C19 UNL     1      16.642 -46.129   8.165  1.00  0.00     0.112 C 
HETATM   40  C20 UNL     1      17.259 -44.887   7.570  1.00  0.00     0.020 C 
HETATM   41  C21 UNL     1      18.020 -45.746   6.600  1.00  0.00     0.039 C 
HETATM   42  C22 UNL     1      17.191 -46.929   7.015  1.00  0.00     0.183 C 
HETATM   43  F1  UNL     1      17.944 -48.027   7.406  1.00  0.00    -0.249 F 
ENDBRANCH  36  39
ENDBRANCH  34  35
ENDBRANCH  33  34
ENDBRANCH  32  33
ENDBRANCH  31  32
ENDBRANCH  30  31
ENDBRANCH  29  30
ENDBRANCH  27  29
ENDBRANCH  12  27
BRANCH  18  44
HETATM   44  O3  UNL     1      13.517 -36.880  12.660  1.00  0.00    -0.395 OA
ATOM     45  H3  UNL     1      12.866 -36.565  12.044  1.00  0.00     0.210 HD
ENDBRANCH  18  44
TORSDOF 10
ENDMDL
MODEL 4
REMARK VINA RESULT: -8.465190139      2.148      3.249
REMARK  10 active torsions:
REMARK  status: ('A' for Active; 'I' for Inactive)
REMARK    1  A    between atoms: C11_12  and  N1_13 
REMARK    2  A    between atoms: N1_13  and  C12_15 
REMARK    3  A    between atoms: C12_15  and  C13_16 
REMARK    4  A    between atoms: C13_16  and  C14_17 
REMARK    5  A    between atoms: C14_17  and  C15_18 
REMARK    6  A    between atoms: C15_18  and  C16_19 
REMARK    7  A    between atoms: C16_19  and  C17_20 
REMARK    8  A    between atoms: C17_20  and  N2_21 
REMARK       I    between atoms: N2_21  and  C18_23 
REMARK    9  A    between atoms: C18_23  and  C19_25 
REMARK   10  A    between atoms: C28_35  and  O3_36 
ROOT
HETATM    1  C1  UNL     1      20.522 -42.496   6.232  1.00  0.00     0.023 C 
HETATM    2  C2  UNL     1      20.112 -41.114   6.780  1.00  0.00     0.018 C 
HETATM    3  C3  UNL     1      19.731 -40.330   5.529  1.00  0.00     0.023 C 
HETATM    4  C4  UNL     1      21.381 -40.481   7.202  1.00  0.00     0.135 C 
HETATM    5  O1  UNL     1      22.290 -40.464   6.365  1.00  0.00    -0.297 OA
HETATM    6  C5  UNL     1      21.624 -39.891   8.506  1.00  0.00     0.080 C 
HETATM    7  C6  UNL     1      20.358 -39.693   9.291  1.00  0.00     0.018 C 
HETATM    8  C7  UNL     1      19.460 -40.882   9.203  1.00  0.00    -0.031 C 
HETATM    9  C8  UNL     1      20.244 -42.078   9.764  1.00  0.00     0.016 C 
HETATM   10  C9  UNL     1      19.065 -41.210   7.816  1.00  0.00     0.015 C 
HETATM   11  C10 UNL     1      17.836 -40.529   7.267  1.00  0.00     0.059 C 
HETATM   12  C11 UNL     1      16.701 -40.318   8.202  1.00  0.00    -0.009 C 
HETATM   13  C23 UNL     1      17.234 -39.822   9.527  1.00  0.00     0.044 C 
HETATM   14  C24 UNL     1      16.173 -39.293  10.446  1.00  0.00     0.001 C 
HETATM   15  C25 UNL     1      15.799 -37.921  10.011  1.00  0.00     0.006 C 
HETATM   16  C26 UNL     1      16.288 -36.750  10.767  1.00  0.00     0.003 C 
HETATM   17  C27 UNL     1      15.211 -36.396  11.768  1.00  0.00     0.032 C 
HETATM   18  C28 UNL     1      14.750 -37.672  12.398  1.00  0.00     0.126 C 
HETATM   19  C29 UNL     1      15.858 -38.575  12.879  1.00  0.00    -0.018 C 
HETATM   20  C30 UNL     1      16.897 -37.778  13.578  1.00  0.00     0.018 C 
HETATM   21  C31 UNL     1      15.149 -39.328  14.048  1.00  0.00     0.018 C 
HETATM   22  C32 UNL     1      16.303 -39.593  11.882  1.00  0.00     0.001 C 
HETATM   23  C33 UNL     1      17.629 -40.126  12.356  1.00  0.00     0.007 C 
HETATM   24  C34 UNL     1      18.751 -39.968  11.349  1.00  0.00     0.011 C 
HETATM   25  C35 UNL     1      18.256 -40.732  10.117  1.00  0.00    -0.027 C 
HETATM   26  C36 UNL     1      17.778 -42.098  10.462  1.00  0.00     0.016 C 
ENDROOT
BRANCH  12  27
HETATM   27  N1  UNL     1      15.603 -41.152   8.219  1.00  0.00    -0.376 N 
ATOM     28  H1  UNL     1      14.816 -40.881   8.809  1.00  0.00     0.164 HD
BRANCH  27  29
HETATM   29  C12 UNL     1      15.483 -42.342   7.488  1.00  0.00     0.060 C 
BRANCH  29  30
HETATM   30  C13 UNL     1      15.654 -43.668   8.109  1.00  0.00     0.044 C 
BRANCH  30  31
HETATM   31  C14 UNL     1      17.057 -44.194   7.835  1.00  0.00     0.005 C 
BRANCH  31  32
HETATM   32  C15 UNL     1      17.129 -45.613   7.411  1.00  0.00     0.002 C 
BRANCH  32  33
HETATM   33  C16 UNL     1      17.093 -46.538   8.602  1.00  0.00     0.020 C 
BRANCH  33  34
HETATM   34  C17 UNL     1      15.981 -47.528   8.621  1.00  0.00     0.122 C 
BRANCH  34  35
HETATM   35  N2  UNL     1      14.774 -46.911   9.134  1.00  0.00    -0.361 N 
HETATM   36  C18 UNL     1      13.685 -46.631   8.274  1.00  0.00     0.224 C 
HETATM   37  O2  UNL     1      13.755 -46.923   7.058  1.00  0.00    -0.273 OA
ATOM     38  H2  UNL     1      14.709 -46.675  10.124  1.00  0.00     0.162 HD
BRANCH  36  39
HETATM   39  C19 UNL     1      12.437 -45.989   8.794  1.00  0.00     0.112 C 
HETATM   40  C20 UNL     1      11.849 -44.980   7.838  1.00  0.00     0.020 C 
HETATM   41  C21 UNL     1      11.886 -43.946   8.928  1.00  0.00     0.039 C 
HETATM   42  C22 UNL     1      12.720 -44.875   9.765  1.00  0.00     0.183 C 
HETATM   43  F1  UNL     1      12.204 -45.095  11.034  1.00  0.00    -0.249 F 
ENDBRANCH  36  39
ENDBRANCH  34  35
ENDBRANCH  33  34
ENDBRANCH  32  33
ENDBRANCH  31  32
ENDBRANCH  30  31
ENDBRANCH  29  30
ENDBRANCH  27  29
ENDBRANCH  12  27
BRANCH  18  44
HETATM   44  O3  UNL     1      13.912 -37.296  13.449  1.00  0.00    -0.395 OA
ATOM     45  H3  UNL     1      14.400 -37.471  14.245  1.00  0.00     0.210 HD
ENDBRANCH  18  44
TORSDOF 10
ENDMDL
MODEL 5
REMARK VINA RESULT: -8.437106479      1.930      3.027
REMARK  10 active torsions:
REMARK  status: ('A' for Active; 'I' for Inactive)
REMARK    1  A    between atoms: C11_12  and  N1_13 
REMARK    2  A    between atoms: N1_13  and  C12_15 
REMARK    3  A    between atoms: C12_15  and  C13_16 
REMARK    4  A    between atoms: C13_16  and  C14_17 
REMARK    5  A    between atoms: C14_17  and  C15_18 
REMARK    6  A    between atoms: C15_18  and  C16_19 
REMARK    7  A    between atoms: C16_19  and  C17_20 
REMARK    8  A    between atoms: C17_20  and  N2_21 
REMARK       I    between atoms: N2_21  and  C18_23 
REMARK    9  A    between atoms: C18_23  and  C19_25 
REMARK   10  A    between atoms: C28_35  and  O3_36 
ROOT
HETATM    1  C1  UNL     1      20.532 -42.785   6.581  1.00  0.00     0.023 C 
HETATM    2  C2  UNL     1      20.333 -41.396   7.220  1.00  0.00     0.018 C 
HETATM    3  C3  UNL     1      20.419 -40.440   6.036  1.00  0.00     0.023 C 
HETATM    4  C4  UNL     1      21.590 -41.135   7.958  1.00  0.00     0.135 C 
HETATM    5  O1  UNL     1      22.639 -41.273   7.319  1.00  0.00    -0.297 OA
HETATM    6  C5  UNL     1      21.671 -40.735   9.350  1.00  0.00     0.080 C 
HETATM    7  C6  UNL     1      20.343 -40.296   9.899  1.00  0.00     0.018 C 
HETATM    8  C7  UNL     1      19.241 -41.214   9.484  1.00  0.00    -0.031 C 
HETATM    9  C8  UNL     1      19.595 -42.611  10.019  1.00  0.00     0.016 C 
HETATM   10  C9  UNL     1      19.093 -41.316   8.016  1.00  0.00     0.015 C 
HETATM   11  C10 UNL     1      18.198 -40.309   7.339  1.00  0.00     0.059 C 
HETATM   12  C11 UNL     1      16.964 -39.902   8.060  1.00  0.00    -0.009 C 
HETATM   13  C23 UNL     1      17.294 -39.667   9.517  1.00  0.00     0.044 C 
HETATM   14  C24 UNL     1      16.206 -38.971  10.279  1.00  0.00     0.001 C 
HETATM   15  C25 UNL     1      16.253 -37.518   9.968  1.00  0.00     0.006 C 
HETATM   16  C26 UNL     1      16.817 -36.572  10.953  1.00  0.00     0.003 C 
HETATM   17  C27 UNL     1      15.656 -36.048  11.769  1.00  0.00     0.032 C 
HETATM   18  C28 UNL     1      14.795 -37.218  12.123  1.00  0.00     0.126 C 
HETATM   19  C29 UNL     1      15.540 -38.405  12.681  1.00  0.00    -0.018 C 
HETATM   20  C30 UNL     1      16.554 -37.952  13.665  1.00  0.00     0.018 C 
HETATM   21  C31 UNL     1      14.443 -39.054  13.582  1.00  0.00     0.018 C 
HETATM   22  C32 UNL     1      15.951 -39.414  11.661  1.00  0.00     0.001 C 
HETATM   23  C33 UNL     1      16.987 -40.296  12.302  1.00  0.00     0.007 C 
HETATM   24  C34 UNL     1      18.307 -40.337  11.558  1.00  0.00     0.011 C 
HETATM   25  C35 UNL     1      17.932 -40.848  10.163  1.00  0.00    -0.027 C 
HETATM   26  C36 UNL     1      17.097 -42.077  10.226  1.00  0.00     0.016 C 
ENDROOT
BRANCH  12  27
HETATM   27  N1  UNL     1      15.730 -40.437   7.756  1.00  0.00    -0.376 N 
ATOM     28  H1  UNL     1      14.975 -39.785   7.541  1.00  0.00     0.164 HD
BRANCH  27  29
HETATM   29  C12 UNL     1      15.431 -41.805   7.717  1.00  0.00     0.060 C 
BRANCH  29  30
HETATM   30  C13 UNL     1      14.166 -42.351   8.244  1.00  0.00     0.044 C 
BRANCH  30  31
HETATM   31  C14 UNL     1      13.546 -41.371   9.231  1.00  0.00     0.005 C 
BRANCH  31  32
HETATM   32  C15 UNL     1      13.655 -41.757  10.659  1.00  0.00     0.002 C 
BRANCH  32  33
HETATM   33  C16 UNL     1      12.318 -41.664  11.350  1.00  0.00     0.020 C 
BRANCH  33  34
HETATM   34  C17 UNL     1      11.732 -42.955  11.803  1.00  0.00     0.122 C 
BRANCH  34  35
HETATM   35  N2  UNL     1      12.068 -44.010  10.868  1.00  0.00    -0.361 N 
HETATM   36  C18 UNL     1      11.069 -44.599  10.055  1.00  0.00     0.224 C 
HETATM   37  O2  UNL     1       9.883 -44.206  10.136  1.00  0.00    -0.273 OA
ATOM     38  H2  UNL     1      13.033 -44.332  10.794  1.00  0.00     0.162 HD
BRANCH  36  39
HETATM   39  C19 UNL     1      11.406 -45.693   9.091  1.00  0.00     0.112 C 
HETATM   40  C20 UNL     1      12.491 -46.613   9.595  1.00  0.00     0.020 C 
HETATM   41  C21 UNL     1      13.277 -46.350   8.342  1.00  0.00     0.039 C 
HETATM   42  C22 UNL     1      12.329 -45.237   7.995  1.00  0.00     0.183 C 
HETATM   43  F1  UNL     1      11.785 -45.344   6.723  1.00  0.00    -0.249 F 
ENDBRANCH  36  39
ENDBRANCH  34  35
ENDBRANCH  33  34
ENDBRANCH  32  33
ENDBRANCH  31  32
ENDBRANCH  30  31
ENDBRANCH  29  30
ENDBRANCH  27  29
ENDBRANCH  12  27
BRANCH  18  44
HETATM   44  O3  UNL     1      13.855 -36.737  13.036  1.00  0.00    -0.395 OA
ATOM     45  H3  UNL     1      13.026 -36.723  12.571  1.00  0.00     0.210 HD
ENDBRANCH  18  44
TORSDOF 10
ENDMDL
