MODEL 1
REMARK VINA RESULT: -8.952666304      0.000      0.000
REMARK  13 active torsions:
REMARK  status: ('A' for Active; 'I' for Inactive)
REMARK    1  A    between atoms: C2_2  and  C4_4 
REMARK    2  A    between atoms: C4_4  and  C6_6 
REMARK    3  A    between atoms: C6_6  and  O1_7 
REMARK    4  A    between atoms: C6_6  and  C7_9 
REMARK    5  A    between atoms: C7_9  and  C9_12 
REMARK    6  A    between atoms: C9_12  and  C10_14 
REMARK    7  A    between atoms: C10_14  and  C12_16 
REMARK    8  A    between atoms: C12_16  and  C13_17 
REMARK    9  A    between atoms: C13_17  and  C14_18 
REMARK   10  A    between atoms: C14_18  and  C15_19 
REMARK   11  A    between atoms: C15_19  and  C17_21 
REMARK   12  A    between atoms: C26_30  and  O2_31 
REMARK   13  A    between atoms: O2_31  and  S1_32 
ROOT
HETATM    1  C7  UNL     1      10.913  39.053 -11.797  1.00  0.00     0.156 C 
HETATM    2  C8  UNL     1       9.631  38.704 -12.510  1.00  0.00     0.069 C 
HETATM    3  N1  UNL     1       8.612  38.478 -13.069  1.00  0.00    -0.197 NA
ENDROOT
BRANCH   1   4
HETATM    4  C6  UNL     1      11.185  40.429 -12.356  1.00  0.00     0.142 C 
BRANCH   4   5
HETATM    5  C4  UNL     1      11.860  41.448 -11.559  1.00  0.00     0.015 C 
HETATM    6  C5  UNL     1      11.331  42.813 -12.127  1.00  0.00     0.013 C 
BRANCH   5   7
HETATM    7  C2  UNL     1      11.560  41.511 -10.097  1.00  0.00    -0.017 C 
HETATM    8  C1  UNL     1      10.616  42.590  -9.659  1.00  0.00     0.010 C 
HETATM    9  C3  UNL     1      12.800  41.517  -9.229  1.00  0.00     0.010 C 
ENDBRANCH   5   7
ENDBRANCH   4   5
BRANCH   4  10
HETATM   10  O1  UNL     1      10.081  40.909 -13.077  1.00  0.00    -0.394 OA
ATOM     11  H1  UNL     1       9.869  40.393 -13.846  1.00  0.00     0.210 HD
ENDBRANCH   4  10
ENDBRANCH   1   4
BRANCH   1  12
HETATM   12  C9  UNL     1      11.962  38.048 -12.140  1.00  0.00     0.194 C 
HETATM   13  F1  UNL     1      11.778  36.835 -11.433  1.00  0.00    -0.248 F 
BRANCH  12  14
HETATM   14  C10 UNL     1      12.084  37.609 -13.557  1.00  0.00     0.017 C 
HETATM   15  C11 UNL     1      12.178  36.021 -13.517  1.00  0.00     0.012 C 
BRANCH  14  16
HETATM   16  C12 UNL     1      13.277  38.048 -14.321  1.00  0.00     0.007 C 
BRANCH  16  17
HETATM   17  C13 UNL     1      14.268  38.885 -13.526  1.00  0.00     0.001 C 
BRANCH  17  18
HETATM   18  C14 UNL     1      15.421  37.998 -13.211  1.00  0.00     0.005 C 
BRANCH  18  19
HETATM   19  C15 UNL     1      15.586  37.671 -11.743  1.00  0.00    -0.014 C 
HETATM   20  C16 UNL     1      15.376  36.203 -11.563  1.00  0.00     0.010 C 
BRANCH  19  21
HETATM   21  C17 UNL     1      16.942  38.177 -11.325  1.00  0.00    -0.002 C 
HETATM   22  C18 UNL     1      17.719  38.406 -12.613  1.00  0.00     0.006 C 
HETATM   23  C19 UNL     1      18.405  39.724 -12.537  1.00  0.00     0.006 C 
HETATM   24  C20 UNL     1      18.170  40.232 -11.148  1.00  0.00    -0.001 C 
HETATM   25  C21 UNL     1      19.427  39.882 -10.340  1.00  0.00    -0.001 C 
HETATM   26  C34 UNL     1      16.940  39.508 -10.652  1.00  0.00    -0.036 C 
HETATM   27  C22 UNL     1      20.595  40.490 -11.033  1.00  0.00     0.033 C 
HETATM   28  C31 UNL     1      19.300  40.088  -8.887  1.00  0.00     0.003 C 
HETATM   29  C23 UNL     1      21.565  41.184 -10.162  1.00  0.00    -0.023 C 
HETATM   30  C24 UNL     1      21.409  41.417  -8.886  1.00  0.00    -0.072 C 
HETATM   31  C25 UNL     1      22.451  42.138  -8.063  1.00  0.00     0.068 C 
HETATM   32  C29 UNL     1      20.203  41.001  -8.170  1.00  0.00    -0.017 C 
HETATM   33  C26 UNL     1      21.813  43.239  -7.254  1.00  0.00     0.149 C 
HETATM   34  C27 UNL     1      20.478  42.895  -6.678  1.00  0.00     0.035 C 
HETATM   35  C28 UNL     1      19.539  42.284  -7.695  1.00  0.00     0.016 C 
HETATM   36  C30 UNL     1      20.683  40.268  -6.901  1.00  0.00     0.020 C 
HETATM   37  C32 UNL     1      17.851  40.400  -8.508  1.00  0.00     0.007 C 
HETATM   38  C33 UNL     1      16.993  39.308  -9.157  1.00  0.00     0.010 C 
HETATM   39  C35 UNL     1      15.752  40.365 -11.027  1.00  0.00     0.016 C 
BRANCH  33  40
HETATM   40  O2  UNL     1      22.676  43.548  -6.205  1.00  0.00    -0.251 OA
BRANCH  40  41
HETATM   41  S1  UNL     1      22.778  45.203  -5.946  1.00  0.00     0.251 S 
HETATM   42  O3  UNL     1      22.008  45.548  -4.699  1.00  0.00    -0.572 OA
HETATM   43  O4  UNL     1      24.221  45.574  -5.851  1.00  0.00    -0.572 OA
HETATM   44  O5  UNL     1      22.024  45.975  -7.234  1.00  0.00    -0.572 OA
ENDBRANCH  40  41
ENDBRANCH  33  40
ENDBRANCH  19  21
ENDBRANCH  18  19
ENDBRANCH  17  18
ENDBRANCH  16  17
ENDBRANCH  14  16
ENDBRANCH  12  14
ENDBRANCH   1  12
TORSDOF 13
ENDMDL
MODEL 2
REMARK VINA RESULT: -8.832755913      4.665      9.475
REMARK  13 active torsions:
REMARK  status: ('A' for Active; 'I' for Inactive)
REMARK    1  A    between atoms: C2_2  and  C4_4 
REMARK    2  A    between atoms: C4_4  and  C6_6 
REMARK    3  A    between atoms: C6_6  and  O1_7 
REMARK    4  A    between atoms: C6_6  and  C7_9 
REMARK    5  A    between atoms: C7_9  and  C9_12 
REMARK    6  A    between atoms: C9_12  and  C10_14 
REMARK    7  A    between atoms: C10_14  and  C12_16 
REMARK    8  A    between atoms: C12_16  and  C13_17 
REMARK    9  A    between atoms: C13_17  and  C14_18 
REMARK   10  A    between atoms: C14_18  and  C15_19 
REMARK   11  A    between atoms: C15_19  and  C17_21 
REMARK   12  A    between atoms: C26_30  and  O2_31 
REMARK   13  A    between atoms: O2_31  and  S1_32 
ROOT
HETATM    1  C7  UNL     1      19.038  45.217 -10.131  1.00  0.00     0.156 C 
HETATM    2  C8  UNL     1      18.790  46.644 -10.551  1.00  0.00     0.069 C 
HETATM    3  N1  UNL     1      18.568  47.770 -10.841  1.00  0.00    -0.197 NA
ENDROOT
BRANCH   1   4
HETATM    4  C6  UNL     1      18.964  45.345  -8.628  1.00  0.00     0.142 C 
BRANCH   4   5
HETATM    5  C4  UNL     1      17.968  44.610  -7.855  1.00  0.00     0.015 C 
HETATM    6  C5  UNL     1      17.857  45.393  -6.500  1.00  0.00     0.013 C 
BRANCH   5   7
HETATM    7  C2  UNL     1      16.569  44.562  -8.375  1.00  0.00    -0.017 C 
HETATM    8  C1  UNL     1      15.727  45.778  -8.128  1.00  0.00     0.010 C 
HETATM    9  C3  UNL     1      15.817  43.314  -7.964  1.00  0.00     0.010 C 
ENDBRANCH   5   7
ENDBRANCH   4   5
BRANCH   4  10
HETATM   10  O1  UNL     1      19.124  46.680  -8.226  1.00  0.00    -0.394 OA
ATOM     11  H1  UNL     1      19.517  46.779  -7.367  1.00  0.00     0.210 HD
ENDBRANCH   4  10
ENDBRANCH   1   4
BRANCH   1  12
HETATM   12  C9  UNL     1      20.373  44.775 -10.630  1.00  0.00     0.194 C 
HETATM   13  F1  UNL     1      20.379  44.606 -12.036  1.00  0.00    -0.248 F 
BRANCH  12  14
HETATM   14  C10 UNL     1      21.547  45.657 -10.383  1.00  0.00     0.017 C 
HETATM   15  C11 UNL     1      22.104  46.058 -11.818  1.00  0.00     0.012 C 
BRANCH  14  16
HETATM   16  C12 UNL     1      22.709  45.081  -9.665  1.00  0.00     0.007 C 
BRANCH  16  17
HETATM   17  C13 UNL     1      22.410  44.600  -8.252  1.00  0.00     0.001 C 
BRANCH  17  18
HETATM   18  C14 UNL     1      22.720  43.144  -8.222  1.00  0.00     0.005 C 
BRANCH  18  19
HETATM   19  C15 UNL     1      21.613  42.272  -7.669  1.00  0.00    -0.014 C 
HETATM   20  C16 UNL     1      20.918  43.029  -6.585  1.00  0.00     0.010 C 
BRANCH  19  21
HETATM   21  C17 UNL     1      20.740  41.874  -8.830  1.00  0.00    -0.002 C 
HETATM   22  C18 UNL     1      21.688  41.538  -9.972  1.00  0.00     0.006 C 
HETATM   23  C19 UNL     1      21.249  40.267 -10.608  1.00  0.00     0.006 C 
HETATM   24  C20 UNL     1      19.951  39.906  -9.954  1.00  0.00    -0.001 C 
HETATM   25  C21 UNL     1      18.841  40.395 -10.894  1.00  0.00    -0.001 C 
HETATM   26  C34 UNL     1      19.949  40.627  -8.627  1.00  0.00    -0.036 C 
HETATM   27  C22 UNL     1      19.063  39.766 -12.224  1.00  0.00     0.033 C 
HETATM   28  C31 UNL     1      17.485  40.346 -10.321  1.00  0.00     0.003 C 
HETATM   29  C23 UNL     1      17.858  39.215 -12.879  1.00  0.00    -0.023 C 
HETATM   30  C24 UNL     1      16.675  39.116 -12.334  1.00  0.00    -0.072 C 
HETATM   31  C25 UNL     1      15.491  38.536 -13.071  1.00  0.00     0.068 C 
HETATM   32  C29 UNL     1      16.422  39.557 -10.961  1.00  0.00    -0.017 C 
HETATM   33  C26 UNL     1      14.795  37.505 -12.219  1.00  0.00     0.149 C 
HETATM   34  C27 UNL     1      14.704  37.853 -10.769  1.00  0.00     0.035 C 
HETATM   35  C28 UNL     1      16.027  38.307 -10.191  1.00  0.00     0.016 C 
HETATM   36  C30 UNL     1      15.162  40.446 -11.017  1.00  0.00     0.020 C 
HETATM   37  C32 UNL     1      17.538  40.015  -8.829  1.00  0.00     0.007 C 
HETATM   38  C33 UNL     1      18.545  40.992  -8.209  1.00  0.00     0.010 C 
HETATM   39  C35 UNL     1      20.569  39.683  -7.621  1.00  0.00     0.016 C 
BRANCH  33  40
HETATM   40  O2  UNL     1      13.501  37.350 -12.714  1.00  0.00    -0.251 OA
BRANCH  40  41
HETATM   41  S1  UNL     1      13.069  35.734 -12.838  1.00  0.00     0.251 S 
HETATM   42  O3  UNL     1      12.233  35.361 -11.642  1.00  0.00    -0.572 OA
HETATM   43  O4  UNL     1      12.343  35.542 -14.128  1.00  0.00    -0.572 OA
HETATM   44  O5  UNL     1      14.475  34.816 -12.776  1.00  0.00    -0.572 OA
ENDBRANCH  40  41
ENDBRANCH  33  40
ENDBRANCH  19  21
ENDBRANCH  18  19
ENDBRANCH  17  18
ENDBRANCH  16  17
ENDBRANCH  14  16
ENDBRANCH  12  14
ENDBRANCH   1  12
TORSDOF 13
ENDMDL
MODEL 3
REMARK VINA RESULT: -8.816280377      4.573      9.547
REMARK  13 active torsions:
REMARK  status: ('A' for Active; 'I' for Inactive)
REMARK    1  A    between atoms: C2_2  and  C4_4 
REMARK    2  A    between atoms: C4_4  and  C6_6 
REMARK    3  A    between atoms: C6_6  and  O1_7 
REMARK    4  A    between atoms: C6_6  and  C7_9 
REMARK    5  A    between atoms: C7_9  and  C9_12 
REMARK    6  A    between atoms: C9_12  and  C10_14 
REMARK    7  A    between atoms: C10_14  and  C12_16 
REMARK    8  A    between atoms: C12_16  and  C13_17 
REMARK    9  A    between atoms: C13_17  and  C14_18 
REMARK   10  A    between atoms: C14_18  and  C15_19 
REMARK   11  A    between atoms: C15_19  and  C17_21 
REMARK   12  A    between atoms: C26_30  and  O2_31 
REMARK   13  A    between atoms: O2_31  and  S1_32 
ROOT
HETATM    1  C7  UNL     1      18.316  44.788  -8.088  1.00  0.00     0.156 C 
HETATM    2  C8  UNL     1      17.154  43.982  -8.613  1.00  0.00     0.069 C 
HETATM    3  N1  UNL     1      16.214  43.372  -8.992  1.00  0.00    -0.197 NA
ENDROOT
BRANCH   1   4
HETATM    4  C6  UNL     1      17.611  46.046  -7.641  1.00  0.00     0.142 C 
BRANCH   4   5
HETATM    5  C4  UNL     1      17.869  46.632  -6.330  1.00  0.00     0.015 C 
HETATM    6  C5  UNL     1      18.903  45.661  -5.656  1.00  0.00     0.013 C 
BRANCH   5   7
HETATM    7  C2  UNL     1      18.526  47.972  -6.274  1.00  0.00    -0.017 C 
HETATM    8  C1  UNL     1      18.091  48.879  -5.163  1.00  0.00     0.010 C 
HETATM    9  C3  UNL     1      18.495  48.713  -7.594  1.00  0.00     0.010 C 
ENDBRANCH   5   7
ENDBRANCH   4   5
BRANCH   4  10
HETATM   10  O1  UNL     1      16.253  46.017  -7.994  1.00  0.00    -0.394 OA
ATOM     11  H1  UNL     1      15.736  45.404  -7.485  1.00  0.00     0.210 HD
ENDBRANCH   4  10
ENDBRANCH   1   4
BRANCH   1  12
HETATM   12  C9  UNL     1      19.304  45.011  -9.185  1.00  0.00     0.194 C 
HETATM   13  F1  UNL     1      18.711  45.644 -10.305  1.00  0.00    -0.248 F 
BRANCH  12  14
HETATM   14  C10 UNL     1      20.496  45.856  -8.900  1.00  0.00     0.017 C 
HETATM   15  C11 UNL     1      20.556  46.937 -10.066  1.00  0.00     0.012 C 
BRANCH  14  16
HETATM   16  C12 UNL     1      21.827  45.205  -8.908  1.00  0.00     0.007 C 
BRANCH  16  17
HETATM   17  C13 UNL     1      22.202  44.505  -7.610  1.00  0.00     0.001 C 
BRANCH  17  18
HETATM   18  C14 UNL     1      22.535  43.098  -7.963  1.00  0.00     0.005 C 
BRANCH  18  19
HETATM   19  C15 UNL     1      21.528  42.072  -7.489  1.00  0.00    -0.014 C 
HETATM   20  C16 UNL     1      20.805  42.634  -6.309  1.00  0.00     0.010 C 
BRANCH  19  21
HETATM   21  C17 UNL     1      20.655  41.730  -8.669  1.00  0.00    -0.002 C 
HETATM   22  C18 UNL     1      21.600  41.508  -9.840  1.00  0.00     0.006 C 
HETATM   23  C19 UNL     1      21.195  40.273 -10.562  1.00  0.00     0.006 C 
HETATM   24  C20 UNL     1      19.916  39.823  -9.925  1.00  0.00    -0.001 C 
HETATM   25  C21 UNL     1      18.781  40.343 -10.818  1.00  0.00    -0.001 C 
HETATM   26  C34 UNL     1      19.906  40.446  -8.549  1.00  0.00    -0.036 C 
HETATM   27  C22 UNL     1      19.008  39.818 -12.192  1.00  0.00     0.033 C 
HETATM   28  C31 UNL     1      17.434  40.207 -10.238  1.00  0.00     0.003 C 
HETATM   29  C23 UNL     1      17.814  39.277 -12.873  1.00  0.00    -0.023 C 
HETATM   30  C24 UNL     1      16.641  39.101 -12.327  1.00  0.00    -0.072 C 
HETATM   31  C25 UNL     1      15.468  38.537 -13.093  1.00  0.00     0.068 C 
HETATM   32  C29 UNL     1      16.389  39.433 -10.924  1.00  0.00    -0.017 C 
HETATM   33  C26 UNL     1      14.815  37.424 -12.312  1.00  0.00     0.149 C 
HETATM   34  C27 UNL     1      14.730  37.663 -10.840  1.00  0.00     0.035 C 
HETATM   35  C28 UNL     1      16.043  38.118 -10.242  1.00  0.00     0.016 C 
HETATM   36  C30 UNL     1      15.101  40.281 -10.904  1.00  0.00     0.020 C 
HETATM   37  C32 UNL     1      17.514  39.772  -8.773  1.00  0.00     0.007 C 
HETATM   38  C33 UNL     1      18.496  40.734  -8.094  1.00  0.00     0.010 C 
HETATM   39  C35 UNL     1      20.567  39.453  -7.620  1.00  0.00     0.016 C 
BRANCH  33  40
HETATM   40  O2  UNL     1      13.522  37.263 -12.806  1.00  0.00    -0.251 OA
BRANCH  40  41
HETATM   41  S1  UNL     1      13.074  35.648 -12.870  1.00  0.00     0.251 S 
HETATM   42  O3  UNL     1      12.276  35.315 -11.637  1.00  0.00    -0.572 OA
HETATM   43  O4  UNL     1      12.304  35.426 -14.129  1.00  0.00    -0.572 OA
HETATM   44  O5  UNL     1      14.475  34.721 -12.829  1.00  0.00    -0.572 OA
ENDBRANCH  40  41
ENDBRANCH  33  40
ENDBRANCH  19  21
ENDBRANCH  18  19
ENDBRANCH  17  18
ENDBRANCH  16  17
ENDBRANCH  14  16
ENDBRANCH  12  14
ENDBRANCH   1  12
TORSDOF 13
ENDMDL
MODEL 4
REMARK VINA RESULT: -8.710236338      4.978      9.826
REMARK  13 active torsions:
REMARK  status: ('A' for Active; 'I' for Inactive)
REMARK    1  A    between atoms: C2_2  and  C4_4 
REMARK    2  A    between atoms: C4_4  and  C6_6 
REMARK    3  A    between atoms: C6_6  and  O1_7 
REMARK    4  A    between atoms: C6_6  and  C7_9 
REMARK    5  A    between atoms: C7_9  and  C9_12 
REMARK    6  A    between atoms: C9_12  and  C10_14 
REMARK    7  A    between atoms: C10_14  and  C12_16 
REMARK    8  A    between atoms: C12_16  and  C13_17 
REMARK    9  A    between atoms: C13_17  and  C14_18 
REMARK   10  A    between atoms: C14_18  and  C15_19 
REMARK   11  A    between atoms: C15_19  and  C17_21 
REMARK   12  A    between atoms: C26_30  and  O2_31 
REMARK   13  A    between atoms: O2_31  and  S1_32 
ROOT
HETATM    1  C7  UNL     1      19.683  45.822  -9.805  1.00  0.00     0.156 C 
HETATM    2  C8  UNL     1      19.902  45.926 -11.293  1.00  0.00     0.069 C 
HETATM    3  N1  UNL     1      20.025  46.002 -12.468  1.00  0.00    -0.197 NA
ENDROOT
BRANCH   1   4
HETATM    4  C6  UNL     1      18.289  46.391  -9.681  1.00  0.00     0.142 C 
BRANCH   4   5
HETATM    5  C4  UNL     1      17.303  45.787  -8.792  1.00  0.00     0.015 C 
HETATM    6  C5  UNL     1      17.840  44.336  -8.527  1.00  0.00     0.013 C 
BRANCH   5   7
HETATM    7  C2  UNL     1      17.130  46.375  -7.429  1.00  0.00    -0.017 C 
HETATM    8  C1  UNL     1      17.378  47.848  -7.306  1.00  0.00     0.010 C 
HETATM    9  C3  UNL     1      17.884  45.626  -6.351  1.00  0.00     0.010 C 
ENDBRANCH   5   7
ENDBRANCH   4   5
BRANCH   4  10
HETATM   10  O1  UNL     1      17.777  46.752 -10.937  1.00  0.00    -0.394 OA
ATOM     11  H1  UNL     1      18.100  47.585 -11.260  1.00  0.00     0.210 HD
ENDBRANCH   4  10
ENDBRANCH   1   4
BRANCH   1  12
HETATM   12  C9  UNL     1      20.722  46.621  -9.091  1.00  0.00     0.194 C 
HETATM   13  F1  UNL     1      20.275  47.936  -8.815  1.00  0.00    -0.248 F 
BRANCH  12  14
HETATM   14  C10 UNL     1      21.203  46.134  -7.769  1.00  0.00     0.017 C 
HETATM   15  C11 UNL     1      21.163  47.393  -6.797  1.00  0.00     0.012 C 
BRANCH  14  16
HETATM   16  C12 UNL     1      22.591  45.621  -7.680  1.00  0.00     0.007 C 
BRANCH  16  17
HETATM   17  C13 UNL     1      22.740  44.322  -6.901  1.00  0.00     0.001 C 
BRANCH  17  18
HETATM   18  C14 UNL     1      22.430  43.217  -7.849  1.00  0.00     0.005 C 
BRANCH  18  19
HETATM   19  C15 UNL     1      21.365  42.253  -7.371  1.00  0.00    -0.014 C 
HETATM   20  C16 UNL     1      20.609  42.904  -6.259  1.00  0.00     0.010 C 
BRANCH  19  21
HETATM   21  C17 UNL     1      20.536  41.877  -8.571  1.00  0.00    -0.002 C 
HETATM   22  C18 UNL     1      21.523  41.632  -9.703  1.00  0.00     0.006 C 
HETATM   23  C19 UNL     1      21.151  40.376 -10.408  1.00  0.00     0.006 C 
HETATM   24  C20 UNL     1      19.852  39.934  -9.805  1.00  0.00    -0.001 C 
HETATM   25  C21 UNL     1      18.746  40.425 -10.749  1.00  0.00    -0.001 C 
HETATM   26  C34 UNL     1      19.791  40.591  -8.446  1.00  0.00    -0.036 C 
HETATM   27  C22 UNL     1      19.024  39.867 -12.100  1.00  0.00     0.033 C 
HETATM   28  C31 UNL     1      17.381  40.296 -10.213  1.00  0.00     0.003 C 
HETATM   29  C23 UNL     1      17.858  39.302 -12.810  1.00  0.00    -0.023 C 
HETATM   30  C24 UNL     1      16.667  39.132 -12.300  1.00  0.00    -0.072 C 
HETATM   31  C25 UNL     1      15.525  38.542 -13.093  1.00  0.00     0.068 C 
HETATM   32  C29 UNL     1      16.365  39.497 -10.915  1.00  0.00    -0.017 C 
HETATM   33  C26 UNL     1      14.851  37.445 -12.307  1.00  0.00     0.149 C 
HETATM   34  C27 UNL     1      14.713  37.720 -10.846  1.00  0.00     0.035 C 
HETATM   35  C28 UNL     1      16.002  38.198 -10.213  1.00  0.00     0.016 C 
HETATM   36  C30 UNL     1      15.072  40.338 -10.962  1.00  0.00     0.020 C 
HETATM   37  C32 UNL     1      17.412  39.898  -8.736  1.00  0.00     0.007 C 
HETATM   38  C33 UNL     1      18.364  40.882  -8.047  1.00  0.00     0.010 C 
HETATM   39  C35 UNL     1      20.424  39.626  -7.469  1.00  0.00     0.016 C 
BRANCH  33  40
HETATM   40  O2  UNL     1      13.576  37.264 -12.841  1.00  0.00    -0.251 OA
BRANCH  40  41
HETATM   41  S1  UNL     1      13.130  35.647 -12.860  1.00  0.00     0.251 S 
HETATM   42  O3  UNL     1      12.278  35.364 -11.650  1.00  0.00    -0.572 OA
HETATM   43  O4  UNL     1      12.416  35.373 -14.141  1.00  0.00    -0.572 OA
HETATM   44  O5  UNL     1      14.527  34.724 -12.719  1.00  0.00    -0.572 OA
ENDBRANCH  40  41
ENDBRANCH  33  40
ENDBRANCH  19  21
ENDBRANCH  18  19
ENDBRANCH  17  18
ENDBRANCH  16  17
ENDBRANCH  14  16
ENDBRANCH  12  14
ENDBRANCH   1  12
TORSDOF 13
ENDMDL
MODEL 5
REMARK VINA RESULT: -8.704408631      4.630      9.553
REMARK  13 active torsions:
REMARK  status: ('A' for Active; 'I' for Inactive)
REMARK    1  A    between atoms: C2_2  and  C4_4 
REMARK    2  A    between atoms: C4_4  and  C6_6 
REMARK    3  A    between atoms: C6_6  and  O1_7 
REMARK    4  A    between atoms: C6_6  and  C7_9 
REMARK    5  A    between atoms: C7_9  and  C9_12 
REMARK    6  A    between atoms: C9_12  and  C10_14 
REMARK    7  A    between atoms: C10_14  and  C12_16 
REMARK    8  A    between atoms: C12_16  and  C13_17 
REMARK    9  A    between atoms: C13_17  and  C14_18 
REMARK   10  A    between atoms: C14_18  and  C15_19 
REMARK   11  A    between atoms: C15_19  and  C17_21 
REMARK   12  A    between atoms: C26_30  and  O2_31 
REMARK   13  A    between atoms: O2_31  and  S1_32 
ROOT
HETATM    1  C7  UNL     1      18.002  46.091  -8.473  1.00  0.00     0.156 C 
HETATM    2  C8  UNL     1      16.602  45.690  -8.082  1.00  0.00     0.069 C 
HETATM    3  N1  UNL     1      15.500  45.350  -7.817  1.00  0.00    -0.197 NA
ENDROOT
BRANCH   1   4
HETATM    4  C6  UNL     1      18.432  44.884  -9.273  1.00  0.00     0.142 C 
BRANCH   4   5
HETATM    5  C4  UNL     1      19.088  45.031 -10.568  1.00  0.00     0.015 C 
HETATM    6  C5  UNL     1      19.254  46.580 -10.757  1.00  0.00     0.013 C 
BRANCH   5   7
HETATM    7  C2  UNL     1      20.470  44.486 -10.722  1.00  0.00    -0.017 C 
HETATM    8  C1  UNL     1      21.594  45.449 -10.487  1.00  0.00     0.010 C 
HETATM    9  C3  UNL     1      20.682  43.744 -12.025  1.00  0.00     0.010 C 
ENDBRANCH   5   7
ENDBRANCH   4   5
BRANCH   4  10
HETATM   10  O1  UNL     1      17.449  43.882  -9.243  1.00  0.00    -0.394 OA
ATOM     11  H1  UNL     1      17.394  43.421  -8.414  1.00  0.00     0.210 HD
ENDBRANCH   4  10
ENDBRANCH   1   4
BRANCH   1  12
HETATM   12  C9  UNL     1      18.818  46.316  -7.243  1.00  0.00     0.194 C 
HETATM   13  F1  UNL     1      18.004  46.592  -6.117  1.00  0.00    -0.248 F 
BRANCH  12  14
HETATM   14  C10 UNL     1      19.702  45.215  -6.770  1.00  0.00     0.017 C 
HETATM   15  C11 UNL     1      19.405  45.052  -5.216  1.00  0.00     0.012 C 
BRANCH  14  16
HETATM   16  C12 UNL     1      21.168  45.412  -6.865  1.00  0.00     0.007 C 
BRANCH  16  17
HETATM   17  C13 UNL     1      22.001  44.299  -6.245  1.00  0.00     0.001 C 
BRANCH  17  18
HETATM   18  C14 UNL     1      22.302  43.332  -7.336  1.00  0.00     0.005 C 
BRANCH  18  19
HETATM   19  C15 UNL     1      21.681  41.964  -7.157  1.00  0.00    -0.014 C 
HETATM   20  C16 UNL     1      20.941  41.950  -5.859  1.00  0.00     0.010 C 
BRANCH  19  21
HETATM   21  C17 UNL     1      20.835  41.698  -8.376  1.00  0.00    -0.002 C 
HETATM   22  C18 UNL     1      21.810  41.489  -9.525  1.00  0.00     0.006 C 
HETATM   23  C19 UNL     1      21.387  40.297 -10.308  1.00  0.00     0.006 C 
HETATM   24  C20 UNL     1      20.074  39.868  -9.729  1.00  0.00    -0.001 C 
HETATM   25  C21 UNL     1      18.986  40.461 -10.635  1.00  0.00    -0.001 C 
HETATM   26  C34 UNL     1      20.040  40.437  -8.330  1.00  0.00    -0.036 C 
HETATM   27  C22 UNL     1      19.240  39.982 -12.021  1.00  0.00     0.033 C 
HETATM   28  C31 UNL     1      17.618  40.350 -10.103  1.00  0.00     0.003 C 
HETATM   29  C23 UNL     1      18.051  39.509 -12.760  1.00  0.00    -0.023 C 
HETATM   30  C24 UNL     1      16.856  39.353 -12.257  1.00  0.00    -0.072 C 
HETATM   31  C25 UNL     1      15.690  38.860 -13.082  1.00  0.00     0.068 C 
HETATM   32  C29 UNL     1      16.570  39.639 -10.851  1.00  0.00    -0.017 C 
HETATM   33  C26 UNL     1      14.975  37.742 -12.366  1.00  0.00     0.149 C 
HETATM   34  C27 UNL     1      14.850  37.927 -10.889  1.00  0.00     0.035 C 
HETATM   35  C28 UNL     1      16.158  38.312 -10.233  1.00  0.00     0.016 C 
HETATM   36  C30 UNL     1      15.311  40.531 -10.837  1.00  0.00     0.020 C 
HETATM   37  C32 UNL     1      17.636  39.857  -8.655  1.00  0.00     0.007 C 
HETATM   38  C33 UNL     1      18.627  40.757  -7.908  1.00  0.00     0.010 C 
HETATM   39  C35 UNL     1      20.637  39.387  -7.421  1.00  0.00     0.016 C 
BRANCH  33  40
HETATM   40  O2  UNL     1      13.693  37.645 -12.905  1.00  0.00    -0.251 OA
BRANCH  40  41
HETATM   41  S1  UNL     1      13.137  36.063 -12.916  1.00  0.00     0.251 S 
HETATM   42  O3  UNL     1      12.259  35.848 -11.711  1.00  0.00    -0.572 OA
HETATM   43  O4  UNL     1      12.415  35.829 -14.201  1.00  0.00    -0.572 OA
HETATM   44  O5  UNL     1      14.466  35.047 -12.758  1.00  0.00    -0.572 OA
ENDBRANCH  40  41
ENDBRANCH  33  40
ENDBRANCH  19  21
ENDBRANCH  18  19
ENDBRANCH  17  18
ENDBRANCH  16  17
ENDBRANCH  14  16
ENDBRANCH  12  14
ENDBRANCH   1  12
TORSDOF 13
ENDMDL
