MODEL 1
REMARK VINA RESULT: -8.753876088      0.000      0.000
REMARK  14 active torsions:
REMARK  status: ('A' for Active; 'I' for Inactive)
REMARK    1  A    between atoms: C3_3  and  O1_4 
REMARK    2  A    between atoms: O1_4  and  C4_5 
REMARK    3  A    between atoms: C6_8  and  C7_9 
REMARK    4  A    between atoms: C7_9  and  C8_10 
REMARK    5  A    between atoms: C8_10  and  C10_12 
REMARK    6  A    between atoms: C10_12  and  C11_13 
REMARK    7  A    between atoms: C11_13  and  C12_14 
REMARK    8  A    between atoms: C12_14  and  C13_15 
REMARK    9  A    between atoms: C13_15  and  N1_17 
REMARK       I    between atoms: N1_17  and  C15_19 
REMARK   10  A    between atoms: C15_19  and  C16_21 
REMARK   11  A    between atoms: C16_21  and  N2_22 
REMARK   12  A    between atoms: C16_21  and  C17_26 
REMARK   13  A    between atoms: C17_26  and  C19_28 
REMARK   14  A    between atoms: C34_43  and  O4_44 
ROOT
HETATM    1  C1  UNL     1      21.149  39.067  -9.348  1.00  0.00     0.017 C 
HETATM    2  C2  UNL     1      20.692  40.090 -10.037  1.00  0.00    -0.055 C 
HETATM    3  C3  UNL     1      19.454  39.898 -10.893  1.00  0.00     0.164 C 
HETATM    4  C6  UNL     1      18.481  40.910 -10.323  1.00  0.00     0.020 C 
HETATM    5  C21 UNL     1      19.114  42.278 -10.680  1.00  0.00     0.017 C 
HETATM    6  C22 UNL     1      20.308  42.543  -9.792  1.00  0.00    -0.032 C 
HETATM    7  C23 UNL     1      19.808  42.586  -8.376  1.00  0.00     0.016 C 
HETATM    8  C24 UNL     1      21.282  41.422 -10.053  1.00  0.00     0.025 C 
HETATM    9  C25 UNL     1      22.462  41.621  -9.167  1.00  0.00     0.011 C 
HETATM   10  C26 UNL     1      23.174  42.852  -9.706  1.00  0.00     0.013 C 
HETATM   11  C27 UNL     1      22.327  44.072  -9.763  1.00  0.00    -0.003 C 
HETATM   12  C28 UNL     1      22.448  44.743  -8.391  1.00  0.00     0.019 C 
HETATM   13  C29 UNL     1      20.908  43.877 -10.127  1.00  0.00     0.006 C 
HETATM   14  C30 UNL     1      20.572  44.219 -11.575  1.00  0.00     0.007 C 
HETATM   15  C31 UNL     1      20.983  45.605 -11.967  1.00  0.00     0.008 C 
HETATM   16  C32 UNL     1      22.089  46.153 -11.129  1.00  0.00     0.029 C 
HETATM   17  C33 UNL     1      22.800  47.312 -11.717  1.00  0.00     0.039 C 
HETATM   18  C34 UNL     1      24.113  46.967 -12.373  1.00  0.00     0.118 C 
HETATM   19  C35 UNL     1      25.014  46.147 -11.507  1.00  0.00     0.035 C 
HETATM   20  C36 UNL     1      24.283  45.590 -10.277  1.00  0.00     0.047 C 
HETATM   21  C37 UNL     1      23.004  45.008 -10.777  1.00  0.00     0.115 C 
HETATM   22  F1  UNL     1      23.227  44.202 -11.903  1.00  0.00    -0.242 F 
ENDROOT
BRANCH   4  23
HETATM   23  C7  UNL     1      17.103  40.826 -10.843  1.00  0.00     0.012 C 
BRANCH  23  24
HETATM   24  C8  UNL     1      16.079  40.867  -9.751  1.00  0.00    -0.018 C 
HETATM   25  C9  UNL     1      15.675  42.237  -9.324  1.00  0.00     0.010 C 
BRANCH  24  26
HETATM   26  C10 UNL     1      14.835  40.085 -10.155  1.00  0.00     0.004 C 
BRANCH  26  27
HETATM   27  C11 UNL     1      14.875  39.946 -11.685  1.00  0.00     0.002 C 
BRANCH  27  28
HETATM   28  C12 UNL     1      13.477  39.975 -12.223  1.00  0.00     0.024 C 
BRANCH  28  29
HETATM   29  C13 UNL     1      13.226  38.875 -13.216  1.00  0.00     0.080 C 
HETATM   30  C14 UNL     1      13.312  39.295 -14.649  1.00  0.00     0.032 C 
BRANCH  29  31
HETATM   31  N1  UNL     1      14.225  37.813 -12.989  1.00  0.00    -0.355 N 
HETATM   32  C15 UNL     1      13.867  36.607 -12.373  1.00  0.00     0.248 C 
HETATM   33  O3  UNL     1      12.630  36.506 -12.021  1.00  0.00    -0.271 OA
ATOM     34  H1  UNL     1      15.191  37.960 -13.283  1.00  0.00     0.162 HD
BRANCH  32  35
HETATM   35  C16 UNL     1      14.804  35.516 -12.136  1.00  0.00     0.278 C 
BRANCH  35  36
HETATM   36  N2  UNL     1      14.062  34.247 -12.289  1.00  0.00    -0.066 N 
ATOM     37  H23 UNL     1      13.246  34.335 -12.894  1.00  0.00     0.275 HD
ATOM     38  H22 UNL     1      14.567  33.557 -12.846  1.00  0.00     0.275 HD
ATOM     39  H21 UNL     1      13.830  33.909 -11.355  1.00  0.00     0.275 HD
ENDBRANCH  35  36
BRANCH  35  40
HETATM   40  C17 UNL     1      15.505  35.448 -10.826  1.00  0.00     0.021 C 
HETATM   41  C18 UNL     1      16.685  36.363 -10.700  1.00  0.00     0.012 C 
BRANCH  40  42
HETATM   42  C19 UNL     1      15.878  34.061 -10.408  1.00  0.00     0.002 C 
HETATM   43  C20 UNL     1      17.420  34.030 -10.366  1.00  0.00     0.005 C 
ENDBRANCH  40  42
ENDBRANCH  35  40
ENDBRANCH  32  35
ENDBRANCH  29  31
ENDBRANCH  28  29
ENDBRANCH  27  28
ENDBRANCH  26  27
ENDBRANCH  24  26
ENDBRANCH  23  24
ENDBRANCH   4  23
BRANCH   3  44
HETATM   44  O1  UNL     1      19.871  40.237 -12.198  1.00  0.00    -0.311 OA
BRANCH  44  45
HETATM   45  C4  UNL     1      19.479  39.515 -13.320  1.00  0.00     0.255 C 
HETATM   46  C5  UNL     1      18.268  38.658 -13.348  1.00  0.00     0.126 C 
HETATM   47  O2  UNL     1      20.206  39.616 -14.336  1.00  0.00    -0.266 OA
ENDBRANCH  44  45
ENDBRANCH   3  44
BRANCH  18  48
HETATM   48  O4  UNL     1      23.937  46.424 -13.655  1.00  0.00    -0.396 OA
ATOM     49  H4  UNL     1      24.139  45.496 -13.682  1.00  0.00     0.210 HD
ENDBRANCH  18  48
TORSDOF 14
ENDMDL
MODEL 2
REMARK VINA RESULT: -8.740306295      1.088      2.575
REMARK  14 active torsions:
REMARK  status: ('A' for Active; 'I' for Inactive)
REMARK    1  A    between atoms: C3_3  and  O1_4 
REMARK    2  A    between atoms: O1_4  and  C4_5 
REMARK    3  A    between atoms: C6_8  and  C7_9 
REMARK    4  A    between atoms: C7_9  and  C8_10 
REMARK    5  A    between atoms: C8_10  and  C10_12 
REMARK    6  A    between atoms: C10_12  and  C11_13 
REMARK    7  A    between atoms: C11_13  and  C12_14 
REMARK    8  A    between atoms: C12_14  and  C13_15 
REMARK    9  A    between atoms: C13_15  and  N1_17 
REMARK       I    between atoms: N1_17  and  C15_19 
REMARK   10  A    between atoms: C15_19  and  C16_21 
REMARK   11  A    between atoms: C16_21  and  N2_22 
REMARK   12  A    between atoms: C16_21  and  C17_26 
REMARK   13  A    between atoms: C17_26  and  C19_28 
REMARK   14  A    between atoms: C34_43  and  O4_44 
ROOT
HETATM    1  C1  UNL     1      21.137  38.985  -9.381  1.00  0.00     0.017 C 
HETATM    2  C2  UNL     1      20.714  40.015 -10.083  1.00  0.00    -0.055 C 
HETATM    3  C3  UNL     1      19.544  39.820 -11.029  1.00  0.00     0.164 C 
HETATM    4  C6  UNL     1      18.516  40.806 -10.512  1.00  0.00     0.020 C 
HETATM    5  C21 UNL     1      19.150  42.191 -10.797  1.00  0.00     0.017 C 
HETATM    6  C22 UNL     1      20.273  42.455  -9.820  1.00  0.00    -0.032 C 
HETATM    7  C23 UNL     1      19.671  42.463  -8.443  1.00  0.00     0.016 C 
HETATM    8  C24 UNL     1      21.281  41.355 -10.030  1.00  0.00     0.025 C 
HETATM    9  C25 UNL     1      22.391  41.554  -9.057  1.00  0.00     0.011 C 
HETATM   10  C26 UNL     1      23.120  42.807  -9.521  1.00  0.00     0.013 C 
HETATM   11  C27 UNL     1      22.259  44.014  -9.616  1.00  0.00    -0.003 C 
HETATM   12  C28 UNL     1      22.269  44.660  -8.227  1.00  0.00     0.019 C 
HETATM   13  C29 UNL     1      20.873  43.805 -10.086  1.00  0.00     0.006 C 
HETATM   14  C30 UNL     1      20.637  44.170 -11.547  1.00  0.00     0.007 C 
HETATM   15  C31 UNL     1      21.052  45.570 -11.883  1.00  0.00     0.008 C 
HETATM   16  C32 UNL     1      22.086  46.118 -10.957  1.00  0.00     0.029 C 
HETATM   17  C33 UNL     1      22.818  47.300 -11.470  1.00  0.00     0.039 C 
HETATM   18  C34 UNL     1      24.180  46.987 -12.036  1.00  0.00     0.118 C 
HETATM   19  C35 UNL     1      25.029  46.164 -11.123  1.00  0.00     0.035 C 
HETATM   20  C36 UNL     1      24.221  45.572  -9.959  1.00  0.00     0.047 C 
HETATM   21  C37 UNL     1      22.991  44.980 -10.561  1.00  0.00     0.115 C 
HETATM   22  F1  UNL     1      23.309  44.201 -11.683  1.00  0.00    -0.242 F 
ENDROOT
BRANCH   4  23
HETATM   23  C7  UNL     1      17.180  40.712 -11.133  1.00  0.00     0.012 C 
BRANCH  23  24
HETATM   24  C8  UNL     1      16.127  40.294 -10.154  1.00  0.00    -0.018 C 
HETATM   25  C9  UNL     1      14.729  40.380 -10.665  1.00  0.00     0.010 C 
BRANCH  24  26
HETATM   26  C10 UNL     1      16.389  38.876  -9.660  1.00  0.00     0.004 C 
BRANCH  26  27
HETATM   27  C11 UNL     1      16.052  37.932 -10.824  1.00  0.00     0.002 C 
BRANCH  27  28
HETATM   28  C12 UNL     1      16.927  36.718 -10.748  1.00  0.00     0.024 C 
BRANCH  28  29
HETATM   29  C13 UNL     1      16.167  35.450 -11.019  1.00  0.00     0.080 C 
HETATM   30  C14 UNL     1      16.409  34.354 -10.032  1.00  0.00     0.032 C 
BRANCH  29  31
HETATM   31  N1  UNL     1      14.726  35.767 -11.010  1.00  0.00    -0.355 N 
HETATM   32  C15 UNL     1      13.867  35.243 -11.985  1.00  0.00     0.248 C 
HETATM   33  O3  UNL     1      14.423  34.492 -12.874  1.00  0.00    -0.271 OA
ATOM     34  H1  UNL     1      14.350  36.376 -10.283  1.00  0.00     0.162 HD
BRANCH  32  35
HETATM   35  C16 UNL     1      12.434  35.506 -12.018  1.00  0.00     0.278 C 
BRANCH  35  36
HETATM   36  N2  UNL     1      11.865  34.748 -13.152  1.00  0.00    -0.066 N 
ATOM     37  H23 UNL     1      12.576  34.272 -13.707  1.00  0.00     0.275 HD
ATOM     38  H22 UNL     1      11.348  33.920 -12.856  1.00  0.00     0.275 HD
ATOM     39  H21 UNL     1      11.298  35.393 -13.703  1.00  0.00     0.275 HD
ENDBRANCH  35  36
BRANCH  35  40
HETATM   40  C17 UNL     1      11.968  36.912 -12.164  1.00  0.00     0.021 C 
HETATM   41  C18 UNL     1      10.593  37.174 -11.631  1.00  0.00     0.012 C 
BRANCH  40  42
HETATM   42  C19 UNL     1      12.099  37.453 -13.553  1.00  0.00     0.002 C 
HETATM   43  C20 UNL     1      13.232  38.498 -13.497  1.00  0.00     0.005 C 
ENDBRANCH  40  42
ENDBRANCH  35  40
ENDBRANCH  32  35
ENDBRANCH  29  31
ENDBRANCH  28  29
ENDBRANCH  27  28
ENDBRANCH  26  27
ENDBRANCH  24  26
ENDBRANCH  23  24
ENDBRANCH   4  23
BRANCH   3  44
HETATM   44  O1  UNL     1      20.048  40.191 -12.294  1.00  0.00    -0.311 OA
BRANCH  44  45
HETATM   45  C4  UNL     1      19.760  39.479 -13.453  1.00  0.00     0.255 C 
HETATM   46  C5  UNL     1      18.528  38.669 -13.618  1.00  0.00     0.126 C 
HETATM   47  O2  UNL     1      20.601  39.547 -14.379  1.00  0.00    -0.266 OA
ENDBRANCH  44  45
ENDBRANCH   3  44
BRANCH  18  48
HETATM   48  O4  UNL     1      24.106  46.467 -13.337  1.00  0.00    -0.396 OA
ATOM     49  H4  UNL     1      23.536  45.708 -13.388  1.00  0.00     0.210 HD
ENDBRANCH  18  48
TORSDOF 14
ENDMDL
MODEL 3
REMARK VINA RESULT: -8.728628644      4.147      8.145
REMARK  14 active torsions:
REMARK  status: ('A' for Active; 'I' for Inactive)
REMARK    1  A    between atoms: C3_3  and  O1_4 
REMARK    2  A    between atoms: O1_4  and  C4_5 
REMARK    3  A    between atoms: C6_8  and  C7_9 
REMARK    4  A    between atoms: C7_9  and  C8_10 
REMARK    5  A    between atoms: C8_10  and  C10_12 
REMARK    6  A    between atoms: C10_12  and  C11_13 
REMARK    7  A    between atoms: C11_13  and  C12_14 
REMARK    8  A    between atoms: C12_14  and  C13_15 
REMARK    9  A    between atoms: C13_15  and  N1_17 
REMARK       I    between atoms: N1_17  and  C15_19 
REMARK   10  A    between atoms: C15_19  and  C16_21 
REMARK   11  A    between atoms: C16_21  and  N2_22 
REMARK   12  A    between atoms: C16_21  and  C17_26 
REMARK   13  A    between atoms: C17_26  and  C19_28 
REMARK   14  A    between atoms: C34_43  and  O4_44 
ROOT
HETATM    1  C1  UNL     1      22.933  41.140  -8.232  1.00  0.00     0.017 C 
HETATM    2  C2  UNL     1      21.757  41.730  -8.204  1.00  0.00    -0.055 C 
HETATM    3  C3  UNL     1      21.594  42.990  -7.375  1.00  0.00     0.164 C 
HETATM    4  C6  UNL     1      21.163  44.022  -8.398  1.00  0.00     0.020 C 
HETATM    5  C21 UNL     1      19.757  43.543  -8.841  1.00  0.00     0.017 C 
HETATM    6  C22 UNL     1      19.883  42.331  -9.736  1.00  0.00    -0.032 C 
HETATM    7  C23 UNL     1      20.664  42.753 -10.949  1.00  0.00     0.016 C 
HETATM    8  C24 UNL     1      20.571  41.272  -8.914  1.00  0.00     0.025 C 
HETATM    9  C25 UNL     1      20.752  40.067  -9.772  1.00  0.00     0.011 C 
HETATM   10  C26 UNL     1      19.354  39.507  -9.988  1.00  0.00     0.013 C 
HETATM   11  C27 UNL     1      18.398  40.469 -10.597  1.00  0.00    -0.003 C 
HETATM   12  C28 UNL     1      18.562  40.335 -12.114  1.00  0.00     0.019 C 
HETATM   13  C29 UNL     1      18.521  41.881 -10.179  1.00  0.00     0.006 C 
HETATM   14  C30 UNL     1      17.494  42.328  -9.145  1.00  0.00     0.007 C 
HETATM   15  C31 UNL     1      16.079  42.074  -9.567  1.00  0.00     0.008 C 
HETATM   16  C32 UNL     1      15.951  40.979 -10.573  1.00  0.00     0.029 C 
HETATM   17  C33 UNL     1      14.587  40.416 -10.709  1.00  0.00     0.039 C 
HETATM   18  C34 UNL     1      14.377  39.115  -9.976  1.00  0.00     0.118 C 
HETATM   19  C35 UNL     1      15.428  38.094 -10.264  1.00  0.00     0.035 C 
HETATM   20  C36 UNL     1      16.637  38.698 -10.994  1.00  0.00     0.047 C 
HETATM   21  C37 UNL     1      16.996  39.942 -10.254  1.00  0.00     0.115 C 
HETATM   22  F1  UNL     1      17.038  39.706  -8.871  1.00  0.00    -0.242 F 
ENDROOT
BRANCH   4  23
HETATM   23  C7  UNL     1      21.105  45.413  -7.909  1.00  0.00     0.012 C 
BRANCH  23  24
HETATM   24  C8  UNL     1      19.757  45.767  -7.362  1.00  0.00    -0.018 C 
HETATM   25  C9  UNL     1      19.707  45.926  -5.880  1.00  0.00     0.010 C 
BRANCH  24  26
HETATM   26  C10 UNL     1      19.232  47.039  -8.016  1.00  0.00     0.004 C 
BRANCH  26  27
HETATM   27  C11 UNL     1      18.106  46.615  -8.972  1.00  0.00     0.002 C 
BRANCH  27  28
HETATM   28  C12 UNL     1      16.995  45.990  -8.185  1.00  0.00     0.024 C 
BRANCH  28  29
HETATM   29  C13 UNL     1      15.705  46.749  -8.318  1.00  0.00     0.080 C 
HETATM   30  C14 UNL     1      15.745  47.885  -9.288  1.00  0.00     0.032 C 
BRANCH  29  31
HETATM   31  N1  UNL     1      14.661  45.804  -8.759  1.00  0.00    -0.355 N 
HETATM   32  C15 UNL     1      13.364  45.866  -8.231  1.00  0.00     0.248 C 
HETATM   33  O3  UNL     1      13.165  46.781  -7.344  1.00  0.00    -0.271 OA
ATOM     34  H1  UNL     1      14.886  45.097  -9.459  1.00  0.00     0.162 HD
BRANCH  32  35
HETATM   35  C16 UNL     1      12.287  44.973  -8.639  1.00  0.00     0.278 C 
BRANCH  35  36
HETATM   36  N2  UNL     1      11.581  44.533  -7.418  1.00  0.00    -0.066 N 
ATOM     37  H23 UNL     1      10.786  43.926  -7.616  1.00  0.00     0.275 HD
ATOM     38  H22 UNL     1      12.122  43.869  -6.865  1.00  0.00     0.275 HD
ATOM     39  H21 UNL     1      11.322  45.368  -6.893  1.00  0.00     0.275 HD
ENDBRANCH  35  36
BRANCH  35  40
HETATM   40  C17 UNL     1      12.629  43.743  -9.404  1.00  0.00     0.021 C 
HETATM   41  C18 UNL     1      12.144  43.733 -10.822  1.00  0.00     0.012 C 
BRANCH  40  42
HETATM   42  C19 UNL     1      12.243  42.472  -8.715  1.00  0.00     0.002 C 
HETATM   43  C20 UNL     1      11.285  41.741  -9.678  1.00  0.00     0.005 C 
ENDBRANCH  40  42
ENDBRANCH  35  40
ENDBRANCH  32  35
ENDBRANCH  29  31
ENDBRANCH  28  29
ENDBRANCH  27  28
ENDBRANCH  26  27
ENDBRANCH  24  26
ENDBRANCH  23  24
ENDBRANCH   4  23
BRANCH   3  44
HETATM   44  O1  UNL     1      20.562  42.682  -6.463  1.00  0.00    -0.311 OA
BRANCH  44  45
HETATM   45  C4  UNL     1      20.812  42.335  -5.140  1.00  0.00     0.255 C 
HETATM   46  C5  UNL     1      21.901  42.944  -4.336  1.00  0.00     0.126 C 
HETATM   47  O2  UNL     1      20.065  41.465  -4.635  1.00  0.00    -0.266 OA
ENDBRANCH  44  45
ENDBRANCH   3  44
BRANCH  18  48
HETATM   48  O4  UNL     1      14.160  39.311  -8.603  1.00  0.00    -0.396 OA
ATOM     49  H4  UNL     1      13.330  39.738  -8.428  1.00  0.00     0.210 HD
ENDBRANCH  18  48
TORSDOF 14
ENDMDL
MODEL 4
REMARK VINA RESULT: -8.680923731      3.901      8.026
REMARK  14 active torsions:
REMARK  status: ('A' for Active; 'I' for Inactive)
REMARK    1  A    between atoms: C3_3  and  O1_4 
REMARK    2  A    between atoms: O1_4  and  C4_5 
REMARK    3  A    between atoms: C6_8  and  C7_9 
REMARK    4  A    between atoms: C7_9  and  C8_10 
REMARK    5  A    between atoms: C8_10  and  C10_12 
REMARK    6  A    between atoms: C10_12  and  C11_13 
REMARK    7  A    between atoms: C11_13  and  C12_14 
REMARK    8  A    between atoms: C12_14  and  C13_15 
REMARK    9  A    between atoms: C13_15  and  N1_17 
REMARK       I    between atoms: N1_17  and  C15_19 
REMARK   10  A    between atoms: C15_19  and  C16_21 
REMARK   11  A    between atoms: C16_21  and  N2_22 
REMARK   12  A    between atoms: C16_21  and  C17_26 
REMARK   13  A    between atoms: C17_26  and  C19_28 
REMARK   14  A    between atoms: C34_43  and  O4_44 
ROOT
HETATM    1  C1  UNL     1      22.967  42.170  -8.640  1.00  0.00     0.017 C 
HETATM    2  C2  UNL     1      21.679  42.420  -8.739  1.00  0.00    -0.055 C 
HETATM    3  C3  UNL     1      21.116  43.634  -8.023  1.00  0.00     0.164 C 
HETATM    4  C6  UNL     1      20.516  44.451  -9.150  1.00  0.00     0.020 C 
HETATM    5  C21 UNL     1      19.332  43.585  -9.649  1.00  0.00     0.017 C 
HETATM    6  C22 UNL     1      19.852  42.404 -10.437  1.00  0.00    -0.032 C 
HETATM    7  C23 UNL     1      20.594  42.953 -11.622  1.00  0.00     0.016 C 
HETATM    8  C24 UNL     1      20.723  41.619  -9.490  1.00  0.00     0.025 C 
HETATM    9  C25 UNL     1      21.290  40.462 -10.238  1.00  0.00     0.011 C 
HETATM   10  C26 UNL     1      20.115  39.533 -10.504  1.00  0.00     0.013 C 
HETATM   11  C27 UNL     1      18.994  40.164 -11.249  1.00  0.00    -0.003 C 
HETATM   12  C28 UNL     1      19.319  39.994 -12.738  1.00  0.00     0.019 C 
HETATM   13  C29 UNL     1      18.702  41.578 -10.935  1.00  0.00     0.006 C 
HETATM   14  C30 UNL     1      17.507  41.788 -10.011  1.00  0.00     0.007 C 
HETATM   15  C31 UNL     1      16.252  41.136 -10.507  1.00  0.00     0.008 C 
HETATM   16  C32 UNL     1      16.507  39.993 -11.432  1.00  0.00     0.029 C 
HETATM   17  C33 UNL     1      15.358  39.074 -11.617  1.00  0.00     0.039 C 
HETATM   18  C34 UNL     1      15.439  37.809 -10.801  1.00  0.00     0.118 C 
HETATM   19  C35 UNL     1      16.745  37.096 -10.937  1.00  0.00     0.035 C 
HETATM   20  C36 UNL     1      17.808  37.963 -11.627  1.00  0.00     0.047 C 
HETATM   21  C37 UNL     1      17.758  39.297 -10.963  1.00  0.00     0.115 C 
HETATM   22  F1  UNL     1      17.742  39.160  -9.567  1.00  0.00    -0.242 F 
ENDROOT
BRANCH   4  23
HETATM   23  C7  UNL     1      20.049  45.799  -8.775  1.00  0.00     0.012 C 
BRANCH  23  24
HETATM   24  C8  UNL     1      20.487  46.190  -7.398  1.00  0.00    -0.018 C 
HETATM   25  C9  UNL     1      21.462  47.318  -7.349  1.00  0.00     0.010 C 
BRANCH  24  26
HETATM   26  C10 UNL     1      19.282  46.539  -6.532  1.00  0.00     0.004 C 
BRANCH  26  27
HETATM   27  C11 UNL     1      18.252  47.210  -7.453  1.00  0.00     0.002 C 
BRANCH  27  28
HETATM   28  C12 UNL     1      16.905  46.597  -7.221  1.00  0.00     0.024 C 
BRANCH  28  29
HETATM   29  C13 UNL     1      15.891  47.050  -8.234  1.00  0.00     0.080 C 
HETATM   30  C14 UNL     1      16.468  47.701  -9.449  1.00  0.00     0.032 C 
BRANCH  29  31
HETATM   31  N1  UNL     1      15.119  45.869  -8.669  1.00  0.00    -0.355 N 
HETATM   32  C15 UNL     1      13.773  45.717  -8.311  1.00  0.00     0.248 C 
HETATM   33  O3  UNL     1      13.279  46.659  -7.581  1.00  0.00    -0.271 OA
ATOM     34  H1  UNL     1      15.572  45.154  -9.239  1.00  0.00     0.162 HD
BRANCH  32  35
HETATM   35  C16 UNL     1      12.954  44.584  -8.724  1.00  0.00     0.278 C 
BRANCH  35  36
HETATM   36  N2  UNL     1      12.011  44.288  -7.627  1.00  0.00    -0.066 N 
ATOM     37  H23 UNL     1      12.437  44.371  -6.704  1.00  0.00     0.275 HD
ATOM     38  H22 UNL     1      11.298  45.009  -7.511  1.00  0.00     0.275 HD
ATOM     39  H21 UNL     1      11.615  43.364  -7.798  1.00  0.00     0.275 HD
ENDBRANCH  35  36
BRANCH  35  40
HETATM   40  C17 UNL     1      13.629  43.303  -9.068  1.00  0.00     0.021 C 
HETATM   41  C18 UNL     1      12.837  42.398  -9.961  1.00  0.00     0.012 C 
BRANCH  40  42
HETATM   42  C19 UNL     1      14.135  42.546  -7.880  1.00  0.00     0.002 C 
HETATM   43  C20 UNL     1      13.639  41.096  -8.058  1.00  0.00     0.005 C 
ENDBRANCH  40  42
ENDBRANCH  35  40
ENDBRANCH  32  35
ENDBRANCH  29  31
ENDBRANCH  28  29
ENDBRANCH  27  28
ENDBRANCH  26  27
ENDBRANCH  24  26
ENDBRANCH  23  24
ENDBRANCH   4  23
BRANCH   3  44
HETATM   44  O1  UNL     1      20.128  43.109  -7.162  1.00  0.00    -0.311 OA
BRANCH  44  45
HETATM   45  C4  UNL     1      20.423  42.627  -5.892  1.00  0.00     0.255 C 
HETATM   46  C5  UNL     1      21.159  43.419  -4.876  1.00  0.00     0.126 C 
HETATM   47  O2  UNL     1      20.034  41.465  -5.627  1.00  0.00    -0.266 OA
ENDBRANCH  44  45
ENDBRANCH   3  44
BRANCH  18  48
HETATM   48  O4  UNL     1      15.061  38.015  -9.465  1.00  0.00    -0.396 OA
ATOM     49  H4  UNL     1      15.380  37.328  -8.892  1.00  0.00     0.210 HD
ENDBRANCH  18  48
TORSDOF 14
ENDMDL
MODEL 5
REMARK VINA RESULT: -8.596915324      2.938      4.164
REMARK  14 active torsions:
REMARK  status: ('A' for Active; 'I' for Inactive)
REMARK    1  A    between atoms: C3_3  and  O1_4 
REMARK    2  A    between atoms: O1_4  and  C4_5 
REMARK    3  A    between atoms: C6_8  and  C7_9 
REMARK    4  A    between atoms: C7_9  and  C8_10 
REMARK    5  A    between atoms: C8_10  and  C10_12 
REMARK    6  A    between atoms: C10_12  and  C11_13 
REMARK    7  A    between atoms: C11_13  and  C12_14 
REMARK    8  A    between atoms: C12_14  and  C13_15 
REMARK    9  A    between atoms: C13_15  and  N1_17 
REMARK       I    between atoms: N1_17  and  C15_19 
REMARK   10  A    between atoms: C15_19  and  C16_21 
REMARK   11  A    between atoms: C16_21  and  N2_22 
REMARK   12  A    between atoms: C16_21  and  C17_26 
REMARK   13  A    between atoms: C17_26  and  C19_28 
REMARK   14  A    between atoms: C34_43  and  O4_44 
ROOT
HETATM    1  C1  UNL     1      20.797  38.884  -9.687  1.00  0.00     0.017 C 
HETATM    2  C2  UNL     1      20.208  40.060  -9.651  1.00  0.00    -0.055 C 
HETATM    3  C3  UNL     1      19.199  40.402 -10.732  1.00  0.00     0.164 C 
HETATM    4  C6  UNL     1      17.930  40.668  -9.947  1.00  0.00     0.020 C 
HETATM    5  C21 UNL     1      18.248  41.958  -9.150  1.00  0.00     0.017 C 
HETATM    6  C22 UNL     1      19.192  41.641  -8.012  1.00  0.00    -0.032 C 
HETATM    7  C23 UNL     1      18.490  40.665  -7.110  1.00  0.00     0.016 C 
HETATM    8  C24 UNL     1      20.442  41.086  -8.645  1.00  0.00     0.025 C 
HETATM    9  C25 UNL     1      21.389  40.723  -7.554  1.00  0.00     0.011 C 
HETATM   10  C26 UNL     1      21.844  42.044  -6.953  1.00  0.00     0.013 C 
HETATM   11  C27 UNL     1      20.738  42.899  -6.448  1.00  0.00    -0.003 C 
HETATM   12  C28 UNL     1      20.481  42.460  -5.003  1.00  0.00     0.019 C 
HETATM   13  C29 UNL     1      19.483  42.889  -7.229  1.00  0.00     0.006 C 
HETATM   14  C30 UNL     1      19.294  44.097  -8.140  1.00  0.00     0.007 C 
HETATM   15  C31 UNL     1      19.400  45.406  -7.418  1.00  0.00     0.008 C 
HETATM   16  C32 UNL     1      20.196  45.322  -6.159  1.00  0.00     0.029 C 
HETATM   17  C33 UNL     1      20.676  46.625  -5.638  1.00  0.00     0.039 C 
HETATM   18  C34 UNL     1      22.116  46.930  -5.963  1.00  0.00     0.118 C 
HETATM   19  C35 UNL     1      23.052  45.818  -5.617  1.00  0.00     0.035 C 
HETATM   20  C36 UNL     1      22.308  44.513  -5.299  1.00  0.00     0.047 C 
HETATM   21  C37 UNL     1      21.304  44.326  -6.385  1.00  0.00     0.115 C 
HETATM   22  F1  UNL     1      21.887  44.529  -7.645  1.00  0.00    -0.242 F 
ENDROOT
BRANCH   4  23
HETATM   23  C7  UNL     1      16.711  40.849 -10.758  1.00  0.00     0.012 C 
BRANCH  23  24
HETATM   24  C8  UNL     1      16.144  39.546 -11.231  1.00  0.00    -0.018 C 
HETATM   25  C9  UNL     1      16.679  39.070 -12.540  1.00  0.00     0.010 C 
BRANCH  24  26
HETATM   26  C10 UNL     1      16.357  38.459 -10.184  1.00  0.00     0.004 C 
BRANCH  26  27
HETATM   27  C11 UNL     1      16.861  37.215 -10.932  1.00  0.00     0.002 C 
BRANCH  27  28
HETATM   28  C12 UNL     1      16.675  36.006 -10.067  1.00  0.00     0.024 C 
BRANCH  28  29
HETATM   29  C13 UNL     1      16.021  34.871 -10.805  1.00  0.00     0.080 C 
HETATM   30  C14 UNL     1      16.303  33.515 -10.244  1.00  0.00     0.032 C 
BRANCH  29  31
HETATM   31  N1  UNL     1      14.561  35.086 -10.776  1.00  0.00    -0.355 N 
HETATM   32  C15 UNL     1      13.812  35.099 -11.960  1.00  0.00     0.248 C 
HETATM   33  O3  UNL     1      14.483  34.925 -13.048  1.00  0.00    -0.271 OA
ATOM     34  H1  UNL     1      14.091  35.226  -9.882  1.00  0.00     0.162 HD
BRANCH  32  35
HETATM   35  C16 UNL     1      12.367  35.289 -11.995  1.00  0.00     0.278 C 
BRANCH  35  36
HETATM   36  N2  UNL     1      11.824  34.409 -13.050  1.00  0.00    -0.066 N 
ATOM     37  H23 UNL     1      12.410  34.381 -13.884  1.00  0.00     0.275 HD
ATOM     38  H22 UNL     1      11.884  33.419 -12.811  1.00  0.00     0.275 HD
ATOM     39  H21 UNL     1      10.870  34.712 -13.246  1.00  0.00     0.275 HD
ENDBRANCH  35  36
BRANCH  35  40
HETATM   40  C17 UNL     1      11.832  36.652 -12.254  1.00  0.00     0.021 C 
HETATM   41  C18 UNL     1      12.854  37.747 -12.205  1.00  0.00     0.012 C 
BRANCH  40  42
HETATM   42  C19 UNL     1      10.648  37.010 -11.411  1.00  0.00     0.002 C 
HETATM   43  C20 UNL     1       9.870  38.080 -12.204  1.00  0.00     0.005 C 
ENDBRANCH  40  42
ENDBRANCH  35  40
ENDBRANCH  32  35
ENDBRANCH  29  31
ENDBRANCH  28  29
ENDBRANCH  27  28
ENDBRANCH  26  27
ENDBRANCH  24  26
ENDBRANCH  23  24
ENDBRANCH   4  23
BRANCH   3  44
HETATM   44  O1  UNL     1      19.709  41.573 -11.333  1.00  0.00    -0.311 OA
BRANCH  44  45
HETATM   45  C4  UNL     1      20.166  41.603 -12.645  1.00  0.00     0.255 C 
HETATM   46  C5  UNL     1      20.109  40.427 -13.548  1.00  0.00     0.126 C 
HETATM   47  O2  UNL     1      20.641  42.690 -13.051  1.00  0.00    -0.266 OA
ENDBRANCH  44  45
ENDBRANCH   3  44
BRANCH  18  48
HETATM   48  O4  UNL     1      22.275  47.396  -7.277  1.00  0.00    -0.396 OA
ATOM     49  H4  UNL     1      21.578  47.988  -7.535  1.00  0.00     0.210 HD
ENDBRANCH  18  48
TORSDOF 14
ENDMDL
