MODEL 1
REMARK VINA RESULT: -8.124497171      0.000      0.000
REMARK  14 active torsions:
REMARK  status: ('A' for Active; 'I' for Inactive)
REMARK    1  A    between atoms: C2_2  and  C3_3 
REMARK    2  A    between atoms: C2_2  and  C20_26 
REMARK    3  A    between atoms: C5_5  and  O1_6 
REMARK    4  A    between atoms: C8_10  and  C9_11 
REMARK    5  A    between atoms: C14_18  and  O4_19 
REMARK    6  A    between atoms: C23_29  and  C24_30 
REMARK    7  A    between atoms: C24_30  and  C25_31 
REMARK    8  A    between atoms: C24_30  and  C28_35 
REMARK    9  A    between atoms: C25_31  and  C26_32 
REMARK   10  A    between atoms: C28_35  and  O5_36 
REMARK   11  A    between atoms: C28_35  and  C29_38 
REMARK   12  A    between atoms: C29_38  and  C30_39 
REMARK   13  A    between atoms: C30_39  and  C32_41 
REMARK   14  A    between atoms: C32_41  and  C33_42 
ROOT
HETATM    1  C1  UNL     1      13.659  40.762  -7.108  1.00  0.00     0.020 C 
HETATM    2  C2  UNL     1      14.323  41.105  -8.223  1.00  0.00    -0.052 C 
ENDROOT
BRANCH   2   3
HETATM    3  C3  UNL     1      13.526  41.158  -9.440  1.00  0.00    -0.012 A 
HETATM    4  C4  UNL     1      13.350  40.017 -10.178  1.00  0.00     0.050 A 
HETATM    5  C5  UNL     1      12.559  40.062 -11.328  1.00  0.00     0.075 A 
HETATM    6  C6  UNL     1      11.968  41.222 -11.714  1.00  0.00     0.010 A 
HETATM    7  C7  UNL     1      12.126  42.381 -10.994  1.00  0.00     0.093 A 
HETATM    8  C19 UNL     1      11.106  41.313 -12.950  1.00  0.00     0.053 C 
HETATM    9  C8  UNL     1      12.924  42.331  -9.837  1.00  0.00     0.046 A 
HETATM   10  O3  UNL     1      11.521  43.563 -11.394  1.00  0.00    -0.339 OA
HETATM   11  C10 UNL     1      10.938  43.775 -12.666  1.00  0.00     0.069 C 
HETATM   12  C11 UNL     1       9.456  43.837 -12.501  1.00  0.00     0.047 C 
HETATM   13  C12 UNL     1      11.486  45.055 -13.251  1.00  0.00     0.041 C 
HETATM   14  C18 UNL     1      11.403  42.646 -13.556  1.00  0.00     0.035 C 
HETATM   15  C13 UNL     1      10.946  45.257 -14.644  1.00  0.00     0.035 C 
HETATM   16  C14 UNL     1      11.156  44.106 -15.560  1.00  0.00     0.126 C 
HETATM   17  C15 UNL     1      10.943  42.761 -14.973  1.00  0.00    -0.015 C 
HETATM   18  C16 UNL     1      11.795  41.774 -15.788  1.00  0.00     0.018 C 
HETATM   19  C17 UNL     1       9.510  42.340 -15.182  1.00  0.00     0.018 C 
BRANCH   5  20
HETATM   20  O1  UNL     1      12.359  38.924 -12.098  1.00  0.00    -0.360 OA
ATOM     21  H1  UNL     1      11.603  38.849 -12.667  1.00  0.00     0.217 HD
ENDBRANCH   5  20
BRANCH   9  22
HETATM   22  C9  UNL     1      13.036  43.588  -9.114  1.00  0.00     0.273 C 
HETATM   23  O2  UNL     1      13.917  44.455  -9.273  1.00  0.00    -0.301 OA
ENDBRANCH   9  22
BRANCH  16  24
HETATM   24  O4  UNL     1      10.278  44.253 -16.646  1.00  0.00    -0.395 OA
ATOM     25  H4  UNL     1      10.707  43.902 -17.419  1.00  0.00     0.210 HD
ENDBRANCH  16  24
ENDBRANCH   2   3
BRANCH   2  26
HETATM   26  C20 UNL     1      15.765  41.380  -8.173  1.00  0.00     0.025 C 
HETATM   27  C21 UNL     1      16.243  41.789  -9.541  1.00  0.00     0.010 C 
HETATM   28  C22 UNL     1      17.724  42.157  -9.511  1.00  0.00     0.013 C 
HETATM   29  C23 UNL     1      18.429  40.807  -9.246  1.00  0.00     0.062 C 
HETATM   30  C36 UNL     1      18.053  40.475  -7.862  1.00  0.00     0.132 C 
HETATM   31  O6  UNL     1      18.819  40.345  -6.934  1.00  0.00    -0.298 OA
HETATM   32  C37 UNL     1      16.593  40.282  -7.576  1.00  0.00     0.088 C 
BRANCH  29  33
HETATM   33  C24 UNL     1      19.867  40.822  -9.567  1.00  0.00     0.027 C 
BRANCH  33  34
HETATM   34  C25 UNL     1      20.490  42.156  -9.489  1.00  0.00     0.027 C 
BRANCH  34  35
HETATM   35  C26 UNL     1      21.355  42.467  -8.326  1.00  0.00     0.079 C 
HETATM   36  C27 UNL     1      22.203  41.314  -7.840  1.00  0.00     0.026 C 
HETATM   37 CL1  UNL     1      20.630  43.281  -6.969  1.00  0.00    -0.125 Cl
ENDBRANCH  34  35
ENDBRANCH  33  34
BRANCH  33  38
HETATM   38  C28 UNL     1      20.215  40.063 -10.837  1.00  0.00     0.123 C 
BRANCH  38  39
HETATM   39  O5  UNL     1      21.539  40.257 -11.202  1.00  0.00    -0.395 OA
ATOM     40  H5  UNL     1      22.053  39.467 -11.090  1.00  0.00     0.210 HD
ENDBRANCH  38  39
BRANCH  38  41
HETATM   41  C29 UNL     1      19.345  40.373 -11.988  1.00  0.00     0.036 C 
BRANCH  41  42
HETATM   42  C30 UNL     1      18.501  39.176 -12.407  1.00  0.00    -0.016 C 
HETATM   43  C31 UNL     1      18.898  38.850 -13.860  1.00  0.00     0.010 C 
BRANCH  42  44
HETATM   44  C32 UNL     1      17.052  39.450 -12.359  1.00  0.00     0.008 C 
BRANCH  44  45
HETATM   45  C33 UNL     1      16.160  38.459 -11.711  1.00  0.00    -0.023 C 
HETATM   46  C34 UNL     1      15.556  37.396 -12.539  1.00  0.00     0.009 C 
HETATM   47  C35 UNL     1      16.808  37.804 -10.496  1.00  0.00     0.009 C 
ENDBRANCH  44  45
ENDBRANCH  42  44
ENDBRANCH  41  42
ENDBRANCH  38  41
ENDBRANCH  33  38
ENDBRANCH  29  33
ENDBRANCH   2  26
TORSDOF 14
ENDMDL
MODEL 2
REMARK VINA RESULT: -8.040449453      2.945      9.481
REMARK  14 active torsions:
REMARK  status: ('A' for Active; 'I' for Inactive)
REMARK    1  A    between atoms: C2_2  and  C3_3 
REMARK    2  A    between atoms: C2_2  and  C20_26 
REMARK    3  A    between atoms: C5_5  and  O1_6 
REMARK    4  A    between atoms: C8_10  and  C9_11 
REMARK    5  A    between atoms: C14_18  and  O4_19 
REMARK    6  A    between atoms: C23_29  and  C24_30 
REMARK    7  A    between atoms: C24_30  and  C25_31 
REMARK    8  A    between atoms: C24_30  and  C28_35 
REMARK    9  A    between atoms: C25_31  and  C26_32 
REMARK   10  A    between atoms: C28_35  and  O5_36 
REMARK   11  A    between atoms: C28_35  and  C29_38 
REMARK   12  A    between atoms: C29_38  and  C30_39 
REMARK   13  A    between atoms: C30_39  and  C32_41 
REMARK   14  A    between atoms: C32_41  and  C33_42 
ROOT
HETATM    1  C1  UNL     1      13.906  36.215 -12.399  1.00  0.00     0.020 C 
HETATM    2  C2  UNL     1      14.080  37.484 -12.803  1.00  0.00    -0.052 C 
ENDROOT
BRANCH   2   3
HETATM    3  C3  UNL     1      15.310  38.123 -12.359  1.00  0.00    -0.012 A 
HETATM    4  C4  UNL     1      16.439  38.017 -13.130  1.00  0.00     0.050 A 
HETATM    5  C5  UNL     1      17.610  38.658 -12.720  1.00  0.00     0.075 A 
HETATM    6  C6  UNL     1      17.635  39.380 -11.570  1.00  0.00     0.010 A 
HETATM    7  C7  UNL     1      16.520  39.504 -10.777  1.00  0.00     0.093 A 
HETATM    8  C19 UNL     1      18.879  40.086 -11.092  1.00  0.00     0.053 C 
HETATM    9  C8  UNL     1      15.343  38.857 -11.195  1.00  0.00     0.046 A 
HETATM   10  O3  UNL     1      16.552  40.242  -9.603  1.00  0.00    -0.339 OA
HETATM   11  C10 UNL     1      17.736  40.691  -8.971  1.00  0.00     0.069 C 
HETATM   12  C11 UNL     1      17.825  42.172  -9.135  1.00  0.00     0.047 C 
HETATM   13  C12 UNL     1      17.697  40.294  -7.515  1.00  0.00     0.041 C 
HETATM   14  C18 UNL     1      18.884  39.941  -9.605  1.00  0.00     0.035 C 
HETATM   15  C13 UNL     1      18.987  40.685  -6.840  1.00  0.00     0.035 C 
HETATM   16  C14 UNL     1      20.212  40.177  -7.509  1.00  0.00     0.126 C 
HETATM   17  C15 UNL     1      20.215  40.236  -8.991  1.00  0.00    -0.015 C 
HETATM   18  C16 UNL     1      21.173  39.140  -9.484  1.00  0.00     0.018 C 
HETATM   19  C17 UNL     1      20.815  41.544  -9.443  1.00  0.00     0.018 C 
BRANCH   5  20
HETATM   20  O1  UNL     1      18.770  38.571 -13.478  1.00  0.00    -0.360 OA
ATOM     21  H1  UNL     1      19.355  39.315 -13.558  1.00  0.00     0.217 HD
ENDBRANCH   5  20
BRANCH   9  22
HETATM   22  C9  UNL     1      14.198  39.043 -10.318  1.00  0.00     0.273 C 
HETATM   23  O2  UNL     1      13.402  40.002 -10.336  1.00  0.00    -0.301 OA
ENDBRANCH   9  22
BRANCH  16  24
HETATM   24  O4  UNL     1      21.303  40.928  -7.040  1.00  0.00    -0.395 OA
ATOM     25  H4  UNL     1      21.789  41.240  -7.795  1.00  0.00     0.210 HD
ENDBRANCH  16  24
ENDBRANCH   2   3
BRANCH   2  26
HETATM   26  C20 UNL     1      13.059  38.149 -13.623  1.00  0.00     0.025 C 
HETATM   27  C21 UNL     1      13.662  39.358 -14.288  1.00  0.00     0.010 C 
HETATM   28  C22 UNL     1      12.649  40.032 -15.210  1.00  0.00     0.013 C 
HETATM   29  C23 UNL     1      11.600  40.613 -14.234  1.00  0.00     0.062 C 
HETATM   30  C36 UNL     1      10.933  39.424 -13.679  1.00  0.00     0.132 C 
HETATM   31  O6  UNL     1       9.759  39.155 -13.796  1.00  0.00    -0.298 OA
HETATM   32  C37 UNL     1      11.782  38.462 -12.902  1.00  0.00     0.088 C 
BRANCH  29  33
HETATM   33  C24 UNL     1      10.740  41.645 -14.841  1.00  0.00     0.027 C 
BRANCH  33  34
HETATM   34  C25 UNL     1      11.442  42.539 -15.780  1.00  0.00     0.027 C 
BRANCH  34  35
HETATM   35  C26 UNL     1      11.111  42.452 -17.223  1.00  0.00     0.079 C 
HETATM   36  C27 UNL     1       9.845  41.690 -17.538  1.00  0.00     0.026 C 
HETATM   37 CL1  UNL     1      12.377  41.975 -18.319  1.00  0.00    -0.125 Cl
ENDBRANCH  34  35
ENDBRANCH  33  34
BRANCH  33  38
HETATM   38  C28 UNL     1       9.871  42.382 -13.837  1.00  0.00     0.123 C 
BRANCH  38  39
HETATM   39  O5  UNL     1       8.529  42.069 -13.995  1.00  0.00    -0.395 OA
ATOM     40  H5  UNL     1       8.065  42.746 -14.472  1.00  0.00     0.210 HD
ENDBRANCH  38  39
BRANCH  38  41
HETATM   41  C29 UNL     1      10.031  43.849 -13.855  1.00  0.00     0.036 C 
BRANCH  41  42
HETATM   42  C30 UNL     1      10.387  44.404 -12.482  1.00  0.00    -0.016 C 
HETATM   43  C31 UNL     1      11.580  45.356 -12.692  1.00  0.00     0.010 C 
BRANCH  42  44
HETATM   44  C32 UNL     1      10.779  43.354 -11.523  1.00  0.00     0.008 C 
BRANCH  44  45
HETATM   45  C33 UNL     1      10.129  43.327 -10.190  1.00  0.00    -0.023 C 
HETATM   46  C34 UNL     1      10.936  43.653  -8.998  1.00  0.00     0.009 C 
HETATM   47  C35 UNL     1       8.858  44.169 -10.149  1.00  0.00     0.009 C 
ENDBRANCH  44  45
ENDBRANCH  42  44
ENDBRANCH  41  42
ENDBRANCH  38  41
ENDBRANCH  33  38
ENDBRANCH  29  33
ENDBRANCH   2  26
TORSDOF 14
ENDMDL
MODEL 3
REMARK VINA RESULT: -8.001122806      3.358      9.363
REMARK  14 active torsions:
REMARK  status: ('A' for Active; 'I' for Inactive)
REMARK    1  A    between atoms: C2_2  and  C3_3 
REMARK    2  A    between atoms: C2_2  and  C20_26 
REMARK    3  A    between atoms: C5_5  and  O1_6 
REMARK    4  A    between atoms: C8_10  and  C9_11 
REMARK    5  A    between atoms: C14_18  and  O4_19 
REMARK    6  A    between atoms: C23_29  and  C24_30 
REMARK    7  A    between atoms: C24_30  and  C25_31 
REMARK    8  A    between atoms: C24_30  and  C28_35 
REMARK    9  A    between atoms: C25_31  and  C26_32 
REMARK   10  A    between atoms: C28_35  and  O5_36 
REMARK   11  A    between atoms: C28_35  and  C29_38 
REMARK   12  A    between atoms: C29_38  and  C30_39 
REMARK   13  A    between atoms: C30_39  and  C32_41 
REMARK   14  A    between atoms: C32_41  and  C33_42 
ROOT
HETATM    1  C1  UNL     1      18.486  38.511 -10.783  1.00  0.00     0.020 C 
HETATM    2  C2  UNL     1      17.982  39.725 -11.053  1.00  0.00    -0.052 C 
ENDROOT
BRANCH   2   3
HETATM    3  C3  UNL     1      18.772  40.854 -10.584  1.00  0.00    -0.012 A 
HETATM    4  C4  UNL     1      19.612  41.496 -11.457  1.00  0.00     0.050 A 
HETATM    5  C5  UNL     1      20.345  42.599 -11.016  1.00  0.00     0.075 A 
HETATM    6  C6  UNL     1      20.231  43.035  -9.735  1.00  0.00     0.010 A 
HETATM    7  C7  UNL     1      19.398  42.413  -8.837  1.00  0.00     0.093 A 
HETATM    8  C19 UNL     1      21.006  44.222  -9.217  1.00  0.00     0.053 C 
HETATM    9  C8  UNL     1      18.661  41.302  -9.287  1.00  0.00     0.046 A 
HETATM   10  O3  UNL     1      19.286  42.863  -7.530  1.00  0.00    -0.339 OA
HETATM   11  C10 UNL     1      20.173  43.781  -6.919  1.00  0.00     0.069 C 
HETATM   12  C11 UNL     1      19.457  45.078  -6.735  1.00  0.00     0.047 C 
HETATM   13  C12 UNL     1      20.640  43.212  -5.601  1.00  0.00     0.041 C 
HETATM   14  C18 UNL     1      21.387  43.880  -7.814  1.00  0.00     0.035 C 
HETATM   15  C13 UNL     1      21.655  44.133  -4.973  1.00  0.00     0.035 C 
HETATM   16  C14 UNL     1      22.801  44.480  -5.852  1.00  0.00     0.126 C 
HETATM   17  C15 UNL     1      22.472  44.754  -7.271  1.00  0.00    -0.015 C 
HETATM   18  C16 UNL     1      23.732  44.442  -8.094  1.00  0.00     0.018 C 
HETATM   19  C17 UNL     1      22.212  46.228  -7.454  1.00  0.00     0.018 C 
BRANCH   5  20
HETATM   20  O1  UNL     1      21.204  43.271 -11.874  1.00  0.00    -0.360 OA
ATOM     21  H1  UNL     1      21.642  44.067 -11.599  1.00  0.00     0.217 HD
ENDBRANCH   5  20
BRANCH   9  22
HETATM   22  C9  UNL     1      17.788  40.702  -8.290  1.00  0.00     0.273 C 
HETATM   23  O2  UNL     1      18.091  39.792  -7.495  1.00  0.00    -0.301 OA
ENDBRANCH   9  22
BRANCH  16  24
HETATM   24  O4  UNL     1      23.423  45.621  -5.320  1.00  0.00    -0.395 OA
ATOM     25  H4  UNL     1      23.480  45.511  -4.377  1.00  0.00     0.210 HD
ENDBRANCH  16  24
ENDBRANCH   2   3
BRANCH   2  26
HETATM   26  C20 UNL     1      16.701  39.858 -11.761  1.00  0.00     0.025 C 
HETATM   27  C21 UNL     1      15.573  39.831 -10.763  1.00  0.00     0.010 C 
HETATM   28  C22 UNL     1      14.231  40.043 -11.456  1.00  0.00     0.013 C 
HETATM   29  C23 UNL     1      14.042  38.751 -12.286  1.00  0.00     0.062 C 
HETATM   30  C36 UNL     1      15.072  38.847 -13.333  1.00  0.00     0.132 C 
HETATM   31  O6  UNL     1      14.865  38.898 -14.524  1.00  0.00    -0.298 OA
HETATM   32  C37 UNL     1      16.503  38.886 -12.885  1.00  0.00     0.088 C 
BRANCH  29  33
HETATM   33  C24 UNL     1      12.652  38.534 -12.727  1.00  0.00     0.027 C 
BRANCH  33  34
HETATM   34  C25 UNL     1      11.648  39.281 -11.948  1.00  0.00     0.027 C 
BRANCH  34  35
HETATM   35  C26 UNL     1      10.970  40.435 -12.587  1.00  0.00     0.079 C 
HETATM   36  C27 UNL     1      11.208  40.566 -14.073  1.00  0.00     0.026 C 
HETATM   37 CL1  UNL     1      11.122  41.991 -11.822  1.00  0.00    -0.125 Cl
ENDBRANCH  34  35
ENDBRANCH  33  34
BRANCH  33  38
HETATM   38  C28 UNL     1      12.299  37.070 -12.928  1.00  0.00     0.123 C 
BRANCH  38  39
HETATM   39  O5  UNL     1      10.928  36.884 -13.029  1.00  0.00    -0.395 OA
ATOM     40  H5  UNL     1      10.698  36.392 -13.808  1.00  0.00     0.210 HD
ENDBRANCH  38  39
BRANCH  38  41
HETATM   41  C29 UNL     1      12.835  36.168 -11.890  1.00  0.00     0.036 C 
BRANCH  41  42
HETATM   42  C30 UNL     1      14.039  35.377 -12.386  1.00  0.00    -0.016 C 
HETATM   43  C31 UNL     1      13.518  34.434 -13.487  1.00  0.00     0.010 C 
BRANCH  42  44
HETATM   44  C32 UNL     1      14.670  34.568 -11.325  1.00  0.00     0.008 C 
BRANCH  44  45
HETATM   45  C33 UNL     1      16.034  34.929 -10.870  1.00  0.00    -0.023 C 
HETATM   46  C34 UNL     1      16.215  36.147 -10.057  1.00  0.00     0.009 C 
HETATM   47  C35 UNL     1      16.731  33.774 -10.160  1.00  0.00     0.009 C 
ENDBRANCH  44  45
ENDBRANCH  42  44
ENDBRANCH  41  42
ENDBRANCH  38  41
ENDBRANCH  33  38
ENDBRANCH  29  33
ENDBRANCH   2  26
TORSDOF 14
ENDMDL
MODEL 4
REMARK VINA RESULT: -7.922237518      3.686      8.857
REMARK  14 active torsions:
REMARK  status: ('A' for Active; 'I' for Inactive)
REMARK    1  A    between atoms: C2_2  and  C3_3 
REMARK    2  A    between atoms: C2_2  and  C20_26 
REMARK    3  A    between atoms: C5_5  and  O1_6 
REMARK    4  A    between atoms: C8_10  and  C9_11 
REMARK    5  A    between atoms: C14_18  and  O4_19 
REMARK    6  A    between atoms: C23_29  and  C24_30 
REMARK    7  A    between atoms: C24_30  and  C25_31 
REMARK    8  A    between atoms: C24_30  and  C28_35 
REMARK    9  A    between atoms: C25_31  and  C26_32 
REMARK   10  A    between atoms: C28_35  and  O5_36 
REMARK   11  A    between atoms: C28_35  and  C29_38 
REMARK   12  A    between atoms: C29_38  and  C30_39 
REMARK   13  A    between atoms: C30_39  and  C32_41 
REMARK   14  A    between atoms: C32_41  and  C33_42 
ROOT
HETATM    1  C1  UNL     1      17.312  39.475  -9.477  1.00  0.00     0.020 C 
HETATM    2  C2  UNL     1      17.075  40.472 -10.345  1.00  0.00    -0.052 C 
ENDROOT
BRANCH   2   3
HETATM    3  C3  UNL     1      17.884  41.669 -10.166  1.00  0.00    -0.012 A 
HETATM    4  C4  UNL     1      17.458  42.645  -9.303  1.00  0.00     0.050 A 
HETATM    5  C5  UNL     1      18.250  43.779  -9.107  1.00  0.00     0.075 A 
HETATM    6  C6  UNL     1      19.431  43.916  -9.763  1.00  0.00     0.010 A 
HETATM    7  C7  UNL     1      19.884  42.954 -10.633  1.00  0.00     0.093 A 
HETATM    8  C19 UNL     1      20.316  45.125  -9.580  1.00  0.00     0.053 C 
HETATM    9  C8  UNL     1      19.083  41.815 -10.827  1.00  0.00     0.046 A 
HETATM   10  O3  UNL     1      21.091  43.102 -11.300  1.00  0.00    -0.339 OA
HETATM   11  C10 UNL     1      21.821  44.311 -11.381  1.00  0.00     0.069 C 
HETATM   12  C11 UNL     1      23.049  44.178 -10.543  1.00  0.00     0.047 C 
HETATM   13  C12 UNL     1      22.161  44.585 -12.826  1.00  0.00     0.041 C 
HETATM   14  C18 UNL     1      20.893  45.414 -10.927  1.00  0.00     0.035 C 
HETATM   15  C13 UNL     1      22.862  45.914 -12.947  1.00  0.00     0.035 C 
HETATM   16  C14 UNL     1      22.134  47.054 -12.335  1.00  0.00     0.126 C 
HETATM   17  C15 UNL     1      21.483  46.784 -11.030  1.00  0.00    -0.015 C 
HETATM   18  C16 UNL     1      20.312  47.772 -10.897  1.00  0.00     0.018 C 
HETATM   19  C17 UNL     1      22.436  47.120  -9.911  1.00  0.00     0.018 C 
BRANCH   5  20
HETATM   20  O1  UNL     1      17.848  44.785  -8.240  1.00  0.00    -0.360 OA
ATOM     21  H1  UNL     1      17.292  45.494  -8.542  1.00  0.00     0.217 HD
ENDBRANCH   5  20
BRANCH   9  22
HETATM   22  C9  UNL     1      19.630  40.831 -11.748  1.00  0.00     0.273 C 
HETATM   23  O2  UNL     1      20.434  39.923 -11.465  1.00  0.00    -0.301 OA
ENDBRANCH   9  22
BRANCH  16  24
HETATM   24  O4  UNL     1      23.048  48.106 -12.157  1.00  0.00    -0.395 OA
ATOM     25  H4  UNL     1      22.708  48.869 -12.610  1.00  0.00     0.210 HD
ENDBRANCH  16  24
ENDBRANCH   2   3
BRANCH   2  26
HETATM   26  C20 UNL     1      16.043  40.326 -11.380  1.00  0.00     0.025 C 
HETATM   27  C21 UNL     1      14.692  40.204 -10.725  1.00  0.00     0.010 C 
HETATM   28  C22 UNL     1      13.586  40.128 -11.773  1.00  0.00     0.013 C 
HETATM   29  C23 UNL     1      13.814  38.753 -12.443  1.00  0.00     0.062 C 
HETATM   30  C36 UNL     1      15.076  38.922 -13.180  1.00  0.00     0.132 C 
HETATM   31  O6  UNL     1      15.212  38.830 -14.379  1.00  0.00    -0.298 OA
HETATM   32  C37 UNL     1      16.303  39.237 -12.376  1.00  0.00     0.088 C 
BRANCH  29  33
HETATM   33  C24 UNL     1      12.649  38.270 -13.206  1.00  0.00     0.027 C 
BRANCH  33  34
HETATM   34  C25 UNL     1      11.442  39.103 -13.056  1.00  0.00     0.027 C 
BRANCH  34  35
HETATM   35  C26 UNL     1      11.149  40.120 -14.095  1.00  0.00     0.079 C 
HETATM   36  C27 UNL     1      12.130  40.152 -15.245  1.00  0.00     0.026 C 
HETATM   37 CL1  UNL     1      10.800  41.742 -13.569  1.00  0.00    -0.125 Cl
ENDBRANCH  34  35
ENDBRANCH  33  34
BRANCH  33  38
HETATM   38  C28 UNL     1      12.384  36.783 -13.038  1.00  0.00     0.123 C 
BRANCH  38  39
HETATM   39  O5  UNL     1      11.026  36.505 -13.018  1.00  0.00    -0.395 OA
ATOM     40  H5  UNL     1      10.846  35.670 -12.603  1.00  0.00     0.210 HD
ENDBRANCH  38  39
BRANCH  38  41
HETATM   41  C29 UNL     1      13.019  36.185 -11.848  1.00  0.00     0.036 C 
BRANCH  41  42
HETATM   42  C30 UNL     1      14.226  35.329 -12.211  1.00  0.00    -0.016 C 
HETATM   43  C31 UNL     1      13.793  34.444 -13.395  1.00  0.00     0.010 C 
BRANCH  42  44
HETATM   44  C32 UNL     1      14.668  34.461 -11.104  1.00  0.00     0.008 C 
BRANCH  44  45
HETATM   45  C33 UNL     1      15.891  34.831 -10.352  1.00  0.00    -0.023 C 
HETATM   46  C34 UNL     1      16.982  33.843 -10.234  1.00  0.00     0.009 C 
HETATM   47  C35 UNL     1      16.492  36.147 -10.836  1.00  0.00     0.009 C 
ENDBRANCH  44  45
ENDBRANCH  42  44
ENDBRANCH  41  42
ENDBRANCH  38  41
ENDBRANCH  33  38
ENDBRANCH  29  33
ENDBRANCH   2  26
TORSDOF 14
ENDMDL
MODEL 5
REMARK VINA RESULT: -7.905609195      3.307      9.475
REMARK  14 active torsions:
REMARK  status: ('A' for Active; 'I' for Inactive)
REMARK    1  A    between atoms: C2_2  and  C3_3 
REMARK    2  A    between atoms: C2_2  and  C20_26 
REMARK    3  A    between atoms: C5_5  and  O1_6 
REMARK    4  A    between atoms: C8_10  and  C9_11 
REMARK    5  A    between atoms: C14_18  and  O4_19 
REMARK    6  A    between atoms: C23_29  and  C24_30 
REMARK    7  A    between atoms: C24_30  and  C25_31 
REMARK    8  A    between atoms: C24_30  and  C28_35 
REMARK    9  A    between atoms: C25_31  and  C26_32 
REMARK   10  A    between atoms: C28_35  and  O5_36 
REMARK   11  A    between atoms: C28_35  and  C29_38 
REMARK   12  A    between atoms: C29_38  and  C30_39 
REMARK   13  A    between atoms: C30_39  and  C32_41 
REMARK   14  A    between atoms: C32_41  and  C33_42 
ROOT
HETATM    1  C1  UNL     1      19.754  39.953 -12.304  1.00  0.00     0.020 C 
HETATM    2  C2  UNL     1      18.736  39.886 -11.432  1.00  0.00    -0.052 C 
ENDROOT
BRANCH   2   3
HETATM    3  C3  UNL     1      18.793  40.825 -10.322  1.00  0.00    -0.012 A 
HETATM    4  C4  UNL     1      18.081  41.994 -10.393  1.00  0.00     0.050 A 
HETATM    5  C5  UNL     1      18.111  42.880  -9.314  1.00  0.00     0.075 A 
HETATM    6  C6  UNL     1      18.836  42.589  -8.203  1.00  0.00     0.010 A 
HETATM    7  C7  UNL     1      19.559  41.426  -8.103  1.00  0.00     0.093 A 
HETATM    8  C19 UNL     1      18.896  43.520  -7.016  1.00  0.00     0.053 C 
HETATM    9  C8  UNL     1      19.526  40.537  -9.192  1.00  0.00     0.046 A 
HETATM   10  O3  UNL     1      20.298  41.136  -6.966  1.00  0.00    -0.339 OA
HETATM   11  C10 UNL     1      20.610  42.071  -5.951  1.00  0.00     0.069 C 
HETATM   12  C11 UNL     1      19.821  41.726  -4.732  1.00  0.00     0.047 C 
HETATM   13  C12 UNL     1      22.095  42.030  -5.683  1.00  0.00     0.041 C 
HETATM   14  C18 UNL     1      20.298  43.442  -6.507  1.00  0.00     0.035 C 
HETATM   15  C13 UNL     1      22.465  43.081  -4.668  1.00  0.00     0.035 C 
HETATM   16  C14 UNL     1      22.012  44.454  -5.008  1.00  0.00     0.126 C 
HETATM   17  C15 UNL     1      20.651  44.565  -5.586  1.00  0.00    -0.015 C 
HETATM   18  C16 UNL     1      20.625  45.847  -6.435  1.00  0.00     0.018 C 
HETATM   19  C17 UNL     1      19.648  44.781  -4.481  1.00  0.00     0.018 C 
BRANCH   5  20
HETATM   20  O1  UNL     1      17.402  44.073  -9.354  1.00  0.00    -0.360 OA
ATOM     21  H1  UNL     1      17.439  44.685  -8.629  1.00  0.00     0.217 HD
ENDBRANCH   5  20
BRANCH   9  22
HETATM   22  C9  UNL     1      20.299  39.318  -9.013  1.00  0.00     0.273 C 
HETATM   23  O2  UNL     1      21.486  39.141  -9.347  1.00  0.00    -0.301 OA
ENDBRANCH   9  22
BRANCH  16  24
HETATM   24  O4  UNL     1      22.052  45.226  -3.835  1.00  0.00    -0.395 OA
ATOM     25  H4  UNL     1      21.310  45.819  -3.850  1.00  0.00     0.210 HD
ENDBRANCH  16  24
ENDBRANCH   2   3
BRANCH   2  26
HETATM   26  C20 UNL     1      17.664  38.898 -11.617  1.00  0.00     0.025 C 
HETATM   27  C21 UNL     1      16.691  39.402 -12.650  1.00  0.00     0.010 C 
HETATM   28  C22 UNL     1      15.604  38.366 -12.923  1.00  0.00     0.013 C 
HETATM   29  C23 UNL     1      14.790  38.338 -11.609  1.00  0.00     0.062 C 
HETATM   30  C36 UNL     1      15.709  37.731 -10.634  1.00  0.00     0.132 C 
HETATM   31  O6  UNL     1      15.523  36.693 -10.040  1.00  0.00    -0.298 OA
HETATM   32  C37 UNL     1      16.989  38.461 -10.351  1.00  0.00     0.088 C 
BRANCH  29  33
HETATM   33  C24 UNL     1      13.460  37.721 -11.756  1.00  0.00     0.027 C 
BRANCH  33  34
HETATM   34  C25 UNL     1      13.338  36.817 -12.914  1.00  0.00     0.027 C 
BRANCH  34  35
HETATM   35  C26 UNL     1      13.129  35.370 -12.665  1.00  0.00     0.079 C 
HETATM   36  C27 UNL     1      11.962  35.044 -11.763  1.00  0.00     0.026 C 
HETATM   37 CL1  UNL     1      14.513  34.417 -12.211  1.00  0.00    -0.125 Cl
ENDBRANCH  34  35
ENDBRANCH  33  34
BRANCH  33  38
HETATM   38  C28 UNL     1      12.312  38.710 -11.634  1.00  0.00     0.123 C 
BRANCH  38  39
HETATM   39  O5  UNL     1      11.298  38.429 -12.536  1.00  0.00    -0.395 OA
ATOM     40  H5  UNL     1      11.361  38.970 -13.315  1.00  0.00     0.210 HD
ENDBRANCH  38  39
BRANCH  38  41
HETATM   41  C29 UNL     1      12.711  40.123 -11.777  1.00  0.00     0.036 C 
BRANCH  41  42
HETATM   42  C30 UNL     1      12.705  40.858 -10.442  1.00  0.00    -0.016 C 
HETATM   43  C31 UNL     1      11.524  41.847 -10.495  1.00  0.00     0.010 C 
BRANCH  42  44
HETATM   44  C32 UNL     1      13.949  41.613 -10.198  1.00  0.00     0.008 C 
BRANCH  44  45
HETATM   45  C33 UNL     1      14.678  41.393  -8.927  1.00  0.00    -0.023 C 
HETATM   46  C34 UNL     1      14.666  42.458  -7.905  1.00  0.00     0.009 C 
HETATM   47  C35 UNL     1      14.285  40.083  -8.253  1.00  0.00     0.009 C 
ENDBRANCH  44  45
ENDBRANCH  42  44
ENDBRANCH  41  42
ENDBRANCH  38  41
ENDBRANCH  33  38
ENDBRANCH  29  33
ENDBRANCH   2  26
TORSDOF 14
ENDMDL
