MODEL 1
REMARK VINA RESULT: -7.449157738      0.000      0.000
REMARK  3 active torsions:
REMARK  status: ('A' for Active; 'I' for Inactive)
REMARK    1  A    between atoms: C9_12  and  N2_13 
REMARK    2  A    between atoms: C12_20  and  C13_21 
REMARK    3  A    between atoms: C13_21  and  C14_22 
ROOT
HETATM    1  C1  UNL     1     -30.960  -9.697 -21.064  1.00  0.00     0.077 C 
HETATM    2  C2  UNL     1     -29.984  -8.769 -21.726  1.00  0.00     0.058 A 
HETATM    3  O1  UNL     1     -29.799  -7.499 -21.348  1.00  0.00    -0.312 OA
HETATM    4  C3  UNL     1     -28.889  -6.930 -22.093  1.00  0.00     0.105 A 
HETATM    5  C4  UNL     1     -28.193  -5.765 -22.327  1.00  0.00     0.070 A 
HETATM    6  C5  UNL     1     -27.319  -5.982 -23.396  1.00  0.00     0.045 A 
HETATM    7  C6  UNL     1     -26.413  -5.004 -23.950  1.00  0.00    -0.004 A 
HETATM    8  C7  UNL     1     -26.360  -3.739 -23.428  1.00  0.00     0.031 A 
HETATM    9  C8  UNL     1     -25.481  -2.785 -23.963  1.00  0.00     0.090 A 
HETATM   10  N1  UNL     1     -24.711  -3.167 -24.992  1.00  0.00    -0.353 N 
ATOM     11  H1  UNL     1     -24.072  -2.475 -25.383  1.00  0.00     0.166 HD
HETATM   12  C9  UNL     1     -24.716  -4.391 -25.550  1.00  0.00     0.099 A 
HETATM   13  C10 UNL     1     -25.596  -5.322 -25.002  1.00  0.00     0.061 A 
HETATM   14  N3  UNL     1     -27.521  -7.260 -23.760  1.00  0.00    -0.353 N 
ATOM     15  H3  UNL     1     -27.022  -7.719 -24.522  1.00  0.00     0.166 HD
HETATM   16  C11 UNL     1     -28.450  -7.863 -23.009  1.00  0.00     0.075 A 
HETATM   17  C12 UNL     1     -29.159  -9.051 -22.771  1.00  0.00     0.001 A 
ENDROOT
BRANCH  12  18
HETATM   18  N2  UNL     1     -23.939  -4.677 -26.544  1.00  0.00    -0.385 N 
ATOM     19  H22 UNL     1     -23.980  -4.173 -27.430  1.00  0.00     0.157 HD
ATOM     20  H21 UNL     1     -23.250  -5.426 -26.477  1.00  0.00     0.157 HD
ENDBRANCH  12  18
BRANCH  17  21
HETATM   21  C13 UNL     1     -28.968 -10.234 -23.582  1.00  0.00     0.048 C 
BRANCH  21  22
HETATM   22  C14 UNL     1     -28.028 -11.281 -23.141  1.00  0.00    -0.004 C 
HETATM   23  C15 UNL     1     -27.310 -11.740 -24.442  1.00  0.00     0.011 C 
HETATM   24  C16 UNL     1     -26.246 -10.702 -24.572  1.00  0.00     0.079 C 
HETATM   25  C17 UNL     1     -25.742 -10.521 -23.165  1.00  0.00     0.244 C 
HETATM   26  F1  UNL     1     -25.328  -9.228 -22.924  1.00  0.00    -0.206 F 
HETATM   27  F2  UNL     1     -24.632 -11.366 -23.042  1.00  0.00    -0.206 F 
HETATM   28  C18 UNL     1     -26.885 -10.959 -22.274  1.00  0.00     0.084 C 
ENDBRANCH  21  22
ENDBRANCH  17  21
TORSDOF 3
ENDMDL
MODEL 2
REMARK VINA RESULT: -6.752385642      2.579      3.164
REMARK  3 active torsions:
REMARK  status: ('A' for Active; 'I' for Inactive)
REMARK    1  A    between atoms: C9_12  and  N2_13 
REMARK    2  A    between atoms: C12_20  and  C13_21 
REMARK    3  A    between atoms: C13_21  and  C14_22 
ROOT
HETATM    1  C1  UNL     1     -31.049  -9.815 -21.026  1.00  0.00     0.077 C 
HETATM    2  C2  UNL     1     -30.075  -8.885 -21.687  1.00  0.00     0.058 A 
HETATM    3  O1  UNL     1     -29.922  -7.603 -21.335  1.00  0.00    -0.312 OA
HETATM    4  C3  UNL     1     -29.005  -7.035 -22.073  1.00  0.00     0.105 A 
HETATM    5  C4  UNL     1     -28.325  -5.863 -22.319  1.00  0.00     0.070 A 
HETATM    6  C5  UNL     1     -27.422  -6.089 -23.362  1.00  0.00     0.045 A 
HETATM    7  C6  UNL     1     -26.521  -5.107 -23.918  1.00  0.00    -0.004 A 
HETATM    8  C7  UNL     1     -26.503  -3.830 -23.425  1.00  0.00     0.031 A 
HETATM    9  C8  UNL     1     -25.629  -2.872 -23.963  1.00  0.00     0.090 A 
HETATM   10  N1  UNL     1     -24.829  -3.264 -24.964  1.00  0.00    -0.353 N 
ATOM     11  H1  UNL     1     -24.193  -2.570 -25.356  1.00  0.00     0.166 HD
HETATM   12  C9  UNL     1     -24.799  -4.501 -25.493  1.00  0.00     0.099 A 
HETATM   13  C10 UNL     1     -25.674  -5.434 -24.943  1.00  0.00     0.061 A 
HETATM   14  N3  UNL     1     -27.593  -7.379 -23.699  1.00  0.00    -0.353 N 
ATOM     15  H3  UNL     1     -27.068  -7.846 -24.438  1.00  0.00     0.166 HD
HETATM   16  C11 UNL     1     -28.528  -7.981 -22.955  1.00  0.00     0.075 A 
HETATM   17  C12 UNL     1     -29.221  -9.176 -22.706  1.00  0.00     0.001 A 
ENDROOT
BRANCH  12  18
HETATM   18  N2  UNL     1     -23.994  -4.796 -26.462  1.00  0.00    -0.385 N 
ATOM     19  H22 UNL     1     -23.024  -4.480 -26.479  1.00  0.00     0.157 HD
ATOM     20  H21 UNL     1     -24.304  -5.362 -27.252  1.00  0.00     0.157 HD
ENDBRANCH  12  18
BRANCH  17  21
HETATM   21  C13 UNL     1     -28.990 -10.374 -23.484  1.00  0.00     0.048 C 
BRANCH  21  22
HETATM   22  C14 UNL     1     -29.565 -10.491 -24.837  1.00  0.00    -0.004 C 
HETATM   23  C15 UNL     1     -30.068 -11.960 -24.925  1.00  0.00     0.011 C 
HETATM   24  C16 UNL     1     -31.400 -11.854 -24.263  1.00  0.00     0.079 C 
HETATM   25  C17 UNL     1     -31.972 -10.569 -24.800  1.00  0.00     0.244 C 
HETATM   26  F1  UNL     1     -32.777  -9.933 -23.880  1.00  0.00    -0.206 F 
HETATM   27  F2  UNL     1     -32.762 -10.929 -25.898  1.00  0.00    -0.206 F 
HETATM   28  C18 UNL     1     -30.772  -9.744 -25.216  1.00  0.00     0.084 C 
ENDBRANCH  21  22
ENDBRANCH  17  21
TORSDOF 3
ENDMDL
MODEL 3
REMARK VINA RESULT: -6.720219861      3.652      7.152
REMARK  3 active torsions:
REMARK  status: ('A' for Active; 'I' for Inactive)
REMARK    1  A    between atoms: C9_12  and  N2_13 
REMARK    2  A    between atoms: C12_20  and  C13_21 
REMARK    3  A    between atoms: C13_21  and  C14_22 
ROOT
HETATM    1  C1  UNL     1     -23.242  -8.790 -23.522  1.00  0.00     0.077 C 
HETATM    2  C2  UNL     1     -24.640  -9.062 -23.993  1.00  0.00     0.058 A 
HETATM    3  O1  UNL     1     -25.022 -10.220 -24.543  1.00  0.00    -0.312 OA
HETATM    4  C3  UNL     1     -26.291 -10.181 -24.854  1.00  0.00     0.105 A 
HETATM    5  C4  UNL     1     -27.339 -10.888 -25.398  1.00  0.00     0.070 A 
HETATM    6  C5  UNL     1     -28.477 -10.076 -25.375  1.00  0.00     0.045 A 
HETATM    7  C6  UNL     1     -29.785 -10.452 -25.858  1.00  0.00    -0.004 A 
HETATM    8  C7  UNL     1     -29.991 -11.695 -26.395  1.00  0.00     0.031 A 
HETATM    9  C8  UNL     1     -31.261 -12.064 -26.866  1.00  0.00     0.090 A 
HETATM   10  N1  UNL     1     -32.242 -11.156 -26.765  1.00  0.00    -0.353 N 
ATOM     11  H1  UNL     1     -33.165 -11.423 -27.107  1.00  0.00     0.166 HD
HETATM   12  C9  UNL     1     -32.104  -9.922 -26.250  1.00  0.00     0.099 A 
HETATM   13  C10 UNL     1     -30.836  -9.577 -25.788  1.00  0.00     0.061 A 
HETATM   14  N3  UNL     1     -28.072  -8.921 -24.821  1.00  0.00    -0.353 N 
ATOM     15  H3  UNL     1     -28.684  -8.120 -24.666  1.00  0.00     0.166 HD
HETATM   16  C11 UNL     1     -26.773  -8.940 -24.495  1.00  0.00     0.075 A 
HETATM   17  C12 UNL     1     -25.706  -8.217 -23.940  1.00  0.00     0.001 A 
ENDROOT
BRANCH  12  18
HETATM   18  N2  UNL     1     -33.106  -9.105 -26.191  1.00  0.00    -0.385 N 
ATOM     19  H22 UNL     1     -33.457  -8.614 -27.014  1.00  0.00     0.157 HD
ATOM     20  H21 UNL     1     -33.585  -8.919 -25.309  1.00  0.00     0.157 HD
ENDBRANCH  12  18
BRANCH  17  21
HETATM   21  C13 UNL     1     -25.856  -6.852 -23.486  1.00  0.00     0.048 C 
BRANCH  21  22
HETATM   22  C14 UNL     1     -26.366  -5.824 -24.413  1.00  0.00    -0.004 C 
HETATM   23  C15 UNL     1     -27.530  -5.140 -23.642  1.00  0.00     0.011 C 
HETATM   24  C16 UNL     1     -26.789  -4.155 -22.802  1.00  0.00     0.079 C 
HETATM   25  C17 UNL     1     -25.745  -3.598 -23.734  1.00  0.00     0.244 C 
HETATM   26  F1  UNL     1     -24.584  -3.259 -23.072  1.00  0.00    -0.206 F 
HETATM   27  F2  UNL     1     -26.297  -2.430 -24.274  1.00  0.00    -0.206 F 
HETATM   28  C18 UNL     1     -25.543  -4.665 -24.788  1.00  0.00     0.084 C 
ENDBRANCH  21  22
ENDBRANCH  17  21
TORSDOF 3
ENDMDL
MODEL 4
REMARK VINA RESULT: -6.699083105      3.873      4.734
REMARK  3 active torsions:
REMARK  status: ('A' for Active; 'I' for Inactive)
REMARK    1  A    between atoms: C9_12  and  N2_13 
REMARK    2  A    between atoms: C12_20  and  C13_21 
REMARK    3  A    between atoms: C13_21  and  C14_22 
ROOT
HETATM    1  C1  UNL     1     -28.862 -12.692 -25.691  1.00  0.00     0.077 C 
HETATM    2  C2  UNL     1     -28.402 -11.306 -25.348  1.00  0.00     0.058 A 
HETATM    3  O1  UNL     1     -28.687 -10.698 -24.191  1.00  0.00    -0.312 OA
HETATM    4  C3  UNL     1     -28.156  -9.504 -24.160  1.00  0.00     0.105 A 
HETATM    5  C4  UNL     1     -27.999  -8.361 -23.409  1.00  0.00     0.070 A 
HETATM    6  C5  UNL     1     -27.229  -7.455 -24.143  1.00  0.00     0.045 A 
HETATM    7  C6  UNL     1     -26.840  -6.136 -23.703  1.00  0.00    -0.004 A 
HETATM    8  C7  UNL     1     -27.229  -5.676 -22.473  1.00  0.00     0.031 A 
HETATM    9  C8  UNL     1     -26.854  -4.395 -22.041  1.00  0.00     0.090 A 
HETATM   10  N1  UNL     1     -26.111  -3.657 -22.878  1.00  0.00    -0.353 N 
ATOM     11  H1  UNL     1     -25.837  -2.725 -22.566  1.00  0.00     0.166 HD
HETATM   12  C9  UNL     1     -25.698  -4.049 -24.097  1.00  0.00     0.099 A 
HETATM   13  C10 UNL     1     -26.081  -5.325 -24.504  1.00  0.00     0.061 A 
HETATM   14  N3  UNL     1     -26.954  -8.084 -25.299  1.00  0.00    -0.353 N 
ATOM     15  H3  UNL     1     -26.400  -7.674 -26.050  1.00  0.00     0.166 HD
HETATM   16  C11 UNL     1     -27.489  -9.310 -25.351  1.00  0.00     0.075 A 
HETATM   17  C12 UNL     1     -27.648 -10.475 -26.118  1.00  0.00     0.001 A 
ENDROOT
BRANCH  12  18
HETATM   18  N2  UNL     1     -24.981  -3.272 -24.844  1.00  0.00    -0.385 N 
ATOM     19  H22 UNL     1     -24.862  -2.280 -24.640  1.00  0.00     0.157 HD
ATOM     20  H21 UNL     1     -24.505  -3.628 -25.673  1.00  0.00     0.157 HD
ENDBRANCH  12  18
BRANCH  17  21
HETATM   21  C13 UNL     1     -27.100 -10.598 -27.451  1.00  0.00     0.048 C 
BRANCH  21  22
HETATM   22  C14 UNL     1     -28.005 -10.714 -28.609  1.00  0.00    -0.004 C 
HETATM   23  C15 UNL     1     -28.259  -9.247 -29.059  1.00  0.00     0.011 C 
HETATM   24  C16 UNL     1     -27.056  -8.987 -29.903  1.00  0.00     0.079 C 
HETATM   25  C17 UNL     1     -26.884 -10.258 -30.692  1.00  0.00     0.244 C 
HETATM   26  F1  UNL     1     -25.560 -10.528 -30.961  1.00  0.00    -0.206 F 
HETATM   27  F2  UNL     1     -27.544 -10.048 -31.908  1.00  0.00    -0.206 F 
HETATM   28  C18 UNL     1     -27.557 -11.333 -29.864  1.00  0.00     0.084 C 
ENDBRANCH  21  22
ENDBRANCH  17  21
TORSDOF 3
ENDMDL
MODEL 5
REMARK VINA RESULT: -6.638208540      4.980      6.021
REMARK  3 active torsions:
REMARK  status: ('A' for Active; 'I' for Inactive)
REMARK    1  A    between atoms: C9_12  and  N2_13 
REMARK    2  A    between atoms: C12_20  and  C13_21 
REMARK    3  A    between atoms: C13_21  and  C14_22 
ROOT
HETATM    1  C1  UNL     1     -29.167 -12.603 -28.441  1.00  0.00     0.077 C 
HETATM    2  C2  UNL     1     -28.768 -11.338 -27.740  1.00  0.00     0.058 A 
HETATM    3  O1  UNL     1     -29.490 -10.774 -26.765  1.00  0.00    -0.312 OA
HETATM    4  C3  UNL     1     -28.905  -9.688 -26.333  1.00  0.00     0.105 A 
HETATM    5  C4  UNL     1     -28.990  -8.642 -25.443  1.00  0.00     0.070 A 
HETATM    6  C5  UNL     1     -27.869  -7.825 -25.616  1.00  0.00     0.045 A 
HETATM    7  C6  UNL     1     -27.585  -6.621 -24.870  1.00  0.00    -0.004 A 
HETATM    8  C7  UNL     1     -28.450  -6.192 -23.899  1.00  0.00     0.031 A 
HETATM    9  C8  UNL     1     -28.179  -5.022 -23.172  1.00  0.00     0.090 A 
HETATM   10  N1  UNL     1     -27.053  -4.359 -23.472  1.00  0.00    -0.353 N 
ATOM     11  H1  UNL     1     -26.854  -3.509 -22.945  1.00  0.00     0.166 HD
HETATM   12  C9  UNL     1     -26.165  -4.727 -24.413  1.00  0.00     0.099 A 
HETATM   13  C10 UNL     1     -26.454  -5.892 -25.121  1.00  0.00     0.061 A 
HETATM   14  N3  UNL     1     -27.158  -8.408 -26.597  1.00  0.00    -0.353 N 
ATOM     15  H3  UNL     1     -26.275  -8.043 -26.952  1.00  0.00     0.166 HD
HETATM   16  C11 UNL     1     -27.741  -9.523 -27.054  1.00  0.00     0.075 A 
HETATM   17  C12 UNL     1     -27.653 -10.589 -27.963  1.00  0.00     0.001 A 
ENDROOT
BRANCH  12  18
HETATM   18  N2  UNL     1     -25.100  -4.028 -24.639  1.00  0.00    -0.385 N 
ATOM     19  H22 UNL     1     -24.965  -3.098 -24.243  1.00  0.00     0.157 HD
ATOM     20  H21 UNL     1     -24.349  -4.386 -25.230  1.00  0.00     0.157 HD
ENDBRANCH  12  18
BRANCH  17  21
HETATM   21  C13 UNL     1     -26.563 -10.707 -28.906  1.00  0.00     0.048 C 
BRANCH  21  22
HETATM   22  C14 UNL     1     -26.632 -10.000 -30.198  1.00  0.00    -0.004 C 
HETATM   23  C15 UNL     1     -25.476 -10.609 -31.042  1.00  0.00     0.011 C 
HETATM   24  C16 UNL     1     -26.120 -11.846 -31.573  1.00  0.00     0.079 C 
HETATM   25  C17 UNL     1     -27.506 -11.398 -31.954  1.00  0.00     0.244 C 
HETATM   26  F1  UNL     1     -28.440 -12.399 -31.788  1.00  0.00    -0.206 F 
HETATM   27  F2  UNL     1     -27.446 -11.078 -33.316  1.00  0.00    -0.206 F 
HETATM   28  C18 UNL     1     -27.779 -10.178 -31.100  1.00  0.00     0.084 C 
ENDBRANCH  21  22
ENDBRANCH  17  21
TORSDOF 3
ENDMDL
