MODEL 1
REMARK VINA RESULT: -6.688934106      0.000      0.000
REMARK  3 active torsions:
REMARK  status: ('A' for Active; 'I' for Inactive)
REMARK    1  A    between atoms: C2_2  and  C3_3 
REMARK    2  A    between atoms: C3_3  and  C4_4 
REMARK    3  A    between atoms: C7_8  and  C8_9 
ROOT
HETATM    1  C8  UNL     1     -26.560  -6.264 -23.681  1.00  0.00    -0.003 C 
HETATM    2  C9  UNL     1     -25.378  -6.284 -22.705  1.00  0.00     0.021 C 
HETATM    3  C10 UNL     1     -26.215  -5.108 -24.593  1.00  0.00     0.089 C 
HETATM    4  C11 UNL     1     -26.105  -3.887 -23.744  1.00  0.00     0.072 C 
HETATM    5  N1  UNL     1     -25.069  -3.128 -23.768  1.00  0.00    -0.389 N 
ATOM      6  H11 UNL     1     -24.993  -2.294 -23.187  1.00  0.00     0.157 HD
ATOM      7  H12 UNL     1     -24.271  -3.334 -24.369  1.00  0.00     0.157 HD
HETATM    8  N2  UNL     1     -27.206  -3.602 -22.912  1.00  0.00    -0.372 N 
ATOM      9  H2  UNL     1     -27.437  -2.630 -22.709  1.00  0.00     0.161 HD
HETATM   10  C12 UNL     1     -28.008  -4.642 -22.345  1.00  0.00     0.025 C 
HETATM   11  C13 UNL     1     -27.843  -4.493 -20.821  1.00  0.00     0.038 C 
HETATM   12  C14 UNL     1     -29.470  -4.226 -22.581  1.00  0.00     0.038 C 
HETATM   13  C15 UNL     1     -27.740  -6.022 -22.771  1.00  0.00     0.044 C 
ENDROOT
BRANCH   1  14
HETATM   14  C7  UNL     1     -26.812  -7.506 -24.408  1.00  0.00     0.013 A 
HETATM   15  C6  UNL     1     -27.975  -7.485 -25.207  1.00  0.00     0.125 A 
HETATM   16  C5  UNL     1     -28.303  -8.604 -25.934  1.00  0.00     0.052 A 
HETATM   17  F1  UNL     1     -28.788  -6.412 -25.291  1.00  0.00    -0.205 F 
HETATM   18  C4  UNL     1     -27.530  -9.742 -25.904  1.00  0.00    -0.029 A 
HETATM   19  C17 UNL     1     -26.406  -9.732 -25.118  1.00  0.00     0.075 A 
HETATM   20  C16 UNL     1     -26.030  -8.613 -24.358  1.00  0.00     0.068 A 
HETATM   21  N3  UNL     1     -25.579 -10.880 -25.054  1.00  0.00    -0.100 NA
HETATM   22 CL1  UNL     1     -24.575  -8.711 -23.394  1.00  0.00    -0.082 Cl
BRANCH  18  23
HETATM   23  C3  UNL     1     -27.873 -10.967 -26.685  1.00  0.00     0.040 C 
BRANCH  23  24
HETATM   24  C2  UNL     1     -28.790 -10.619 -27.841  1.00  0.00     0.000 C 
HETATM   25  C1  UNL     1     -28.044 -10.529 -29.144  1.00  0.00     0.005 C 
ENDBRANCH  23  24
ENDBRANCH  18  23
ENDBRANCH   1  14
TORSDOF 3
ENDMDL
MODEL 2
REMARK VINA RESULT: -6.575339375      2.090      2.554
REMARK  3 active torsions:
REMARK  status: ('A' for Active; 'I' for Inactive)
REMARK    1  A    between atoms: C2_2  and  C3_3 
REMARK    2  A    between atoms: C3_3  and  C4_4 
REMARK    3  A    between atoms: C7_8  and  C8_9 
ROOT
HETATM    1  C8  UNL     1     -26.281  -6.243 -23.517  1.00  0.00    -0.003 C 
HETATM    2  C9  UNL     1     -25.145  -6.048 -22.505  1.00  0.00     0.021 C 
HETATM    3  C10 UNL     1     -26.037  -5.127 -24.507  1.00  0.00     0.089 C 
HETATM    4  C11 UNL     1     -26.102  -3.841 -23.757  1.00  0.00     0.072 C 
HETATM    5  N1  UNL     1     -25.161  -2.969 -23.809  1.00  0.00    -0.389 N 
ATOM      6  H11 UNL     1     -25.205  -2.089 -23.296  1.00  0.00     0.157 HD
ATOM      7  H12 UNL     1     -24.322  -3.124 -24.367  1.00  0.00     0.157 HD
HETATM    8  N2  UNL     1     -27.262  -3.626 -22.985  1.00  0.00    -0.372 N 
ATOM      9  H2  UNL     1     -27.611  -2.675 -22.868  1.00  0.00     0.161 HD
HETATM   10  C12 UNL     1     -27.960  -4.707 -22.361  1.00  0.00     0.025 C 
HETATM   11  C13 UNL     1     -27.875  -4.424 -20.849  1.00  0.00     0.038 C 
HETATM   12  C14 UNL     1     -29.450  -4.487 -22.674  1.00  0.00     0.038 C 
HETATM   13  C15 UNL     1     -27.518  -6.074 -22.666  1.00  0.00     0.044 C 
ENDROOT
BRANCH   1  14
HETATM   14  C7  UNL     1     -26.358  -7.558 -24.148  1.00  0.00     0.013 A 
HETATM   15  C6  UNL     1     -25.348  -8.456 -23.743  1.00  0.00     0.125 A 
HETATM   16  C5  UNL     1     -25.331  -9.722 -24.277  1.00  0.00     0.052 A 
HETATM   17  F1  UNL     1     -24.390  -8.131 -22.852  1.00  0.00    -0.205 F 
HETATM   18  C4  UNL     1     -26.269 -10.137 -25.193  1.00  0.00    -0.029 A 
HETATM   19  C17 UNL     1     -27.238  -9.242 -25.568  1.00  0.00     0.075 A 
HETATM   20  C16 UNL     1     -27.297  -7.938 -25.051  1.00  0.00     0.068 A 
HETATM   21  N3  UNL     1     -28.225  -9.622 -26.510  1.00  0.00    -0.100 NA
HETATM   22 CL1  UNL     1     -28.577  -6.881 -25.597  1.00  0.00    -0.082 Cl
BRANCH  18  23
HETATM   23  C3  UNL     1     -26.263 -11.508 -25.785  1.00  0.00     0.040 C 
BRANCH  23  24
HETATM   24  C2  UNL     1     -24.938 -12.195 -25.520  1.00  0.00     0.000 C 
HETATM   25  C1  UNL     1     -24.086 -12.269 -26.756  1.00  0.00     0.005 C 
ENDBRANCH  23  24
ENDBRANCH  18  23
ENDBRANCH   1  14
TORSDOF 3
ENDMDL
MODEL 3
REMARK VINA RESULT: -6.517408447      2.363      6.691
REMARK  3 active torsions:
REMARK  status: ('A' for Active; 'I' for Inactive)
REMARK    1  A    between atoms: C2_2  and  C3_3 
REMARK    2  A    between atoms: C3_3  and  C4_4 
REMARK    3  A    between atoms: C7_8  and  C8_9 
ROOT
HETATM    1  C8  UNL     1     -26.292  -9.897 -24.159  1.00  0.00    -0.003 C 
HETATM    2  C9  UNL     1     -24.908 -10.518 -23.941  1.00  0.00     0.021 C 
HETATM    3  C10 UNL     1     -27.193 -10.809 -23.358  1.00  0.00     0.089 C 
HETATM    4  C11 UNL     1     -27.047 -12.184 -23.915  1.00  0.00     0.072 C 
HETATM    5  N1  UNL     1     -26.759 -13.195 -23.177  1.00  0.00    -0.389 N 
ATOM      6  H11 UNL     1     -26.659 -14.136 -23.558  1.00  0.00     0.157 HD
ATOM      7  H12 UNL     1     -26.614 -13.097 -22.173  1.00  0.00     0.157 HD
HETATM    8  N2  UNL     1     -27.246 -12.320 -25.304  1.00  0.00    -0.372 N 
ATOM      9  H2  UNL     1     -27.645 -13.186 -25.666  1.00  0.00     0.161 HD
HETATM   10  C12 UNL     1     -26.904 -11.275 -26.218  1.00  0.00     0.025 C 
HETATM   11  C13 UNL     1     -25.816 -11.876 -27.129  1.00  0.00     0.038 C 
HETATM   12  C14 UNL     1     -28.108 -11.127 -27.163  1.00  0.00     0.038 C 
HETATM   13  C15 UNL     1     -26.468  -9.990 -25.656  1.00  0.00     0.044 C 
ENDROOT
BRANCH   1  14
HETATM   14  C7  UNL     1     -26.430  -8.491 -23.787  1.00  0.00     0.013 A 
HETATM   15  C6  UNL     1     -25.277  -7.933 -23.193  1.00  0.00     0.125 A 
HETATM   16  C5  UNL     1     -25.301  -6.614 -22.806  1.00  0.00     0.052 A 
HETATM   17  F1  UNL     1     -24.146  -8.635 -22.982  1.00  0.00    -0.205 F 
HETATM   18  C4  UNL     1     -26.415  -5.825 -22.982  1.00  0.00    -0.029 A 
HETATM   19  C17 UNL     1     -27.520  -6.396 -23.562  1.00  0.00     0.075 A 
HETATM   20  C16 UNL     1     -27.543  -7.738 -23.973  1.00  0.00     0.068 A 
HETATM   21  N3  UNL     1     -28.690  -5.625 -23.762  1.00  0.00    -0.100 NA
HETATM   22 CL1  UNL     1     -29.004  -8.361 -24.703  1.00  0.00    -0.082 Cl
BRANCH  18  23
HETATM   23  C3  UNL     1     -26.459  -4.392 -22.566  1.00  0.00     0.040 C 
BRANCH  23  24
HETATM   24  C2  UNL     1     -25.224  -3.660 -23.054  1.00  0.00     0.000 C 
HETATM   25  C1  UNL     1     -25.494  -2.879 -24.310  1.00  0.00     0.005 C 
ENDBRANCH  23  24
ENDBRANCH  18  23
ENDBRANCH   1  14
TORSDOF 3
ENDMDL
MODEL 4
REMARK VINA RESULT: -6.423711351      2.490      6.537
REMARK  3 active torsions:
REMARK  status: ('A' for Active; 'I' for Inactive)
REMARK    1  A    between atoms: C2_2  and  C3_3 
REMARK    2  A    between atoms: C3_3  and  C4_4 
REMARK    3  A    between atoms: C7_8  and  C8_9 
ROOT
HETATM    1  C8  UNL     1     -26.065  -9.644 -24.380  1.00  0.00    -0.003 C 
HETATM    2  C9  UNL     1     -26.781 -10.055 -25.672  1.00  0.00     0.021 C 
HETATM    3  C10 UNL     1     -24.615  -9.929 -24.701  1.00  0.00     0.089 C 
HETATM    4  C11 UNL     1     -24.505 -11.380 -25.024  1.00  0.00     0.072 C 
HETATM    5  N1  UNL     1     -23.962 -11.801 -26.109  1.00  0.00    -0.389 N 
ATOM      6  H11 UNL     1     -23.887 -12.793 -26.330  1.00  0.00     0.157 HD
ATOM      7  H12 UNL     1     -23.585 -11.154 -26.802  1.00  0.00     0.157 HD
HETATM    8  N2  UNL     1     -25.026 -12.274 -24.068  1.00  0.00    -0.372 N 
ATOM      9  H2  UNL     1     -24.586 -13.187 -23.949  1.00  0.00     0.161 HD
HETATM   10  C12 UNL     1     -26.157 -11.935 -23.260  1.00  0.00     0.025 C 
HETATM   11  C13 UNL     1     -27.242 -12.964 -23.632  1.00  0.00     0.038 C 
HETATM   12  C14 UNL     1     -25.783 -12.328 -21.820  1.00  0.00     0.038 C 
HETATM   13  C15 UNL     1     -26.678 -10.565 -23.352  1.00  0.00     0.044 C 
ENDROOT
BRANCH   1  14
HETATM   14  C7  UNL     1     -26.290  -8.272 -23.932  1.00  0.00     0.013 A 
HETATM   15  C6  UNL     1     -25.187  -7.690 -23.269  1.00  0.00     0.125 A 
HETATM   16  C5  UNL     1     -25.294  -6.400 -22.808  1.00  0.00     0.052 A 
HETATM   17  F1  UNL     1     -24.026  -8.344 -23.064  1.00  0.00    -0.205 F 
HETATM   18  C4  UNL     1     -26.443  -5.662 -22.974  1.00  0.00    -0.029 A 
HETATM   19  C17 UNL     1     -27.498  -6.255 -23.621  1.00  0.00     0.075 A 
HETATM   20  C16 UNL     1     -27.436  -7.570 -24.109  1.00  0.00     0.068 A 
HETATM   21  N3  UNL     1     -28.702  -5.535 -23.814  1.00  0.00    -0.100 NA
HETATM   22 CL1  UNL     1     -28.839  -8.224 -24.921  1.00  0.00    -0.082 Cl
BRANCH  18  23
HETATM   23  C3  UNL     1     -26.577  -4.260 -22.477  1.00  0.00     0.040 C 
BRANCH  23  24
HETATM   24  C2  UNL     1     -25.371  -3.437 -22.883  1.00  0.00     0.000 C 
HETATM   25  C1  UNL     1     -25.511  -2.882 -24.273  1.00  0.00     0.005 C 
ENDBRANCH  23  24
ENDBRANCH  18  23
ENDBRANCH   1  14
TORSDOF 3
ENDMDL
MODEL 5
REMARK VINA RESULT: -6.375878272      2.754      6.963
REMARK  3 active torsions:
REMARK  status: ('A' for Active; 'I' for Inactive)
REMARK    1  A    between atoms: C2_2  and  C3_3 
REMARK    2  A    between atoms: C3_3  and  C4_4 
REMARK    3  A    between atoms: C7_8  and  C8_9 
ROOT
HETATM    1  C8  UNL     1     -26.016 -10.663 -24.506  1.00  0.00    -0.003 C 
HETATM    2  C9  UNL     1     -24.834 -11.175 -23.675  1.00  0.00     0.021 C 
HETATM    3  C10 UNL     1     -27.165 -11.506 -24.001  1.00  0.00     0.089 C 
HETATM    4  C11 UNL     1     -26.816 -12.933 -24.253  1.00  0.00     0.072 C 
HETATM    5  N1  UNL     1     -26.849 -13.820 -23.324  1.00  0.00    -0.389 N 
ATOM      6  H11 UNL     1     -26.611 -14.796 -23.495  1.00  0.00     0.157 HD
ATOM      7  H12 UNL     1     -27.114 -13.581 -22.369  1.00  0.00     0.157 HD
HETATM    8  N2  UNL     1     -26.450 -13.264 -25.572  1.00  0.00    -0.372 N 
ATOM      9  H2  UNL     1     -26.676 -14.191 -25.934  1.00  0.00     0.161 HD
HETATM   10  C12 UNL     1     -25.768 -12.334 -26.418  1.00  0.00     0.025 C 
HETATM   11  C13 UNL     1     -24.411 -12.994 -26.732  1.00  0.00     0.038 C 
HETATM   12  C14 UNL     1     -26.498 -12.377 -27.771  1.00  0.00     0.038 C 
HETATM   13  C15 UNL     1     -25.584 -10.965 -25.922  1.00  0.00     0.044 C 
ENDROOT
BRANCH   1  14
HETATM   14  C7  UNL     1     -26.283  -9.229 -24.424  1.00  0.00     0.013 A 
HETATM   15  C6  UNL     1     -25.267  -8.485 -23.786  1.00  0.00     0.125 A 
HETATM   16  C5  UNL     1     -25.420  -7.125 -23.658  1.00  0.00     0.052 A 
HETATM   17  F1  UNL     1     -24.147  -9.047 -23.290  1.00  0.00    -0.205 F 
HETATM   18  C4  UNL     1     -26.533  -6.470 -24.133  1.00  0.00    -0.029 A 
HETATM   19  C17 UNL     1     -27.503  -7.220 -24.749  1.00  0.00     0.075 A 
HETATM   20  C16 UNL     1     -27.393  -8.612 -24.903  1.00  0.00     0.068 A 
HETATM   21  N3  UNL     1     -28.667  -6.592 -25.253  1.00  0.00    -0.100 NA
HETATM   22 CL1  UNL     1     -28.688  -9.467 -25.706  1.00  0.00    -0.082 Cl
BRANCH  18  23
HETATM   23  C3  UNL     1     -26.716  -4.995 -24.001  1.00  0.00     0.040 C 
BRANCH  23  24
HETATM   24  C2  UNL     1     -25.482  -4.262 -24.489  1.00  0.00     0.000 C 
HETATM   25  C1  UNL     1     -25.409  -2.860 -23.948  1.00  0.00     0.005 C 
ENDBRANCH  23  24
ENDBRANCH  18  23
ENDBRANCH   1  14
TORSDOF 3
ENDMDL
