MODEL 1
REMARK VINA RESULT: -6.564343177      0.000      0.000
REMARK  5 active torsions:
REMARK  status: ('A' for Active; 'I' for Inactive)
REMARK    1  A    between atoms: C3_5  and  C4_6 
REMARK    2  A    between atoms: C7_9  and  N2_10 
REMARK    3  A    between atoms: C10_18  and  O1_19 
REMARK    4  A    between atoms: C11_21  and  C12_22 
REMARK    5  A    between atoms: C12_22  and  C13_23 
ROOT
HETATM    1  C1  UNL     1     -28.763  -7.556 -22.857  1.00  0.00     0.069 C 
HETATM    2  C2  UNL     1     -27.578  -8.236 -23.454  1.00  0.00     0.015 A 
HETATM    3  N1  UNL     1     -27.629  -9.424 -24.113  1.00  0.00    -0.357 N 
ATOM      4  H1  UNL     1     -28.460  -9.992 -24.283  1.00  0.00     0.166 HD
HETATM    5  C3  UNL     1     -26.371  -9.702 -24.497  1.00  0.00     0.078 A 
HETATM    6  C10 UNL     1     -25.531  -8.695 -24.084  1.00  0.00     0.101 A 
HETATM    7  C11 UNL     1     -26.303  -7.742 -23.407  1.00  0.00    -0.000 A 
ENDROOT
BRANCH   5   8
HETATM    8  C4  UNL     1     -26.030 -10.940 -25.247  1.00  0.00     0.039 C 
HETATM    9  C5  UNL     1     -26.089 -10.984 -26.552  1.00  0.00    -0.009 C 
HETATM   10  C6  UNL     1     -25.757 -12.198 -27.335  1.00  0.00     0.061 C 
HETATM   11  C7  UNL     1     -24.624 -12.912 -26.642  1.00  0.00     0.193 C 
HETATM   12  C8  UNL     1     -25.163 -13.299 -25.280  1.00  0.00     0.117 C 
HETATM   13  C9  UNL     1     -25.609 -12.131 -24.477  1.00  0.00     0.275 C 
HETATM   14  F1  UNL     1     -24.536 -11.822 -23.622  1.00  0.00    -0.201 F 
HETATM   15  F2  UNL     1     -26.666 -12.488 -23.628  1.00  0.00    -0.201 F 
BRANCH  11  16
HETATM   16  N2  UNL     1     -23.504 -12.024 -26.578  1.00  0.00    -0.075 N 
ATOM     17  H23 UNL     1     -23.486 -11.358 -27.351  1.00  0.00     0.274 HD
ATOM     18  H22 UNL     1     -23.581 -11.350 -25.816  1.00  0.00     0.274 HD
ATOM     19  H21 UNL     1     -22.652 -12.584 -26.522  1.00  0.00     0.274 HD
ENDBRANCH  11  16
ENDBRANCH   5   8
BRANCH   6  20
HETATM   20  O1  UNL     1     -24.182  -8.552 -24.247  1.00  0.00    -0.358 OA
ATOM     21  H1  UNL     1     -23.463  -9.009 -23.829  1.00  0.00     0.217 HD
ENDBRANCH   6  20
BRANCH   7  22
HETATM   22  C12 UNL     1     -25.827  -6.492 -22.793  1.00  0.00     0.048 C 
BRANCH  22  23
HETATM   23  C13 UNL     1     -26.421  -5.263 -23.444  1.00  0.00    -0.010 C 
HETATM   24  C14 UNL     1     -25.716  -4.026 -22.944  1.00  0.00     0.005 C 
HETATM   25  C15 UNL     1     -25.716  -2.924 -23.995  1.00  0.00     0.000 C 
HETATM   26  C16 UNL     1     -24.772  -3.324 -25.084  1.00  0.00     0.000 C 
HETATM   27  C17 UNL     1     -24.875  -4.805 -25.283  1.00  0.00     0.000 C 
HETATM   28  C18 UNL     1     -26.272  -5.288 -24.950  1.00  0.00     0.005 C 
ENDBRANCH  22  23
ENDBRANCH   7  22
TORSDOF 5
ENDMDL
MODEL 2
REMARK VINA RESULT: -6.440499874      3.150      6.712
REMARK  5 active torsions:
REMARK  status: ('A' for Active; 'I' for Inactive)
REMARK    1  A    between atoms: C3_5  and  C4_6 
REMARK    2  A    between atoms: C7_9  and  N2_10 
REMARK    3  A    between atoms: C10_18  and  O1_19 
REMARK    4  A    between atoms: C11_21  and  C12_22 
REMARK    5  A    between atoms: C12_22  and  C13_23 
ROOT
HETATM    1  C1  UNL     1     -26.097 -10.696 -25.175  1.00  0.00     0.069 C 
HETATM    2  C2  UNL     1     -26.508  -9.267 -25.058  1.00  0.00     0.015 A 
HETATM    3  N1  UNL     1     -25.693  -8.270 -24.619  1.00  0.00    -0.357 N 
ATOM      4  H1  UNL     1     -24.722  -8.362 -24.321  1.00  0.00     0.166 HD
HETATM    5  C3  UNL     1     -26.420  -7.140 -24.657  1.00  0.00     0.078 A 
HETATM    6  C10 UNL     1     -27.685  -7.421 -25.117  1.00  0.00     0.101 A 
HETATM    7  C11 UNL     1     -27.752  -8.796 -25.379  1.00  0.00    -0.000 A 
ENDROOT
BRANCH   5   8
HETATM    8  C4  UNL     1     -25.860  -5.827 -24.237  1.00  0.00     0.039 C 
HETATM    9  C5  UNL     1     -25.437  -4.956 -25.115  1.00  0.00    -0.009 C 
HETATM   10  C6  UNL     1     -24.873  -3.638 -24.737  1.00  0.00     0.061 C 
HETATM   11  C7  UNL     1     -25.617  -3.135 -23.525  1.00  0.00     0.193 C 
HETATM   12  C8  UNL     1     -25.347  -4.152 -22.434  1.00  0.00     0.117 C 
HETATM   13  C9  UNL     1     -25.800  -5.522 -22.792  1.00  0.00     0.275 C 
HETATM   14  F1  UNL     1     -27.063  -5.675 -22.193  1.00  0.00    -0.201 F 
HETATM   15  F2  UNL     1     -24.985  -6.487 -22.183  1.00  0.00    -0.201 F 
BRANCH  11  16
HETATM   16  N2  UNL     1     -27.002  -3.020 -23.863  1.00  0.00    -0.075 N 
ATOM     17  H23 UNL     1     -27.149  -2.811 -24.851  1.00  0.00     0.274 HD
ATOM     18  H22 UNL     1     -27.489  -3.916 -23.836  1.00  0.00     0.274 HD
ATOM     19  H21 UNL     1     -27.427  -2.325 -23.247  1.00  0.00     0.274 HD
ENDBRANCH  11  16
ENDBRANCH   5   8
BRANCH   6  20
HETATM   20  O1  UNL     1     -28.752  -6.592 -25.319  1.00  0.00    -0.358 OA
ATOM     21  H1  UNL     1     -28.882  -5.688 -25.059  1.00  0.00     0.217 HD
ENDBRANCH   6  20
BRANCH   7  22
HETATM   22  C12 UNL     1     -28.911  -9.543 -25.889  1.00  0.00     0.048 C 
BRANCH  22  23
HETATM   23  C13 UNL     1     -29.022  -9.484 -27.397  1.00  0.00    -0.010 C 
HETATM   24  C14 UNL     1     -27.814  -8.787 -27.973  1.00  0.00     0.005 C 
HETATM   25  C15 UNL     1     -27.492  -9.301 -29.370  1.00  0.00     0.000 C 
HETATM   26  C16 UNL     1     -26.942 -10.686 -29.239  1.00  0.00     0.000 C 
HETATM   27  C17 UNL     1     -27.669 -11.383 -28.132  1.00  0.00     0.000 C 
HETATM   28  C18 UNL     1     -29.087 -10.862 -28.018  1.00  0.00     0.005 C 
ENDBRANCH  22  23
ENDBRANCH   7  22
TORSDOF 5
ENDMDL
MODEL 3
REMARK VINA RESULT: -6.410443996      2.829      3.533
REMARK  5 active torsions:
REMARK  status: ('A' for Active; 'I' for Inactive)
REMARK    1  A    between atoms: C3_5  and  C4_6 
REMARK    2  A    between atoms: C7_9  and  N2_10 
REMARK    3  A    between atoms: C10_18  and  O1_19 
REMARK    4  A    between atoms: C11_21  and  C12_22 
REMARK    5  A    between atoms: C12_22  and  C13_23 
ROOT
HETATM    1  C1  UNL     1     -25.924  -9.657 -23.429  1.00  0.00     0.069 C 
HETATM    2  C2  UNL     1     -26.609  -9.249 -24.690  1.00  0.00     0.015 A 
HETATM    3  N1  UNL     1     -26.674 -10.019 -25.809  1.00  0.00    -0.357 N 
ATOM      4  H1  UNL     1     -26.276 -10.950 -25.933  1.00  0.00     0.166 HD
HETATM    5  C3  UNL     1     -27.366  -9.312 -26.719  1.00  0.00     0.078 A 
HETATM    6  C10 UNL     1     -27.737  -8.103 -26.177  1.00  0.00     0.101 A 
HETATM    7  C11 UNL     1     -27.250  -8.053 -24.864  1.00  0.00    -0.000 A 
ENDROOT
BRANCH   5   8
HETATM    8  C4  UNL     1     -27.637  -9.834 -28.085  1.00  0.00     0.039 C 
HETATM    9  C5  UNL     1     -27.517  -9.072 -29.140  1.00  0.00    -0.009 C 
HETATM   10  C6  UNL     1     -27.778  -9.554 -30.518  1.00  0.00     0.061 C 
HETATM   11  C7  UNL     1     -27.322 -10.989 -30.610  1.00  0.00     0.193 C 
HETATM   12  C8  UNL     1     -28.179 -11.750 -29.619  1.00  0.00     0.117 C 
HETATM   13  C9  UNL     1     -28.040 -11.249 -28.226  1.00  0.00     0.275 C 
HETATM   14  F1  UNL     1     -27.110 -12.101 -27.605  1.00  0.00    -0.201 F 
HETATM   15  F2  UNL     1     -29.236 -11.428 -27.515  1.00  0.00    -0.201 F 
BRANCH  11  16
HETATM   16  N2  UNL     1     -25.925 -11.038 -30.308  1.00  0.00    -0.075 N 
ATOM     17  H23 UNL     1     -25.699 -10.592 -29.419  1.00  0.00     0.274 HD
ATOM     18  H22 UNL     1     -25.607 -11.980 -30.077  1.00  0.00     0.274 HD
ATOM     19  H21 UNL     1     -25.412 -10.633 -31.092  1.00  0.00     0.274 HD
ENDBRANCH  11  16
ENDBRANCH   5   8
BRANCH   6  20
HETATM   20  O1  UNL     1     -28.445  -7.073 -26.727  1.00  0.00    -0.358 OA
ATOM     21  H1  UNL     1     -28.230  -6.151 -26.797  1.00  0.00     0.217 HD
ENDBRANCH   6  20
BRANCH   7  22
HETATM   22  C12 UNL     1     -27.410  -6.951 -23.903  1.00  0.00     0.048 C 
BRANCH  22  23
HETATM   23  C13 UNL     1     -26.133  -6.162 -23.708  1.00  0.00    -0.010 C 
HETATM   24  C14 UNL     1     -25.862  -5.316 -24.928  1.00  0.00     0.005 C 
HETATM   25  C15 UNL     1     -25.105  -4.046 -24.565  1.00  0.00     0.000 C 
HETATM   26  C16 UNL     1     -26.045  -3.139 -23.837  1.00  0.00     0.000 C 
HETATM   27  C17 UNL     1     -26.938  -3.973 -22.972  1.00  0.00     0.000 C 
HETATM   28  C18 UNL     1     -26.217  -5.228 -22.521  1.00  0.00     0.005 C 
ENDBRANCH  22  23
ENDBRANCH   7  22
TORSDOF 5
ENDMDL
MODEL 4
REMARK VINA RESULT: -6.397361334      2.947      7.034
REMARK  5 active torsions:
REMARK  status: ('A' for Active; 'I' for Inactive)
REMARK    1  A    between atoms: C3_5  and  C4_6 
REMARK    2  A    between atoms: C7_9  and  N2_10 
REMARK    3  A    between atoms: C10_18  and  O1_19 
REMARK    4  A    between atoms: C11_21  and  C12_22 
REMARK    5  A    between atoms: C12_22  and  C13_23 
ROOT
HETATM    1  C1  UNL     1     -24.635 -14.744 -27.474  1.00  0.00     0.069 C 
HETATM    2  C2  UNL     1     -25.047 -13.400 -26.978  1.00  0.00     0.015 A 
HETATM    3  N1  UNL     1     -24.511 -12.790 -25.886  1.00  0.00    -0.357 N 
ATOM      4  H1  UNL     1     -23.778 -13.159 -25.279  1.00  0.00     0.166 HD
HETATM    5  C3  UNL     1     -25.136 -11.606 -25.765  1.00  0.00     0.078 A 
HETATM    6  C10 UNL     1     -26.061 -11.469 -26.774  1.00  0.00     0.101 A 
HETATM    7  C11 UNL     1     -26.010 -12.625 -27.564  1.00  0.00    -0.000 A 
ENDROOT
BRANCH   5   8
HETATM    8  C4  UNL     1     -24.818 -10.654 -24.668  1.00  0.00     0.039 C 
HETATM    9  C5  UNL     1     -23.708  -9.963 -24.668  1.00  0.00    -0.009 C 
HETATM   10  C6  UNL     1     -23.355  -9.004 -23.593  1.00  0.00     0.061 C 
HETATM   11  C7  UNL     1     -24.621  -8.333 -23.124  1.00  0.00     0.193 C 
HETATM   12  C8  UNL     1     -25.486  -9.446 -22.567  1.00  0.00     0.117 C 
HETATM   13  C9  UNL     1     -25.797 -10.497 -23.571  1.00  0.00     0.275 C 
HETATM   14  F1  UNL     1     -27.070 -10.179 -24.076  1.00  0.00    -0.201 F 
HETATM   15  F2  UNL     1     -25.948 -11.745 -22.949  1.00  0.00    -0.201 F 
BRANCH  11  16
HETATM   16  N2  UNL     1     -25.212  -7.656 -24.237  1.00  0.00    -0.075 N 
ATOM     17  H23 UNL     1     -24.604  -7.644 -25.056  1.00  0.00     0.274 HD
ATOM     18  H22 UNL     1     -25.987  -8.178 -24.646  1.00  0.00     0.274 HD
ATOM     19  H21 UNL     1     -25.484  -6.720 -23.936  1.00  0.00     0.274 HD
ENDBRANCH  11  16
ENDBRANCH   5   8
BRANCH   6  20
HETATM   20  O1  UNL     1     -26.918 -10.441 -27.047  1.00  0.00    -0.358 OA
ATOM     21  H1  UNL     1     -26.890  -9.788 -27.735  1.00  0.00     0.217 HD
ENDBRANCH   6  20
BRANCH   7  22
HETATM   22  C12 UNL     1     -26.821 -12.918 -28.756  1.00  0.00     0.048 C 
BRANCH  22  23
HETATM   23  C13 UNL     1     -26.078 -12.641 -30.044  1.00  0.00    -0.010 C 
HETATM   24  C14 UNL     1     -26.797 -13.292 -31.201  1.00  0.00     0.005 C 
HETATM   25  C15 UNL     1     -26.584 -12.517 -32.493  1.00  0.00     0.000 C 
HETATM   26  C16 UNL     1     -27.362 -11.243 -32.403  1.00  0.00     0.000 C 
HETATM   27  C17 UNL     1     -27.296 -10.744 -30.993  1.00  0.00     0.000 C 
HETATM   28  C18 UNL     1     -25.991 -11.160 -30.345  1.00  0.00     0.005 C 
ENDBRANCH  22  23
ENDBRANCH   7  22
TORSDOF 5
ENDMDL
MODEL 5
REMARK VINA RESULT: -6.381117540      3.643      7.247
REMARK  5 active torsions:
REMARK  status: ('A' for Active; 'I' for Inactive)
REMARK    1  A    between atoms: C3_5  and  C4_6 
REMARK    2  A    between atoms: C7_9  and  N2_10 
REMARK    3  A    between atoms: C10_18  and  O1_19 
REMARK    4  A    between atoms: C11_21  and  C12_22 
REMARK    5  A    between atoms: C12_22  and  C13_23 
ROOT
HETATM    1  C1  UNL     1     -28.024  -7.408 -29.771  1.00  0.00     0.069 C 
HETATM    2  C2  UNL     1     -27.811  -7.913 -28.385  1.00  0.00     0.015 A 
HETATM    3  N1  UNL     1     -27.473  -7.126 -27.328  1.00  0.00    -0.357 N 
ATOM      4  H1  UNL     1     -27.324  -6.117 -27.341  1.00  0.00     0.166 HD
HETATM    5  C3  UNL     1     -27.373  -7.941 -26.263  1.00  0.00     0.078 A 
HETATM    6  C10 UNL     1     -27.648  -9.233 -26.644  1.00  0.00     0.101 A 
HETATM    7  C11 UNL     1     -27.932  -9.225 -28.016  1.00  0.00    -0.000 A 
ENDROOT
BRANCH   5   8
HETATM    8  C4  UNL     1     -27.008  -7.434 -24.913  1.00  0.00     0.039 C 
HETATM    9  C5  UNL     1     -25.775  -7.476 -24.482  1.00  0.00    -0.009 C 
HETATM   10  C6  UNL     1     -25.371  -6.981 -23.143  1.00  0.00     0.061 C 
HETATM   11  C7  UNL     1     -26.207  -5.771 -22.815  1.00  0.00     0.193 C 
HETATM   12  C8  UNL     1     -27.639  -6.267 -22.778  1.00  0.00     0.117 C 
HETATM   13  C9  UNL     1     -28.078  -6.868 -24.064  1.00  0.00     0.275 C 
HETATM   14  F1  UNL     1     -28.774  -5.852 -24.744  1.00  0.00    -0.201 F 
HETATM   15  F2  UNL     1     -29.027  -7.877 -23.840  1.00  0.00    -0.201 F 
BRANCH  11  16
HETATM   16  N2  UNL     1     -25.976  -4.777 -23.817  1.00  0.00    -0.075 N 
ATOM     17  H23 UNL     1     -24.985  -4.656 -24.029  1.00  0.00     0.274 HD
ATOM     18  H22 UNL     1     -26.281  -5.076 -24.743  1.00  0.00     0.274 HD
ATOM     19  H21 UNL     1     -26.422  -3.909 -23.518  1.00  0.00     0.274 HD
ENDBRANCH  11  16
ENDBRANCH   5   8
BRANCH   6  20
HETATM   20  O1  UNL     1     -27.668 -10.383 -25.907  1.00  0.00    -0.358 OA
ATOM     21  H1  UNL     1     -27.182 -11.191 -26.020  1.00  0.00     0.217 HD
ENDBRANCH   6  20
BRANCH   7  22
HETATM   22  C12 UNL     1     -28.283 -10.382 -28.853  1.00  0.00     0.048 C 
BRANCH  22  23
HETATM   23  C13 UNL     1     -27.077 -11.213 -29.231  1.00  0.00    -0.010 C 
HETATM   24  C14 UNL     1     -27.523 -12.552 -29.767  1.00  0.00     0.005 C 
HETATM   25  C15 UNL     1     -26.529 -13.102 -30.780  1.00  0.00     0.000 C 
HETATM   26  C16 UNL     1     -26.640 -12.286 -32.028  1.00  0.00     0.000 C 
HETATM   27  C17 UNL     1     -26.889 -10.860 -31.643  1.00  0.00     0.000 C 
HETATM   28  C18 UNL     1     -26.244 -10.552 -30.307  1.00  0.00     0.005 C 
ENDBRANCH  22  23
ENDBRANCH   7  22
TORSDOF 5
ENDMDL
