MODEL 1
REMARK VINA RESULT: -7.123319887      0.000      0.000
REMARK  6 active torsions:
REMARK  status: ('A' for Active; 'I' for Inactive)
REMARK    1  A    between atoms: N1_1  and  C1_5 
REMARK    2  A    between atoms: C1_5  and  C2_6 
REMARK    3  A    between atoms: C2_6  and  N2_7 
REMARK    4  A    between atoms: N2_7  and  C3_9 
REMARK    5  A    between atoms: C4_10  and  O1_11 
REMARK    6  A    between atoms: C5_13  and  C6_14 
ROOT
HETATM    1  C3  UNL     1     -27.810  -4.958 -22.527  1.00  0.00     0.076 A 
HETATM    2  C4  UNL     1     -28.372  -6.214 -22.593  1.00  0.00     0.116 A 
HETATM    3  C5  UNL     1     -27.954  -7.148 -23.550  1.00  0.00     0.049 A 
HETATM    4  N3  UNL     1     -26.997  -6.802 -24.402  1.00  0.00    -0.356 N 
ATOM      5  H3  UNL     1     -26.698  -7.489 -25.094  1.00  0.00     0.166 HD
HETATM    6  C12 UNL     1     -26.400  -5.600 -24.403  1.00  0.00     0.048 A 
HETATM    7  C13 UNL     1     -25.396  -5.302 -25.336  1.00  0.00     0.072 A 
HETATM    8  C14 UNL     1     -24.800  -4.060 -25.318  1.00  0.00     0.118 A 
HETATM    9  F1  UNL     1     -23.820  -3.723 -26.205  1.00  0.00    -0.206 F 
HETATM   10  C15 UNL     1     -25.182  -3.120 -24.398  1.00  0.00     0.043 A 
HETATM   11  C16 UNL     1     -26.189  -3.444 -23.477  1.00  0.00     0.019 A 
HETATM   12  C17 UNL     1     -26.793  -4.678 -23.481  1.00  0.00     0.020 A 
ENDROOT
BRANCH   1  13
HETATM   13  N2  UNL     1     -28.080  -4.041 -21.740  1.00  0.00    -0.385 N 
ATOM     14  H2  UNL     1     -27.608  -3.196 -22.063  1.00  0.00     0.159 HD
BRANCH  13  15
HETATM   15  C2  UNL     1     -28.775  -3.730 -20.595  1.00  0.00     0.147 C 
BRANCH  15  16
HETATM   16  C1  UNL     1     -27.889  -3.973 -19.366  1.00  0.00     0.249 C 
BRANCH  16  17
HETATM   17  N1  UNL     1     -28.608  -3.664 -18.143  1.00  0.00    -0.078 N 
ATOM     18  H13 UNL     1     -28.772  -2.662 -18.045  1.00  0.00     0.274 HD
ATOM     19  H12 UNL     1     -29.578  -3.976 -18.187  1.00  0.00     0.274 HD
ATOM     20  H11 UNL     1     -28.125  -4.049 -17.332  1.00  0.00     0.274 HD
ENDBRANCH  16  17
ENDBRANCH  15  16
ENDBRANCH  13  15
ENDBRANCH   1  13
BRANCH   2  21
HETATM   21  O1  UNL     1     -29.360  -6.563 -21.707  1.00  0.00    -0.357 OA
ATOM     22  H1  UNL     1     -29.774  -7.416 -21.776  1.00  0.00     0.218 HD
ENDBRANCH   2  21
BRANCH   3  23
HETATM   23  C6  UNL     1     -28.623  -8.467 -23.536  1.00  0.00     0.038 C 
HETATM   24  C7  UNL     1     -29.119  -8.897 -24.884  1.00  0.00     0.011 C 
HETATM   25  C8  UNL     1     -30.151 -10.010 -24.661  1.00  0.00     0.001 C 
HETATM   26  C9  UNL     1     -29.605 -11.047 -23.701  1.00  0.00     0.000 C 
HETATM   27  C10 UNL     1     -28.111 -10.917 -23.654  1.00  0.00     0.001 C 
HETATM   28  C11 UNL     1     -27.750  -9.578 -22.996  1.00  0.00     0.011 C 
ENDBRANCH   3  23
TORSDOF 6
ENDMDL
MODEL 2
REMARK VINA RESULT: -6.654714435      1.152      1.523
REMARK  6 active torsions:
REMARK  status: ('A' for Active; 'I' for Inactive)
REMARK    1  A    between atoms: N1_1  and  C1_5 
REMARK    2  A    between atoms: C1_5  and  C2_6 
REMARK    3  A    between atoms: C2_6  and  N2_7 
REMARK    4  A    between atoms: N2_7  and  C3_9 
REMARK    5  A    between atoms: C4_10  and  O1_11 
REMARK    6  A    between atoms: C5_13  and  C6_14 
ROOT
HETATM    1  C3  UNL     1     -27.472  -5.294 -22.693  1.00  0.00     0.076 A 
HETATM    2  C4  UNL     1     -27.973  -6.559 -22.910  1.00  0.00     0.116 A 
HETATM    3  C5  UNL     1     -27.553  -7.328 -24.003  1.00  0.00     0.049 A 
HETATM    4  N3  UNL     1     -26.655  -6.816 -24.836  1.00  0.00    -0.356 N 
ATOM      5  H3  UNL     1     -26.355  -7.383 -25.628  1.00  0.00     0.166 HD
HETATM    6  C12 UNL     1     -26.121  -5.593 -24.693  1.00  0.00     0.048 A 
HETATM    7  C13 UNL     1     -25.178  -5.114 -25.614  1.00  0.00     0.072 A 
HETATM    8  C14 UNL     1     -24.645  -3.855 -25.447  1.00  0.00     0.118 A 
HETATM    9  F1  UNL     1     -23.725  -3.345 -26.316  1.00  0.00    -0.206 F 
HETATM   10  C15 UNL     1     -25.030  -3.073 -24.391  1.00  0.00     0.043 A 
HETATM   11  C16 UNL     1     -25.975  -3.575 -23.486  1.00  0.00     0.019 A 
HETATM   12  C17 UNL     1     -26.516  -4.829 -23.637  1.00  0.00     0.020 A 
ENDROOT
BRANCH   1  13
HETATM   13  N2  UNL     1     -27.751  -4.510 -21.776  1.00  0.00    -0.385 N 
ATOM     14  H2  UNL     1     -26.920  -4.392 -21.196  1.00  0.00     0.159 HD
BRANCH  13  15
HETATM   15  C2  UNL     1     -28.756  -3.739 -21.242  1.00  0.00     0.147 C 
BRANCH  15  16
HETATM   16  C1  UNL     1     -29.904  -3.607 -22.253  1.00  0.00     0.249 C 
BRANCH  16  17
HETATM   17  N1  UNL     1     -29.702  -2.458 -23.116  1.00  0.00    -0.078 N 
ATOM     18  H13 UNL     1     -28.763  -2.071 -23.016  1.00  0.00     0.274 HD
ATOM     19  H12 UNL     1     -29.653  -2.728 -24.099  1.00  0.00     0.274 HD
ATOM     20  H11 UNL     1     -30.420  -1.753 -22.954  1.00  0.00     0.274 HD
ENDBRANCH  16  17
ENDBRANCH  15  16
ENDBRANCH  13  15
ENDBRANCH   1  13
BRANCH   2  21
HETATM   21  O1  UNL     1     -28.900  -7.081 -22.044  1.00  0.00    -0.357 OA
ATOM     22  H1  UNL     1     -29.532  -7.718 -22.358  1.00  0.00     0.218 HD
ENDBRANCH   2  21
BRANCH   3  23
HETATM   23  C6  UNL     1     -28.154  -8.673 -24.147  1.00  0.00     0.038 C 
HETATM   24  C7  UNL     1     -29.237  -8.733 -25.182  1.00  0.00     0.011 C 
HETATM   25  C8  UNL     1     -30.055 -10.004 -24.918  1.00  0.00     0.001 C 
HETATM   26  C9  UNL     1     -29.133 -11.191 -24.733  1.00  0.00     0.000 C 
HETATM   27  C10 UNL     1     -27.794 -10.855 -25.322  1.00  0.00     0.001 C 
HETATM   28  C11 UNL     1     -27.145  -9.749 -24.480  1.00  0.00     0.011 C 
ENDBRANCH   3  23
TORSDOF 6
ENDMDL
MODEL 3
REMARK VINA RESULT: -6.356254631      3.173      6.037
REMARK  6 active torsions:
REMARK  status: ('A' for Active; 'I' for Inactive)
REMARK    1  A    between atoms: N1_1  and  C1_5 
REMARK    2  A    between atoms: C1_5  and  C2_6 
REMARK    3  A    between atoms: C2_6  and  N2_7 
REMARK    4  A    between atoms: N2_7  and  C3_9 
REMARK    5  A    between atoms: C4_10  and  O1_11 
REMARK    6  A    between atoms: C5_13  and  C6_14 
ROOT
HETATM    1  C3  UNL     1     -28.497  -8.700 -23.041  1.00  0.00     0.076 A 
HETATM    2  C4  UNL     1     -28.082  -7.401 -23.239  1.00  0.00     0.116 A 
HETATM    3  C5  UNL     1     -26.849  -7.116 -23.840  1.00  0.00     0.049 A 
HETATM    4  N3  UNL     1     -26.077  -8.126 -24.221  1.00  0.00    -0.356 N 
ATOM      5  H3  UNL     1     -25.181  -7.909 -24.658  1.00  0.00     0.166 HD
HETATM    6  C12 UNL     1     -26.408  -9.417 -24.063  1.00  0.00     0.048 A 
HETATM    7  C13 UNL     1     -25.541 -10.434 -24.487  1.00  0.00     0.072 A 
HETATM    8  C14 UNL     1     -25.903 -11.751 -24.312  1.00  0.00     0.118 A 
HETATM    9  F1  UNL     1     -25.093 -12.775 -24.708  1.00  0.00    -0.206 F 
HETATM   10  C15 UNL     1     -27.101 -12.070 -23.729  1.00  0.00     0.043 A 
HETATM   11  C16 UNL     1     -27.948 -11.035 -23.313  1.00  0.00     0.019 A 
HETATM   12  C17 UNL     1     -27.603  -9.715 -23.481  1.00  0.00     0.020 A 
ENDROOT
BRANCH   1  13
HETATM   13  N2  UNL     1     -29.552  -9.094 -22.528  1.00  0.00    -0.385 N 
ATOM     14  H2  UNL     1     -29.979  -9.771 -23.161  1.00  0.00     0.159 HD
BRANCH  13  15
HETATM   15  C2  UNL     1     -30.367  -8.966 -21.429  1.00  0.00     0.147 C 
BRANCH  15  16
HETATM   16  C1  UNL     1     -29.883  -9.899 -20.310  1.00  0.00     0.249 C 
BRANCH  16  17
HETATM   17  N1  UNL     1     -30.976 -10.246 -19.420  1.00  0.00    -0.078 N 
ATOM     18  H13 UNL     1     -31.048  -9.595 -18.638  1.00  0.00     0.274 HD
ATOM     19  H12 UNL     1     -31.884 -10.072 -19.851  1.00  0.00     0.274 HD
ATOM     20  H11 UNL     1     -30.890 -11.211 -19.101  1.00  0.00     0.274 HD
ENDBRANCH  16  17
ENDBRANCH  15  16
ENDBRANCH  13  15
ENDBRANCH   1  13
BRANCH   2  21
HETATM   21  O1  UNL     1     -28.888  -6.363 -22.843  1.00  0.00    -0.357 OA
ATOM     22  H1  UNL     1     -29.651  -6.539 -22.305  1.00  0.00     0.218 HD
ENDBRANCH   2  21
BRANCH   3  23
HETATM   23  C6  UNL     1     -26.498  -5.688 -24.004  1.00  0.00     0.038 C 
HETATM   24  C7  UNL     1     -25.698  -5.136 -22.863  1.00  0.00     0.011 C 
HETATM   25  C8  UNL     1     -25.793  -3.606 -22.931  1.00  0.00     0.001 C 
HETATM   26  C9  UNL     1     -25.512  -3.127 -24.340  1.00  0.00     0.000 C 
HETATM   27  C10 UNL     1     -24.785  -4.211 -25.080  1.00  0.00     0.001 C 
HETATM   28  C11 UNL     1     -25.734  -5.400 -25.277  1.00  0.00     0.011 C 
ENDBRANCH   3  23
TORSDOF 6
ENDMDL
MODEL 4
REMARK VINA RESULT: -6.297010109      3.443      6.563
REMARK  6 active torsions:
REMARK  status: ('A' for Active; 'I' for Inactive)
REMARK    1  A    between atoms: N1_1  and  C1_5 
REMARK    2  A    between atoms: C1_5  and  C2_6 
REMARK    3  A    between atoms: C2_6  and  N2_7 
REMARK    4  A    between atoms: N2_7  and  C3_9 
REMARK    5  A    between atoms: C4_10  and  O1_11 
REMARK    6  A    between atoms: C5_13  and  C6_14 
ROOT
HETATM    1  C3  UNL     1     -27.176  -9.751 -25.797  1.00  0.00     0.076 A 
HETATM    2  C4  UNL     1     -27.050  -8.824 -24.785  1.00  0.00     0.116 A 
HETATM    3  C5  UNL     1     -27.200  -7.453 -25.033  1.00  0.00     0.049 A 
HETATM    4  N3  UNL     1     -27.469  -7.055 -26.270  1.00  0.00    -0.356 N 
ATOM      5  H3  UNL     1     -27.578  -6.055 -26.441  1.00  0.00     0.166 HD
HETATM    6  C12 UNL     1     -27.606  -7.894 -27.309  1.00  0.00     0.048 A 
HETATM    7  C13 UNL     1     -27.888  -7.402 -28.591  1.00  0.00     0.072 A 
HETATM    8  C14 UNL     1     -28.022  -8.283 -29.641  1.00  0.00     0.118 A 
HETATM    9  F1  UNL     1     -28.295  -7.853 -30.907  1.00  0.00    -0.206 F 
HETATM   10  C15 UNL     1     -27.882  -9.631 -29.439  1.00  0.00     0.043 A 
HETATM   11  C16 UNL     1     -27.600 -10.095 -28.148  1.00  0.00     0.019 A 
HETATM   12  C17 UNL     1     -27.463  -9.230 -27.089  1.00  0.00     0.020 A 
ENDROOT
BRANCH   1  13
HETATM   13  N2  UNL     1     -27.070 -10.982 -25.721  1.00  0.00    -0.385 N 
ATOM     14  H2  UNL     1     -27.946 -11.396 -26.040  1.00  0.00     0.159 HD
BRANCH  13  15
HETATM   15  C2  UNL     1     -26.219 -12.003 -25.371  1.00  0.00     0.147 C 
BRANCH  15  16
HETATM   16  C1  UNL     1     -24.764 -11.520 -25.454  1.00  0.00     0.249 C 
BRANCH  16  17
HETATM   17  N1  UNL     1     -24.269 -11.145 -24.142  1.00  0.00    -0.078 N 
ATOM     18  H13 UNL     1     -23.332 -11.511 -23.974  1.00  0.00     0.274 HD
ATOM     19  H12 UNL     1     -24.058 -10.149 -24.089  1.00  0.00     0.274 HD
ATOM     20  H11 UNL     1     -24.923 -11.432 -23.414  1.00  0.00     0.274 HD
ENDBRANCH  16  17
ENDBRANCH  15  16
ENDBRANCH  13  15
ENDBRANCH   1  13
BRANCH   2  21
HETATM   21  O1  UNL     1     -26.773  -9.245 -23.509  1.00  0.00    -0.357 OA
ATOM     22  H1  UNL     1     -25.873  -9.271 -23.207  1.00  0.00     0.218 HD
ENDBRANCH   2  21
BRANCH   3  23
HETATM   23  C6  UNL     1     -27.044  -6.542 -23.877  1.00  0.00     0.038 C 
HETATM   24  C7  UNL     1     -26.390  -5.240 -24.230  1.00  0.00     0.011 C 
HETATM   25  C8  UNL     1     -25.890  -4.609 -22.924  1.00  0.00     0.001 C 
HETATM   26  C9  UNL     1     -26.984  -4.634 -21.878  1.00  0.00     0.000 C 
HETATM   27  C10 UNL     1     -28.304  -4.818 -22.568  1.00  0.00     0.001 C 
HETATM   28  C11 UNL     1     -28.350  -6.223 -23.184  1.00  0.00     0.011 C 
ENDBRANCH   3  23
TORSDOF 6
ENDMDL
MODEL 5
REMARK VINA RESULT: -6.287029256      3.440      7.245
REMARK  6 active torsions:
REMARK  status: ('A' for Active; 'I' for Inactive)
REMARK    1  A    between atoms: N1_1  and  C1_5 
REMARK    2  A    between atoms: C1_5  and  C2_6 
REMARK    3  A    between atoms: C2_6  and  N2_7 
REMARK    4  A    between atoms: N2_7  and  C3_9 
REMARK    5  A    between atoms: C4_10  and  O1_11 
REMARK    6  A    between atoms: C5_13  and  C6_14 
ROOT
HETATM    1  C3  UNL     1     -25.945  -9.800 -23.723  1.00  0.00     0.076 A 
HETATM    2  C4  UNL     1     -25.515  -8.491 -23.766  1.00  0.00     0.116 A 
HETATM    3  C5  UNL     1     -26.410  -7.427 -23.596  1.00  0.00     0.049 A 
HETATM    4  N3  UNL     1     -27.693  -7.699 -23.391  1.00  0.00    -0.356 N 
ATOM      5  H3  UNL     1     -28.337  -6.919 -23.268  1.00  0.00     0.166 HD
HETATM    6  C12 UNL     1     -28.190  -8.945 -23.337  1.00  0.00     0.048 A 
HETATM    7  C13 UNL     1     -29.558  -9.159 -23.119  1.00  0.00     0.072 A 
HETATM    8  C14 UNL     1     -30.043 -10.447 -23.069  1.00  0.00     0.118 A 
HETATM    9  F1  UNL     1     -31.367 -10.706 -22.860  1.00  0.00    -0.206 F 
HETATM   10  C15 UNL     1     -29.200 -11.514 -23.230  1.00  0.00     0.043 A 
HETATM   11  C16 UNL     1     -27.837 -11.272 -23.447  1.00  0.00     0.019 A 
HETATM   12  C17 UNL     1     -27.336  -9.993 -23.499  1.00  0.00     0.020 A 
ENDROOT
BRANCH   1  13
HETATM   13  N2  UNL     1     -25.269 -10.829 -23.855  1.00  0.00    -0.385 N 
ATOM     14  H2  UNL     1     -24.808 -11.022 -22.966  1.00  0.00     0.159 HD
BRANCH  13  15
HETATM   15  C2  UNL     1     -24.906 -11.811 -24.746  1.00  0.00     0.147 C 
BRANCH  15  16
HETATM   16  C1  UNL     1     -24.076 -11.200 -25.884  1.00  0.00     0.249 C 
BRANCH  16  17
HETATM   17  N1  UNL     1     -22.888 -10.550 -25.364  1.00  0.00    -0.078 N 
ATOM     18  H13 UNL     1     -23.059  -9.568 -25.144  1.00  0.00     0.274 HD
ATOM     19  H12 UNL     1     -22.656 -10.880 -24.427  1.00  0.00     0.274 HD
ATOM     20  H11 UNL     1     -22.104 -10.661 -26.007  1.00  0.00     0.274 HD
ENDBRANCH  16  17
ENDBRANCH  15  16
ENDBRANCH  13  15
ENDBRANCH   1  13
BRANCH   2  21
HETATM   21  O1  UNL     1     -24.187  -8.219 -23.977  1.00  0.00    -0.357 OA
ATOM     22  H1  UNL     1     -23.536  -8.547 -23.367  1.00  0.00     0.218 HD
ENDBRANCH   2  21
BRANCH   3  23
HETATM   23  C6  UNL     1     -25.847  -6.060 -23.661  1.00  0.00     0.038 C 
HETATM   24  C7  UNL     1     -25.967  -5.431 -25.017  1.00  0.00     0.011 C 
HETATM   25  C8  UNL     1     -24.978  -4.259 -25.069  1.00  0.00     0.001 C 
HETATM   26  C9  UNL     1     -25.122  -3.397 -23.831  1.00  0.00     0.000 C 
HETATM   27  C10 UNL     1     -26.457  -3.674 -23.206  1.00  0.00     0.001 C 
HETATM   28  C11 UNL     1     -26.463  -5.108 -22.661  1.00  0.00     0.011 C 
ENDBRANCH   3  23
TORSDOF 6
ENDMDL
