MODEL 1
REMARK VINA RESULT: -8.317250859      0.000      0.000
REMARK  16 active torsions:
REMARK  status: ('A' for Active; 'I' for Inactive)
REMARK    1  A    between atoms: C2_2  and  C3_4 
REMARK    2  A    between atoms: C3_4  and  O2_5 
REMARK    3  A    between atoms: C3_4  and  C4_7 
REMARK    4  A    between atoms: C4_7  and  O3_8 
REMARK    5  A    between atoms: C4_7  and  C5_10 
REMARK    6  A    between atoms: C5_10  and  O4_11 
REMARK    7  A    between atoms: C5_10  and  O12_44 
REMARK    8  A    between atoms: O4_11  and  C6_12 
REMARK    9  A    between atoms: C10_17  and  S1_18 
REMARK   10  A    between atoms: S1_18  and  C11_19 
REMARK   11  A    between atoms: C12_22  and  S2_23 
REMARK   12  A    between atoms: S2_23  and  N2_24 
REMARK   13  A    between atoms: C14_32  and  C15_33 
REMARK   14  A    between atoms: C16_37  and  O10_38 
REMARK   15  A    between atoms: C17_40  and  O11_42 
REMARK   16  A    between atoms: O12_44  and  S4_45 
ROOT
HETATM    1  C6  UNL     1      23.322 -10.160 -15.481  1.00  0.00     0.207 C 
HETATM    2  C7  UNL     1      23.765  -9.935 -16.863  1.00  0.00     0.200 C 
HETATM    3  O5  UNL     1      24.836  -9.866 -17.534  1.00  0.00    -0.375 OA
HETATM    4  C8  UNL     1      24.417 -10.082 -18.888  1.00  0.00     0.209 C 
HETATM    5  C9  UNL     1      23.002  -9.741 -19.149  1.00  0.00     0.001 C 
HETATM    6  C10 UNL     1      22.819  -9.298 -20.385  1.00  0.00     0.064 C 
HETATM    7  C14 UNL     1      21.716  -9.772 -18.352  1.00  0.00     0.102 C 
HETATM    8  N4  UNL     1      21.717  -9.322 -17.049  1.00  0.00    -0.211 NA
HETATM    9  C16 UNL     1      23.034  -8.618 -17.045  1.00  0.00     0.252 C 
HETATM   10  C17 UNL     1      21.852  -9.942 -15.811  1.00  0.00     0.145 C 
HETATM   11  C18 UNL     1      21.019 -11.124 -15.448  1.00  0.00     0.067 C 
ENDROOT
BRANCH   1  12
HETATM   12  O4  UNL     1      23.887  -9.431 -14.517  1.00  0.00    -0.345 OA
BRANCH  12  13
HETATM   13  C5  UNL     1      24.844  -9.901 -13.705  1.00  0.00     0.313 C 
BRANCH  13  14
HETATM   14  C4  UNL     1      24.555  -9.738 -12.261  1.00  0.00     0.210 C 
BRANCH  14  15
HETATM   15  C3  UNL     1      24.913 -10.901 -11.364  1.00  0.00     0.220 C 
BRANCH  15  16
HETATM   16  C2  UNL     1      24.732 -12.225 -12.025  1.00  0.00     0.154 C 
HETATM   17  C1  UNL     1      23.401 -12.753 -12.430  1.00  0.00     0.093 C 
HETATM   18  O1  UNL     1      25.702 -12.914 -12.249  1.00  0.00    -0.295 OA
ENDBRANCH  15  16
BRANCH  15  19
HETATM   19  O2  UNL     1      26.331 -10.761 -11.198  1.00  0.00    -0.385 OA
ATOM     20  H2  UNL     1      26.504 -11.048 -10.309  1.00  0.00     0.210 HD
ENDBRANCH  15  19
ENDBRANCH  14  15
BRANCH  14  21
HETATM   21  O3  UNL     1      25.313  -8.664 -11.708  1.00  0.00    -0.388 OA
ATOM     22  H3  UNL     1      25.685  -8.249 -12.477  1.00  0.00     0.210 HD
ENDBRANCH  14  21
ENDBRANCH  13  14
BRANCH  13  23
HETATM   23  O12 UNL     1      26.113  -9.339 -13.912  1.00  0.00    -0.221 OA
BRANCH  23  24
HETATM   24  S4  UNL     1      27.208 -10.401 -14.556  1.00  0.00     0.254 S 
HETATM   25  O13 UNL     1      28.086 -10.893 -13.416  1.00  0.00    -0.572 OA
HETATM   26  O14 UNL     1      28.046  -9.774 -15.629  1.00  0.00    -0.572 OA
HETATM   27  O15 UNL     1      26.347 -11.735 -15.158  1.00  0.00    -0.572 OA
ENDBRANCH  23  24
ENDBRANCH  13  23
ENDBRANCH  12  13
ENDBRANCH   1  12
BRANCH  10  28
HETATM   28  O11 UNL     1      21.420  -8.947 -14.867  1.00  0.00    -0.373 OA
ATOM     29  H11 UNL     1      21.044  -9.449 -14.153  1.00  0.00     0.212 HD
ENDBRANCH  10  28
BRANCH   9  30
HETATM   30  O10 UNL     1      23.046  -7.786 -15.980  1.00  0.00    -0.284 OA
HETATM   31  S3  UNL     1      24.256  -6.585 -16.073  1.00  0.00     0.095 SA
ENDBRANCH   9  30
BRANCH   7  32
HETATM   32  C15 UNL     1      20.848 -10.875 -18.785  1.00  0.00     0.222 C 
HETATM   33  O8  UNL     1      19.604 -10.905 -18.699  1.00  0.00    -0.643 OA
HETATM   34  O9  UNL     1      21.389 -12.048 -19.358  1.00  0.00    -0.643 OA
ENDBRANCH   7  32
BRANCH   6  35
HETATM   35  S1  UNL     1      21.256  -8.792 -21.055  1.00  0.00    -0.065 SA
BRANCH  35  36
HETATM   36  C11 UNL     1      21.516  -7.880 -22.593  1.00  0.00     0.149 A 
HETATM   37  N1  UNL     1      22.506  -8.069 -23.480  1.00  0.00    -0.325 N 
HETATM   38  C12 UNL     1      22.312  -7.175 -24.467  1.00  0.00     0.166 A 
ATOM     39  H1  UNL     1      23.258  -8.755 -23.418  1.00  0.00     0.169 HD
HETATM   40  C13 UNL     1      21.191  -6.453 -24.150  1.00  0.00     0.134 A 
HETATM   41  N3  UNL     1      20.694  -6.895 -22.976  1.00  0.00    -0.344 N 
ATOM     42  H3  UNL     1      19.868  -6.553 -22.485  1.00  0.00     0.167 HD
BRANCH  38  43
HETATM   43  S2  UNL     1      23.312  -6.971 -25.897  1.00  0.00     0.273 S 
HETATM   44  O6  UNL     1      24.722  -7.284 -25.556  1.00  0.00    -0.199 OA
HETATM   45  O7  UNL     1      22.768  -7.904 -26.943  1.00  0.00    -0.199 OA
BRANCH  43  46
HETATM   46  N2  UNL     1      23.101  -5.352 -26.451  1.00  0.00    -0.323 N 
ATOM     47  H22 UNL     1      23.394  -4.512 -25.952  1.00  0.00     0.169 HD
ATOM     48  H21 UNL     1      22.635  -5.397 -27.357  1.00  0.00     0.169 HD
ENDBRANCH  43  46
ENDBRANCH  38  43
ENDBRANCH  35  36
ENDBRANCH   6  35
TORSDOF 16
ENDMDL
MODEL 2
REMARK VINA RESULT: -8.251597768      1.657      1.908
REMARK  16 active torsions:
REMARK  status: ('A' for Active; 'I' for Inactive)
REMARK    1  A    between atoms: C2_2  and  C3_4 
REMARK    2  A    between atoms: C3_4  and  O2_5 
REMARK    3  A    between atoms: C3_4  and  C4_7 
REMARK    4  A    between atoms: C4_7  and  O3_8 
REMARK    5  A    between atoms: C4_7  and  C5_10 
REMARK    6  A    between atoms: C5_10  and  O4_11 
REMARK    7  A    between atoms: C5_10  and  O12_44 
REMARK    8  A    between atoms: O4_11  and  C6_12 
REMARK    9  A    between atoms: C10_17  and  S1_18 
REMARK   10  A    between atoms: S1_18  and  C11_19 
REMARK   11  A    between atoms: C12_22  and  S2_23 
REMARK   12  A    between atoms: S2_23  and  N2_24 
REMARK   13  A    between atoms: C14_32  and  C15_33 
REMARK   14  A    between atoms: C16_37  and  O10_38 
REMARK   15  A    between atoms: C17_40  and  O11_42 
REMARK   16  A    between atoms: O12_44  and  S4_45 
ROOT
HETATM    1  C6  UNL     1      23.265 -10.118 -15.542  1.00  0.00     0.207 C 
HETATM    2  C7  UNL     1      23.668  -9.890 -16.936  1.00  0.00     0.200 C 
HETATM    3  O5  UNL     1      24.720  -9.780 -17.631  1.00  0.00    -0.375 OA
HETATM    4  C8  UNL     1      24.282 -10.032 -18.973  1.00  0.00     0.209 C 
HETATM    5  C9  UNL     1      22.849  -9.758 -19.207  1.00  0.00     0.001 C 
HETATM    6  C10 UNL     1      22.619  -9.339 -20.444  1.00  0.00     0.064 C 
HETATM    7  C14 UNL     1      21.583  -9.838 -18.382  1.00  0.00     0.102 C 
HETATM    8  N4  UNL     1      21.591  -9.372 -17.084  1.00  0.00    -0.211 NA
HETATM    9  C16 UNL     1      22.874  -8.610 -17.117  1.00  0.00     0.252 C 
HETATM   10  C17 UNL     1      21.780  -9.971 -15.843  1.00  0.00     0.145 C 
HETATM   11  C18 UNL     1      21.010 -11.185 -15.448  1.00  0.00     0.067 C 
ENDROOT
BRANCH   1  12
HETATM   12  O4  UNL     1      23.817  -9.352 -14.599  1.00  0.00    -0.345 OA
BRANCH  12  13
HETATM   13  C5  UNL     1      24.978  -9.647 -13.999  1.00  0.00     0.313 C 
BRANCH  13  14
HETATM   14  C4  UNL     1      25.122  -9.086 -12.636  1.00  0.00     0.210 C 
BRANCH  14  15
HETATM   15  C3  UNL     1      24.842 -10.025 -11.484  1.00  0.00     0.220 C 
BRANCH  15  16
HETATM   16  C2  UNL     1      25.141 -11.450 -11.807  1.00  0.00     0.154 C 
HETATM   17  C1  UNL     1      24.094 -12.423 -12.220  1.00  0.00     0.093 C 
HETATM   18  O1  UNL     1      26.282 -11.848 -11.733  1.00  0.00    -0.295 OA
ENDBRANCH  15  16
BRANCH  15  19
HETATM   19  O2  UNL     1      25.829  -9.651 -10.511  1.00  0.00    -0.385 OA
ATOM     20  H2  UNL     1      25.601  -8.763 -10.259  1.00  0.00     0.210 HD
ENDBRANCH  15  19
ENDBRANCH  14  15
BRANCH  14  21
HETATM   21  O3  UNL     1      26.467  -8.676 -12.393  1.00  0.00    -0.388 OA
ATOM     22  H3  UNL     1      26.373  -7.754 -12.186  1.00  0.00     0.210 HD
ENDBRANCH  14  21
ENDBRANCH  13  14
BRANCH  13  23
HETATM   23  O12 UNL     1      26.120  -9.244 -14.707  1.00  0.00    -0.221 OA
BRANCH  23  24
HETATM   24  S4  UNL     1      27.141 -10.492 -15.083  1.00  0.00     0.254 S 
HETATM   25  O13 UNL     1      28.105 -10.654 -13.918  1.00  0.00    -0.572 OA
HETATM   26  O14 UNL     1      27.893 -10.250 -16.356  1.00  0.00    -0.572 OA
HETATM   27  O15 UNL     1      26.212 -11.910 -15.185  1.00  0.00    -0.572 OA
ENDBRANCH  23  24
ENDBRANCH  13  23
ENDBRANCH  12  13
ENDBRANCH   1  12
BRANCH  10  28
HETATM   28  O11 UNL     1      21.323  -8.985 -14.900  1.00  0.00    -0.373 OA
ATOM     29  H11 UNL     1      21.422  -8.159 -15.358  1.00  0.00     0.212 HD
ENDBRANCH  10  28
BRANCH   9  30
HETATM   30  O10 UNL     1      22.870  -7.765 -16.061  1.00  0.00    -0.284 OA
HETATM   31  S3  UNL     1      24.123  -6.606 -16.119  1.00  0.00     0.095 SA
ENDBRANCH   9  30
BRANCH   7  32
HETATM   32  C15 UNL     1      20.757 -10.984 -18.784  1.00  0.00     0.222 C 
HETATM   33  O8  UNL     1      19.516 -11.065 -18.680  1.00  0.00    -0.643 OA
HETATM   34  O9  UNL     1      21.340 -12.144 -19.343  1.00  0.00    -0.643 OA
ENDBRANCH   7  32
BRANCH   6  35
HETATM   35  S1  UNL     1      21.021  -8.913 -21.084  1.00  0.00    -0.065 SA
BRANCH  35  36
HETATM   36  C11 UNL     1      21.045  -8.991 -22.890  1.00  0.00     0.149 A 
HETATM   37  N1  UNL     1      20.469  -9.927 -23.660  1.00  0.00    -0.325 N 
HETATM   38  C12 UNL     1      20.740  -9.594 -24.936  1.00  0.00     0.166 A 
ATOM     39  H1  UNL     1      19.931 -10.732 -23.341  1.00  0.00     0.169 HD
HETATM   40  C13 UNL     1      21.487  -8.446 -24.908  1.00  0.00     0.134 A 
HETATM   41  N3  UNL     1      21.678  -8.069 -23.627  1.00  0.00    -0.344 N 
ATOM     42  H3  UNL     1      22.194  -7.255 -23.290  1.00  0.00     0.167 HD
BRANCH  38  43
HETATM   43  S2  UNL     1      20.231 -10.471 -26.370  1.00  0.00     0.273 S 
HETATM   44  O6  UNL     1      21.106 -10.099 -27.507  1.00  0.00    -0.199 OA
HETATM   45  O7  UNL     1      20.331 -11.935 -26.041  1.00  0.00    -0.199 OA
BRANCH  43  46
HETATM   46  N2  UNL     1      18.572 -10.091 -26.649  1.00  0.00    -0.323 N 
ATOM     47  H22 UNL     1      17.781 -10.470 -26.128  1.00  0.00     0.169 HD
ATOM     48  H21 UNL     1      18.536  -9.426 -27.421  1.00  0.00     0.169 HD
ENDBRANCH  43  46
ENDBRANCH  38  43
ENDBRANCH  35  36
ENDBRANCH   6  35
TORSDOF 16
ENDMDL
MODEL 3
REMARK VINA RESULT: -8.040071281      1.335      2.378
REMARK  16 active torsions:
REMARK  status: ('A' for Active; 'I' for Inactive)
REMARK    1  A    between atoms: C2_2  and  C3_4 
REMARK    2  A    between atoms: C3_4  and  O2_5 
REMARK    3  A    between atoms: C3_4  and  C4_7 
REMARK    4  A    between atoms: C4_7  and  O3_8 
REMARK    5  A    between atoms: C4_7  and  C5_10 
REMARK    6  A    between atoms: C5_10  and  O4_11 
REMARK    7  A    between atoms: C5_10  and  O12_44 
REMARK    8  A    between atoms: O4_11  and  C6_12 
REMARK    9  A    between atoms: C10_17  and  S1_18 
REMARK   10  A    between atoms: S1_18  and  C11_19 
REMARK   11  A    between atoms: C12_22  and  S2_23 
REMARK   12  A    between atoms: S2_23  and  N2_24 
REMARK   13  A    between atoms: C14_32  and  C15_33 
REMARK   14  A    between atoms: C16_37  and  O10_38 
REMARK   15  A    between atoms: C17_40  and  O11_42 
REMARK   16  A    between atoms: O12_44  and  S4_45 
ROOT
HETATM    1  C6  UNL     1      23.374 -10.246 -15.481  1.00  0.00     0.207 C 
HETATM    2  C7  UNL     1      23.791  -9.995 -16.867  1.00  0.00     0.200 C 
HETATM    3  O5  UNL     1      24.849  -9.928 -17.559  1.00  0.00    -0.375 OA
HETATM    4  C8  UNL     1      24.398 -10.106 -18.908  1.00  0.00     0.209 C 
HETATM    5  C9  UNL     1      22.984  -9.735 -19.131  1.00  0.00     0.001 C 
HETATM    6  C10 UNL     1      22.782  -9.260 -20.352  1.00  0.00     0.064 C 
HETATM    7  C14 UNL     1      21.715  -9.764 -18.308  1.00  0.00     0.102 C 
HETATM    8  N4  UNL     1      21.751  -9.344 -16.995  1.00  0.00    -0.211 NA
HETATM    9  C16 UNL     1      23.080  -8.663 -17.003  1.00  0.00     0.252 C 
HETATM   10  C17 UNL     1      21.901  -9.995 -15.775  1.00  0.00     0.145 C 
HETATM   11  C18 UNL     1      21.056 -11.172 -15.421  1.00  0.00     0.067 C 
ENDROOT
BRANCH   1  12
HETATM   12  O4  UNL     1      23.972  -9.549 -14.513  1.00  0.00    -0.345 OA
BRANCH  12  13
HETATM   13  C5  UNL     1      24.854 -10.085 -13.659  1.00  0.00     0.313 C 
BRANCH  13  14
HETATM   14  C4  UNL     1      26.265  -9.991 -14.097  1.00  0.00     0.210 C 
BRANCH  14  15
HETATM   15  C3  UNL     1      26.888 -11.253 -14.650  1.00  0.00     0.220 C 
BRANCH  15  16
HETATM   16  C2  UNL     1      27.775 -11.001 -15.822  1.00  0.00     0.154 C 
HETATM   17  C1  UNL     1      27.614 -11.700 -17.125  1.00  0.00     0.093 C 
HETATM   18  O1  UNL     1      28.672 -10.194 -15.723  1.00  0.00    -0.295 OA
ENDBRANCH  15  16
BRANCH  15  19
HETATM   19  O2  UNL     1      27.772 -11.669 -13.599  1.00  0.00    -0.385 OA
ATOM     20  H2  UNL     1      27.799 -12.617 -13.661  1.00  0.00     0.210 HD
ENDBRANCH  15  19
ENDBRANCH  14  15
BRANCH  14  21
HETATM   21  O3  UNL     1      26.404  -9.069 -15.176  1.00  0.00    -0.388 OA
ATOM     22  H3  UNL     1      27.143  -9.417 -15.659  1.00  0.00     0.210 HD
ENDBRANCH  14  21
ENDBRANCH  13  14
BRANCH  13  23
HETATM   23  O12 UNL     1      24.629 -11.438 -13.361  1.00  0.00    -0.221 OA
BRANCH  23  24
HETATM   24  S4  UNL     1      24.761 -11.791 -11.749  1.00  0.00     0.254 S 
HETATM   25  O13 UNL     1      24.640 -10.480 -10.988  1.00  0.00    -0.572 OA
HETATM   26  O14 UNL     1      26.055 -12.472 -11.419  1.00  0.00    -0.572 OA
HETATM   27  O15 UNL     1      23.436 -12.761 -11.319  1.00  0.00    -0.572 OA
ENDBRANCH  23  24
ENDBRANCH  13  23
ENDBRANCH  12  13
ENDBRANCH   1  12
BRANCH  10  28
HETATM   28  O11 UNL     1      21.506  -9.016 -14.798  1.00  0.00    -0.373 OA
ATOM     29  H11 UNL     1      22.325  -8.722 -14.417  1.00  0.00     0.212 HD
ENDBRANCH  10  28
BRANCH   9  30
HETATM   30  O10 UNL     1      23.128  -7.856 -15.919  1.00  0.00    -0.284 OA
HETATM   31  S3  UNL     1      24.221  -6.556 -16.092  1.00  0.00     0.095 SA
ENDBRANCH   9  30
BRANCH   7  32
HETATM   32  C15 UNL     1      20.819 -10.841 -18.747  1.00  0.00     0.222 C 
HETATM   33  O8  UNL     1      19.577 -10.857 -18.627  1.00  0.00    -0.643 OA
HETATM   34  O9  UNL     1      21.327 -12.004 -19.369  1.00  0.00    -0.643 OA
ENDBRANCH   7  32
BRANCH   6  35
HETATM   35  S1  UNL     1      21.215  -8.713 -20.976  1.00  0.00    -0.065 SA
BRANCH  35  36
HETATM   36  C11 UNL     1      21.452  -7.828 -22.534  1.00  0.00     0.149 A 
HETATM   37  N1  UNL     1      22.482  -7.962 -23.383  1.00  0.00    -0.325 N 
HETATM   38  C12 UNL     1      22.250  -7.116 -24.405  1.00  0.00     0.166 A 
ATOM     39  H1  UNL     1      23.285  -8.582 -23.276  1.00  0.00     0.169 HD
HETATM   40  C13 UNL     1      21.064  -6.479 -24.145  1.00  0.00     0.134 A 
HETATM   41  N3  UNL     1      20.565  -6.926 -22.974  1.00  0.00    -0.344 N 
ATOM     42  H3  UNL     1      19.698  -6.638 -22.521  1.00  0.00     0.167 HD
BRANCH  38  43
HETATM   43  S2  UNL     1      23.278  -6.873 -25.808  1.00  0.00     0.273 S 
HETATM   44  O6  UNL     1      24.683  -7.176 -25.443  1.00  0.00    -0.199 OA
HETATM   45  O7  UNL     1      22.768  -7.793 -26.883  1.00  0.00    -0.199 OA
BRANCH  43  46
HETATM   46  N2  UNL     1      23.058  -5.247 -26.337  1.00  0.00    -0.323 N 
ATOM     47  H22 UNL     1      23.346  -4.413 -25.825  1.00  0.00     0.169 HD
ATOM     48  H21 UNL     1      22.592  -5.280 -27.244  1.00  0.00     0.169 HD
ENDBRANCH  43  46
ENDBRANCH  38  43
ENDBRANCH  35  36
ENDBRANCH   6  35
TORSDOF 16
ENDMDL
MODEL 4
REMARK VINA RESULT: -7.976530104      2.031      2.958
REMARK  16 active torsions:
REMARK  status: ('A' for Active; 'I' for Inactive)
REMARK    1  A    between atoms: C2_2  and  C3_4 
REMARK    2  A    between atoms: C3_4  and  O2_5 
REMARK    3  A    between atoms: C3_4  and  C4_7 
REMARK    4  A    between atoms: C4_7  and  O3_8 
REMARK    5  A    between atoms: C4_7  and  C5_10 
REMARK    6  A    between atoms: C5_10  and  O4_11 
REMARK    7  A    between atoms: C5_10  and  O12_44 
REMARK    8  A    between atoms: O4_11  and  C6_12 
REMARK    9  A    between atoms: C10_17  and  S1_18 
REMARK   10  A    between atoms: S1_18  and  C11_19 
REMARK   11  A    between atoms: C12_22  and  S2_23 
REMARK   12  A    between atoms: S2_23  and  N2_24 
REMARK   13  A    between atoms: C14_32  and  C15_33 
REMARK   14  A    between atoms: C16_37  and  O10_38 
REMARK   15  A    between atoms: C17_40  and  O11_42 
REMARK   16  A    between atoms: O12_44  and  S4_45 
ROOT
HETATM    1  C6  UNL     1      23.402 -10.208 -15.520  1.00  0.00     0.207 C 
HETATM    2  C7  UNL     1      23.783  -9.959 -16.917  1.00  0.00     0.200 C 
HETATM    3  O5  UNL     1      24.823  -9.859 -17.631  1.00  0.00    -0.375 OA
HETATM    4  C8  UNL     1      24.352 -10.070 -18.969  1.00  0.00     0.209 C 
HETATM    5  C9  UNL     1      22.921  -9.756 -19.167  1.00  0.00     0.001 C 
HETATM    6  C10 UNL     1      22.677  -9.304 -20.389  1.00  0.00     0.064 C 
HETATM    7  C14 UNL     1      21.671  -9.824 -18.318  1.00  0.00     0.102 C 
HETATM    8  N4  UNL     1      21.716  -9.387 -17.011  1.00  0.00    -0.211 NA
HETATM    9  C16 UNL     1      23.018  -8.656 -17.053  1.00  0.00     0.252 C 
HETATM   10  C17 UNL     1      21.916 -10.018 -15.787  1.00  0.00     0.145 C 
HETATM   11  C18 UNL     1      21.124 -11.221 -15.402  1.00  0.00     0.067 C 
ENDROOT
BRANCH   1  12
HETATM   12  O4  UNL     1      23.993  -9.477 -14.572  1.00  0.00    -0.345 OA
BRANCH  12  13
HETATM   13  C5  UNL     1      24.888  -9.977 -13.710  1.00  0.00     0.313 C 
BRANCH  13  14
HETATM   14  C4  UNL     1      26.299  -9.812 -14.130  1.00  0.00     0.210 C 
BRANCH  14  15
HETATM   15  C3  UNL     1      27.041 -11.071 -14.521  1.00  0.00     0.220 C 
BRANCH  15  16
HETATM   16  C2  UNL     1      27.835 -10.914 -15.774  1.00  0.00     0.154 C 
HETATM   17  C1  UNL     1      27.594 -11.733 -16.992  1.00  0.00     0.093 C 
HETATM   18  O1  UNL     1      28.719 -10.089 -15.816  1.00  0.00    -0.295 OA
ENDBRANCH  15  16
BRANCH  15  19
HETATM   19  O2  UNL     1      28.017 -11.212 -13.479  1.00  0.00    -0.385 OA
ATOM     20  H2  UNL     1      28.296 -10.325 -13.283  1.00  0.00     0.210 HD
ENDBRANCH  15  19
ENDBRANCH  14  15
BRANCH  14  21
HETATM   21  O3  UNL     1      26.391  -9.010 -15.306  1.00  0.00    -0.388 OA
ATOM     22  H3  UNL     1      25.505  -8.683 -15.408  1.00  0.00     0.210 HD
ENDBRANCH  14  21
ENDBRANCH  13  14
BRANCH  13  23
HETATM   23  O12 UNL     1      24.725 -11.341 -13.424  1.00  0.00    -0.221 OA
BRANCH  23  24
HETATM   24  S4  UNL     1      24.821 -11.693 -11.809  1.00  0.00     0.254 S 
HETATM   25  O13 UNL     1      24.609 -10.394 -11.049  1.00  0.00    -0.572 OA
HETATM   26  O14 UNL     1      26.136 -12.309 -11.438  1.00  0.00    -0.572 OA
HETATM   27  O15 UNL     1      23.534 -12.732 -11.426  1.00  0.00    -0.572 OA
ENDBRANCH  23  24
ENDBRANCH  13  23
ENDBRANCH  12  13
ENDBRANCH   1  12
BRANCH  10  28
HETATM   28  O11 UNL     1      21.503  -9.042 -14.813  1.00  0.00    -0.373 OA
ATOM     29  H11 UNL     1      20.554  -9.066 -14.845  1.00  0.00     0.212 HD
ENDBRANCH  10  28
BRANCH   9  30
HETATM   30  O10 UNL     1      23.057  -7.835 -15.980  1.00  0.00    -0.284 OA
HETATM   31  S3  UNL     1      24.195  -6.572 -16.135  1.00  0.00     0.095 SA
ENDBRANCH   9  30
BRANCH   7  32
HETATM   32  C15 UNL     1      20.808 -10.940 -18.727  1.00  0.00     0.222 C 
HETATM   33  O8  UNL     1      19.569 -10.998 -18.588  1.00  0.00    -0.643 OA
HETATM   34  O9  UNL     1      21.349 -12.094 -19.337  1.00  0.00    -0.643 OA
ENDBRANCH   7  32
BRANCH   6  35
HETATM   35  S1  UNL     1      21.077  -8.825 -20.987  1.00  0.00    -0.065 SA
BRANCH  35  36
HETATM   36  C11 UNL     1      21.058  -8.879 -22.793  1.00  0.00     0.149 A 
HETATM   37  N1  UNL     1      20.538  -9.849 -23.561  1.00  0.00    -0.325 N 
HETATM   38  C12 UNL     1      20.746  -9.480 -24.839  1.00  0.00     0.166 A 
ATOM     39  H1  UNL     1      20.076 -10.699 -23.240  1.00  0.00     0.169 HD
HETATM   40  C13 UNL     1      21.399  -8.275 -24.814  1.00  0.00     0.134 A 
HETATM   41  N3  UNL     1      21.594  -7.900 -23.533  1.00  0.00    -0.344 N 
ATOM     42  H3  UNL     1      22.052  -7.051 -23.199  1.00  0.00     0.167 HD
BRANCH  38  43
HETATM   43  S2  UNL     1      20.270 -10.378 -26.271  1.00  0.00     0.273 S 
HETATM   44  O6  UNL     1      21.153  -9.999 -27.401  1.00  0.00    -0.199 OA
HETATM   45  O7  UNL     1      20.392 -11.836 -25.929  1.00  0.00    -0.199 OA
BRANCH  43  46
HETATM   46  N2  UNL     1      18.608 -10.029 -26.574  1.00  0.00    -0.323 N 
ATOM     47  H22 UNL     1      17.987  -9.518 -25.946  1.00  0.00     0.169 HD
ATOM     48  H21 UNL     1      18.373 -10.424 -27.483  1.00  0.00     0.169 HD
ENDBRANCH  43  46
ENDBRANCH  38  43
ENDBRANCH  35  36
ENDBRANCH   6  35
TORSDOF 16
ENDMDL
MODEL 5
REMARK VINA RESULT: -7.827662205      1.229      1.702
REMARK  16 active torsions:
REMARK  status: ('A' for Active; 'I' for Inactive)
REMARK    1  A    between atoms: C2_2  and  C3_4 
REMARK    2  A    between atoms: C3_4  and  O2_5 
REMARK    3  A    between atoms: C3_4  and  C4_7 
REMARK    4  A    between atoms: C4_7  and  O3_8 
REMARK    5  A    between atoms: C4_7  and  C5_10 
REMARK    6  A    between atoms: C5_10  and  O4_11 
REMARK    7  A    between atoms: C5_10  and  O12_44 
REMARK    8  A    between atoms: O4_11  and  C6_12 
REMARK    9  A    between atoms: C10_17  and  S1_18 
REMARK   10  A    between atoms: S1_18  and  C11_19 
REMARK   11  A    between atoms: C12_22  and  S2_23 
REMARK   12  A    between atoms: S2_23  and  N2_24 
REMARK   13  A    between atoms: C14_32  and  C15_33 
REMARK   14  A    between atoms: C16_37  and  O10_38 
REMARK   15  A    between atoms: C17_40  and  O11_42 
REMARK   16  A    between atoms: O12_44  and  S4_45 
ROOT
HETATM    1  C6  UNL     1      22.661 -10.712 -15.958  1.00  0.00     0.207 C 
HETATM    2  C7  UNL     1      23.261 -10.252 -17.218  1.00  0.00     0.200 C 
HETATM    3  O5  UNL     1      24.402 -10.051 -17.727  1.00  0.00    -0.375 OA
HETATM    4  C8  UNL     1      24.162 -10.048 -19.140  1.00  0.00     0.209 C 
HETATM    5  C9  UNL     1      22.777  -9.697 -19.521  1.00  0.00     0.001 C 
HETATM    6  C10 UNL     1      22.729  -9.059 -20.683  1.00  0.00     0.064 C 
HETATM    7  C14 UNL     1      21.406  -9.887 -18.911  1.00  0.00     0.102 C 
HETATM    8  N4  UNL     1      21.228  -9.658 -17.563  1.00  0.00    -0.211 NA
HETATM    9  C16 UNL     1      22.505  -8.939 -17.277  1.00  0.00     0.252 C 
HETATM   10  C17 UNL     1      21.235 -10.472 -16.435  1.00  0.00     0.145 C 
HETATM   11  C18 UNL     1      20.413 -11.715 -16.377  1.00  0.00     0.067 C 
ENDROOT
BRANCH   1  12
HETATM   12  O4  UNL     1      23.074 -10.142 -14.825  1.00  0.00    -0.345 OA
BRANCH  12  13
HETATM   13  C5  UNL     1      24.091 -10.615 -14.092  1.00  0.00     0.313 C 
BRANCH  13  14
HETATM   14  C4  UNL     1      23.761 -11.818 -13.293  1.00  0.00     0.210 C 
BRANCH  14  15
HETATM   15  C3  UNL     1      24.405 -13.116 -13.727  1.00  0.00     0.220 C 
BRANCH  15  16
HETATM   16  C2  UNL     1      25.884 -13.009 -13.883  1.00  0.00     0.154 C 
HETATM   17  C1  UNL     1      26.544 -12.775 -15.196  1.00  0.00     0.093 C 
HETATM   18  O1  UNL     1      26.592 -13.117 -12.908  1.00  0.00    -0.295 OA
ENDBRANCH  15  16
BRANCH  15  19
HETATM   19  O2  UNL     1      24.213 -13.971 -12.590  1.00  0.00    -0.385 OA
ATOM     20  H2  UNL     1      24.948 -14.573 -12.609  1.00  0.00     0.210 HD
ENDBRANCH  15  19
ENDBRANCH  14  15
BRANCH  14  21
HETATM   21  O3  UNL     1      24.208 -11.675 -11.947  1.00  0.00    -0.388 OA
ATOM     22  H3  UNL     1      24.949 -11.087 -12.031  1.00  0.00     0.210 HD
ENDBRANCH  14  21
ENDBRANCH  13  14
BRANCH  13  23
HETATM   23  O12 UNL     1      24.639  -9.690 -13.190  1.00  0.00    -0.221 OA
BRANCH  23  24
HETATM   24  S4  UNL     1      26.105  -9.088 -13.672  1.00  0.00     0.254 S 
HETATM   25  O13 UNL     1      26.199  -7.661 -13.155  1.00  0.00    -0.572 OA
HETATM   26  O14 UNL     1      26.271  -9.117 -15.161  1.00  0.00    -0.572 OA
HETATM   27  O15 UNL     1      27.317  -9.997 -12.906  1.00  0.00    -0.572 OA
ENDBRANCH  23  24
ENDBRANCH  13  23
ENDBRANCH  12  13
ENDBRANCH   1  12
BRANCH  10  28
HETATM   28  O11 UNL     1      20.650  -9.657 -15.404  1.00  0.00    -0.373 OA
ATOM     29  H11 UNL     1      20.405  -8.855 -15.851  1.00  0.00     0.212 HD
ENDBRANCH  10  28
BRANCH   9  30
HETATM   30  O10 UNL     1      22.352  -8.295 -16.098  1.00  0.00    -0.284 OA
HETATM   31  S3  UNL     1      23.513  -7.069 -15.841  1.00  0.00     0.095 SA
ENDBRANCH   9  30
BRANCH   7  32
HETATM   32  C15 UNL     1      20.643 -10.919 -19.624  1.00  0.00     0.222 C 
HETATM   33  O8  UNL     1      19.399 -11.007 -19.676  1.00  0.00    -0.643 OA
HETATM   34  O9  UNL     1      21.298 -11.948 -20.338  1.00  0.00    -0.643 OA
ENDBRANCH   7  32
BRANCH   6  35
HETATM   35  S1  UNL     1      21.241  -8.481 -21.455  1.00  0.00    -0.065 SA
BRANCH  35  36
HETATM   36  C11 UNL     1      21.645  -7.606 -22.984  1.00  0.00     0.149 A 
HETATM   37  N1  UNL     1      22.547  -7.978 -23.906  1.00  0.00    -0.325 N 
HETATM   38  C12 UNL     1      22.520  -7.038 -24.869  1.00  0.00     0.166 A 
ATOM     39  H1  UNL     1      23.137  -8.809 -23.881  1.00  0.00     0.169 HD
HETATM   40  C13 UNL     1      21.587  -6.104 -24.501  1.00  0.00     0.134 A 
HETATM   41  N3  UNL     1      21.041  -6.460 -23.321  1.00  0.00    -0.344 N 
ATOM     42  H3  UNL     1      20.320  -5.964 -22.797  1.00  0.00     0.167 HD
BRANCH  38  43
HETATM   43  S2  UNL     1      23.500  -7.015 -26.327  1.00  0.00     0.273 S 
HETATM   44  O6  UNL     1      24.912  -7.297 -25.971  1.00  0.00    -0.199 OA
HETATM   45  O7  UNL     1      22.934  -8.060 -27.246  1.00  0.00    -0.199 OA
BRANCH  43  46
HETATM   46  N2  UNL     1      23.292  -5.471 -27.067  1.00  0.00    -0.323 N 
ATOM     47  H22 UNL     1      22.595  -5.243 -27.776  1.00  0.00     0.169 HD
ATOM     48  H21 UNL     1      23.987  -4.843 -26.665  1.00  0.00     0.169 HD
ENDBRANCH  43  46
ENDBRANCH  38  43
ENDBRANCH  35  36
ENDBRANCH   6  35
TORSDOF 16
ENDMDL
