MODEL 1
REMARK VINA RESULT: -10.048239503      0.000      0.000
REMARK  14 active torsions:
REMARK  status: ('A' for Active; 'I' for Inactive)
REMARK       I    between atoms: C2_2  and  N1_4 
REMARK    1  A    between atoms: N1_4  and  C3_6 
REMARK    2  A    between atoms: C3_6  and  C4_7 
REMARK    3  A    between atoms: C3_6  and  C11_26 
REMARK    4  A    between atoms: C4_7  and  N2_8 
REMARK    5  A    between atoms: C5_9  and  C6_10 
REMARK    6  A    between atoms: C8_16  and  N4_17 
REMARK       I    between atoms: C11_26  and  N7_28 
REMARK    7  A    between atoms: N7_28  and  C12_30 
REMARK    8  A    between atoms: N11_37  and  C13_38 
REMARK    9  A    between atoms: C16_41  and  O5_42 
REMARK   10  A    between atoms: O5_42  and  S1_43 
REMARK   11  A    between atoms: C17_47  and  C18_48 
REMARK   12  A    between atoms: N14_53  and  C19_54 
REMARK   13  A    between atoms: C19_54  and  C20_55 
REMARK   14  A    between atoms: C20_55  and  O9_56 
ROOT
HETATM    1  C12 UNL     1      24.501 -10.174 -13.999  1.00  0.00     0.724 A 
HETATM    2  N8  UNL     1      25.134  -9.215 -13.205  1.00  0.00    -0.114 N 
ATOM      3  H8  UNL     1      25.994  -9.358 -12.676  1.00  0.00     0.207 HD
HETATM    4  N9  UNL     1      24.456  -8.119 -13.249  1.00  0.00    -0.213 N 
ATOM      5  H9  UNL     1      24.700  -7.259 -12.757  1.00  0.00     0.210 HD
HETATM    6  N10 UNL     1      23.415  -8.274 -14.012  1.00  0.00    -0.206 N 
ATOM      7  H10 UNL     1      22.712  -7.564 -14.216  1.00  0.00     0.211 HD
HETATM    8  N11 UNL     1      23.424  -9.536 -14.486  1.00  0.00    -0.069 N 
ENDROOT
BRANCH   1   9
HETATM    9  N7  UNL     1      24.949 -11.309 -14.155  1.00  0.00    -0.151 N 
HETATM   10  C11 UNL     1      25.382 -12.342 -14.875  1.00  0.00     0.284 C 
HETATM   11  O4  UNL     1      24.523 -13.003 -15.567  1.00  0.00    -0.265 OA
ATOM     12  H7  UNL     1      25.039 -11.649 -13.198  1.00  0.00     0.188 HD
BRANCH  10  13
HETATM   13  C3  UNL     1      26.820 -12.756 -14.917  1.00  0.00     0.099 C 
BRANCH  13  14
HETATM   14  N1  UNL     1      27.276 -13.485 -13.763  1.00  0.00    -0.325 N 
HETATM   15  C2  UNL     1      27.495 -12.842 -12.484  1.00  0.00     0.218 C 
HETATM   16  C1  UNL     1      27.961 -13.651 -11.317  1.00  0.00     0.117 C 
HETATM   17  O1  UNL     1      27.315 -11.619 -12.290  1.00  0.00    -0.274 OA
ATOM     18  H1  UNL     1      27.450 -14.486 -13.848  1.00  0.00     0.169 HD
ENDBRANCH  13  14
BRANCH  13  19
HETATM   19  C4  UNL     1      27.788 -11.915 -15.628  1.00  0.00     0.195 C 
BRANCH  19  20
HETATM   20  N2  UNL     1      27.542 -11.479 -16.958  1.00  0.00    -0.306 N 
HETATM   21  C5  UNL     1      26.971 -10.423 -17.466  1.00  0.00     0.188 A 
HETATM   22  N3  UNL     1      27.018 -10.504 -18.849  1.00  0.00    -0.331 N 
HETATM   23  C7  UNL     1      27.619 -11.620 -19.156  1.00  0.00     0.123 A 
ATOM     24  H3  UNL     1      26.649  -9.817 -19.507  1.00  0.00     0.168 HD
HETATM   25  C8  UNL     1      27.946 -12.250 -20.370  1.00  0.00     0.131 A 
HETATM   26  C10 UNL     1      27.964 -12.262 -18.020  1.00  0.00     0.141 A 
HETATM   27  N5  UNL     1      28.564 -13.423 -20.375  1.00  0.00    -0.337 N 
HETATM   28  C9  UNL     1      28.896 -14.047 -19.230  1.00  0.00     0.183 A 
ATOM     29  H5  UNL     1      28.793 -13.863 -21.267  1.00  0.00     0.168 HD
HETATM   30  N6  UNL     1      28.598 -13.467 -18.073  1.00  0.00    -0.336 N 
ATOM     31  H6  UNL     1      28.851 -13.935 -17.203  1.00  0.00     0.168 HD
BRANCH  21  32
HETATM   32  C6  UNL     1      26.279  -9.276 -16.843  1.00  0.00     0.245 C 
HETATM   33  O2  UNL     1      26.652  -8.919 -15.650  1.00  0.00    -0.642 OA
HETATM   34  O3  UNL     1      25.283  -8.522 -17.360  1.00  0.00    -0.642 OA
ENDBRANCH  21  32
BRANCH  25  35
HETATM   35  N4  UNL     1      27.641 -11.666 -21.473  1.00  0.00    -0.383 N 
ATOM     36  H42 UNL     1      26.933 -12.060 -22.092  1.00  0.00     0.157 HD
ATOM     37  H41 UNL     1      28.124 -10.803 -21.722  1.00  0.00     0.157 HD
ENDBRANCH  25  35
ENDBRANCH  19  20
ENDBRANCH  13  19
ENDBRANCH  10  13
ENDBRANCH   1   9
BRANCH   8  38
HETATM   38  C13 UNL     1      22.421 -10.029 -15.386  1.00  0.00     0.077 A 
HETATM   39  C14 UNL     1      21.555 -11.011 -14.959  1.00  0.00     0.035 A 
HETATM   40  C15 UNL     1      20.622 -11.558 -15.840  1.00  0.00     0.041 A 
HETATM   41  C16 UNL     1      20.605 -11.080 -17.131  1.00  0.00     0.106 A 
HETATM   42  C17 UNL     1      21.450 -10.110 -17.565  1.00  0.00     0.048 A 
HETATM   43  C21 UNL     1      22.388  -9.560 -16.679  1.00  0.00     0.050 A 
BRANCH  41  44
HETATM   44  O5  UNL     1      19.655 -11.656 -18.000  1.00  0.00    -0.213 OA
BRANCH  44  45
HETATM   45  S1  UNL     1      20.194 -12.856 -19.110  1.00  0.00     0.257 S 
HETATM   46  O6  UNL     1      18.957 -13.641 -19.481  1.00  0.00    -0.572 OA
HETATM   47  O7  UNL     1      21.194 -13.735 -18.406  1.00  0.00    -0.572 OA
HETATM   48  O8  UNL     1      20.846 -12.217 -20.499  1.00  0.00    -0.572 OA
ENDBRANCH  44  45
ENDBRANCH  41  44
BRANCH  42  49
HETATM   49  C18 UNL     1      21.428  -9.601 -18.944  1.00  0.00     0.150 A 
HETATM   50  N12 UNL     1      20.305  -9.204 -19.612  1.00  0.00    -0.268 N 
HETATM   51  N13 UNL     1      20.698  -8.812 -20.822  1.00  0.00    -0.224 N 
ATOM     52  H12 UNL     1      19.350  -9.208 -19.253  1.00  0.00     0.190 HD
HETATM   53  N14 UNL     1      21.989  -8.941 -20.940  1.00  0.00    -0.216 N 
ATOM     54  H13 UNL     1      20.079  -8.461 -21.552  1.00  0.00     0.210 HD
HETATM   55  N15 UNL     1      22.446  -9.430 -19.780  1.00  0.00    -0.266 N 
ATOM     56  H15 UNL     1      23.422  -9.638 -19.572  1.00  0.00     0.190 HD
BRANCH  53  57
HETATM   57  C19 UNL     1      22.778  -8.616 -22.100  1.00  0.00     0.197 C 
BRANCH  57  58
HETATM   58  C20 UNL     1      22.877  -9.755 -23.098  1.00  0.00     0.187 C 
BRANCH  58  59
HETATM   59  O9  UNL     1      22.114 -10.845 -22.697  1.00  0.00    -0.399 OA
ATOM     60  H9  UNL     1      22.248 -11.588 -23.271  1.00  0.00     0.209 HD
ENDBRANCH  58  59
ENDBRANCH  57  58
ENDBRANCH  53  57
ENDBRANCH  42  49
ENDBRANCH   8  38
TORSDOF 14
ENDMDL
MODEL 2
REMARK VINA RESULT: -9.843443124      3.373      8.917
REMARK  14 active torsions:
REMARK  status: ('A' for Active; 'I' for Inactive)
REMARK       I    between atoms: C2_2  and  N1_4 
REMARK    1  A    between atoms: N1_4  and  C3_6 
REMARK    2  A    between atoms: C3_6  and  C4_7 
REMARK    3  A    between atoms: C3_6  and  C11_26 
REMARK    4  A    between atoms: C4_7  and  N2_8 
REMARK    5  A    between atoms: C5_9  and  C6_10 
REMARK    6  A    between atoms: C8_16  and  N4_17 
REMARK       I    between atoms: C11_26  and  N7_28 
REMARK    7  A    between atoms: N7_28  and  C12_30 
REMARK    8  A    between atoms: N11_37  and  C13_38 
REMARK    9  A    between atoms: C16_41  and  O5_42 
REMARK   10  A    between atoms: O5_42  and  S1_43 
REMARK   11  A    between atoms: C17_47  and  C18_48 
REMARK   12  A    between atoms: N14_53  and  C19_54 
REMARK   13  A    between atoms: C19_54  and  C20_55 
REMARK   14  A    between atoms: C20_55  and  O9_56 
ROOT
HETATM    1  C12 UNL     1      19.981 -11.989 -19.415  1.00  0.00     0.724 A 
HETATM    2  N8  UNL     1      19.229 -13.130 -19.708  1.00  0.00    -0.114 N 
ATOM      3  H8  UNL     1      18.890 -13.393 -20.634  1.00  0.00     0.207 HD
HETATM    4  N9  UNL     1      19.034 -13.796 -18.622  1.00  0.00    -0.213 N 
ATOM      5  H9  UNL     1      18.515 -14.671 -18.557  1.00  0.00     0.210 HD
HETATM    6  N10 UNL     1      19.598 -13.185 -17.622  1.00  0.00    -0.206 N 
ATOM      7  H10 UNL     1      19.594 -13.497 -16.652  1.00  0.00     0.211 HD
HETATM    8  N11 UNL     1      20.189 -12.067 -18.090  1.00  0.00    -0.069 N 
ENDROOT
BRANCH   1   9
HETATM    9  N7  UNL     1      20.331 -11.184 -20.276  1.00  0.00    -0.151 N 
HETATM   10  C11 UNL     1      21.214 -10.432 -20.931  1.00  0.00     0.284 C 
HETATM   11  O4  UNL     1      21.713  -9.413 -20.325  1.00  0.00    -0.265 OA
ATOM     12  H7  UNL     1      19.457 -10.975 -20.758  1.00  0.00     0.188 HD
BRANCH  10  13
HETATM   13  C3  UNL     1      21.651 -10.729 -22.331  1.00  0.00     0.099 C 
BRANCH  13  14
HETATM   14  N1  UNL     1      23.076 -10.812 -22.518  1.00  0.00    -0.325 N 
HETATM   15  C2  UNL     1      23.787 -12.072 -22.465  1.00  0.00     0.218 C 
HETATM   16  C1  UNL     1      25.267 -12.099 -22.675  1.00  0.00     0.117 C 
HETATM   17  O1  UNL     1      23.226 -13.169 -22.247  1.00  0.00    -0.274 OA
ATOM     18  H1  UNL     1      23.602  -9.956 -22.694  1.00  0.00     0.169 HD
ENDBRANCH  13  14
BRANCH  13  19
HETATM   19  C4  UNL     1      20.836 -10.254 -23.454  1.00  0.00     0.195 C 
BRANCH  19  20
HETATM   20  N2  UNL     1      20.554  -8.871 -23.621  1.00  0.00    -0.306 N 
HETATM   21  C5  UNL     1      21.303  -7.809 -23.732  1.00  0.00     0.188 A 
HETATM   22  N3  UNL     1      20.490  -6.697 -23.890  1.00  0.00    -0.331 N 
HETATM   23  C7  UNL     1      19.254  -7.109 -23.868  1.00  0.00     0.123 A 
ATOM     24  H3  UNL     1      20.803  -5.733 -24.003  1.00  0.00     0.168 HD
HETATM   25  C8  UNL     1      18.007  -6.463 -23.965  1.00  0.00     0.131 A 
HETATM   26  C10 UNL     1      19.238  -8.448 -23.702  1.00  0.00     0.141 A 
HETATM   27  N5  UNL     1      16.881  -7.158 -23.892  1.00  0.00    -0.337 N 
HETATM   28  C9  UNL     1      16.890  -8.494 -23.724  1.00  0.00     0.183 A 
ATOM     29  H5  UNL     1      15.989  -6.670 -23.965  1.00  0.00     0.168 HD
HETATM   30  N6  UNL     1      18.055  -9.123 -23.633  1.00  0.00    -0.336 N 
ATOM     31  H6  UNL     1      18.066 -10.135 -23.509  1.00  0.00     0.168 HD
BRANCH  21  32
HETATM   32  C6  UNL     1      22.766  -7.617 -23.656  1.00  0.00     0.245 C 
HETATM   33  O2  UNL     1      23.332  -7.726 -22.491  1.00  0.00    -0.642 OA
HETATM   34  O3  UNL     1      23.624  -7.339 -24.664  1.00  0.00    -0.642 OA
ENDBRANCH  21  32
BRANCH  25  35
HETATM   35  N4  UNL     1      17.982  -5.190 -24.131  1.00  0.00    -0.383 N 
ATOM     36  H42 UNL     1      17.324  -4.763 -24.784  1.00  0.00     0.157 HD
ATOM     37  H41 UNL     1      18.634  -4.612 -23.601  1.00  0.00     0.157 HD
ENDBRANCH  25  35
ENDBRANCH  19  20
ENDBRANCH  13  19
ENDBRANCH  10  13
ENDBRANCH   1   9
BRANCH   8  38
HETATM   38  C13 UNL     1      20.927 -11.174 -17.245  1.00  0.00     0.077 A 
HETATM   39  C14 UNL     1      20.643  -9.827 -17.276  1.00  0.00     0.035 A 
HETATM   40  C15 UNL     1      21.399  -8.930 -16.519  1.00  0.00     0.041 A 
HETATM   41  C16 UNL     1      22.421  -9.444 -15.753  1.00  0.00     0.106 A 
HETATM   42  C17 UNL     1      22.710 -10.770 -15.710  1.00  0.00     0.048 A 
HETATM   43  C21 UNL     1      21.950 -11.670 -16.471  1.00  0.00     0.050 A 
BRANCH  41  44
HETATM   44  O5  UNL     1      23.171  -8.514 -15.003  1.00  0.00    -0.213 OA
BRANCH  44  45
HETATM   45  S1  UNL     1      24.570  -7.825 -15.732  1.00  0.00     0.257 S 
HETATM   46  O6  UNL     1      25.720  -8.204 -14.828  1.00  0.00    -0.572 OA
HETATM   47  O7  UNL     1      24.392  -6.330 -15.772  1.00  0.00    -0.572 OA
HETATM   48  O8  UNL     1      24.878  -8.423 -17.252  1.00  0.00    -0.572 OA
ENDBRANCH  44  45
ENDBRANCH  41  44
BRANCH  42  49
HETATM   49  C18 UNL     1      23.802 -11.316 -14.891  1.00  0.00     0.150 A 
HETATM   50  N12 UNL     1      24.440 -12.499 -15.130  1.00  0.00    -0.268 N 
HETATM   51  N13 UNL     1      25.358 -12.639 -14.175  1.00  0.00    -0.224 N 
ATOM     52  H12 UNL     1      24.252 -13.150 -15.893  1.00  0.00     0.190 HD
HETATM   53  N14 UNL     1      25.325 -11.619 -13.366  1.00  0.00    -0.216 N 
ATOM     54  H13 UNL     1      25.995 -13.430 -14.089  1.00  0.00     0.210 HD
HETATM   55  N15 UNL     1      24.362 -10.797 -13.804  1.00  0.00    -0.266 N 
ATOM     56  H15 UNL     1      24.100  -9.911 -13.370  1.00  0.00     0.190 HD
BRANCH  53  57
HETATM   57  C19 UNL     1      26.167 -11.411 -12.217  1.00  0.00     0.197 C 
BRANCH  57  58
HETATM   58  C20 UNL     1      25.784 -10.189 -11.404  1.00  0.00     0.187 C 
BRANCH  58  59
HETATM   59  O9  UNL     1      26.143  -9.017 -12.057  1.00  0.00    -0.399 OA
ATOM     60  H9  UNL     1      25.400  -8.432 -12.147  1.00  0.00     0.209 HD
ENDBRANCH  58  59
ENDBRANCH  57  58
ENDBRANCH  53  57
ENDBRANCH  42  49
ENDBRANCH   8  38
TORSDOF 14
ENDMDL
MODEL 3
REMARK VINA RESULT: -9.668715923      3.220      5.386
REMARK  14 active torsions:
REMARK  status: ('A' for Active; 'I' for Inactive)
REMARK       I    between atoms: C2_2  and  N1_4 
REMARK    1  A    between atoms: N1_4  and  C3_6 
REMARK    2  A    between atoms: C3_6  and  C4_7 
REMARK    3  A    between atoms: C3_6  and  C11_26 
REMARK    4  A    between atoms: C4_7  and  N2_8 
REMARK    5  A    between atoms: C5_9  and  C6_10 
REMARK    6  A    between atoms: C8_16  and  N4_17 
REMARK       I    between atoms: C11_26  and  N7_28 
REMARK    7  A    between atoms: N7_28  and  C12_30 
REMARK    8  A    between atoms: N11_37  and  C13_38 
REMARK    9  A    between atoms: C16_41  and  O5_42 
REMARK   10  A    between atoms: O5_42  and  S1_43 
REMARK   11  A    between atoms: C17_47  and  C18_48 
REMARK   12  A    between atoms: N14_53  and  C19_54 
REMARK   13  A    between atoms: C19_54  and  C20_55 
REMARK   14  A    between atoms: C20_55  and  O9_56 
ROOT
HETATM    1  C12 UNL     1      21.277 -11.258 -18.311  1.00  0.00     0.724 A 
HETATM    2  N8  UNL     1      20.580 -12.043 -17.389  1.00  0.00    -0.114 N 
ATOM      3  H8  UNL     1      20.786 -12.109 -16.392  1.00  0.00     0.207 HD
HETATM    4  N9  UNL     1      19.634 -12.670 -18.000  1.00  0.00    -0.213 N 
ATOM      5  H9  UNL     1      18.973 -13.309 -17.558  1.00  0.00     0.210 HD
HETATM    6  N10 UNL     1      19.647 -12.364 -19.264  1.00  0.00    -0.206 N 
ATOM      7  H10 UNL     1      19.006 -12.722 -19.972  1.00  0.00     0.211 HD
HETATM    8  N11 UNL     1      20.654 -11.494 -19.477  1.00  0.00    -0.069 N 
ENDROOT
BRANCH   1   9
HETATM    9  N7  UNL     1      22.220 -10.536 -17.992  1.00  0.00    -0.151 N 
HETATM   10  C11 UNL     1      22.894  -9.731 -17.173  1.00  0.00     0.284 C 
HETATM   11  O4  UNL     1      22.421  -8.556 -16.950  1.00  0.00    -0.265 OA
ATOM     12  H7  UNL     1      22.822 -10.576 -18.813  1.00  0.00     0.188 HD
BRANCH  10  13
HETATM   13  C3  UNL     1      24.167 -10.139 -16.500  1.00  0.00     0.099 C 
BRANCH  13  14
HETATM   14  N1  UNL     1      24.026 -10.540 -15.125  1.00  0.00    -0.325 N 
HETATM   15  C2  UNL     1      24.184 -11.917 -14.706  1.00  0.00     0.218 C 
HETATM   16  C1  UNL     1      24.035 -12.275 -13.262  1.00  0.00     0.117 C 
HETATM   17  O1  UNL     1      24.443 -12.852 -15.496  1.00  0.00    -0.274 OA
ATOM     18  H1  UNL     1      23.808  -9.833 -14.424  1.00  0.00     0.169 HD
ENDBRANCH  13  14
BRANCH  13  19
HETATM   19  C4  UNL     1      25.428  -9.512 -16.909  1.00  0.00     0.195 C 
BRANCH  19  20
HETATM   20  N2  UNL     1      26.677 -10.133 -16.638  1.00  0.00    -0.306 N 
HETATM   21  C5  UNL     1      27.387 -10.288 -15.555  1.00  0.00     0.188 A 
HETATM   22  N3  UNL     1      28.537 -10.996 -15.867  1.00  0.00    -0.331 N 
HETATM   23  C7  UNL     1      28.504 -11.257 -17.143  1.00  0.00     0.123 A 
ATOM     24  H3  UNL     1      29.275 -11.265 -15.215  1.00  0.00     0.168 HD
HETATM   25  C8  UNL     1      29.375 -11.920 -18.028  1.00  0.00     0.131 A 
HETATM   26  C10 UNL     1      27.372 -10.743 -17.669  1.00  0.00     0.141 A 
HETATM   27  N5  UNL     1      29.078 -12.021 -19.315  1.00  0.00    -0.337 N 
HETATM   28  C9  UNL     1      27.944 -11.499 -19.818  1.00  0.00     0.183 A 
ATOM     29  H5  UNL     1      29.723 -12.507 -19.939  1.00  0.00     0.168 HD
HETATM   30  N6  UNL     1      27.108 -10.872 -19.000  1.00  0.00    -0.336 N 
ATOM     31  H6  UNL     1      26.246 -10.477 -19.377  1.00  0.00     0.168 HD
BRANCH  21  32
HETATM   32  C6  UNL     1      27.199  -9.806 -14.172  1.00  0.00     0.245 C 
HETATM   33  O2  UNL     1      27.865 -10.401 -13.227  1.00  0.00    -0.642 OA
HETATM   34  O3  UNL     1      26.408  -8.798 -13.740  1.00  0.00    -0.642 OA
ENDBRANCH  21  32
BRANCH  25  35
HETATM   35  N4  UNL     1      30.459 -12.429 -17.563  1.00  0.00    -0.383 N 
ATOM     36  H42 UNL     1      30.502 -12.777 -16.605  1.00  0.00     0.157 HD
ATOM     37  H41 UNL     1      31.279 -12.475 -18.168  1.00  0.00     0.157 HD
ENDBRANCH  25  35
ENDBRANCH  19  20
ENDBRANCH  13  19
ENDBRANCH  10  13
ENDBRANCH   1   9
BRANCH   8  38
HETATM   38  C13 UNL     1      20.928 -10.934 -20.770  1.00  0.00     0.077 A 
HETATM   39  C14 UNL     1      22.134 -11.201 -21.378  1.00  0.00     0.035 A 
HETATM   40  C15 UNL     1      22.453 -10.606 -22.599  1.00  0.00     0.041 A 
HETATM   41  C16 UNL     1      21.524  -9.758 -23.159  1.00  0.00     0.106 A 
HETATM   42  C17 UNL     1      20.329  -9.489 -22.573  1.00  0.00     0.048 A 
HETATM   43  C21 UNL     1      20.010 -10.087 -21.345  1.00  0.00     0.050 A 
BRANCH  41  44
HETATM   44  O5  UNL     1      21.876  -9.168 -24.391  1.00  0.00    -0.213 OA
BRANCH  44  45
HETATM   45  S1  UNL     1      22.965  -7.836 -24.370  1.00  0.00     0.257 S 
HETATM   46  O6  UNL     1      22.134  -6.632 -24.751  1.00  0.00    -0.572 OA
HETATM   47  O7  UNL     1      24.040  -8.089 -25.394  1.00  0.00    -0.572 OA
HETATM   48  O8  UNL     1      23.632  -7.559 -22.872  1.00  0.00    -0.572 OA
ENDBRANCH  44  45
ENDBRANCH  41  44
BRANCH  42  49
HETATM   49  C18 UNL     1      19.339  -8.584 -23.173  1.00  0.00     0.150 A 
HETATM   50  N12 UNL     1      18.089  -8.955 -23.580  1.00  0.00    -0.268 N 
HETATM   51  N13 UNL     1      17.504  -7.861 -24.065  1.00  0.00    -0.224 N 
ATOM     52  H12 UNL     1      17.682  -9.889 -23.524  1.00  0.00     0.190 HD
HETATM   53  N14 UNL     1      18.312  -6.844 -23.981  1.00  0.00    -0.216 N 
ATOM     54  H13 UNL     1      16.559  -7.825 -24.446  1.00  0.00     0.210 HD
HETATM   55  N15 UNL     1      19.450  -7.286 -23.430  1.00  0.00    -0.266 N 
ATOM     56  H15 UNL     1      20.273  -6.715 -23.239  1.00  0.00     0.190 HD
BRANCH  53  57
HETATM   57  C19 UNL     1      18.034  -5.494 -24.399  1.00  0.00     0.197 C 
BRANCH  57  58
HETATM   58  C20 UNL     1      19.223  -4.564 -24.258  1.00  0.00     0.187 C 
BRANCH  58  59
HETATM   59  O9  UNL     1      18.905  -3.274 -24.666  1.00  0.00    -0.399 OA
ATOM     60  H9  UNL     1      19.393  -2.626 -24.172  1.00  0.00     0.209 HD
ENDBRANCH  58  59
ENDBRANCH  57  58
ENDBRANCH  53  57
ENDBRANCH  42  49
ENDBRANCH   8  38
TORSDOF 14
ENDMDL
MODEL 4
REMARK VINA RESULT: -9.642770714      2.959      5.863
REMARK  14 active torsions:
REMARK  status: ('A' for Active; 'I' for Inactive)
REMARK       I    between atoms: C2_2  and  N1_4 
REMARK    1  A    between atoms: N1_4  and  C3_6 
REMARK    2  A    between atoms: C3_6  and  C4_7 
REMARK    3  A    between atoms: C3_6  and  C11_26 
REMARK    4  A    between atoms: C4_7  and  N2_8 
REMARK    5  A    between atoms: C5_9  and  C6_10 
REMARK    6  A    between atoms: C8_16  and  N4_17 
REMARK       I    between atoms: C11_26  and  N7_28 
REMARK    7  A    between atoms: N7_28  and  C12_30 
REMARK    8  A    between atoms: N11_37  and  C13_38 
REMARK    9  A    between atoms: C16_41  and  O5_42 
REMARK   10  A    between atoms: O5_42  and  S1_43 
REMARK   11  A    between atoms: C17_47  and  C18_48 
REMARK   12  A    between atoms: N14_53  and  C19_54 
REMARK   13  A    between atoms: C19_54  and  C20_55 
REMARK   14  A    between atoms: C20_55  and  O9_56 
ROOT
HETATM    1  C12 UNL     1      22.572  -9.311 -17.944  1.00  0.00     0.724 A 
HETATM    2  N8  UNL     1      21.761  -8.932 -16.872  1.00  0.00    -0.114 N 
ATOM      3  H8  UNL     1      22.089  -8.700 -15.934  1.00  0.00     0.207 HD
HETATM    4  N9  UNL     1      20.531  -8.924 -17.257  1.00  0.00    -0.213 N 
ATOM      5  H9  UNL     1      19.734  -8.682 -16.668  1.00  0.00     0.210 HD
HETATM    6  N10 UNL     1      20.458  -9.271 -18.508  1.00  0.00    -0.206 N 
ATOM      7  H10 UNL     1      19.603  -9.346 -19.058  1.00  0.00     0.211 HD
HETATM    8  N11 UNL     1      21.707  -9.513 -18.952  1.00  0.00    -0.069 N 
ENDROOT
BRANCH   1   9
HETATM    9  N7  UNL     1      23.797  -9.380 -17.860  1.00  0.00    -0.151 N 
HETATM   10  C11 UNL     1      24.974  -9.191 -17.265  1.00  0.00     0.284 C 
HETATM   11  O4  UNL     1      25.421  -7.989 -17.169  1.00  0.00    -0.265 OA
ATOM     12  H7  UNL     1      24.057  -9.835 -18.734  1.00  0.00     0.188 HD
BRANCH  10  13
HETATM   13  C3  UNL     1      25.787 -10.314 -16.701  1.00  0.00     0.099 C 
BRANCH  13  14
HETATM   14  N1  UNL     1      26.812 -10.821 -17.575  1.00  0.00    -0.325 N 
HETATM   15  C2  UNL     1      28.180 -10.996 -17.136  1.00  0.00     0.218 C 
HETATM   16  C1  UNL     1      29.202 -11.535 -18.085  1.00  0.00     0.117 C 
HETATM   17  O1  UNL     1      28.573 -10.716 -15.981  1.00  0.00    -0.274 OA
ATOM     18  H1  UNL     1      26.567 -11.065 -18.535  1.00  0.00     0.169 HD
ENDBRANCH  13  14
BRANCH  13  19
HETATM   19  C4  UNL     1      25.163 -11.247 -15.757  1.00  0.00     0.195 C 
BRANCH  19  20
HETATM   20  N2  UNL     1      25.212 -11.013 -14.356  1.00  0.00    -0.306 N 
HETATM   21  C5  UNL     1      24.852 -10.013 -13.600  1.00  0.00     0.188 A 
HETATM   22  N3  UNL     1      25.120 -10.329 -12.277  1.00  0.00    -0.331 N 
HETATM   23  C7  UNL     1      25.645 -11.521 -12.256  1.00  0.00     0.123 A 
ATOM     24  H3  UNL     1      24.939  -9.735 -11.467  1.00  0.00     0.168 HD
HETATM   25  C8  UNL     1      26.127 -12.358 -11.233  1.00  0.00     0.131 A 
HETATM   26  C10 UNL     1      25.725 -11.990 -13.519  1.00  0.00     0.141 A 
HETATM   27  N5  UNL     1      26.635 -13.548 -11.520  1.00  0.00    -0.337 N 
HETATM   28  C9  UNL     1      26.707 -13.994 -12.788  1.00  0.00     0.183 A 
ATOM     29  H5  UNL     1      26.978 -14.140 -10.763  1.00  0.00     0.168 HD
HETATM   30  N6  UNL     1      26.255 -13.221 -13.768  1.00  0.00    -0.336 N 
ATOM     31  H6  UNL     1      26.305 -13.556 -14.729  1.00  0.00     0.168 HD
BRANCH  21  32
HETATM   32  C6  UNL     1      24.305  -8.678 -13.918  1.00  0.00     0.245 C 
HETATM   33  O2  UNL     1      25.114  -7.662 -13.856  1.00  0.00    -0.642 OA
HETATM   34  O3  UNL     1      23.042  -8.359 -14.279  1.00  0.00    -0.642 OA
ENDBRANCH  21  32
BRANCH  25  35
HETATM   35  N4  UNL     1      26.061 -11.950 -10.017  1.00  0.00    -0.383 N 
ATOM     36  H42 UNL     1      25.218 -12.100  -9.463  1.00  0.00     0.157 HD
ATOM     37  H41 UNL     1      26.866 -11.468  -9.616  1.00  0.00     0.157 HD
ENDBRANCH  25  35
ENDBRANCH  19  20
ENDBRANCH  13  19
ENDBRANCH  10  13
ENDBRANCH   1   9
BRANCH   8  38
HETATM   38  C13 UNL     1      21.984  -9.894 -20.308  1.00  0.00     0.077 A 
HETATM   39  C14 UNL     1      21.934 -11.225 -20.657  1.00  0.00     0.035 A 
HETATM   40  C15 UNL     1      22.272 -11.626 -21.950  1.00  0.00     0.041 A 
HETATM   41  C16 UNL     1      22.650 -10.649 -22.844  1.00  0.00     0.106 A 
HETATM   42  C17 UNL     1      22.701  -9.333 -22.514  1.00  0.00     0.048 A 
HETATM   43  C21 UNL     1      22.360  -8.931 -21.214  1.00  0.00     0.050 A 
BRANCH  41  44
HETATM   44  O5  UNL     1      22.992 -11.084 -24.141  1.00  0.00    -0.213 OA
BRANCH  44  45
HETATM   45  S1  UNL     1      21.853 -10.834 -25.407  1.00  0.00     0.257 S 
HETATM   46  O6  UNL     1      22.334  -9.604 -26.141  1.00  0.00    -0.572 OA
HETATM   47  O7  UNL     1      20.502 -10.591 -24.785  1.00  0.00    -0.572 OA
HETATM   48  O8  UNL     1      21.786 -12.097 -26.486  1.00  0.00    -0.572 OA
ENDBRANCH  44  45
ENDBRANCH  41  44
BRANCH  42  49
HETATM   49  C18 UNL     1      23.103  -8.292 -23.470  1.00  0.00     0.150 A 
HETATM   50  N12 UNL     1      24.312  -8.239 -24.103  1.00  0.00    -0.268 N 
HETATM   51  N13 UNL     1      24.291  -7.157 -24.880  1.00  0.00    -0.224 N 
ATOM     52  H12 UNL     1      25.083  -8.900 -24.000  1.00  0.00     0.190 HD
HETATM   53  N14 UNL     1      23.148  -6.545 -24.766  1.00  0.00    -0.216 N 
ATOM     54  H13 UNL     1      25.058  -6.853 -25.478  1.00  0.00     0.210 HD
HETATM   55  N15 UNL     1      22.409  -7.242 -23.894  1.00  0.00    -0.266 N 
ATOM     56  H15 UNL     1      21.461  -7.003 -23.600  1.00  0.00     0.190 HD
BRANCH  53  57
HETATM   57  C19 UNL     1      22.750  -5.342 -25.452  1.00  0.00     0.197 C 
BRANCH  57  58
HETATM   58  C20 UNL     1      23.084  -5.356 -26.932  1.00  0.00     0.187 C 
BRANCH  58  59
HETATM   59  O9  UNL     1      24.356  -4.848 -27.166  1.00  0.00    -0.399 OA
ATOM     60  H9  UNL     1      24.507  -4.713 -28.094  1.00  0.00     0.209 HD
ENDBRANCH  58  59
ENDBRANCH  57  58
ENDBRANCH  53  57
ENDBRANCH  42  49
ENDBRANCH   8  38
TORSDOF 14
ENDMDL
MODEL 5
REMARK VINA RESULT: -9.614062855      2.718      7.994
REMARK  14 active torsions:
REMARK  status: ('A' for Active; 'I' for Inactive)
REMARK       I    between atoms: C2_2  and  N1_4 
REMARK    1  A    between atoms: N1_4  and  C3_6 
REMARK    2  A    between atoms: C3_6  and  C4_7 
REMARK    3  A    between atoms: C3_6  and  C11_26 
REMARK    4  A    between atoms: C4_7  and  N2_8 
REMARK    5  A    between atoms: C5_9  and  C6_10 
REMARK    6  A    between atoms: C8_16  and  N4_17 
REMARK       I    between atoms: C11_26  and  N7_28 
REMARK    7  A    between atoms: N7_28  and  C12_30 
REMARK    8  A    between atoms: N11_37  and  C13_38 
REMARK    9  A    between atoms: C16_41  and  O5_42 
REMARK   10  A    between atoms: O5_42  and  S1_43 
REMARK   11  A    between atoms: C17_47  and  C18_48 
REMARK   12  A    between atoms: N14_53  and  C19_54 
REMARK   13  A    between atoms: C19_54  and  C20_55 
REMARK   14  A    between atoms: C20_55  and  O9_56 
ROOT
HETATM    1  C12 UNL     1      21.527  -9.897 -18.862  1.00  0.00     0.724 A 
HETATM    2  N8  UNL     1      20.180  -9.541 -18.952  1.00  0.00    -0.114 N 
ATOM      3  H8  UNL     1      19.581  -9.687 -19.765  1.00  0.00     0.207 HD
HETATM    4  N9  UNL     1      19.813  -8.997 -17.842  1.00  0.00    -0.213 N 
ATOM      5  H9  UNL     1      18.876  -8.647 -17.642  1.00  0.00     0.210 HD
HETATM    6  N10 UNL     1      20.817  -8.962 -17.016  1.00  0.00    -0.206 N 
ATOM      7  H10 UNL     1      20.799  -8.582 -16.070  1.00  0.00     0.211 HD
HETATM    8  N11 UNL     1      21.885  -9.513 -17.626  1.00  0.00    -0.069 N 
ENDROOT
BRANCH   1   9
HETATM    9  N7  UNL     1      22.129 -10.458 -19.777  1.00  0.00    -0.151 N 
HETATM   10  C11 UNL     1      22.223 -11.214 -20.869  1.00  0.00     0.284 C 
HETATM   11  O4  UNL     1      22.008 -12.477 -20.755  1.00  0.00    -0.265 OA
ATOM     12  H7  UNL     1      23.100 -10.199 -19.598  1.00  0.00     0.188 HD
BRANCH  10  13
HETATM   13  C3  UNL     1      22.559 -10.654 -22.216  1.00  0.00     0.099 C 
BRANCH  13  14
HETATM   14  N1  UNL     1      21.441 -10.515 -23.112  1.00  0.00    -0.325 N 
HETATM   15  C2  UNL     1      20.401  -9.531 -22.896  1.00  0.00     0.218 C 
HETATM   16  C1  UNL     1      19.267  -9.425 -23.864  1.00  0.00     0.117 C 
HETATM   17  O1  UNL     1      20.390  -8.743 -21.924  1.00  0.00    -0.274 OA
ATOM     18  H1  UNL     1      21.379 -11.128 -23.924  1.00  0.00     0.169 HD
ENDBRANCH  13  14
BRANCH  13  19
HETATM   19  C4  UNL     1      23.878 -10.925 -22.797  1.00  0.00     0.195 C 
BRANCH  19  20
HETATM   20  N2  UNL     1      24.368 -12.254 -22.914  1.00  0.00    -0.306 N 
HETATM   21  C5  UNL     1      23.940 -13.317 -23.537  1.00  0.00     0.188 A 
HETATM   22  N3  UNL     1      24.830 -14.357 -23.318  1.00  0.00    -0.331 N 
HETATM   23  C7  UNL     1      25.785 -13.903 -22.557  1.00  0.00     0.123 A 
ATOM     24  H3  UNL     1      24.751 -15.306 -23.685  1.00  0.00     0.168 HD
HETATM   25  C8  UNL     1      26.942 -14.475 -21.995  1.00  0.00     0.131 A 
HETATM   26  C10 UNL     1      25.546 -12.605 -22.277  1.00  0.00     0.141 A 
HETATM   27  N5  UNL     1      27.744 -13.753 -21.226  1.00  0.00    -0.337 N 
HETATM   28  C9  UNL     1      27.484 -12.460 -20.958  1.00  0.00     0.183 A 
ATOM     29  H5  UNL     1      28.578 -14.187 -20.829  1.00  0.00     0.168 HD
HETATM   30  N6  UNL     1      26.400 -11.901 -21.481  1.00  0.00    -0.336 N 
ATOM     31  H6  UNL     1      26.201 -10.920 -21.283  1.00  0.00     0.168 HD
BRANCH  21  32
HETATM   32  C6  UNL     1      22.718 -13.578 -24.325  1.00  0.00     0.245 C 
HETATM   33  O2  UNL     1      22.186 -14.762 -24.244  1.00  0.00    -0.642 OA
HETATM   34  O3  UNL     1      22.055 -12.729 -25.141  1.00  0.00    -0.642 OA
ENDBRANCH  21  32
BRANCH  25  35
HETATM   35  N4  UNL     1      27.207 -15.707 -22.245  1.00  0.00    -0.383 N 
ATOM     36  H42 UNL     1      27.605 -15.981 -23.143  1.00  0.00     0.157 HD
ATOM     37  H41 UNL     1      27.009 -16.407 -21.530  1.00  0.00     0.157 HD
ENDBRANCH  25  35
ENDBRANCH  19  20
ENDBRANCH  13  19
ENDBRANCH  10  13
ENDBRANCH   1   9
BRANCH   8  38
HETATM   38  C13 UNL     1      23.156  -9.655 -16.975  1.00  0.00     0.077 A 
HETATM   39  C14 UNL     1      24.242  -8.961 -17.460  1.00  0.00     0.035 A 
HETATM   40  C15 UNL     1      25.503  -9.141 -16.891  1.00  0.00     0.041 A 
HETATM   41  C16 UNL     1      25.610 -10.026 -15.842  1.00  0.00     0.106 A 
HETATM   42  C17 UNL     1      24.548 -10.715 -15.351  1.00  0.00     0.048 A 
HETATM   43  C21 UNL     1      23.280 -10.533 -15.924  1.00  0.00     0.050 A 
BRANCH  41  44
HETATM   44  O5  UNL     1      26.897 -10.193 -15.290  1.00  0.00    -0.213 OA
BRANCH  44  45
HETATM   45  S1  UNL     1      27.885 -11.462 -15.903  1.00  0.00     0.257 S 
HETATM   46  O6  UNL     1      28.080 -12.413 -14.744  1.00  0.00    -0.572 OA
HETATM   47  O7  UNL     1      29.201 -10.870 -16.336  1.00  0.00    -0.572 OA
HETATM   48  O8  UNL     1      27.175 -12.298 -17.153  1.00  0.00    -0.572 OA
ENDBRANCH  44  45
ENDBRANCH  41  44
BRANCH  42  49
HETATM   49  C18 UNL     1      24.664 -11.659 -14.231  1.00  0.00     0.150 A 
HETATM   50  N12 UNL     1      23.952 -12.818 -14.110  1.00  0.00    -0.268 N 
HETATM   51  N13 UNL     1      24.339 -13.387 -12.969  1.00  0.00    -0.224 N 
ATOM     52  H12 UNL     1      23.258 -13.178 -14.766  1.00  0.00     0.190 HD
HETATM   53  N14 UNL     1      25.242 -12.654 -12.384  1.00  0.00    -0.216 N 
ATOM     54  H13 UNL     1      23.980 -14.270 -12.607  1.00  0.00     0.210 HD
HETATM   55  N15 UNL     1      25.446 -11.582 -13.160  1.00  0.00    -0.266 N 
ATOM     56  H15 UNL     1      26.100 -10.825 -12.960  1.00  0.00     0.190 HD
BRANCH  53  57
HETATM   57  C19 UNL     1      25.900 -12.943 -11.136  1.00  0.00     0.197 C 
BRANCH  57  58
HETATM   58  C20 UNL     1      27.184 -13.734 -11.302  1.00  0.00     0.187 C 
BRANCH  58  59
HETATM   59  O9  UNL     1      27.370 -14.120 -12.623  1.00  0.00    -0.399 OA
ATOM     60  H9  UNL     1      28.232 -14.498 -12.753  1.00  0.00     0.209 HD
ENDBRANCH  58  59
ENDBRANCH  57  58
ENDBRANCH  53  57
ENDBRANCH  42  49
ENDBRANCH   8  38
TORSDOF 14
ENDMDL
