MODEL 1
REMARK VINA RESULT: -8.178844293      0.000      0.000
REMARK  2 active torsions:
REMARK  status: ('A' for Active; 'I' for Inactive)
REMARK    1  A    between atoms: C2_2  and  N1_3 
REMARK    2  A    between atoms: N2_9  and  C8_10 
ROOT
HETATM    1  N1  UNL     1     -19.300   3.423  11.544  1.00  0.00     0.090 N 
HETATM    2  C3  UNL     1     -19.220   3.886  10.185  1.00  0.00     0.273 C 
HETATM    3  C4  UNL     1     -18.274   5.011   9.963  1.00  0.00     0.040 C 
HETATM    4  C5  UNL     1     -16.905   4.812  10.537  1.00  0.00    -0.028 C 
HETATM    5  C6  UNL     1     -16.425   3.443  10.163  1.00  0.00     0.040 C 
HETATM    6  C7  UNL     1     -14.984   3.182  10.520  1.00  0.00     0.273 C 
HETATM    7  N2  UNL     1     -14.132   4.324  10.366  1.00  0.00     0.093 N 
HETATM    8  C13 UNL     1     -14.695   5.208   9.396  1.00  0.00     0.273 C 
HETATM    9  C14 UNL     1     -16.004   5.808   9.800  1.00  0.00     0.040 C 
HETATM   10  C15 UNL     1     -16.759   5.082  11.980  1.00  0.00     0.052 C 
HETATM   11  C16 UNL     1     -16.843   6.515  12.426  1.00  0.00     0.240 C 
HETATM   12  N3  UNL     1     -17.681   6.080  13.541  1.00  0.00    -0.068 N 
ATOM     13  H31 UNL     1     -18.503   6.620  13.806  1.00  0.00     0.277 HD
ATOM     14  H32 UNL     1     -17.336   6.144  14.499  1.00  0.00     0.277 HD
HETATM   15  C17 UNL     1     -17.834   4.771  12.898  1.00  0.00     0.220 C 
HETATM   16  C18 UNL     1     -19.212   4.597  12.389  1.00  0.00     0.305 C 
ENDROOT
BRANCH   1  17
HETATM   17  C2  UNL     1     -20.606   2.779  11.685  1.00  0.00     0.268 C 
HETATM   18  C1  UNL     1     -20.735   1.754  10.611  1.00  0.00     0.037 C 
ENDBRANCH   1  17
BRANCH   7  19
HETATM   19  C8  UNL     1     -12.820   3.905   9.914  1.00  0.00     0.223 C 
HETATM   20  C9  UNL     1     -11.805   5.016   9.983  1.00  0.00     0.036 C 
HETATM   21  C10 UNL     1     -10.484   4.263   9.914  1.00  0.00     0.002 C 
HETATM   22  C11 UNL     1     -10.763   2.872  10.427  1.00  0.00     0.002 C 
HETATM   23  C12 UNL     1     -12.225   2.821  10.783  1.00  0.00     0.036 C 
ENDBRANCH   7  19
TORSDOF 2
ENDMDL
MODEL 2
REMARK VINA RESULT: -8.120823454      0.649      1.003
REMARK  2 active torsions:
REMARK  status: ('A' for Active; 'I' for Inactive)
REMARK    1  A    between atoms: C2_2  and  N1_3 
REMARK    2  A    between atoms: N2_9  and  C8_10 
ROOT
HETATM    1  N1  UNL     1     -19.254   3.484  11.508  1.00  0.00     0.090 N 
HETATM    2  C3  UNL     1     -19.134   3.913  10.142  1.00  0.00     0.273 C 
HETATM    3  C4  UNL     1     -18.157   5.011   9.914  1.00  0.00     0.040 C 
HETATM    4  C5  UNL     1     -16.806   4.794  10.523  1.00  0.00    -0.028 C 
HETATM    5  C6  UNL     1     -16.349   3.406  10.192  1.00  0.00     0.040 C 
HETATM    6  C7  UNL     1     -14.924   3.120  10.587  1.00  0.00     0.273 C 
HETATM    7  N2  UNL     1     -14.042   4.238  10.426  1.00  0.00     0.093 N 
HETATM    8  C13 UNL     1     -14.562   5.111   9.423  1.00  0.00     0.273 C 
HETATM    9  C14 UNL     1     -15.865   5.751   9.784  1.00  0.00     0.040 C 
HETATM   10  C15 UNL     1     -16.685   5.095  11.962  1.00  0.00     0.052 C 
HETATM   11  C16 UNL     1     -16.744   6.539  12.374  1.00  0.00     0.240 C 
HETATM   12  N3  UNL     1     -17.616   6.149  13.479  1.00  0.00    -0.068 N 
ATOM     13  H31 UNL     1     -18.431   6.715  13.714  1.00  0.00     0.277 HD
ATOM     14  H32 UNL     1     -17.291   6.228  14.443  1.00  0.00     0.277 HD
HETATM   15  C17 UNL     1     -17.786   4.830  12.863  1.00  0.00     0.220 C 
HETATM   16  C18 UNL     1     -19.157   4.676  12.328  1.00  0.00     0.305 C 
ENDROOT
BRANCH   1  17
HETATM   17  C2  UNL     1     -20.578   2.874  11.635  1.00  0.00     0.268 C 
HETATM   18  C1  UNL     1     -20.703   1.820  10.590  1.00  0.00     0.037 C 
ENDBRANCH   1  17
BRANCH   7  19
HETATM   19  C8  UNL     1     -12.730   3.779  10.013  1.00  0.00     0.223 C 
HETATM   20  C9  UNL     1     -12.213   2.659  10.876  1.00  0.00     0.036 C 
HETATM   21  C10 UNL     1     -11.107   2.062  10.019  1.00  0.00     0.002 C 
HETATM   22  C11 UNL     1     -11.450   2.402   8.589  1.00  0.00     0.002 C 
HETATM   23  C12 UNL     1     -12.734   3.187   8.622  1.00  0.00     0.036 C 
ENDBRANCH   7  19
TORSDOF 2
ENDMDL
MODEL 3
REMARK VINA RESULT: -8.085442361      1.907      6.810
REMARK  2 active torsions:
REMARK  status: ('A' for Active; 'I' for Inactive)
REMARK    1  A    between atoms: C2_2  and  N1_3 
REMARK    2  A    between atoms: N2_9  and  C8_10 
ROOT
HETATM    1  N1  UNL     1     -11.689   2.200   9.337  1.00  0.00     0.090 N 
HETATM    2  C3  UNL     1     -11.489   3.099  10.440  1.00  0.00     0.273 C 
HETATM    3  C4  UNL     1     -12.013   4.474  10.229  1.00  0.00     0.040 C 
HETATM    4  C5  UNL     1     -13.425   4.546   9.734  1.00  0.00    -0.028 C 
HETATM    5  C6  UNL     1     -14.268   3.623  10.560  1.00  0.00     0.040 C 
HETATM    6  C7  UNL     1     -15.746   3.737  10.289  1.00  0.00     0.273 C 
HETATM    7  N2  UNL     1     -16.183   5.073  10.009  1.00  0.00     0.093 N 
HETATM    8  C13 UNL     1     -15.283   6.002  10.613  1.00  0.00     0.273 C 
HETATM    9  C14 UNL     1     -13.897   5.969  10.050  1.00  0.00     0.040 C 
HETATM   10  C15 UNL     1     -13.619   4.337   8.287  1.00  0.00     0.052 C 
HETATM   11  C16 UNL     1     -13.138   5.420   7.362  1.00  0.00     0.240 C 
HETATM   12  N3  UNL     1     -12.589   4.383   6.493  1.00  0.00    -0.068 N 
ATOM     13  H31 UNL     1     -11.669   4.502   6.070  1.00  0.00     0.277 HD
ATOM     14  H32 UNL     1     -12.988   4.223   5.568  1.00  0.00     0.277 HD
HETATM   15  C17 UNL     1     -12.788   3.400   7.562  1.00  0.00     0.220 C 
HETATM   16  C18 UNL     1     -11.489   2.974   8.128  1.00  0.00     0.305 C 
ENDROOT
BRANCH   1  17
HETATM   17  C2  UNL     1     -10.667   1.159   9.462  1.00  0.00     0.268 C 
HETATM   18  C1  UNL     1      -9.675   1.354   8.368  1.00  0.00     0.037 C 
ENDBRANCH   1  17
BRANCH   7  19
HETATM   19  C8  UNL     1     -17.510   5.285  10.553  1.00  0.00     0.223 C 
HETATM   20  C9  UNL     1     -18.449   4.150  10.239  1.00  0.00     0.036 C 
HETATM   21  C10 UNL     1     -19.570   4.358  11.247  1.00  0.00     0.002 C 
HETATM   22  C11 UNL     1     -18.964   5.116  12.402  1.00  0.00     0.002 C 
HETATM   23  C12 UNL     1     -17.515   5.347  12.063  1.00  0.00     0.036 C 
ENDBRANCH   7  19
TORSDOF 2
ENDMDL
MODEL 4
REMARK VINA RESULT: -7.609002007      1.980      7.038
REMARK  2 active torsions:
REMARK  status: ('A' for Active; 'I' for Inactive)
REMARK    1  A    between atoms: C2_2  and  N1_3 
REMARK    2  A    between atoms: N2_9  and  C8_10 
ROOT
HETATM    1  N1  UNL     1     -10.741   3.400   8.831  1.00  0.00     0.090 N 
HETATM    2  C3  UNL     1     -10.737   4.274   9.971  1.00  0.00     0.273 C 
HETATM    3  C4  UNL     1     -11.702   5.402   9.898  1.00  0.00     0.040 C 
HETATM    4  C5  UNL     1     -13.102   5.017   9.529  1.00  0.00    -0.028 C 
HETATM    5  C6  UNL     1     -13.507   3.837  10.357  1.00  0.00     0.040 C 
HETATM    6  C7  UNL     1     -14.960   3.461  10.219  1.00  0.00     0.273 C 
HETATM    7  N2  UNL     1     -15.837   4.584  10.067  1.00  0.00     0.093 N 
HETATM    8  C13 UNL     1     -15.236   5.738  10.656  1.00  0.00     0.273 C 
HETATM    9  C14 UNL     1     -13.981   6.189   9.978  1.00  0.00     0.040 C 
HETATM   10  C15 UNL     1     -13.362   4.808   8.091  1.00  0.00     0.052 C 
HETATM   11  C16 UNL     1     -13.359   6.021   7.206  1.00  0.00     0.240 C 
HETATM   12  N3  UNL     1     -12.591   5.259   6.225  1.00  0.00    -0.068 N 
ATOM     13  H31 UNL     1     -11.809   5.693   5.736  1.00  0.00     0.277 HD
ATOM     14  H32 UNL     1     -13.007   5.009   5.328  1.00  0.00     0.277 HD
HETATM   15  C17 UNL     1     -12.347   4.228   7.238  1.00  0.00     0.220 C 
HETATM   16  C18 UNL     1     -10.930   4.239   7.664  1.00  0.00     0.305 C 
ENDROOT
BRANCH   1  17
HETATM   17  C2  UNL     1      -9.427   2.756   8.799  1.00  0.00     0.268 C 
HETATM   18  C1  UNL     1      -9.614   1.345   8.358  1.00  0.00     0.037 C 
ENDBRANCH   1  17
BRANCH   7  19
HETATM   19  C8  UNL     1     -17.098   4.322  10.733  1.00  0.00     0.223 C 
HETATM   20  C9  UNL     1     -17.349   5.261  11.883  1.00  0.00     0.036 C 
HETATM   21  C10 UNL     1     -18.846   5.112  12.112  1.00  0.00     0.002 C 
HETATM   22  C11 UNL     1     -19.432   4.654  10.799  1.00  0.00     0.002 C 
HETATM   23  C12 UNL     1     -18.288   4.537   9.826  1.00  0.00     0.036 C 
ENDBRANCH   7  19
TORSDOF 2
ENDMDL
MODEL 5
REMARK VINA RESULT: -7.381241898      2.284      7.148
REMARK  2 active torsions:
REMARK  status: ('A' for Active; 'I' for Inactive)
REMARK    1  A    between atoms: C2_2  and  N1_3 
REMARK    2  A    between atoms: N2_9  and  C8_10 
ROOT
HETATM    1  N1  UNL     1     -10.779   3.630   8.621  1.00  0.00     0.090 N 
HETATM    2  C3  UNL     1     -10.639   4.589   9.682  1.00  0.00     0.273 C 
HETATM    3  C4  UNL     1     -11.425   5.838   9.504  1.00  0.00     0.040 C 
HETATM    4  C5  UNL     1     -12.868   5.636   9.159  1.00  0.00    -0.028 C 
HETATM    5  C6  UNL     1     -13.441   4.605  10.083  1.00  0.00     0.040 C 
HETATM    6  C7  UNL     1     -14.934   4.440   9.965  1.00  0.00     0.273 C 
HETATM    7  N2  UNL     1     -15.634   5.665   9.711  1.00  0.00     0.093 N 
HETATM    8  C13 UNL     1     -14.865   6.762  10.204  1.00  0.00     0.273 C 
HETATM    9  C14 UNL     1     -13.560   6.960   9.499  1.00  0.00     0.040 C 
HETATM   10  C15 UNL     1     -13.164   5.345   7.743  1.00  0.00     0.052 C 
HETATM   11  C16 UNL     1     -12.985   6.464   6.756  1.00  0.00     0.240 C 
HETATM   12  N3  UNL     1     -12.344   5.514   5.851  1.00  0.00    -0.068 N 
ATOM     13  H31 UNL     1     -11.508   5.783   5.332  1.00  0.00     0.277 HD
ATOM     14  H32 UNL     1     -12.797   5.253   4.975  1.00  0.00     0.277 HD
HETATM   15  C17 UNL     1     -12.251   4.549   6.951  1.00  0.00     0.220 C 
HETATM   16  C18 UNL     1     -10.847   4.385   7.385  1.00  0.00     0.305 C 
ENDROOT
BRANCH   1  17
HETATM   17  C2  UNL     1      -9.576   2.797   8.654  1.00  0.00     0.268 C 
HETATM   18  C1  UNL     1      -9.142   2.556   7.250  1.00  0.00     0.037 C 
ENDBRANCH   1  17
BRANCH   7  19
HETATM   19  C8  UNL     1     -16.917   5.652  10.387  1.00  0.00     0.223 C 
HETATM   20  C9  UNL     1     -17.599   4.312  10.304  1.00  0.00     0.036 C 
HETATM   21  C10 UNL     1     -18.635   4.397  11.415  1.00  0.00     0.002 C 
HETATM   22  C11 UNL     1     -18.112   5.407  12.406  1.00  0.00     0.002 C 
HETATM   23  C12 UNL     1     -16.792   5.900  11.873  1.00  0.00     0.036 C 
ENDBRANCH   7  19
TORSDOF 2
ENDMDL
