MODEL 1
REMARK VINA RESULT: -8.077524427      0.000      0.000
REMARK  4 active torsions:
REMARK  status: ('A' for Active; 'I' for Inactive)
REMARK    1  A    between atoms: N2_6  and  C5_7 
REMARK    2  A    between atoms: C10_12  and  N3_13 
REMARK       I    between atoms: N3_13  and  C11_15 
REMARK       I    between atoms: C11_15  and  N4_17 
REMARK    3  A    between atoms: N4_17  and  C12_18 
REMARK    4  A    between atoms: N4_17  and  C18_24 
ROOT
HETATM    1  N1  UNL     1     -14.574   8.875   9.751  1.00  0.00    -0.195 NA
HETATM    2  C1  UNL     1     -13.830   8.049   9.430  1.00  0.00     0.095 C 
HETATM    3  C2  UNL     1     -12.863   7.007   9.001  1.00  0.00     0.330 C 
HETATM    4  C3  UNL     1     -12.409   7.349   7.592  1.00  0.00     0.081 C 
HETATM    5  C4  UNL     1     -13.256   6.177   7.174  1.00  0.00     0.278 C 
HETATM    6  N2  UNL     1     -13.492   5.802   8.571  1.00  0.00     0.113 N 
ENDROOT
BRANCH   6   7
HETATM    7  C5  UNL     1     -12.884   4.551   8.844  1.00  0.00     0.247 C 
HETATM    8  C6  UNL     1     -12.515   3.933   7.486  1.00  0.00     0.038 C 
HETATM    9  C7  UNL     1     -11.439   2.921   7.772  1.00  0.00     0.002 C 
HETATM   10  C8  UNL     1     -12.051   1.852   8.646  1.00  0.00     0.002 C 
HETATM   11  C9  UNL     1     -13.458   2.148   9.038  1.00  0.00     0.027 C 
HETATM   12  C10 UNL     1     -13.660   3.547   9.599  1.00  0.00     0.119 C 
BRANCH  12  13
HETATM   13  N3  UNL     1     -15.095   3.777   9.652  1.00  0.00    -0.336 N 
HETATM   14  C11 UNL     1     -15.762   4.243  10.797  1.00  0.00     0.319 C 
HETATM   15  O1  UNL     1     -14.995   4.451  11.800  1.00  0.00    -0.247 OA
HETATM   16  N4  UNL     1     -17.130   4.495  10.953  1.00  0.00    -0.325 N 
ATOM     17  H3  UNL     1     -15.646   3.591   8.814  1.00  0.00     0.164 HD
BRANCH  16  18
HETATM   18  C12 UNL     1     -18.030   4.273   9.847  1.00  0.00     0.089 C 
HETATM   19  C13 UNL     1     -19.269   3.588  10.452  1.00  0.00     0.025 C 
HETATM   20  C14 UNL     1     -20.133   3.147   9.289  1.00  0.00     0.002 C 
HETATM   21  C15 UNL     1     -20.463   4.291   8.373  1.00  0.00     0.000 C 
HETATM   22  C16 UNL     1     -20.002   5.593   8.987  1.00  0.00     0.002 C 
HETATM   23  C17 UNL     1     -18.498   5.549   9.207  1.00  0.00     0.025 C 
ENDBRANCH  16  18
BRANCH  16  24
HETATM   24  C18 UNL     1     -17.730   4.986  12.196  1.00  0.00     0.089 A 
HETATM   25  C19 UNL     1     -17.983   6.454  12.380  1.00  0.00     0.027 A 
HETATM   26  C20 UNL     1     -16.984   5.720  13.213  1.00  0.00     0.027 A 
ENDBRANCH  16  24
ENDBRANCH  12  13
ENDBRANCH   6   7
TORSDOF 4
ENDMDL
MODEL 2
REMARK VINA RESULT: -7.231482762      1.713      6.343
REMARK  4 active torsions:
REMARK  status: ('A' for Active; 'I' for Inactive)
REMARK    1  A    between atoms: N2_6  and  C5_7 
REMARK    2  A    between atoms: C10_12  and  N3_13 
REMARK       I    between atoms: N3_13  and  C11_15 
REMARK       I    between atoms: C11_15  and  N4_17 
REMARK    3  A    between atoms: N4_17  and  C12_18 
REMARK    4  A    between atoms: N4_17  and  C18_24 
ROOT
HETATM    1  N1  UNL     1     -15.759   7.505  12.877  1.00  0.00    -0.195 NA
HETATM    2  C1  UNL     1     -16.802   7.033  12.708  1.00  0.00     0.095 C 
HETATM    3  C2  UNL     1     -18.148   6.436  12.515  1.00  0.00     0.330 C 
HETATM    4  C3  UNL     1     -18.710   6.108  13.889  1.00  0.00     0.081 C 
HETATM    5  C4  UNL     1     -18.451   4.674  13.508  1.00  0.00     0.278 C 
HETATM    6  N2  UNL     1     -18.102   5.061  12.138  1.00  0.00     0.113 N 
ENDROOT
BRANCH   6   7
HETATM    7  C5  UNL     1     -19.062   4.545  11.232  1.00  0.00     0.247 C 
HETATM    8  C6  UNL     1     -19.616   3.258  11.860  1.00  0.00     0.038 C 
HETATM    9  C7  UNL     1     -20.948   3.018  11.202  1.00  0.00     0.002 C 
HETATM   10  C8  UNL     1     -20.685   2.772   9.735  1.00  0.00     0.002 C 
HETATM   11  C9  UNL     1     -19.251   2.931   9.361  1.00  0.00     0.027 C 
HETATM   12  C10 UNL     1     -18.624   4.224   9.858  1.00  0.00     0.119 C 
BRANCH  12  13
HETATM   13  N3  UNL     1     -17.187   4.093   9.676  1.00  0.00    -0.336 N 
HETATM   14  C11 UNL     1     -16.333   5.187   9.455  1.00  0.00     0.319 C 
HETATM   15  O1  UNL     1     -16.930   6.318   9.428  1.00  0.00    -0.247 OA
HETATM   16  N4  UNL     1     -14.946   5.171   9.267  1.00  0.00    -0.325 N 
ATOM     17  H3  UNL     1     -16.778   3.159   9.710  1.00  0.00     0.164 HD
BRANCH  16  18
HETATM   18  C12 UNL     1     -14.235   3.916   9.289  1.00  0.00     0.089 C 
HETATM   19  C13 UNL     1     -12.806   4.241   8.818  1.00  0.00     0.025 C 
HETATM   20  C14 UNL     1     -12.100   2.915   8.623  1.00  0.00     0.002 C 
HETATM   21  C15 UNL     1     -12.149   2.069   9.863  1.00  0.00     0.000 C 
HETATM   22  C16 UNL     1     -12.716   2.869  11.012  1.00  0.00     0.002 C 
HETATM   23  C17 UNL     1     -14.124   3.329  10.668  1.00  0.00     0.025 C 
ENDBRANCH  16  18
BRANCH  16  24
HETATM   24  C18 UNL     1     -14.142   6.375   9.046  1.00  0.00     0.089 A 
HETATM   25  C19 UNL     1     -13.380   6.989  10.183  1.00  0.00     0.027 A 
HETATM   26  C20 UNL     1     -14.523   7.697   9.533  1.00  0.00     0.027 A 
ENDBRANCH  16  24
ENDBRANCH  12  13
ENDBRANCH   6   7
TORSDOF 4
ENDMDL
MODEL 3
REMARK VINA RESULT: -7.021154479      1.254      3.028
REMARK  4 active torsions:
REMARK  status: ('A' for Active; 'I' for Inactive)
REMARK    1  A    between atoms: N2_6  and  C5_7 
REMARK    2  A    between atoms: C10_12  and  N3_13 
REMARK       I    between atoms: N3_13  and  C11_15 
REMARK       I    between atoms: C11_15  and  N4_17 
REMARK    3  A    between atoms: N4_17  and  C12_18 
REMARK    4  A    between atoms: N4_17  and  C18_24 
ROOT
HETATM    1  N1  UNL     1     -14.080   8.970  10.939  1.00  0.00    -0.195 NA
HETATM    2  C1  UNL     1     -13.445   8.141  10.440  1.00  0.00     0.095 C 
HETATM    3  C2  UNL     1     -12.616   7.096   9.788  1.00  0.00     0.330 C 
HETATM    4  C3  UNL     1     -12.053   7.685   8.505  1.00  0.00     0.081 C 
HETATM    5  C4  UNL     1     -13.037   6.781   7.812  1.00  0.00     0.278 C 
HETATM    6  N2  UNL     1     -13.388   6.130   9.078  1.00  0.00     0.113 N 
ENDROOT
BRANCH   6   7
HETATM    7  C5  UNL     1     -12.976   4.774   9.054  1.00  0.00     0.247 C 
HETATM    8  C6  UNL     1     -13.508   4.173   7.745  1.00  0.00     0.038 C 
HETATM    9  C7  UNL     1     -12.657   2.963   7.470  1.00  0.00     0.002 C 
HETATM   10  C8  UNL     1     -12.899   1.982   8.593  1.00  0.00     0.002 C 
HETATM   11  C9  UNL     1     -13.798   2.516   9.656  1.00  0.00     0.027 C 
HETATM   12  C10 UNL     1     -13.404   3.895  10.160  1.00  0.00     0.119 C 
BRANCH  12  13
HETATM   13  N3  UNL     1     -14.518   4.387  10.955  1.00  0.00    -0.336 N 
HETATM   14  C11 UNL     1     -15.864   4.185  10.608  1.00  0.00     0.319 C 
HETATM   15  O1  UNL     1     -16.031   3.523   9.526  1.00  0.00    -0.247 OA
HETATM   16  N4  UNL     1     -17.004   4.614  11.298  1.00  0.00    -0.325 N 
ATOM     17  H3  UNL     1     -14.311   4.907  11.808  1.00  0.00     0.164 HD
BRANCH  16  18
HETATM   18  C12 UNL     1     -16.860   5.363  12.523  1.00  0.00     0.089 C 
HETATM   19  C13 UNL     1     -16.729   6.836  12.095  1.00  0.00     0.025 C 
HETATM   20  C14 UNL     1     -16.360   7.619  13.339  1.00  0.00     0.002 C 
HETATM   21  C15 UNL     1     -17.346   7.398  14.450  1.00  0.00     0.000 C 
HETATM   22  C16 UNL     1     -18.533   6.615  13.940  1.00  0.00     0.002 C 
HETATM   23  C17 UNL     1     -18.066   5.266  13.413  1.00  0.00     0.025 C 
ENDBRANCH  16  18
BRANCH  16  24
HETATM   24  C18 UNL     1     -18.373   4.346  10.852  1.00  0.00     0.089 A 
HETATM   25  C19 UNL     1     -18.802   4.731   9.466  1.00  0.00     0.027 A 
HETATM   26  C20 UNL     1     -19.380   5.388  10.677  1.00  0.00     0.027 A 
ENDBRANCH  16  24
ENDBRANCH  12  13
ENDBRANCH   6   7
TORSDOF 4
ENDMDL
MODEL 4
REMARK VINA RESULT: -6.788031857      1.435      6.734
REMARK  4 active torsions:
REMARK  status: ('A' for Active; 'I' for Inactive)
REMARK    1  A    between atoms: N2_6  and  C5_7 
REMARK    2  A    between atoms: C10_12  and  N3_13 
REMARK       I    between atoms: N3_13  and  C11_15 
REMARK       I    between atoms: C11_15  and  N4_17 
REMARK    3  A    between atoms: N4_17  and  C12_18 
REMARK    4  A    between atoms: N4_17  and  C18_24 
ROOT
HETATM    1  N1  UNL     1     -18.894   1.371   8.260  1.00  0.00    -0.195 NA
HETATM    2  C1  UNL     1     -19.059   2.239   9.008  1.00  0.00     0.095 C 
HETATM    3  C2  UNL     1     -19.290   3.361   9.952  1.00  0.00     0.330 C 
HETATM    4  C3  UNL     1     -19.981   4.477   9.185  1.00  0.00     0.081 C 
HETATM    5  C4  UNL     1     -18.657   5.186   9.281  1.00  0.00     0.278 C 
HETATM    6  N2  UNL     1     -18.126   4.154  10.176  1.00  0.00     0.113 N 
ENDROOT
BRANCH   6   7
HETATM    7  C5  UNL     1     -17.883   4.706  11.459  1.00  0.00     0.247 C 
HETATM    8  C6  UNL     1     -18.831   5.905  11.611  1.00  0.00     0.038 C 
HETATM    9  C7  UNL     1     -18.961   6.143  13.091  1.00  0.00     0.002 C 
HETATM   10  C8  UNL     1     -17.595   6.532  13.603  1.00  0.00     0.002 C 
HETATM   11  C9  UNL     1     -16.536   6.473  12.555  1.00  0.00     0.027 C 
HETATM   12  C10 UNL     1     -16.516   5.170  11.772  1.00  0.00     0.119 C 
BRANCH  12  13
HETATM   13  N3  UNL     1     -15.650   5.382  10.623  1.00  0.00    -0.336 N 
HETATM   14  C11 UNL     1     -14.710   4.437  10.180  1.00  0.00     0.319 C 
HETATM   15  O1  UNL     1     -14.679   3.364  10.876  1.00  0.00    -0.247 OA
HETATM   16  N4  UNL     1     -13.832   4.541   9.094  1.00  0.00    -0.325 N 
ATOM     17  H3  UNL     1     -15.729   6.262  10.113  1.00  0.00     0.164 HD
BRANCH  16  18
HETATM   18  C12 UNL     1     -13.834   5.735   8.283  1.00  0.00     0.089 C 
HETATM   19  C13 UNL     1     -12.891   6.721   8.995  1.00  0.00     0.025 C 
HETATM   20  C14 UNL     1     -13.042   8.053   8.289  1.00  0.00     0.002 C 
HETATM   21  C15 UNL     1     -12.789   7.935   6.813  1.00  0.00     0.000 C 
HETATM   22  C16 UNL     1     -12.261   6.557   6.489  1.00  0.00     0.002 C 
HETATM   23  C17 UNL     1     -13.280   5.508   6.905  1.00  0.00     0.025 C 
ENDBRANCH  16  18
BRANCH  16  24
HETATM   24  C18 UNL     1     -12.887   3.491   8.709  1.00  0.00     0.089 A 
HETATM   25  C19 UNL     1     -13.306   2.416   7.751  1.00  0.00     0.027 A 
HETATM   26  C20 UNL     1     -12.983   2.111   9.177  1.00  0.00     0.027 A 
ENDBRANCH  16  24
ENDBRANCH  12  13
ENDBRANCH   6   7
TORSDOF 4
ENDMDL
MODEL 5
REMARK VINA RESULT: -6.533736188      2.122      4.492
REMARK  4 active torsions:
REMARK  status: ('A' for Active; 'I' for Inactive)
REMARK    1  A    between atoms: N2_6  and  C5_7 
REMARK    2  A    between atoms: C10_12  and  N3_13 
REMARK       I    between atoms: N3_13  and  C11_15 
REMARK       I    between atoms: C11_15  and  N4_17 
REMARK    3  A    between atoms: N4_17  and  C12_18 
REMARK    4  A    between atoms: N4_17  and  C18_24 
ROOT
HETATM    1  N1  UNL     1     -14.176   9.347  12.604  1.00  0.00    -0.195 NA
HETATM    2  C1  UNL     1     -13.440   9.508  11.726  1.00  0.00     0.095 C 
HETATM    3  C2  UNL     1     -12.486   9.737  10.611  1.00  0.00     0.330 C 
HETATM    4  C3  UNL     1     -12.240  11.234  10.513  1.00  0.00     0.081 C 
HETATM    5  C4  UNL     1     -13.075  11.157   9.262  1.00  0.00     0.278 C 
HETATM    6  N2  UNL     1     -13.105   9.693   9.326  1.00  0.00     0.113 N 
ENDROOT
BRANCH   6   7
HETATM    7  C5  UNL     1     -12.403   9.147   8.223  1.00  0.00     0.247 C 
HETATM    8  C6  UNL     1     -12.897   9.891   6.973  1.00  0.00     0.038 C 
HETATM    9  C7  UNL     1     -11.824   9.711   5.934  1.00  0.00     0.002 C 
HETATM   10  C8  UNL     1     -11.742   8.234   5.625  1.00  0.00     0.002 C 
HETATM   11  C9  UNL     1     -12.644   7.406   6.476  1.00  0.00     0.027 C 
HETATM   12  C10 UNL     1     -12.526   7.699   7.964  1.00  0.00     0.119 C 
BRANCH  12  13
HETATM   13  N3  UNL     1     -13.650   7.042   8.612  1.00  0.00    -0.336 N 
HETATM   14  C11 UNL     1     -13.640   5.690   8.995  1.00  0.00     0.319 C 
HETATM   15  O1  UNL     1     -12.550   5.079   8.724  1.00  0.00    -0.247 OA
HETATM   16  N4  UNL     1     -14.662   4.966   9.620  1.00  0.00    -0.325 N 
ATOM     17  H3  UNL     1     -14.489   7.591   8.800  1.00  0.00     0.164 HD
BRANCH  16  18
HETATM   18  C12 UNL     1     -15.908   5.617   9.943  1.00  0.00     0.089 C 
HETATM   19  C13 UNL     1     -16.942   4.486  10.088  1.00  0.00     0.025 C 
HETATM   20  C14 UNL     1     -18.298   5.149  10.211  1.00  0.00     0.002 C 
HETATM   21  C15 UNL     1     -18.332   6.146  11.334  1.00  0.00     0.000 C 
HETATM   22  C16 UNL     1     -17.061   6.053  12.145  1.00  0.00     0.002 C 
HETATM   23  C17 UNL     1     -15.864   6.348  11.255  1.00  0.00     0.025 C 
ENDBRANCH  16  18
BRANCH  16  24
HETATM   24  C18 UNL     1     -14.550   3.551   9.983  1.00  0.00     0.089 A 
HETATM   25  C19 UNL     1     -13.786   3.148  11.209  1.00  0.00     0.027 A 
HETATM   26  C20 UNL     1     -13.320   2.778   9.839  1.00  0.00     0.027 A 
ENDBRANCH  16  24
ENDBRANCH  12  13
ENDBRANCH   6   7
TORSDOF 4
ENDMDL
