MODEL 1
REMARK VINA RESULT: -7.487143724      0.000      0.000
REMARK  4 active torsions:
REMARK  status: ('A' for Active; 'I' for Inactive)
REMARK       I    between atoms: C1_2  and  N1_3 
REMARK    1  A    between atoms: C1_2  and  C14_19 
REMARK    2  A    between atoms: N1_3  and  C2_5 
REMARK       I    between atoms: N2_8  and  C5_9 
REMARK    3  A    between atoms: C5_9  and  C6_11 
REMARK    4  A    between atoms: C6_11  and  C7_12 
ROOT
HETATM    1  C2  UNL     1     -12.537   3.312   9.300  1.00  0.00     0.087 C 
HETATM    2  C3  UNL     1     -13.367   3.770   8.109  1.00  0.00     0.045 C 
HETATM    3  C4  UNL     1     -14.184   4.976   8.534  1.00  0.00     0.127 C 
HETATM    4  N2  UNL     1     -14.956   4.611   9.731  1.00  0.00    -0.352 N 
HETATM    5  C5  UNL     1     -15.755   5.604  10.363  1.00  0.00     0.220 C 
HETATM    6  O2  UNL     1     -15.785   6.767   9.886  1.00  0.00    -0.273 OA
HETATM    7  C12 UNL     1     -14.843   3.252  10.177  1.00  0.00     0.127 C 
HETATM    8  C13 UNL     1     -13.408   2.884  10.430  1.00  0.00     0.045 C 
ENDROOT
BRANCH   1   9
HETATM    9  N1  UNL     1     -11.592   2.303   8.910  1.00  0.00    -0.352 N 
HETATM   10  C1  UNL     1     -10.220   2.530   8.712  1.00  0.00     0.248 C 
HETATM   11  O1  UNL     1      -9.840   3.744   8.903  1.00  0.00    -0.268 OA
ATOM     12  H1  UNL     1     -11.943   1.355   8.766  1.00  0.00     0.163 HD
BRANCH  10  13
HETATM   13  C14 UNL     1      -9.225   1.558   8.325  1.00  0.00     0.016 C 
HETATM   14  C15 UNL     1      -9.409   0.290   8.717  1.00  0.00     0.057 C 
HETATM   15  S1  UNL     1      -8.206  -0.932   8.259  1.00  0.00    -0.141 SA
HETATM   16  C16 UNL     1      -7.436  -0.353   6.709  1.00  0.00     0.079 C 
HETATM   17  C17 UNL     1      -7.814   1.036   6.344  1.00  0.00     0.015 C 
HETATM   18  C18 UNL     1      -8.061   1.954   7.526  1.00  0.00     0.045 C 
ENDBRANCH  10  13
ENDBRANCH   1   9
BRANCH   5  19
HETATM   19  C6  UNL     1     -16.570   5.360  11.563  1.00  0.00     0.107 C 
BRANCH  19  20
HETATM   20  C7  UNL     1     -17.845   6.168  11.625  1.00  0.00    -0.006 C 
HETATM   21  C8  UNL     1     -19.054   5.432  11.102  1.00  0.00     0.005 C 
HETATM   22  C9  UNL     1     -19.315   4.337  12.103  1.00  0.00     0.000 C 
HETATM   23  C10 UNL     1     -18.801   4.879  13.425  1.00  0.00     0.000 C 
HETATM   24  C11 UNL     1     -18.195   6.237  13.121  1.00  0.00     0.005 C 
ENDBRANCH  19  20
ENDBRANCH   5  19
TORSDOF 4
ENDMDL
MODEL 2
REMARK VINA RESULT: -7.427247669      7.245     10.905
REMARK  4 active torsions:
REMARK  status: ('A' for Active; 'I' for Inactive)
REMARK       I    between atoms: C1_2  and  N1_3 
REMARK    1  A    between atoms: C1_2  and  C14_19 
REMARK    2  A    between atoms: N1_3  and  C2_5 
REMARK       I    between atoms: N2_8  and  C5_9 
REMARK    3  A    between atoms: C5_9  and  C6_11 
REMARK    4  A    between atoms: C6_11  and  C7_12 
ROOT
HETATM    1  C2  UNL     1     -17.856   7.349  14.248  1.00  0.00     0.087 C 
HETATM    2  C3  UNL     1     -16.383   7.368  13.861  1.00  0.00     0.045 C 
HETATM    3  C4  UNL     1     -16.287   7.272  12.349  1.00  0.00     0.127 C 
HETATM    4  N2  UNL     1     -17.034   6.081  11.914  1.00  0.00    -0.352 N 
HETATM    5  C5  UNL     1     -17.148   5.811  10.523  1.00  0.00     0.220 C 
HETATM    6  O2  UNL     1     -16.610   6.593   9.697  1.00  0.00    -0.273 OA
HETATM    7  C12 UNL     1     -17.598   5.265  12.951  1.00  0.00     0.127 C 
HETATM    8  C13 UNL     1     -18.503   6.070  13.840  1.00  0.00     0.045 C 
ENDROOT
BRANCH   1   9
HETATM    9  N1  UNL     1     -18.023   7.640  15.644  1.00  0.00    -0.352 N 
HETATM   10  C1  UNL     1     -18.693   8.767  16.148  1.00  0.00     0.248 C 
HETATM   11  O1  UNL     1     -19.164   9.562  15.253  1.00  0.00    -0.268 OA
ATOM     12  H1  UNL     1     -17.627   6.982  16.316  1.00  0.00     0.163 HD
BRANCH  10  13
HETATM   13  C14 UNL     1     -18.896   9.109  17.537  1.00  0.00     0.016 C 
HETATM   14  C15 UNL     1     -17.889   9.713  18.181  1.00  0.00     0.057 C 
HETATM   15  S1  UNL     1     -18.103  10.149  19.889  1.00  0.00    -0.141 SA
HETATM   16  C16 UNL     1     -19.892  10.404  20.143  1.00  0.00     0.079 C 
HETATM   17  C17 UNL     1     -20.720   9.985  18.982  1.00  0.00     0.015 C 
HETATM   18  C18 UNL     1     -20.165   8.807  18.205  1.00  0.00     0.045 C 
ENDBRANCH  10  13
ENDBRANCH   1   9
BRANCH   5  19
HETATM   19  C6  UNL     1     -17.866   4.654   9.967  1.00  0.00     0.107 C 
BRANCH  19  20
HETATM   20  C7  UNL     1     -19.205   4.988   9.352  1.00  0.00    -0.006 C 
HETATM   21  C8  UNL     1     -19.780   3.872   8.514  1.00  0.00     0.005 C 
HETATM   22  C9  UNL     1     -20.135   2.784   9.493  1.00  0.00     0.000 C 
HETATM   23  C10 UNL     1     -20.450   3.506  10.791  1.00  0.00     0.000 C 
HETATM   24  C11 UNL     1     -20.193   4.979  10.531  1.00  0.00     0.005 C 
ENDBRANCH  19  20
ENDBRANCH   5  19
TORSDOF 4
ENDMDL
MODEL 3
REMARK VINA RESULT: -7.423919297      0.697      1.138
REMARK  4 active torsions:
REMARK  status: ('A' for Active; 'I' for Inactive)
REMARK       I    between atoms: C1_2  and  N1_3 
REMARK    1  A    between atoms: C1_2  and  C14_19 
REMARK    2  A    between atoms: N1_3  and  C2_5 
REMARK       I    between atoms: N2_8  and  C5_9 
REMARK    3  A    between atoms: C5_9  and  C6_11 
REMARK    4  A    between atoms: C6_11  and  C7_12 
ROOT
HETATM    1  C2  UNL     1     -12.652   3.352   9.278  1.00  0.00     0.087 C 
HETATM    2  C3  UNL     1     -13.475   3.901   8.120  1.00  0.00     0.045 C 
HETATM    3  C4  UNL     1     -14.229   5.124   8.610  1.00  0.00     0.127 C 
HETATM    4  N2  UNL     1     -15.002   4.742   9.802  1.00  0.00    -0.352 N 
HETATM    5  C5  UNL     1     -15.745   5.741  10.489  1.00  0.00     0.220 C 
HETATM    6  O2  UNL     1     -15.726   6.925  10.063  1.00  0.00    -0.273 OA
HETATM    7  C12 UNL     1     -14.947   3.360  10.185  1.00  0.00     0.127 C 
HETATM    8  C13 UNL     1     -13.529   2.915  10.401  1.00  0.00     0.045 C 
ENDROOT
BRANCH   1   9
HETATM    9  N1  UNL     1     -11.762   2.318   8.830  1.00  0.00    -0.352 N 
HETATM   10  C1  UNL     1     -10.376   2.479   8.662  1.00  0.00     0.248 C 
HETATM   11  O1  UNL     1      -9.930   3.653   8.939  1.00  0.00    -0.268 OA
ATOM     12  H1  UNL     1     -12.164   1.405   8.618  1.00  0.00     0.163 HD
BRANCH  10  13
HETATM   13  C14 UNL     1      -9.433   1.478   8.220  1.00  0.00     0.016 C 
HETATM   14  C15 UNL     1      -8.630   1.791   7.195  1.00  0.00     0.057 C 
HETATM   15  S1  UNL     1      -7.457   0.587   6.625  1.00  0.00    -0.141 SA
HETATM   16  C16 UNL     1      -7.063  -0.476   8.055  1.00  0.00     0.079 C 
HETATM   17  C17 UNL     1      -7.942  -0.238   9.229  1.00  0.00     0.015 C 
HETATM   18  C18 UNL     1      -9.360   0.172   8.882  1.00  0.00     0.045 C 
ENDBRANCH  10  13
ENDBRANCH   1   9
BRANCH   5  19
HETATM   19  C6  UNL     1     -16.555   5.483  11.688  1.00  0.00     0.107 C 
BRANCH  19  20
HETATM   20  C7  UNL     1     -17.856   6.249  11.739  1.00  0.00    -0.006 C 
HETATM   21  C8  UNL     1     -19.032   5.482  11.184  1.00  0.00     0.005 C 
HETATM   22  C9  UNL     1     -19.274   4.364  12.164  1.00  0.00     0.000 C 
HETATM   23  C10 UNL     1     -18.802   4.903  13.503  1.00  0.00     0.000 C 
HETATM   24  C11 UNL     1     -18.235   6.284  13.229  1.00  0.00     0.005 C 
ENDBRANCH  19  20
ENDBRANCH   5  19
TORSDOF 4
ENDMDL
MODEL 4
REMARK VINA RESULT: -7.189987671      1.647      2.090
REMARK  4 active torsions:
REMARK  status: ('A' for Active; 'I' for Inactive)
REMARK       I    between atoms: C1_2  and  N1_3 
REMARK    1  A    between atoms: C1_2  and  C14_19 
REMARK    2  A    between atoms: N1_3  and  C2_5 
REMARK       I    between atoms: N2_8  and  C5_9 
REMARK    3  A    between atoms: C5_9  and  C6_11 
REMARK    4  A    between atoms: C6_11  and  C7_12 
ROOT
HETATM    1  C2  UNL     1     -13.262   4.446   9.561  1.00  0.00     0.087 C 
HETATM    2  C3  UNL     1     -14.065   5.463   8.761  1.00  0.00     0.045 C 
HETATM    3  C4  UNL     1     -14.808   6.356   9.736  1.00  0.00     0.127 C 
HETATM    4  N2  UNL     1     -15.600   5.501  10.633  1.00  0.00    -0.352 N 
HETATM    5  C5  UNL     1     -16.338   6.107  11.687  1.00  0.00     0.220 C 
HETATM    6  O2  UNL     1     -16.299   7.356  11.828  1.00  0.00    -0.273 OA
HETATM    7  C12 UNL     1     -15.567   4.091  10.368  1.00  0.00     0.127 C 
HETATM    8  C13 UNL     1     -14.157   3.573  10.372  1.00  0.00     0.045 C 
ENDROOT
BRANCH   1   9
HETATM    9  N1  UNL     1     -12.380   3.702   8.707  1.00  0.00    -0.352 N 
HETATM   10  C1  UNL     1     -11.063   4.082   8.398  1.00  0.00     0.248 C 
HETATM   11  O1  UNL     1     -10.676   5.182   8.940  1.00  0.00    -0.268 OA
ATOM     12  H1  UNL     1     -12.734   2.837   8.297  1.00  0.00     0.163 HD
BRANCH  10  13
HETATM   13  C14 UNL     1     -10.130   3.374   7.552  1.00  0.00     0.016 C 
HETATM   14  C15 UNL     1      -9.512   4.071   6.590  1.00  0.00     0.057 C 
HETATM   15  S1  UNL     1      -8.358   3.235   5.532  1.00  0.00    -0.141 SA
HETATM   16  C16 UNL     1      -7.684   1.838   6.493  1.00  0.00     0.079 C 
HETATM   17  C17 UNL     1      -8.393   1.609   7.779  1.00  0.00     0.015 C 
HETATM   18  C18 UNL     1      -9.872   1.945   7.753  1.00  0.00     0.045 C 
ENDBRANCH  10  13
ENDBRANCH   1   9
BRANCH   5  19
HETATM   19  C6  UNL     1     -17.166   5.359  12.645  1.00  0.00     0.107 C 
BRANCH  19  20
HETATM   20  C7  UNL     1     -18.626   5.747  12.644  1.00  0.00    -0.006 C 
HETATM   21  C8  UNL     1     -19.286   5.613  11.293  1.00  0.00     0.005 C 
HETATM   22  C9  UNL     1     -19.343   4.132  11.024  1.00  0.00     0.000 C 
HETATM   23  C10 UNL     1     -19.424   3.484  12.395  1.00  0.00     0.000 C 
HETATM   24  C11 UNL     1     -19.335   4.614  13.405  1.00  0.00     0.005 C 
ENDBRANCH  19  20
ENDBRANCH   5  19
TORSDOF 4
ENDMDL
MODEL 5
REMARK VINA RESULT: -7.037364593      7.263     10.552
REMARK  4 active torsions:
REMARK  status: ('A' for Active; 'I' for Inactive)
REMARK       I    between atoms: C1_2  and  N1_3 
REMARK    1  A    between atoms: C1_2  and  C14_19 
REMARK    2  A    between atoms: N1_3  and  C2_5 
REMARK       I    between atoms: N2_8  and  C5_9 
REMARK    3  A    between atoms: C5_9  and  C6_11 
REMARK    4  A    between atoms: C6_11  and  C7_12 
ROOT
HETATM    1  C2  UNL     1     -17.774   7.298  14.059  1.00  0.00     0.087 C 
HETATM    2  C3  UNL     1     -16.363   7.421  13.501  1.00  0.00     0.045 C 
HETATM    3  C4  UNL     1     -16.419   7.169  12.006  1.00  0.00     0.127 C 
HETATM    4  N2  UNL     1     -17.070   5.870  11.781  1.00  0.00    -0.352 N 
HETATM    5  C5  UNL     1     -17.301   5.438  10.446  1.00  0.00     0.220 C 
HETATM    6  O2  UNL     1     -16.945   6.174   9.490  1.00  0.00    -0.273 OA
HETATM    7  C12 UNL     1     -17.426   5.120  12.952  1.00  0.00     0.127 C 
HETATM    8  C13 UNL     1     -18.314   5.924  13.858  1.00  0.00     0.045 C 
ENDROOT
BRANCH   1   9
HETATM    9  N1  UNL     1     -17.822   7.722  15.430  1.00  0.00    -0.352 N 
HETATM   10  C1  UNL     1     -18.535   8.841  15.893  1.00  0.00     0.248 C 
HETATM   11  O1  UNL     1     -19.166   9.496  14.982  1.00  0.00    -0.268 OA
ATOM     12  H1  UNL     1     -17.303   7.173  16.115  1.00  0.00     0.163 HD
BRANCH  10  13
HETATM   13  C14 UNL     1     -18.625   9.312  17.255  1.00  0.00     0.016 C 
HETATM   14  C15 UNL     1     -19.623   8.840  18.012  1.00  0.00     0.057 C 
HETATM   15  S1  UNL     1     -19.763   9.397  19.692  1.00  0.00    -0.141 SA
HETATM   16  C16 UNL     1     -18.081   9.848  20.235  1.00  0.00     0.079 C 
HETATM   17  C17 UNL     1     -17.087   9.861  19.132  1.00  0.00     0.015 C 
HETATM   18  C18 UNL     1     -17.647  10.269  17.782  1.00  0.00     0.045 C 
ENDBRANCH  10  13
ENDBRANCH   1   9
BRANCH   5  19
HETATM   19  C6  UNL     1     -17.941   4.162  10.095  1.00  0.00     0.107 C 
BRANCH  19  20
HETATM   20  C7  UNL     1     -19.273   4.303   9.395  1.00  0.00    -0.006 C 
HETATM   21  C8  UNL     1     -19.878   2.986   8.976  1.00  0.00     0.005 C 
HETATM   22  C9  UNL     1     -20.257   2.296  10.261  1.00  0.00     0.000 C 
HETATM   23  C10 UNL     1     -20.551   3.419  11.240  1.00  0.00     0.000 C 
HETATM   24  C11 UNL     1     -20.257   4.713  10.504  1.00  0.00     0.005 C 
ENDBRANCH  19  20
ENDBRANCH   5  19
TORSDOF 4
ENDMDL
