MODEL 1
REMARK VINA RESULT: -7.473251569      0.000      0.000
REMARK  4 active torsions:
REMARK  status: ('A' for Active; 'I' for Inactive)
REMARK    1  A    between atoms: C4_4  and  C5_5 
REMARK    2  A    between atoms: C5_5  and  N1_6 
REMARK    3  A    between atoms: N2_13  and  C12_14 
REMARK    4  A    between atoms: C12_14  and  C13_15 
ROOT
HETATM    1  N1  UNL     1     -15.715   5.941   9.989  1.00  0.00    -0.372 N 
HETATM    2  C6  UNL     1     -15.052   7.117   9.739  1.00  0.00     0.063 C 
HETATM    3  C7  UNL     1     -13.549   7.082   9.690  1.00  0.00     0.046 C 
HETATM    4  C8  UNL     1     -12.918   5.750   9.820  1.00  0.00     0.022 C 
HETATM    5  C9  UNL     1     -13.744   4.720   9.139  1.00  0.00     0.010 C 
HETATM    6  C10 UNL     1     -13.795   5.009   7.667  1.00  0.00     0.037 C 
HETATM    7  C11 UNL     1     -12.418   4.433   7.258  1.00  0.00     0.128 C 
HETATM    8  N2  UNL     1     -12.108   3.449   8.177  1.00  0.00    -0.373 N 
HETATM    9  C18 UNL     1     -13.092   3.383   9.174  1.00  0.00     0.074 C 
HETATM   10  C19 UNL     1     -15.075   4.691   9.836  1.00  0.00     0.142 C 
ENDROOT
BRANCH   8  11
HETATM   11  C12 UNL     1     -11.151   2.478   7.993  1.00  0.00     0.068 C 
BRANCH  11  12
HETATM   12  C13 UNL     1     -10.388   2.135   9.266  1.00  0.00     0.027 C 
HETATM   13  C14 UNL     1     -10.175   0.634   9.360  1.00  0.00     0.037 C 
HETATM   14  C15 UNL     1      -8.807   0.267   8.775  1.00  0.00     0.233 C 
HETATM   15  N3  UNL     1      -7.786   0.778   9.633  1.00  0.00    -0.075 N 
HETATM   16  C16 UNL     1      -8.065   2.090  10.145  1.00  0.00     0.233 C 
ATOM     17  H32 UNL     1      -7.598   0.128  10.395  1.00  0.00     0.277 HD
ATOM     18  H31 UNL     1      -6.880   0.761   9.165  1.00  0.00     0.277 HD
HETATM   19  C17 UNL     1      -9.080   2.857   9.343  1.00  0.00     0.037 C 
ENDBRANCH  11  12
ENDBRANCH   8  11
BRANCH   1  20
HETATM   20  C5  UNL     1     -17.072   5.826   9.680  1.00  0.00     0.067 C 
BRANCH  20  21
HETATM   21  C4  UNL     1     -18.090   5.653  10.734  1.00  0.00     0.024 C 
HETATM   22  C3  UNL     1     -17.811   6.187  12.083  1.00  0.00     0.010 C 
HETATM   23  C2  UNL     1     -17.918   5.075  13.135  1.00  0.00     0.001 C 
HETATM   24  C1  UNL     1     -19.357   4.642  13.112  1.00  0.00     0.000 C 
HETATM   25  C21 UNL     1     -19.597   3.951  11.798  1.00  0.00     0.001 C 
HETATM   26  C20 UNL     1     -18.540   4.180  10.785  1.00  0.00     0.010 C 
ENDBRANCH  20  21
ENDBRANCH   1  20
TORSDOF 4
ENDMDL
MODEL 2
REMARK VINA RESULT: -7.425843532      0.543      1.159
REMARK  4 active torsions:
REMARK  status: ('A' for Active; 'I' for Inactive)
REMARK    1  A    between atoms: C4_4  and  C5_5 
REMARK    2  A    between atoms: C5_5  and  N1_6 
REMARK    3  A    between atoms: N2_13  and  C12_14 
REMARK    4  A    between atoms: C12_14  and  C13_15 
ROOT
HETATM    1  N1  UNL     1     -15.640   6.041  10.169  1.00  0.00    -0.372 N 
HETATM    2  C6  UNL     1     -15.031   7.240   9.898  1.00  0.00     0.063 C 
HETATM    3  C7  UNL     1     -13.533   7.254   9.757  1.00  0.00     0.046 C 
HETATM    4  C8  UNL     1     -12.854   5.942   9.827  1.00  0.00     0.022 C 
HETATM    5  C9  UNL     1     -13.687   4.895   9.182  1.00  0.00     0.010 C 
HETATM    6  C10 UNL     1     -13.838   5.202   7.721  1.00  0.00     0.037 C 
HETATM    7  C11 UNL     1     -12.471   4.677   7.219  1.00  0.00     0.128 C 
HETATM    8  N2  UNL     1     -12.075   3.690   8.103  1.00  0.00    -0.373 N 
HETATM    9  C18 UNL     1     -12.992   3.580   9.157  1.00  0.00     0.074 C 
HETATM   10  C19 UNL     1     -14.972   4.814   9.958  1.00  0.00     0.142 C 
ENDROOT
BRANCH   8  11
HETATM   11  C12 UNL     1     -11.101   2.754   7.846  1.00  0.00     0.068 C 
BRANCH  11  12
HETATM   12  C13 UNL     1     -10.296   2.366   9.079  1.00  0.00     0.027 C 
HETATM   13  C14 UNL     1     -10.073   0.863   9.109  1.00  0.00     0.037 C 
HETATM   14  C15 UNL     1      -8.722   0.528   8.467  1.00  0.00     0.233 C 
HETATM   15  N3  UNL     1      -7.678   1.012   9.312  1.00  0.00    -0.075 N 
HETATM   16  C16 UNL     1      -7.947   2.301   9.884  1.00  0.00     0.233 C 
ATOM     17  H32 UNL     1      -7.463   0.334  10.042  1.00  0.00     0.277 HD
ATOM     18  H31 UNL     1      -6.787   1.019   8.815  1.00  0.00     0.277 HD
HETATM   19  C17 UNL     1      -8.990   3.093   9.144  1.00  0.00     0.037 C 
ENDBRANCH  11  12
ENDBRANCH   8  11
BRANCH   1  20
HETATM   20  C5  UNL     1     -17.008   5.886   9.942  1.00  0.00     0.067 C 
BRANCH  20  21
HETATM   21  C4  UNL     1     -17.780   4.809  10.593  1.00  0.00     0.024 C 
HETATM   22  C3  UNL     1     -18.859   4.150   9.830  1.00  0.00     0.010 C 
HETATM   23  C2  UNL     1     -20.192   4.251  10.585  1.00  0.00     0.001 C 
HETATM   24  C1  UNL     1     -19.992   3.465  11.850  1.00  0.00     0.000 C 
HETATM   25  C21 UNL     1     -19.011   4.224  12.700  1.00  0.00     0.001 C 
HETATM   26  C20 UNL     1     -18.265   5.281  11.977  1.00  0.00     0.010 C 
ENDBRANCH  20  21
ENDBRANCH   1  20
TORSDOF 4
ENDMDL
MODEL 3
REMARK VINA RESULT: -7.416145907      1.531      2.216
REMARK  4 active torsions:
REMARK  status: ('A' for Active; 'I' for Inactive)
REMARK    1  A    between atoms: C4_4  and  C5_5 
REMARK    2  A    between atoms: C5_5  and  N1_6 
REMARK    3  A    between atoms: N2_13  and  C12_14 
REMARK    4  A    between atoms: C12_14  and  C13_15 
ROOT
HETATM    1  N1  UNL     1     -15.643   4.804  10.507  1.00  0.00    -0.372 N 
HETATM    2  C6  UNL     1     -15.458   5.632   9.428  1.00  0.00     0.063 C 
HETATM    3  C7  UNL     1     -14.078   5.720   8.835  1.00  0.00     0.046 C 
HETATM    4  C8  UNL     1     -13.055   4.821   9.414  1.00  0.00     0.022 C 
HETATM    5  C9  UNL     1     -13.665   3.516   9.780  1.00  0.00     0.010 C 
HETATM    6  C10 UNL     1     -14.163   2.829   8.543  1.00  0.00     0.037 C 
HETATM    7  C11 UNL     1     -12.821   2.260   8.023  1.00  0.00     0.128 C 
HETATM    8  N2  UNL     1     -12.006   2.089   9.126  1.00  0.00    -0.373 N 
HETATM    9  C18 UNL     1     -12.644   2.557  10.283  1.00  0.00     0.074 C 
HETATM   10  C19 UNL     1     -14.707   3.795  10.826  1.00  0.00     0.142 C 
ENDROOT
BRANCH   8  11
HETATM   11  C12 UNL     1     -10.873   1.310   9.149  1.00  0.00     0.068 C 
BRANCH  11  12
HETATM   12  C13 UNL     1      -9.775   1.814   8.221  1.00  0.00     0.027 C 
HETATM   13  C14 UNL     1      -9.236   3.144   8.721  1.00  0.00     0.037 C 
HETATM   14  C15 UNL     1      -8.000   2.906   9.595  1.00  0.00     0.233 C 
HETATM   15  N3  UNL     1      -6.936   2.431   8.769  1.00  0.00    -0.075 N 
HETATM   16  C16 UNL     1      -7.354   1.486   7.773  1.00  0.00     0.233 C 
ATOM     17  H32 UNL     1      -6.440   3.211   8.338  1.00  0.00     0.277 HD
ATOM     18  H31 UNL     1      -6.184   2.044   9.339  1.00  0.00     0.277 HD
HETATM   19  C17 UNL     1      -8.668   0.819   8.076  1.00  0.00     0.037 C 
ENDBRANCH  11  12
ENDBRANCH   8  11
BRANCH   1  20
HETATM   20  C5  UNL     1     -16.930   4.392  10.857  1.00  0.00     0.067 C 
BRANCH  20  21
HETATM   21  C4  UNL     1     -18.113   4.824  10.089  1.00  0.00     0.024 C 
HETATM   22  C3  UNL     1     -19.179   5.570  10.788  1.00  0.00     0.010 C 
HETATM   23  C2  UNL     1     -20.529   4.856  10.629  1.00  0.00     0.001 C 
HETATM   24  C1  UNL     1     -20.835   4.908   9.159  1.00  0.00     0.000 C 
HETATM   25  C21 UNL     1     -19.845   4.016   8.462  1.00  0.00     0.001 C 
HETATM   26  C20 UNL     1     -18.678   3.633   9.291  1.00  0.00     0.010 C 
ENDBRANCH  20  21
ENDBRANCH   1  20
TORSDOF 4
ENDMDL
MODEL 4
REMARK VINA RESULT: -7.322392656      1.416      1.834
REMARK  4 active torsions:
REMARK  status: ('A' for Active; 'I' for Inactive)
REMARK    1  A    between atoms: C4_4  and  C5_5 
REMARK    2  A    between atoms: C5_5  and  N1_6 
REMARK    3  A    between atoms: N2_13  and  C12_14 
REMARK    4  A    between atoms: C12_14  and  C13_15 
ROOT
HETATM    1  N1  UNL     1     -15.424   4.589  10.251  1.00  0.00    -0.372 N 
HETATM    2  C6  UNL     1     -15.267   5.615   9.354  1.00  0.00     0.063 C 
HETATM    3  C7  UNL     1     -13.880   5.900   8.844  1.00  0.00     0.046 C 
HETATM    4  C8  UNL     1     -12.814   4.974   9.285  1.00  0.00     0.022 C 
HETATM    5  C9  UNL     1     -13.342   3.588   9.377  1.00  0.00     0.010 C 
HETATM    6  C10 UNL     1     -13.757   3.117   8.014  1.00  0.00     0.037 C 
HETATM    7  C11 UNL     1     -12.365   2.742   7.452  1.00  0.00     0.128 C 
HETATM    8  N2  UNL     1     -11.571   2.417   8.535  1.00  0.00    -0.373 N 
HETATM    9  C18 UNL     1     -12.272   2.617   9.733  1.00  0.00     0.074 C 
HETATM   10  C19 UNL     1     -14.430   3.599  10.414  1.00  0.00     0.142 C 
ENDROOT
BRANCH   8  11
HETATM   11  C12 UNL     1     -10.388   1.720   8.458  1.00  0.00     0.068 C 
BRANCH  11  12
HETATM   12  C13 UNL     1      -9.889   1.227   9.810  1.00  0.00     0.027 C 
HETATM   13  C14 UNL     1      -9.645  -0.272   9.765  1.00  0.00     0.037 C 
HETATM   14  C15 UNL     1      -8.174  -0.548   9.436  1.00  0.00     0.233 C 
HETATM   15  N3  UNL     1      -7.370  -0.137  10.542  1.00  0.00    -0.075 N 
HETATM   16  C16 UNL     1      -7.795   1.097  11.140  1.00  0.00     0.233 C 
ATOM     17  H32 UNL     1      -7.318  -0.876  11.243  1.00  0.00     0.277 HD
ATOM     18  H31 UNL     1      -6.387  -0.086  10.274  1.00  0.00     0.277 HD
HETATM   19  C17 UNL     1      -8.652   1.948  10.244  1.00  0.00     0.037 C 
ENDBRANCH  11  12
ENDBRANCH   8  11
BRANCH   1  20
HETATM   20  C5  UNL     1     -16.688   4.038  10.467  1.00  0.00     0.067 C 
BRANCH  20  21
HETATM   21  C4  UNL     1     -17.897   4.623   9.856  1.00  0.00     0.024 C 
HETATM   22  C3  UNL     1     -18.689   5.593  10.638  1.00  0.00     0.010 C 
HETATM   23  C2  UNL     1     -20.145   5.125  10.762  1.00  0.00     0.001 C 
HETATM   24  C1  UNL     1     -20.686   5.131   9.361  1.00  0.00     0.000 C 
HETATM   25  C21 UNL     1     -19.992   4.030   8.607  1.00  0.00     0.001 C 
HETATM   26  C20 UNL     1     -18.780   3.501   9.276  1.00  0.00     0.010 C 
ENDBRANCH  20  21
ENDBRANCH   1  20
TORSDOF 4
ENDMDL
MODEL 5
REMARK VINA RESULT: -7.312284179      1.311      1.890
REMARK  4 active torsions:
REMARK  status: ('A' for Active; 'I' for Inactive)
REMARK    1  A    between atoms: C4_4  and  C5_5 
REMARK    2  A    between atoms: C5_5  and  N1_6 
REMARK    3  A    between atoms: N2_13  and  C12_14 
REMARK    4  A    between atoms: C12_14  and  C13_15 
ROOT
HETATM    1  N1  UNL     1     -16.029   6.047  11.163  1.00  0.00    -0.372 N 
HETATM    2  C6  UNL     1     -15.532   7.055  10.375  1.00  0.00     0.063 C 
HETATM    3  C7  UNL     1     -14.118   6.928   9.877  1.00  0.00     0.046 C 
HETATM    4  C8  UNL     1     -13.416   5.667  10.204  1.00  0.00     0.022 C 
HETATM    5  C9  UNL     1     -14.364   4.524  10.159  1.00  0.00     0.010 C 
HETATM    6  C10 UNL     1     -14.882   4.356   8.761  1.00  0.00     0.037 C 
HETATM    7  C11 UNL     1     -13.674   3.612   8.141  1.00  0.00     0.128 C 
HETATM    8  N2  UNL     1     -13.049   2.938   9.174  1.00  0.00    -0.373 N 
HETATM    9  C18 UNL     1     -13.671   3.229  10.396  1.00  0.00     0.074 C 
HETATM   10  C19 UNL     1     -15.410   4.778  11.207  1.00  0.00     0.142 C 
ENDROOT
BRANCH   8  11
HETATM   11  C12 UNL     1     -12.152   1.909   9.007  1.00  0.00     0.068 C 
BRANCH  11  12
HETATM   12  C13 UNL     1     -10.699   2.350   9.124  1.00  0.00     0.027 C 
HETATM   13  C14 UNL     1      -9.881   1.280   9.828  1.00  0.00     0.037 C 
HETATM   14  C15 UNL     1      -9.226   0.363   8.789  1.00  0.00     0.233 C 
HETATM   15  N3  UNL     1      -8.227   1.103   8.086  1.00  0.00    -0.075 N 
HETATM   16  C16 UNL     1      -8.618   2.448   7.771  1.00  0.00     0.233 C 
ATOM     17  H32 UNL     1      -7.346   1.097   8.600  1.00  0.00     0.277 HD
ATOM     18  H31 UNL     1      -7.938   0.607   7.243  1.00  0.00     0.277 HD
HETATM   19  C17 UNL     1     -10.105   2.674   7.790  1.00  0.00     0.037 C 
ENDBRANCH  11  12
ENDBRANCH   8  11
BRANCH   1  20
HETATM   20  C5  UNL     1     -17.407   5.914  11.339  1.00  0.00     0.067 C 
BRANCH  20  21
HETATM   21  C4  UNL     1     -18.191   4.931  10.567  1.00  0.00     0.024 C 
HETATM   22  C3  UNL     1     -18.669   5.305   9.221  1.00  0.00     0.010 C 
HETATM   23  C2  UNL     1     -20.194   5.156   9.130  1.00  0.00     0.001 C 
HETATM   24  C1  UNL     1     -20.462   3.689   9.310  1.00  0.00     0.000 C 
HETATM   25  C21 UNL     1     -20.127   3.342  10.734  1.00  0.00     0.001 C 
HETATM   26  C20 UNL     1     -19.329   4.371  11.442  1.00  0.00     0.010 C 
ENDBRANCH  20  21
ENDBRANCH   1  20
TORSDOF 4
ENDMDL
