MODEL 1
REMARK VINA RESULT: -7.428820547      0.000      0.000
REMARK  5 active torsions:
REMARK  status: ('A' for Active; 'I' for Inactive)
REMARK    1  A    between atoms: C4_4  and  C5_5 
REMARK    2  A    between atoms: C5_5  and  O1_6 
REMARK    3  A    between atoms: O1_6  and  C6_7 
REMARK    4  A    between atoms: C6_7  and  C7_9 
REMARK       I    between atoms: N1_14  and  C12_15 
REMARK       I    between atoms: C12_15  and  N2_17 
REMARK    5  A    between atoms: N2_17  and  C13_19 
ROOT
HETATM    1  C7  UNL     1     -12.843   4.272   9.369  1.00  0.00     0.188 C 
HETATM    2  C8  UNL     1     -11.707   5.214   9.263  1.00  0.00     0.036 C 
HETATM    3  C9  UNL     1     -12.034   6.657   9.103  1.00  0.00     0.004 C 
HETATM    4  C10 UNL     1     -13.219   6.975   8.265  1.00  0.00     0.020 C 
HETATM    5  C11 UNL     1     -14.052   5.777   7.891  1.00  0.00     0.128 C 
HETATM    6  N1  UNL     1     -14.082   4.918   9.034  1.00  0.00    -0.320 N 
HETATM    7  C12 UNL     1     -15.246   4.709   9.792  1.00  0.00     0.319 C 
HETATM    8  O3  UNL     1     -15.244   3.928  10.814  1.00  0.00    -0.247 OA
HETATM    9  N2  UNL     1     -16.497   5.317   9.513  1.00  0.00    -0.338 N 
ATOM     10  H2  UNL     1     -16.566   5.948   8.715  1.00  0.00     0.164 HD
ENDROOT
BRANCH   1  11
HETATM   11  C6  UNL     1     -12.669   3.105   8.434  1.00  0.00     0.282 C 
HETATM   12  O2  UNL     1     -13.484   2.141   8.506  1.00  0.00    -0.263 OA
BRANCH  11  13
HETATM   13  O1  UNL     1     -11.653   3.072   7.515  1.00  0.00    -0.319 OA
BRANCH  13  14
HETATM   14  C5  UNL     1     -11.798   3.467   6.175  1.00  0.00     0.183 C 
BRANCH  14  15
HETATM   15  C4  UNL     1     -10.790   4.472   5.725  1.00  0.00     0.014 A 
HETATM   16  C2  UNL     1     -10.587   4.795   4.297  1.00  0.00    -0.012 A 
HETATM   17  C1  UNL     1     -11.378   4.160   3.201  1.00  0.00     0.010 C 
HETATM   18  C3  UNL     1     -11.355   5.774   5.196  1.00  0.00     0.012 A 
ENDBRANCH  14  15
ENDBRANCH  13  14
ENDBRANCH  11  13
ENDBRANCH   1  11
BRANCH   9  19
HETATM   19  C13 UNL     1     -17.679   5.081  10.312  1.00  0.00     0.086 C 
HETATM   20  C14 UNL     1     -17.717   6.138  11.392  1.00  0.00     0.025 C 
HETATM   21  C15 UNL     1     -18.729   5.815  12.440  1.00  0.00     0.002 C 
HETATM   22  C16 UNL     1     -18.997   4.339  12.575  1.00  0.00     0.000 C 
HETATM   23  C17 UNL     1     -19.744   3.747  11.436  1.00  0.00     0.000 C 
HETATM   24  C18 UNL     1     -20.098   4.708  10.348  1.00  0.00     0.002 C 
HETATM   25  C19 UNL     1     -18.947   5.134   9.498  1.00  0.00     0.025 C 
ENDBRANCH   9  19
TORSDOF 5
ENDMDL
MODEL 2
REMARK VINA RESULT: -7.367948349      2.656      7.790
REMARK  5 active torsions:
REMARK  status: ('A' for Active; 'I' for Inactive)
REMARK    1  A    between atoms: C4_4  and  C5_5 
REMARK    2  A    between atoms: C5_5  and  O1_6 
REMARK    3  A    between atoms: O1_6  and  C6_7 
REMARK    4  A    between atoms: C6_7  and  C7_9 
REMARK       I    between atoms: N1_14  and  C12_15 
REMARK       I    between atoms: C12_15  and  N2_17 
REMARK    5  A    between atoms: N2_17  and  C13_19 
ROOT
HETATM    1  C7  UNL     1     -18.918   3.441  10.799  1.00  0.00     0.188 C 
HETATM    2  C8  UNL     1     -19.992   2.840   9.979  1.00  0.00     0.036 C 
HETATM    3  C9  UNL     1     -20.192   3.391   8.611  1.00  0.00     0.004 C 
HETATM    4  C10 UNL     1     -20.004   4.857   8.458  1.00  0.00     0.020 C 
HETATM    5  C11 UNL     1     -19.411   5.535   9.666  1.00  0.00     0.128 C 
HETATM    6  N1  UNL     1     -18.423   4.648  10.197  1.00  0.00    -0.320 N 
HETATM    7  C12 UNL     1     -17.048   4.928  10.140  1.00  0.00     0.319 C 
HETATM    8  O3  UNL     1     -16.181   4.113  10.628  1.00  0.00    -0.247 OA
HETATM    9  N2  UNL     1     -16.498   6.099   9.559  1.00  0.00    -0.338 N 
ATOM     10  H2  UNL     1     -17.132   6.787   9.153  1.00  0.00     0.164 HD
ENDROOT
BRANCH   1  11
HETATM   11  C6  UNL     1     -19.418   3.790  12.175  1.00  0.00     0.282 C 
HETATM   12  O2  UNL     1     -20.650   3.659  12.428  1.00  0.00    -0.263 OA
BRANCH  11  13
HETATM   13  O1  UNL     1     -18.567   4.242  13.150  1.00  0.00    -0.319 OA
BRANCH  13  14
HETATM   14  C5  UNL     1     -18.743   5.452  13.841  1.00  0.00     0.183 C 
BRANCH  14  15
HETATM   15  C4  UNL     1     -18.074   6.621  13.198  1.00  0.00     0.014 A 
HETATM   16  C2  UNL     1     -17.465   7.711  13.990  1.00  0.00    -0.012 A 
HETATM   17  C1  UNL     1     -17.458   7.722  15.483  1.00  0.00     0.010 C 
HETATM   18  C3  UNL     1     -16.565   6.662  13.323  1.00  0.00     0.012 A 
ENDBRANCH  14  15
ENDBRANCH  13  14
ENDBRANCH  11  13
ENDBRANCH   1  11
BRANCH   9  19
HETATM   19  C13 UNL     1     -15.076   6.360   9.516  1.00  0.00     0.086 C 
HETATM   20  C14 UNL     1     -14.560   5.859   8.187  1.00  0.00     0.025 C 
HETATM   21  C15 UNL     1     -13.069   5.814   8.159  1.00  0.00     0.002 C 
HETATM   22  C16 UNL     1     -12.452   5.636   9.521  1.00  0.00     0.000 C 
HETATM   23  C17 UNL     1     -12.565   6.825  10.403  1.00  0.00     0.000 C 
HETATM   24  C18 UNL     1     -13.274   7.993   9.799  1.00  0.00     0.002 C 
HETATM   25  C19 UNL     1     -14.752   7.824   9.673  1.00  0.00     0.025 C 
ENDBRANCH   9  19
TORSDOF 5
ENDMDL
MODEL 3
REMARK VINA RESULT: -7.277416613      1.768      2.650
REMARK  5 active torsions:
REMARK  status: ('A' for Active; 'I' for Inactive)
REMARK    1  A    between atoms: C4_4  and  C5_5 
REMARK    2  A    between atoms: C5_5  and  O1_6 
REMARK    3  A    between atoms: O1_6  and  C6_7 
REMARK    4  A    between atoms: C6_7  and  C7_9 
REMARK       I    between atoms: N1_14  and  C12_15 
REMARK       I    between atoms: C12_15  and  N2_17 
REMARK    5  A    between atoms: N2_17  and  C13_19 
ROOT
HETATM    1  C7  UNL     1     -12.855   4.258   9.365  1.00  0.00     0.188 C 
HETATM    2  C8  UNL     1     -11.716   5.194   9.250  1.00  0.00     0.036 C 
HETATM    3  C9  UNL     1     -12.037   6.637   9.079  1.00  0.00     0.004 C 
HETATM    4  C10 UNL     1     -13.222   6.953   8.241  1.00  0.00     0.020 C 
HETATM    5  C11 UNL     1     -14.061   5.756   7.878  1.00  0.00     0.128 C 
HETATM    6  N1  UNL     1     -14.092   4.906   9.027  1.00  0.00    -0.320 N 
HETATM    7  C12 UNL     1     -15.255   4.707   9.789  1.00  0.00     0.319 C 
HETATM    8  O3  UNL     1     -15.255   3.935  10.818  1.00  0.00    -0.247 OA
HETATM    9  N2  UNL     1     -16.504   5.319   9.508  1.00  0.00    -0.338 N 
ATOM     10  H2  UNL     1     -16.572   5.944   8.705  1.00  0.00     0.164 HD
ENDROOT
BRANCH   1  11
HETATM   11  C6  UNL     1     -12.688   3.083   8.439  1.00  0.00     0.282 C 
HETATM   12  O2  UNL     1     -13.553   2.161   8.462  1.00  0.00    -0.263 OA
BRANCH  11  13
HETATM   13  O1  UNL     1     -11.624   2.997   7.579  1.00  0.00    -0.319 OA
BRANCH  13  14
HETATM   14  C5  UNL     1     -10.405   2.379   7.903  1.00  0.00     0.183 C 
BRANCH  14  15
HETATM   15  C4  UNL     1     -10.479   1.477   9.092  1.00  0.00     0.014 A 
HETATM   16  C2  UNL     1      -9.623   0.279   9.223  1.00  0.00    -0.012 A 
HETATM   17  C1  UNL     1      -8.615  -0.114   8.194  1.00  0.00     0.010 C 
HETATM   18  C3  UNL     1      -9.295   1.540  10.035  1.00  0.00     0.012 A 
ENDBRANCH  14  15
ENDBRANCH  13  14
ENDBRANCH  11  13
ENDBRANCH   1  11
BRANCH   9  19
HETATM   19  C13 UNL     1     -17.686   5.094  10.311  1.00  0.00     0.086 C 
HETATM   20  C14 UNL     1     -17.711   6.152  11.390  1.00  0.00     0.025 C 
HETATM   21  C15 UNL     1     -18.722   5.839  12.442  1.00  0.00     0.002 C 
HETATM   22  C16 UNL     1     -19.003   4.365  12.579  1.00  0.00     0.000 C 
HETATM   23  C17 UNL     1     -19.759   3.780  11.443  1.00  0.00     0.000 C 
HETATM   24  C18 UNL     1     -20.108   4.742  10.355  1.00  0.00     0.002 C 
HETATM   25  C19 UNL     1     -18.956   5.158   9.501  1.00  0.00     0.025 C 
ENDBRANCH   9  19
TORSDOF 5
ENDMDL
MODEL 4
REMARK VINA RESULT: -7.211481689      1.195      1.764
REMARK  5 active torsions:
REMARK  status: ('A' for Active; 'I' for Inactive)
REMARK    1  A    between atoms: C4_4  and  C5_5 
REMARK    2  A    between atoms: C5_5  and  O1_6 
REMARK    3  A    between atoms: O1_6  and  C6_7 
REMARK    4  A    between atoms: C6_7  and  C7_9 
REMARK       I    between atoms: N1_14  and  C12_15 
REMARK       I    between atoms: C12_15  and  N2_17 
REMARK    5  A    between atoms: N2_17  and  C13_19 
ROOT
HETATM    1  C7  UNL     1     -13.075   4.494   9.097  1.00  0.00     0.188 C 
HETATM    2  C8  UNL     1     -11.874   5.330   9.310  1.00  0.00     0.036 C 
HETATM    3  C9  UNL     1     -12.095   6.747   9.709  1.00  0.00     0.004 C 
HETATM    4  C10 UNL     1     -13.260   7.432   9.090  1.00  0.00     0.020 C 
HETATM    5  C11 UNL     1     -14.182   6.517   8.326  1.00  0.00     0.128 C 
HETATM    6  N1  UNL     1     -14.266   5.298   9.069  1.00  0.00    -0.320 N 
HETATM    7  C12 UNL     1     -15.437   4.898   9.735  1.00  0.00     0.319 C 
HETATM    8  O3  UNL     1     -15.485   3.794  10.393  1.00  0.00    -0.247 OA
HETATM    9  N2  UNL     1     -16.641   5.647   9.745  1.00  0.00    -0.338 N 
ATOM     10  H2  UNL     1     -16.669   6.533   9.241  1.00  0.00     0.164 HD
ENDROOT
BRANCH   1  11
HETATM   11  C6  UNL     1     -12.995   3.751   7.790  1.00  0.00     0.282 C 
HETATM   12  O2  UNL     1     -13.568   2.628   7.692  1.00  0.00    -0.263 OA
BRANCH  11  13
HETATM   13  O1  UNL     1     -12.318   4.268   6.716  1.00  0.00    -0.319 OA
BRANCH  13  14
HETATM   14  C5  UNL     1     -11.241   3.621   6.088  1.00  0.00     0.183 C 
BRANCH  14  15
HETATM   15  C4  UNL     1      -9.910   3.936   6.687  1.00  0.00     0.014 A 
HETATM   16  C2  UNL     1      -9.284   3.071   7.709  1.00  0.00    -0.012 A 
HETATM   17  C1  UNL     1      -9.921   1.815   8.209  1.00  0.00     0.010 C 
HETATM   18  C3  UNL     1      -8.771   3.032   6.263  1.00  0.00     0.012 A 
ENDBRANCH  14  15
ENDBRANCH  13  14
ENDBRANCH  11  13
ENDBRANCH   1  11
BRANCH   9  19
HETATM   19  C13 UNL     1     -17.831   5.208  10.439  1.00  0.00     0.086 C 
HETATM   20  C14 UNL     1     -17.962   6.044  11.692  1.00  0.00     0.025 C 
HETATM   21  C15 UNL     1     -18.985   5.482  12.622  1.00  0.00     0.002 C 
HETATM   22  C16 UNL     1     -19.173   3.995  12.474  1.00  0.00     0.000 C 
HETATM   23  C17 UNL     1     -19.850   3.587  11.217  1.00  0.00     0.000 C 
HETATM   24  C18 UNL     1     -20.225   4.712  10.309  1.00  0.00     0.002 C 
HETATM   25  C19 UNL     1     -19.075   5.346   9.599  1.00  0.00     0.025 C 
ENDBRANCH   9  19
TORSDOF 5
ENDMDL
MODEL 5
REMARK VINA RESULT: -7.064138713      2.446      7.961
REMARK  5 active torsions:
REMARK  status: ('A' for Active; 'I' for Inactive)
REMARK    1  A    between atoms: C4_4  and  C5_5 
REMARK    2  A    between atoms: C5_5  and  O1_6 
REMARK    3  A    between atoms: O1_6  and  C6_7 
REMARK    4  A    between atoms: C6_7  and  C7_9 
REMARK       I    between atoms: N1_14  and  C12_15 
REMARK       I    between atoms: C12_15  and  N2_17 
REMARK    5  A    between atoms: N2_17  and  C13_19 
ROOT
HETATM    1  C7  UNL     1     -18.619   3.733  11.322  1.00  0.00     0.188 C 
HETATM    2  C8  UNL     1     -19.754   3.023  10.695  1.00  0.00     0.036 C 
HETATM    3  C9  UNL     1     -19.997   3.273   9.248  1.00  0.00     0.004 C 
HETATM    4  C10 UNL     1     -19.756   4.660   8.770  1.00  0.00     0.020 C 
HETATM    5  C11 UNL     1     -19.080   5.553   9.777  1.00  0.00     0.128 C 
HETATM    6  N1  UNL     1     -18.104   4.754  10.452  1.00  0.00    -0.320 N 
HETATM    7  C12 UNL     1     -16.723   4.945  10.284  1.00  0.00     0.319 C 
HETATM    8  O3  UNL     1     -15.868   4.213  10.905  1.00  0.00    -0.247 OA
HETATM    9  N2  UNL     1     -16.154   5.933   9.439  1.00  0.00    -0.338 N 
ATOM     10  H2  UNL     1     -16.778   6.547   8.917  1.00  0.00     0.164 HD
ENDROOT
BRANCH   1  11
HETATM   11  C6  UNL     1     -19.037   4.397  12.607  1.00  0.00     0.282 C 
HETATM   12  O2  UNL     1     -20.218   4.224  13.025  1.00  0.00    -0.263 OA
BRANCH  11  13
HETATM   13  O1  UNL     1     -18.168   5.177  13.323  1.00  0.00    -0.319 OA
BRANCH  13  14
HETATM   14  C5  UNL     1     -18.293   6.570  13.453  1.00  0.00     0.183 C 
BRANCH  14  15
HETATM   15  C4  UNL     1     -17.950   7.087  14.811  1.00  0.00     0.014 A 
HETATM   16  C2  UNL     1     -16.856   8.057  15.029  1.00  0.00    -0.012 A 
HETATM   17  C1  UNL     1     -16.023   8.604  13.917  1.00  0.00     0.010 C 
HETATM   18  C3  UNL     1     -18.314   8.534  15.072  1.00  0.00     0.012 A 
ENDBRANCH  14  15
ENDBRANCH  13  14
ENDBRANCH  11  13
ENDBRANCH   1  11
BRANCH   9  19
HETATM   19  C13 UNL     1     -14.726   6.107   9.287  1.00  0.00     0.086 C 
HETATM   20  C14 UNL     1     -14.346   5.579   7.923  1.00  0.00     0.025 C 
HETATM   21  C15 UNL     1     -12.867   5.443   7.780  1.00  0.00     0.002 C 
HETATM   22  C16 UNL     1     -12.159   5.223   9.091  1.00  0.00     0.000 C 
HETATM   23  C17 UNL     1     -12.131   6.415   9.977  1.00  0.00     0.000 C 
HETATM   24  C18 UNL     1     -12.811   7.625   9.427  1.00  0.00     0.002 C 
HETATM   25  C19 UNL     1     -14.302   7.548   9.415  1.00  0.00     0.025 C 
ENDBRANCH   9  19
TORSDOF 5
ENDMDL
