MODEL 1
REMARK VINA RESULT: -6.609575607      0.000      0.000
REMARK  2 active torsions:
REMARK  status: ('A' for Active; 'I' for Inactive)
REMARK    1  A    between atoms: N1_4  and  C4_5 
REMARK    2  A    between atoms: N2_9  and  C7_10 
ROOT
HETATM    1  C4  UNL     1     -14.335  -5.892   7.469  1.00  0.00     0.365 C 
HETATM    2  O1  UNL     1     -15.008  -7.094   7.710  1.00  0.00    -0.349 OA
HETATM    3  C5  UNL     1     -16.095  -7.146   6.863  1.00  0.00     0.161 C 
HETATM    4  C6  UNL     1     -15.717  -7.381   5.413  1.00  0.00     0.305 C 
HETATM    5  N2  UNL     1     -14.640  -6.533   5.017  1.00  0.00     0.096 N 
HETATM    6  C12 UNL     1     -14.937  -5.138   5.242  1.00  0.00     0.283 C 
HETATM    7  C13 UNL     1     -15.281  -4.992   6.721  1.00  0.00     0.084 C 
HETATM    8  C14 UNL     1     -16.587  -5.717   6.915  1.00  0.00    -0.003 A 
HETATM    9  C15 UNL     1     -17.763  -5.253   6.180  1.00  0.00     0.013 A 
HETATM   10  C16 UNL     1     -17.705  -5.264   7.698  1.00  0.00     0.013 A 
ENDROOT
BRANCH   1  11
HETATM   11  N1  UNL     1     -13.778  -5.304   8.651  1.00  0.00     0.117 N 
HETATM   12  C3  UNL     1     -13.856  -6.289   9.711  1.00  0.00     0.276 C 
HETATM   13  C2  UNL     1     -13.008  -5.847  10.897  1.00  0.00     0.030 C 
HETATM   14  C1  UNL     1     -13.671  -4.585  11.439  1.00  0.00     0.003 C 
HETATM   15  C18 UNL     1     -13.674  -3.592  10.311  1.00  0.00     0.030 C 
HETATM   16  C17 UNL     1     -14.438  -4.117   9.099  1.00  0.00     0.276 C 
ENDBRANCH   1  11
BRANCH   5  17
HETATM   17  C7  UNL     1     -14.188  -6.809   3.691  1.00  0.00     0.223 C 
HETATM   18  C8  UNL     1     -15.193  -7.429   2.783  1.00  0.00     0.036 C 
HETATM   19  C9  UNL     1     -14.910  -6.794   1.420  1.00  0.00     0.002 C 
HETATM   20  C10 UNL     1     -13.570  -6.123   1.537  1.00  0.00     0.002 C 
HETATM   21  C11 UNL     1     -13.591  -5.634   2.982  1.00  0.00     0.036 C 
ENDBRANCH   5  17
TORSDOF 2
ENDMDL
MODEL 2
REMARK VINA RESULT: -6.558307192      0.670      1.268
REMARK  2 active torsions:
REMARK  status: ('A' for Active; 'I' for Inactive)
REMARK    1  A    between atoms: N1_4  and  C4_5 
REMARK    2  A    between atoms: N2_9  and  C7_10 
ROOT
HETATM    1  C4  UNL     1     -14.732  -6.555   7.649  1.00  0.00     0.365 C 
HETATM    2  O1  UNL     1     -15.694  -7.564   7.524  1.00  0.00    -0.349 OA
HETATM    3  C5  UNL     1     -16.597  -7.169   6.560  1.00  0.00     0.161 C 
HETATM    4  C6  UNL     1     -16.033  -7.214   5.153  1.00  0.00     0.305 C 
HETATM    5  N2  UNL     1     -14.737  -6.617   5.098  1.00  0.00     0.096 N 
HETATM    6  C12 UNL     1     -14.743  -5.262   5.595  1.00  0.00     0.283 C 
HETATM    7  C13 UNL     1     -15.300  -5.315   7.015  1.00  0.00     0.084 C 
HETATM    8  C14 UNL     1     -16.751  -5.697   6.875  1.00  0.00    -0.003 A 
HETATM    9  C15 UNL     1     -17.641  -4.813   6.126  1.00  0.00     0.013 A 
HETATM   10  C16 UNL     1     -17.856  -5.126   7.597  1.00  0.00     0.013 A 
ENDROOT
BRANCH   1  11
HETATM   11  N1  UNL     1     -14.273  -6.369   8.993  1.00  0.00     0.117 N 
HETATM   12  C3  UNL     1     -13.933  -4.969   9.152  1.00  0.00     0.276 C 
HETATM   13  C2  UNL     1     -13.737  -4.644  10.626  1.00  0.00     0.030 C 
HETATM   14  C1  UNL     1     -12.510  -5.433  11.072  1.00  0.00     0.003 C 
HETATM   15  C18 UNL     1     -12.827  -6.881  10.822  1.00  0.00     0.030 C 
HETATM   16  C17 UNL     1     -13.128  -7.147   9.350  1.00  0.00     0.276 C 
ENDBRANCH   1  11
BRANCH   5  17
HETATM   17  C7  UNL     1     -14.134  -6.744   3.810  1.00  0.00     0.223 C 
HETATM   18  C8  UNL     1     -15.013  -7.283   2.735  1.00  0.00     0.036 C 
HETATM   19  C9  UNL     1     -14.601  -6.504   1.485  1.00  0.00     0.002 C 
HETATM   20  C10 UNL     1     -13.303  -5.824   1.821  1.00  0.00     0.002 C 
HETATM   21  C11 UNL     1     -13.498  -5.490   3.297  1.00  0.00     0.036 C 
ENDBRANCH   5  17
TORSDOF 2
ENDMDL
MODEL 3
REMARK VINA RESULT: -6.369458418      1.820      6.012
REMARK  2 active torsions:
REMARK  status: ('A' for Active; 'I' for Inactive)
REMARK    1  A    between atoms: N1_4  and  C4_5 
REMARK    2  A    between atoms: N2_9  and  C7_10 
ROOT
HETATM    1  C4  UNL     1     -13.913  -4.348   6.727  1.00  0.00     0.365 C 
HETATM    2  O1  UNL     1     -14.425  -3.173   7.284  1.00  0.00    -0.349 OA
HETATM    3  C5  UNL     1     -15.391  -3.527   8.203  1.00  0.00     0.161 C 
HETATM    4  C6  UNL     1     -14.821  -4.150   9.464  1.00  0.00     0.305 C 
HETATM    5  N2  UNL     1     -13.842  -5.140   9.152  1.00  0.00     0.096 N 
HETATM    6  C12 UNL     1     -14.364  -6.162   8.275  1.00  0.00     0.283 C 
HETATM    7  C13 UNL     1     -14.890  -5.451   7.032  1.00  0.00     0.084 C 
HETATM    8  C14 UNL     1     -16.090  -4.660   7.485  1.00  0.00    -0.003 A 
HETATM    9  C15 UNL     1     -17.230  -5.378   8.051  1.00  0.00     0.013 A 
HETATM   10  C16 UNL     1     -17.343  -4.540   6.789  1.00  0.00     0.013 A 
ENDROOT
BRANCH   1  11
HETATM   11  N1  UNL     1     -13.585  -4.224   5.338  1.00  0.00     0.117 N 
HETATM   12  C3  UNL     1     -14.161  -2.983   4.858  1.00  0.00     0.276 C 
HETATM   13  C2  UNL     1     -13.593  -2.640   3.488  1.00  0.00     0.030 C 
HETATM   14  C1  UNL     1     -14.087  -3.731   2.543  1.00  0.00     0.003 C 
HETATM   15  C18 UNL     1     -13.566  -5.031   3.091  1.00  0.00     0.030 C 
HETATM   16  C17 UNL     1     -14.067  -5.285   4.509  1.00  0.00     0.276 C 
ENDBRANCH   1  11
BRANCH   5  17
HETATM   17  C7  UNL     1     -13.208  -5.665  10.319  1.00  0.00     0.223 C 
HETATM   18  C8  UNL     1     -12.586  -7.009  10.167  1.00  0.00     0.036 C 
HETATM   19  C9  UNL     1     -11.318  -6.936  11.019  1.00  0.00     0.002 C 
HETATM   20  C10 UNL     1     -11.454  -5.705  11.872  1.00  0.00     0.002 C 
HETATM   21  C11 UNL     1     -12.191  -4.755  10.934  1.00  0.00     0.036 C 
ENDBRANCH   5  17
TORSDOF 2
ENDMDL
MODEL 4
REMARK VINA RESULT: -6.288870067      7.066      9.703
REMARK  2 active torsions:
REMARK  status: ('A' for Active; 'I' for Inactive)
REMARK    1  A    between atoms: N1_4  and  C4_5 
REMARK    2  A    between atoms: N2_9  and  C7_10 
ROOT
HETATM    1  C4  UNL     1     -15.845   1.624  13.806  1.00  0.00     0.365 C 
HETATM    2  O1  UNL     1     -15.825   0.574  14.729  1.00  0.00    -0.349 OA
HETATM    3  C5  UNL     1     -16.563  -0.465  14.203  1.00  0.00     0.161 C 
HETATM    4  C6  UNL     1     -15.877  -1.164  13.045  1.00  0.00     0.305 C 
HETATM    5  N2  UNL     1     -15.348  -0.221  12.114  1.00  0.00     0.096 N 
HETATM    6  C12 UNL     1     -16.360   0.687  11.627  1.00  0.00     0.283 C 
HETATM    7  C13 UNL     1     -16.976   1.358  12.850  1.00  0.00     0.084 C 
HETATM    8  C14 UNL     1     -17.727   0.276  13.582  1.00  0.00    -0.003 A 
HETATM    9  C15 UNL     1     -18.826  -0.402  12.897  1.00  0.00     0.013 A 
HETATM   10  C16 UNL     1     -19.032   0.395  14.174  1.00  0.00     0.013 A 
ENDROOT
BRANCH   1  11
HETATM   11  N1  UNL     1     -15.886   2.919  14.416  1.00  0.00     0.117 N 
HETATM   12  C3  UNL     1     -14.630   3.582  14.128  1.00  0.00     0.276 C 
HETATM   13  C2  UNL     1     -14.728   5.061  14.477  1.00  0.00     0.030 C 
HETATM   14  C1  UNL     1     -14.905   5.125  15.991  1.00  0.00     0.003 C 
HETATM   15  C18 UNL     1     -16.160   4.359  16.301  1.00  0.00     0.030 C 
HETATM   16  C17 UNL     1     -16.066   2.909  15.835  1.00  0.00     0.276 C 
ENDBRANCH   1  11
BRANCH   5  17
HETATM   17  C7  UNL     1     -14.600  -0.847  11.071  1.00  0.00     0.223 C 
HETATM   18  C8  UNL     1     -14.375  -2.311  11.227  1.00  0.00     0.036 C 
HETATM   19  C9  UNL     1     -14.468  -2.860   9.802  1.00  0.00     0.002 C 
HETATM   20  C10 UNL     1     -14.396  -1.669   8.886  1.00  0.00     0.002 C 
HETATM   21  C11 UNL     1     -15.137  -0.608   9.694  1.00  0.00     0.036 C 
ENDBRANCH   5  17
TORSDOF 2
ENDMDL
MODEL 5
REMARK VINA RESULT: -6.208302020      1.146      5.999
REMARK  2 active torsions:
REMARK  status: ('A' for Active; 'I' for Inactive)
REMARK    1  A    between atoms: N1_4  and  C4_5 
REMARK    2  A    between atoms: N2_9  and  C7_10 
ROOT
HETATM    1  C4  UNL     1     -14.452  -5.946   6.249  1.00  0.00     0.365 C 
HETATM    2  O1  UNL     1     -14.532  -4.551   6.315  1.00  0.00    -0.349 OA
HETATM    3  C5  UNL     1     -15.403  -4.226   7.333  1.00  0.00     0.161 C 
HETATM    4  C6  UNL     1     -14.837  -4.488   8.716  1.00  0.00     0.305 C 
HETATM    5  N2  UNL     1     -14.225  -5.776   8.786  1.00  0.00     0.096 N 
HETATM    6  C12 UNL     1     -15.135  -6.830   8.404  1.00  0.00     0.283 C 
HETATM    7  C13 UNL     1     -15.633  -6.497   7.001  1.00  0.00     0.084 C 
HETATM    8  C14 UNL     1     -16.487  -5.264   7.147  1.00  0.00    -0.003 A 
HETATM    9  C15 UNL     1     -17.677  -5.332   7.992  1.00  0.00     0.013 A 
HETATM   10  C16 UNL     1     -17.752  -5.023   6.506  1.00  0.00     0.013 A 
ENDROOT
BRANCH   1  11
HETATM   11  N1  UNL     1     -14.322  -6.447   4.914  1.00  0.00     0.117 N 
HETATM   12  C3  UNL     1     -13.947  -5.336   4.061  1.00  0.00     0.276 C 
HETATM   13  C2  UNL     1     -13.493  -5.851   2.702  1.00  0.00     0.030 C 
HETATM   14  C1  UNL     1     -14.723  -6.484   2.060  1.00  0.00     0.003 C 
HETATM   15  C18 UNL     1     -15.168  -7.578   2.989  1.00  0.00     0.030 C 
HETATM   16  C17 UNL     1     -15.508  -7.038   4.375  1.00  0.00     0.276 C 
ENDBRANCH   1  11
BRANCH   5  17
HETATM   17  C7  UNL     1     -13.586  -6.007  10.041  1.00  0.00     0.223 C 
HETATM   18  C8  UNL     1     -12.689  -7.194  10.101  1.00  0.00     0.036 C 
HETATM   19  C9  UNL     1     -11.531  -6.747  10.995  1.00  0.00     0.002 C 
HETATM   20  C10 UNL     1     -11.983  -5.480  11.668  1.00  0.00     0.002 C 
HETATM   21  C11 UNL     1     -12.829  -4.831  10.576  1.00  0.00     0.036 C 
ENDBRANCH   5  17
TORSDOF 2
ENDMDL
