MODEL 1
REMARK VINA RESULT: -7.116588638      0.000      0.000
REMARK  2 active torsions:
REMARK  status: ('A' for Active; 'I' for Inactive)
REMARK       I    between atoms: C1_2  and  N1_3 
REMARK       I    between atoms: C1_2  and  N3_18 
REMARK    1  A    between atoms: N1_3  and  C2_5 
REMARK    2  A    between atoms: N2_11  and  C7_12 
ROOT
HETATM    1  C2  UNL     1     -13.906  -2.683  11.978  1.00  0.00     0.094 C 
HETATM    2  C3  UNL     1     -14.591  -2.559  13.317  1.00  0.00     0.089 C 
HETATM    3  C4  UNL     1     -15.138  -1.155  13.461  1.00  0.00     0.366 C 
HETATM    4  O2  UNL     1     -14.294  -0.269  12.781  1.00  0.00    -0.321 OA
HETATM    5  C5  UNL     1     -15.075  -0.516  11.636  1.00  0.00     0.366 C 
HETATM    6  C6  UNL     1     -14.471  -1.725  10.955  1.00  0.00     0.089 C 
HETATM    7  N2  UNL     1     -16.168  -0.918  12.468  1.00  0.00     0.150 N 
ENDROOT
BRANCH   1   8
HETATM    8  N1  UNL     1     -14.056  -4.035  11.464  1.00  0.00    -0.338 N 
HETATM    9  C1  UNL     1     -12.940  -4.885  11.242  1.00  0.00     0.318 C 
HETATM   10  O1  UNL     1     -11.759  -4.491  11.487  1.00  0.00    -0.247 OA
HETATM   11  N3  UNL     1     -13.141  -6.192  10.741  1.00  0.00    -0.334 N 
HETATM   12  C13 UNL     1     -14.424  -6.775  10.418  1.00  0.00     0.127 C 
HETATM   13  C16 UNL     1     -12.084  -7.173  10.466  1.00  0.00     0.127 C 
HETATM   14  C14 UNL     1     -14.141  -8.229  10.112  1.00  0.00     0.022 C 
HETATM   15  C15 UNL     1     -12.830  -8.462  10.820  1.00  0.00     0.022 C 
ATOM     16  H1  UNL     1     -14.992  -4.384  11.257  1.00  0.00     0.164 HD
ENDBRANCH   1   8
BRANCH   7  17
HETATM   17  C7  UNL     1     -17.114   0.091  12.843  1.00  0.00     0.229 C 
HETATM   18  C8  UNL     1     -18.176  -0.525  13.685  1.00  0.00     0.036 C 
HETATM   19  C9  UNL     1     -19.307   0.376  14.038  1.00  0.00     0.002 C 
HETATM   20  C10 UNL     1     -19.727   1.309  12.943  1.00  0.00     0.000 C 
HETATM   21  C11 UNL     1     -18.539   1.969  12.268  1.00  0.00     0.002 C 
HETATM   22  C12 UNL     1     -17.719   0.818  11.669  1.00  0.00     0.036 C 
ENDBRANCH   7  17
TORSDOF 2
ENDMDL
MODEL 2
REMARK VINA RESULT: -6.908968132      4.357      8.078
REMARK  2 active torsions:
REMARK  status: ('A' for Active; 'I' for Inactive)
REMARK       I    between atoms: C1_2  and  N1_3 
REMARK       I    between atoms: C1_2  and  N3_18 
REMARK    1  A    between atoms: N1_3  and  C2_5 
REMARK    2  A    between atoms: N2_11  and  C7_12 
ROOT
HETATM    1  C2  UNL     1     -14.284  -3.718   9.238  1.00  0.00     0.094 C 
HETATM    2  C3  UNL     1     -13.787  -3.412  10.629  1.00  0.00     0.089 C 
HETATM    3  C4  UNL     1     -13.638  -4.709  11.395  1.00  0.00     0.366 C 
HETATM    4  O2  UNL     1     -14.614  -5.611  10.950  1.00  0.00    -0.321 OA
HETATM    5  C5  UNL     1     -13.689  -6.017   9.971  1.00  0.00     0.366 C 
HETATM    6  C6  UNL     1     -13.890  -5.104   8.781  1.00  0.00     0.089 C 
HETATM    7  N2  UNL     1     -12.614  -5.534  10.783  1.00  0.00     0.150 N 
ENDROOT
BRANCH   1   8
HETATM    8  N1  UNL     1     -13.740  -2.757   8.291  1.00  0.00    -0.338 N 
HETATM    9  C1  UNL     1     -14.528  -2.194   7.253  1.00  0.00     0.318 C 
HETATM   10  O1  UNL     1     -15.748  -2.512   7.112  1.00  0.00    -0.247 OA
HETATM   11  N3  UNL     1     -13.950  -1.264   6.358  1.00  0.00    -0.334 N 
HETATM   12  C13 UNL     1     -12.578  -0.809   6.397  1.00  0.00     0.127 C 
HETATM   13  C16 UNL     1     -14.644  -0.606   5.244  1.00  0.00     0.127 C 
HETATM   14  C14 UNL     1     -12.494   0.307   5.379  1.00  0.00     0.022 C 
HETATM   15  C15 UNL     1     -13.931   0.749   5.261  1.00  0.00     0.022 C 
ATOM     16  H1  UNL     1     -12.761  -2.480   8.376  1.00  0.00     0.164 HD
ENDBRANCH   1   8
BRANCH   7  17
HETATM   17  C7  UNL     1     -12.002  -6.464  11.685  1.00  0.00     0.229 C 
HETATM   18  C8  UNL     1     -11.056  -5.733  12.572  1.00  0.00     0.036 C 
HETATM   19  C9  UNL     1     -10.242  -6.591  13.475  1.00  0.00     0.002 C 
HETATM   20  C10 UNL     1      -9.783  -7.880  12.864  1.00  0.00     0.000 C 
HETATM   21  C11 UNL     1     -10.896  -8.582  12.107  1.00  0.00     0.002 C 
HETATM   22  C12 UNL     1     -11.308  -7.609  10.993  1.00  0.00     0.036 C 
ENDBRANCH   7  17
TORSDOF 2
ENDMDL
MODEL 3
REMARK VINA RESULT: -6.798917500      4.981      8.171
REMARK  2 active torsions:
REMARK  status: ('A' for Active; 'I' for Inactive)
REMARK       I    between atoms: C1_2  and  N1_3 
REMARK       I    between atoms: C1_2  and  N3_18 
REMARK    1  A    between atoms: N1_3  and  C2_5 
REMARK    2  A    between atoms: N2_11  and  C7_12 
ROOT
HETATM    1  C2  UNL     1     -14.479  -4.757   8.264  1.00  0.00     0.094 C 
HETATM    2  C3  UNL     1     -13.972  -4.072   9.509  1.00  0.00     0.089 C 
HETATM    3  C4  UNL     1     -13.813  -5.101  10.607  1.00  0.00     0.366 C 
HETATM    4  O2  UNL     1     -14.788  -6.093  10.442  1.00  0.00    -0.321 OA
HETATM    5  C5  UNL     1     -13.870  -6.757   9.608  1.00  0.00     0.366 C 
HETATM    6  C6  UNL     1     -14.084  -6.214   8.211  1.00  0.00     0.089 C 
HETATM    7  N2  UNL     1     -12.790  -6.063  10.242  1.00  0.00     0.150 N 
ENDROOT
BRANCH   1   8
HETATM    8  N1  UNL     1     -13.946  -4.100   7.081  1.00  0.00    -0.338 N 
HETATM    9  C1  UNL     1     -14.591  -2.984   6.484  1.00  0.00     0.318 C 
HETATM   10  O1  UNL     1     -15.666  -2.515   6.966  1.00  0.00    -0.247 OA
HETATM   11  N3  UNL     1     -14.031  -2.382   5.334  1.00  0.00    -0.334 N 
HETATM   12  C13 UNL     1     -12.815  -2.806   4.677  1.00  0.00     0.127 C 
HETATM   13  C16 UNL     1     -14.587  -1.228   4.617  1.00  0.00     0.127 C 
HETATM   14  C14 UNL     1     -12.531  -1.749   3.632  1.00  0.00     0.022 C 
HETATM   15  C15 UNL     1     -13.289  -0.557   4.160  1.00  0.00     0.022 C 
ATOM     16  H1  UNL     1     -13.082  -4.452   6.667  1.00  0.00     0.164 HD
ENDBRANCH   1   8
BRANCH   7  17
HETATM   17  C7  UNL     1     -12.168  -6.702  11.364  1.00  0.00     0.229 C 
HETATM   18  C8  UNL     1     -11.323  -5.709  12.084  1.00  0.00     0.036 C 
HETATM   19  C9  UNL     1     -10.504  -6.262  13.196  1.00  0.00     0.002 C 
HETATM   20  C10 UNL     1      -9.927  -7.619  12.931  1.00  0.00     0.000 C 
HETATM   21  C11 UNL     1     -10.946  -8.566  12.324  1.00  0.00     0.002 C 
HETATM   22  C12 UNL     1     -11.361  -7.920  10.994  1.00  0.00     0.036 C 
ENDBRANCH   7  17
TORSDOF 2
ENDMDL
MODEL 4
REMARK VINA RESULT: -6.501539064      5.394      8.293
REMARK  2 active torsions:
REMARK  status: ('A' for Active; 'I' for Inactive)
REMARK       I    between atoms: C1_2  and  N1_3 
REMARK       I    between atoms: C1_2  and  N3_18 
REMARK    1  A    between atoms: N1_3  and  C2_5 
REMARK    2  A    between atoms: N2_11  and  C7_12 
ROOT
HETATM    1  C2  UNL     1     -14.772  -5.626   8.029  1.00  0.00     0.094 C 
HETATM    2  C3  UNL     1     -13.992  -4.710   8.940  1.00  0.00     0.089 C 
HETATM    3  C4  UNL     1     -13.782  -5.400  10.270  1.00  0.00     0.366 C 
HETATM    4  O2  UNL     1     -14.884  -6.225  10.530  1.00  0.00    -0.321 OA
HETATM    5  C5  UNL     1     -14.199  -7.238   9.832  1.00  0.00     0.366 C 
HETATM    6  C6  UNL     1     -14.569  -7.083   8.373  1.00  0.00     0.089 C 
HETATM    7  N2  UNL     1     -12.956  -6.579  10.094  1.00  0.00     0.150 N 
ENDROOT
BRANCH   1   8
HETATM    8  N1  UNL     1     -14.362  -5.425   6.648  1.00  0.00    -0.338 N 
HETATM    9  C1  UNL     1     -15.293  -5.443   5.576  1.00  0.00     0.318 C 
HETATM   10  O1  UNL     1     -16.530  -5.637   5.786  1.00  0.00    -0.247 OA
HETATM   11  N3  UNL     1     -14.842  -5.242   4.251  1.00  0.00    -0.334 N 
HETATM   12  C13 UNL     1     -13.470  -5.010   3.862  1.00  0.00     0.127 C 
HETATM   13  C16 UNL     1     -15.690  -5.236   3.052  1.00  0.00     0.127 C 
HETATM   14  C14 UNL     1     -13.520  -4.666   2.390  1.00  0.00     0.022 C 
HETATM   15  C15 UNL     1     -14.943  -4.195   2.214  1.00  0.00     0.022 C 
ATOM     16  H1  UNL     1     -13.375  -5.266   6.444  1.00  0.00     0.164 HD
ENDBRANCH   1   8
BRANCH   7  17
HETATM   17  C7  UNL     1     -12.241  -6.968  11.274  1.00  0.00     0.229 C 
HETATM   18  C8  UNL     1     -11.452  -5.808  11.771  1.00  0.00     0.036 C 
HETATM   19  C9  UNL     1     -10.549  -6.100  12.917  1.00  0.00     0.002 C 
HETATM   20  C10 UNL     1      -9.876  -7.437  12.855  1.00  0.00     0.000 C 
HETATM   21  C11 UNL     1     -10.839  -8.545  12.471  1.00  0.00     0.002 C 
HETATM   22  C12 UNL     1     -11.354  -8.171  11.074  1.00  0.00     0.036 C 
ENDBRANCH   7  17
TORSDOF 2
ENDMDL
MODEL 5
REMARK VINA RESULT: -6.305691072      2.487      7.571
REMARK  2 active torsions:
REMARK  status: ('A' for Active; 'I' for Inactive)
REMARK       I    between atoms: C1_2  and  N1_3 
REMARK       I    between atoms: C1_2  and  N3_18 
REMARK    1  A    between atoms: N1_3  and  C2_5 
REMARK    2  A    between atoms: N2_11  and  C7_12 
ROOT
HETATM    1  C2  UNL     1     -14.670  -1.157  10.991  1.00  0.00     0.094 C 
HETATM    2  C3  UNL     1     -15.311  -1.037   9.631  1.00  0.00     0.089 C 
HETATM    3  C4  UNL     1     -14.752  -2.114   8.726  1.00  0.00     0.366 C 
HETATM    4  O2  UNL     1     -13.424  -2.366   9.091  1.00  0.00    -0.321 OA
HETATM    5  C5  UNL     1     -13.929  -3.313  10.001  1.00  0.00     0.366 C 
HETATM    6  C6  UNL     1     -14.214  -2.568  11.287  1.00  0.00     0.089 C 
HETATM    7  N2  UNL     1     -15.125  -3.425   9.223  1.00  0.00     0.150 N 
ENDROOT
BRANCH   1   8
HETATM    8  N1  UNL     1     -15.613  -0.760  12.025  1.00  0.00    -0.338 N 
HETATM    9  C1  UNL     1     -15.356   0.328  12.900  1.00  0.00     0.318 C 
HETATM   10  O1  UNL     1     -14.283   1.001  12.812  1.00  0.00    -0.247 OA
HETATM   11  N3  UNL     1     -16.306   0.674  13.889  1.00  0.00    -0.334 N 
HETATM   12  C13 UNL     1     -17.567   0.001  14.106  1.00  0.00     0.127 C 
HETATM   13  C16 UNL     1     -16.172   1.770  14.856  1.00  0.00     0.127 C 
HETATM   14  C14 UNL     1     -18.303   0.844  15.124  1.00  0.00     0.022 C 
HETATM   15  C15 UNL     1     -17.640   2.190  14.975  1.00  0.00     0.022 C 
ATOM     16  H1  UNL     1     -16.485  -1.279  12.124  1.00  0.00     0.164 HD
ENDBRANCH   1   8
BRANCH   7  17
HETATM   17  C7  UNL     1     -15.161  -4.440   8.213  1.00  0.00     0.229 C 
HETATM   18  C8  UNL     1     -16.578  -4.797   7.929  1.00  0.00     0.036 C 
HETATM   19  C9  UNL     1     -16.768  -5.939   6.995  1.00  0.00     0.002 C 
HETATM   20  C10 UNL     1     -15.780  -7.053   7.161  1.00  0.00     0.000 C 
HETATM   21  C11 UNL     1     -14.358  -6.540   7.299  1.00  0.00     0.002 C 
HETATM   22  C12 UNL     1     -14.360  -5.669   8.563  1.00  0.00     0.036 C 
ENDBRANCH   7  17
TORSDOF 2
ENDMDL
