MODEL 1
REMARK VINA RESULT: -6.358850606      0.000      0.000
REMARK  2 active torsions:
REMARK  status: ('A' for Active; 'I' for Inactive)
REMARK    1  A    between atoms: C10_11  and  C11_12 
REMARK       I    between atoms: C11_12  and  N1_14 
REMARK    2  A    between atoms: N1_14  and  C12_16 
ROOT
HETATM    1  C1  UNL     1     -18.100  -4.587   7.201  1.00  0.00     0.011 C 
HETATM    2  C2  UNL     1     -16.615  -4.587   7.331  1.00  0.00    -0.002 C 
HETATM    3  C3  UNL     1     -16.204  -5.693   8.313  1.00  0.00     0.043 C 
HETATM    4  C4  UNL     1     -14.733  -5.618   8.610  1.00  0.00     0.062 C 
HETATM    5  C5  UNL     1     -14.054  -6.962   8.515  1.00  0.00     0.038 C 
HETATM    6  C6  UNL     1     -13.967  -7.645   9.873  1.00  0.00     0.005 C 
HETATM    7  C7  UNL     1     -13.159  -6.819  10.821  1.00  0.00     0.026 C 
HETATM    8  C8  UNL     1     -13.299  -5.369  10.411  1.00  0.00     0.168 C 
HETATM    9  O1  UNL     1     -14.583  -5.185   9.933  1.00  0.00    -0.380 OA
HETATM   10  C9  UNL     1     -14.028  -4.636   7.733  1.00  0.00     0.053 C 
HETATM   11  C10 UNL     1     -14.413  -4.783   6.258  1.00  0.00     0.093 C 
HETATM   12  C15 UNL     1     -15.883  -4.844   6.059  1.00  0.00     0.018 C 
HETATM   13  C16 UNL     1     -16.340  -6.092   5.300  1.00  0.00     0.180 C 
HETATM   14  O3  UNL     1     -15.959  -5.391   4.133  1.00  0.00    -0.389 OA
HETATM   15  C17 UNL     1     -16.416  -4.234   4.811  1.00  0.00     0.180 C 
ENDROOT
BRANCH  11  16
HETATM   16  C11 UNL     1     -13.774  -3.645   5.555  1.00  0.00     0.223 C 
HETATM   17  O2  UNL     1     -13.166  -3.856   4.484  1.00  0.00    -0.273 OA
HETATM   18  N1  UNL     1     -13.840  -2.329   6.071  1.00  0.00    -0.356 N 
ATOM     19  H1  UNL     1     -14.339  -2.169   6.945  1.00  0.00     0.162 HD
BRANCH  18  20
HETATM   20  C12 UNL     1     -13.229  -1.213   5.409  1.00  0.00     0.084 A 
HETATM   21  C13 UNL     1     -12.339  -0.271   6.122  1.00  0.00     0.027 A 
HETATM   22  C14 UNL     1     -13.741   0.135   5.872  1.00  0.00     0.027 A 
ENDBRANCH  18  20
ENDBRANCH  11  16
TORSDOF 2
ENDMDL
MODEL 2
REMARK VINA RESULT: -6.271230183      2.263      2.925
REMARK  2 active torsions:
REMARK  status: ('A' for Active; 'I' for Inactive)
REMARK    1  A    between atoms: C10_11  and  C11_12 
REMARK       I    between atoms: C11_12  and  N1_14 
REMARK    2  A    between atoms: N1_14  and  C12_16 
ROOT
HETATM    1  C1  UNL     1     -18.399  -5.099   6.880  1.00  0.00     0.011 C 
HETATM    2  C2  UNL     1     -16.915  -4.962   6.934  1.00  0.00    -0.002 C 
HETATM    3  C3  UNL     1     -16.438  -5.307   8.351  1.00  0.00     0.043 C 
HETATM    4  C4  UNL     1     -14.972  -5.015   8.503  1.00  0.00     0.062 C 
HETATM    5  C5  UNL     1     -14.219  -6.150   9.152  1.00  0.00     0.038 C 
HETATM    6  C6  UNL     1     -14.087  -5.949  10.656  1.00  0.00     0.005 C 
HETATM    7  C7  UNL     1     -13.322  -4.699  10.949  1.00  0.00     0.026 C 
HETATM    8  C8  UNL     1     -13.545  -3.736   9.803  1.00  0.00     0.168 C 
HETATM    9  O1  UNL     1     -14.839  -3.908   9.350  1.00  0.00    -0.380 OA
HETATM   10  C9  UNL     1     -14.328  -4.664   7.202  1.00  0.00     0.053 C 
HETATM   11  C10 UNL     1     -14.712  -5.630   6.077  1.00  0.00     0.093 C 
HETATM   12  C15 UNL     1     -16.177  -5.857   5.999  1.00  0.00     0.018 C 
HETATM   13  C16 UNL     1     -16.567  -7.333   6.085  1.00  0.00     0.180 C 
HETATM   14  O3  UNL     1     -16.232  -7.392   4.713  1.00  0.00    -0.389 OA
HETATM   15  C17 UNL     1     -16.750  -6.075   4.643  1.00  0.00     0.180 C 
ENDROOT
BRANCH  11  16
HETATM   16  C11 UNL     1     -14.141  -5.056   4.835  1.00  0.00     0.223 C 
HETATM   17  O2  UNL     1     -13.964  -3.822   4.760  1.00  0.00    -0.273 OA
HETATM   18  N1  UNL     1     -13.792  -5.877   3.737  1.00  0.00    -0.356 N 
ATOM     19  H1  UNL     1     -13.940  -6.883   3.809  1.00  0.00     0.162 HD
BRANCH  18  20
HETATM   20  C12 UNL     1     -13.238  -5.345   2.525  1.00  0.00     0.084 A 
HETATM   21  C13 UNL     1     -14.086  -4.730   1.481  1.00  0.00     0.027 A 
HETATM   22  C14 UNL     1     -13.617  -6.121   1.281  1.00  0.00     0.027 A 
ENDBRANCH  18  20
ENDBRANCH  11  16
TORSDOF 2
ENDMDL
MODEL 3
REMARK VINA RESULT: -6.227914539      1.307      1.460
REMARK  2 active torsions:
REMARK  status: ('A' for Active; 'I' for Inactive)
REMARK    1  A    between atoms: C10_11  and  C11_12 
REMARK       I    between atoms: C11_12  and  N1_14 
REMARK    2  A    between atoms: N1_14  and  C12_16 
ROOT
HETATM    1  C1  UNL     1     -17.969  -4.564   7.121  1.00  0.00     0.011 C 
HETATM    2  C2  UNL     1     -16.579  -4.421   7.640  1.00  0.00    -0.002 C 
HETATM    3  C3  UNL     1     -16.132  -5.762   8.236  1.00  0.00     0.043 C 
HETATM    4  C4  UNL     1     -14.806  -5.620   8.927  1.00  0.00     0.062 C 
HETATM    5  C5  UNL     1     -13.835  -6.711   8.548  1.00  0.00     0.038 C 
HETATM    6  C6  UNL     1     -13.868  -7.863   9.544  1.00  0.00     0.005 C 
HETATM    7  C7  UNL     1     -13.473  -7.387  10.905  1.00  0.00     0.026 C 
HETATM    8  C8  UNL     1     -13.853  -5.926  11.016  1.00  0.00     0.168 C 
HETATM    9  O1  UNL     1     -15.024  -5.737  10.305  1.00  0.00    -0.380 OA
HETATM   10  C9  UNL     1     -14.182  -4.285   8.683  1.00  0.00     0.053 C 
HETATM   11  C10 UNL     1     -14.222  -3.878   7.207  1.00  0.00     0.093 C 
HETATM   12  C15 UNL     1     -15.570  -4.049   6.608  1.00  0.00     0.018 C 
HETATM   13  C16 UNL     1     -15.573  -4.936   5.362  1.00  0.00     0.180 C 
HETATM   14  O3  UNL     1     -15.135  -3.783   4.671  1.00  0.00    -0.389 OA
HETATM   15  C17 UNL     1     -15.968  -3.065   5.565  1.00  0.00     0.180 C 
ENDROOT
BRANCH  11  16
HETATM   16  C11 UNL     1     -13.730  -2.481   7.156  1.00  0.00     0.223 C 
HETATM   17  O2  UNL     1     -14.062  -1.686   8.060  1.00  0.00    -0.273 OA
HETATM   18  N1  UNL     1     -12.893  -2.033   6.107  1.00  0.00    -0.356 N 
ATOM     19  H1  UNL     1     -12.627  -2.692   5.375  1.00  0.00     0.162 HD
BRANCH  18  20
HETATM   20  C12 UNL     1     -12.404  -0.687   6.036  1.00  0.00     0.084 A 
HETATM   21  C13 UNL     1     -13.180   0.395   5.390  1.00  0.00     0.027 A 
HETATM   22  C14 UNL     1     -12.068  -0.225   4.633  1.00  0.00     0.027 A 
ENDBRANCH  18  20
ENDBRANCH  11  16
TORSDOF 2
ENDMDL
MODEL 4
REMARK VINA RESULT: -6.085911573      2.381      5.842
REMARK  2 active torsions:
REMARK  status: ('A' for Active; 'I' for Inactive)
REMARK    1  A    between atoms: C10_11  and  C11_12 
REMARK       I    between atoms: C11_12  and  N1_14 
REMARK    2  A    between atoms: N1_14  and  C12_16 
ROOT
HETATM    1  C1  UNL     1     -16.916  -2.795   6.096  1.00  0.00     0.011 C 
HETATM    2  C2  UNL     1     -16.177  -4.067   5.857  1.00  0.00    -0.002 C 
HETATM    3  C3  UNL     1     -15.508  -4.000   4.478  1.00  0.00     0.043 C 
HETATM    4  C4  UNL     1     -14.897  -5.325   4.119  1.00  0.00     0.062 C 
HETATM    5  C5  UNL     1     -13.488  -5.190   3.597  1.00  0.00     0.038 C 
HETATM    6  C6  UNL     1     -13.456  -5.126   2.076  1.00  0.00     0.005 C 
HETATM    7  C7  UNL     1     -14.016  -6.382   1.489  1.00  0.00     0.026 C 
HETATM    8  C8  UNL     1     -15.022  -6.945   2.469  1.00  0.00     0.168 C 
HETATM    9  O1  UNL     1     -15.658  -5.882   3.084  1.00  0.00    -0.380 OA
HETATM   10  C9  UNL     1     -14.921  -6.286   5.262  1.00  0.00     0.053 C 
HETATM   11  C10 UNL     1     -14.441  -5.654   6.572  1.00  0.00     0.093 C 
HETATM   12  C15 UNL     1     -15.099  -4.351   6.847  1.00  0.00     0.018 C 
HETATM   13  C16 UNL     1     -14.109  -3.205   7.060  1.00  0.00     0.180 C 
HETATM   14  O3  UNL     1     -13.979  -3.703   8.376  1.00  0.00    -0.389 OA
HETATM   15  C17 UNL     1     -15.357  -4.020   8.274  1.00  0.00     0.180 C 
ENDROOT
BRANCH  11  16
HETATM   16  C11 UNL     1     -14.684  -6.667   7.626  1.00  0.00     0.223 C 
HETATM   17  O2  UNL     1     -15.765  -7.292   7.632  1.00  0.00    -0.273 OA
HETATM   18  N1  UNL     1     -13.716  -6.940   8.621  1.00  0.00    -0.356 N 
ATOM     19  H1  UNL     1     -12.836  -6.425   8.605  1.00  0.00     0.162 HD
BRANCH  18  20
HETATM   20  C12 UNL     1     -13.928  -7.916   9.651  1.00  0.00     0.084 A 
HETATM   21  C13 UNL     1     -14.310  -7.531  11.027  1.00  0.00     0.027 A 
HETATM   22  C14 UNL     1     -12.895  -7.878  10.759  1.00  0.00     0.027 A 
ENDBRANCH  18  20
ENDBRANCH  11  16
TORSDOF 2
ENDMDL
MODEL 5
REMARK VINA RESULT: -6.059831056      3.144      5.519
REMARK  2 active torsions:
REMARK  status: ('A' for Active; 'I' for Inactive)
REMARK    1  A    between atoms: C10_11  and  C11_12 
REMARK       I    between atoms: C11_12  and  N1_14 
REMARK    2  A    between atoms: N1_14  and  C12_16 
ROOT
HETATM    1  C1  UNL     1     -12.382  -1.476   6.475  1.00  0.00     0.011 C 
HETATM    2  C2  UNL     1     -13.275  -1.959   7.565  1.00  0.00    -0.002 C 
HETATM    3  C3  UNL     1     -13.993  -0.754   8.189  1.00  0.00     0.043 C 
HETATM    4  C4  UNL     1     -14.770  -1.171   9.405  1.00  0.00     0.062 C 
HETATM    5  C5  UNL     1     -16.176  -0.624   9.410  1.00  0.00     0.038 C 
HETATM    6  C6  UNL     1     -16.269   0.680  10.192  1.00  0.00     0.005 C 
HETATM    7  C7  UNL     1     -15.886   0.459  11.620  1.00  0.00     0.026 C 
HETATM    8  C8  UNL     1     -14.910  -0.696  11.668  1.00  0.00     0.168 C 
HETATM    9  O1  UNL     1     -14.128  -0.638  10.529  1.00  0.00    -0.380 OA
HETATM   10  C9  UNL     1     -14.808  -2.655   9.571  1.00  0.00     0.053 C 
HETATM   11  C10 UNL     1     -15.150  -3.384   8.268  1.00  0.00     0.093 C 
HETATM   12  C15 UNL     1     -14.333  -2.911   7.122  1.00  0.00     0.018 C 
HETATM   13  C16 UNL     1     -15.172  -2.428   5.938  1.00  0.00     0.180 C 
HETATM   14  O3  UNL     1     -15.299  -3.796   5.607  1.00  0.00    -0.389 OA
HETATM   15  C17 UNL     1     -13.974  -3.924   6.093  1.00  0.00     0.180 C 
ENDROOT
BRANCH  11  16
HETATM   16  C11 UNL     1     -14.981  -4.828   8.553  1.00  0.00     0.223 C 
HETATM   17  O2  UNL     1     -15.883  -5.624   8.219  1.00  0.00    -0.273 OA
HETATM   18  N1  UNL     1     -13.819  -5.322   9.192  1.00  0.00    -0.356 N 
ATOM     19  H1  UNL     1     -13.088  -4.663   9.460  1.00  0.00     0.162 HD
BRANCH  18  20
HETATM   20  C12 UNL     1     -13.633  -6.715   9.478  1.00  0.00     0.084 A 
HETATM   21  C13 UNL     1     -14.141  -7.334  10.722  1.00  0.00     0.027 A 
HETATM   22  C14 UNL     1     -12.703  -6.987  10.643  1.00  0.00     0.027 A 
ENDBRANCH  18  20
ENDBRANCH  11  16
TORSDOF 2
ENDMDL
