MODEL 1
REMARK VINA RESULT: -8.046699414      0.000      0.000
REMARK  2 active torsions:
REMARK  status: ('A' for Active; 'I' for Inactive)
REMARK       I    between atoms: C2_3  and  N2_5 
REMARK    1  A    between atoms: C5_8  and  C6_9 
REMARK       I    between atoms: C6_9  and  N3_11 
REMARK    2  A    between atoms: N3_11  and  C7_13 
ROOT
HETATM    1  N1  UNL     1     -17.975   3.541  14.316  1.00  0.00    -0.186 NA
HETATM    2  C1  UNL     1     -17.632   2.929  13.398  1.00  0.00     0.162 C 
HETATM    3  C2  UNL     1     -17.229   2.160  12.255  1.00  0.00     0.324 C 
HETATM    4  O1  UNL     1     -17.532   2.597  11.128  1.00  0.00    -0.256 OA
HETATM    5  N2  UNL     1     -16.511   0.946  12.365  1.00  0.00    -0.340 N 
HETATM    6  C3  UNL     1     -16.181   0.482  13.705  1.00  0.00     0.127 C 
HETATM    7  C4  UNL     1     -15.782  -0.984  13.653  1.00  0.00     0.034 C 
HETATM    8  C5  UNL     1     -14.626  -1.099  12.677  1.00  0.00     0.081 C 
HETATM    9  C15 UNL     1     -14.941  -0.622  11.305  1.00  0.00     0.034 C 
HETATM   10  C16 UNL     1     -16.149   0.244  11.175  1.00  0.00     0.127 C 
ENDROOT
BRANCH   8  11
HETATM   11  C6  UNL     1     -14.257  -2.533  12.619  1.00  0.00     0.222 C 
HETATM   12  O2  UNL     1     -14.443  -3.241  13.634  1.00  0.00    -0.273 OA
HETATM   13  N3  UNL     1     -13.703  -3.138  11.469  1.00  0.00    -0.356 N 
ATOM     14  H3  UNL     1     -13.547  -2.574  10.634  1.00  0.00     0.162 HD
BRANCH  13  15
HETATM   15  C7  UNL     1     -13.356  -4.539  11.453  1.00  0.00     0.084 C 
HETATM   16  C8  UNL     1     -14.074  -5.301  10.371  1.00  0.00     0.025 C 
HETATM   17  C9  UNL     1     -14.272  -6.753  10.734  1.00  0.00     0.002 C 
HETATM   18  C10 UNL     1     -13.215  -7.642  10.144  1.00  0.00     0.000 C 
HETATM   19  C11 UNL     1     -12.099  -7.925  11.151  1.00  0.00     0.000 C 
HETATM   20  C12 UNL     1     -10.998  -6.885  11.055  1.00  0.00     0.000 C 
HETATM   21  C13 UNL     1     -11.318  -5.786  12.022  1.00  0.00     0.002 C 
HETATM   22  C14 UNL     1     -11.850  -4.607  11.216  1.00  0.00     0.025 C 
ENDBRANCH  13  15
ENDBRANCH   8  11
TORSDOF 2
ENDMDL
MODEL 2
REMARK VINA RESULT: -7.659750868      1.180      1.254
REMARK  2 active torsions:
REMARK  status: ('A' for Active; 'I' for Inactive)
REMARK       I    between atoms: C2_3  and  N2_5 
REMARK    1  A    between atoms: C5_8  and  C6_9 
REMARK       I    between atoms: C6_9  and  N3_11 
REMARK    2  A    between atoms: N3_11  and  C7_13 
ROOT
HETATM    1  N1  UNL     1     -18.460   3.580  11.910  1.00  0.00    -0.186 NA
HETATM    2  C1  UNL     1     -17.912   2.870  11.182  1.00  0.00     0.162 C 
HETATM    3  C2  UNL     1     -17.253   1.978  10.271  1.00  0.00     0.324 C 
HETATM    4  O1  UNL     1     -17.326   2.236   9.054  1.00  0.00    -0.256 OA
HETATM    5  N2  UNL     1     -16.536   0.837  10.702  1.00  0.00    -0.340 N 
HETATM    6  C3  UNL     1     -16.482   0.582  12.134  1.00  0.00     0.127 C 
HETATM    7  C4  UNL     1     -16.035  -0.850  12.380  1.00  0.00     0.034 C 
HETATM    8  C5  UNL     1     -14.696  -1.026  11.688  1.00  0.00     0.081 C 
HETATM    9  C15 UNL     1     -14.730  -0.762  10.226  1.00  0.00     0.034 C 
HETATM   10  C16 UNL     1     -15.910   0.002   9.727  1.00  0.00     0.127 C 
ENDROOT
BRANCH   8  11
HETATM   11  C6  UNL     1     -14.278  -2.429  11.919  1.00  0.00     0.222 C 
HETATM   12  O2  UNL     1     -14.362  -2.898  13.076  1.00  0.00    -0.273 OA
HETATM   13  N3  UNL     1     -13.788  -3.264  10.889  1.00  0.00    -0.356 N 
ATOM     14  H3  UNL     1     -13.714  -2.897   9.941  1.00  0.00     0.162 HD
BRANCH  13  15
HETATM   15  C7  UNL     1     -13.390  -4.626  11.154  1.00  0.00     0.084 C 
HETATM   16  C8  UNL     1     -14.026  -5.608  10.208  1.00  0.00     0.025 C 
HETATM   17  C9  UNL     1     -14.189  -6.974  10.832  1.00  0.00     0.002 C 
HETATM   18  C10 UNL     1     -13.073  -7.910  10.466  1.00  0.00     0.000 C 
HETATM   19  C11 UNL     1     -11.998  -7.948  11.554  1.00  0.00     0.000 C 
HETATM   20  C12 UNL     1     -10.932  -6.896  11.307  1.00  0.00     0.000 C 
HETATM   21  C13 UNL     1     -11.338  -5.650  12.034  1.00  0.00     0.002 C 
HETATM   22  C14 UNL     1     -11.872  -4.669  10.997  1.00  0.00     0.025 C 
ENDBRANCH  13  15
ENDBRANCH   8  11
TORSDOF 2
ENDMDL
MODEL 3
REMARK VINA RESULT: -7.478092727      4.453      8.497
REMARK  2 active torsions:
REMARK  status: ('A' for Active; 'I' for Inactive)
REMARK       I    between atoms: C2_3  and  N2_5 
REMARK    1  A    between atoms: C5_8  and  C6_9 
REMARK       I    between atoms: C6_9  and  N3_11 
REMARK    2  A    between atoms: N3_11  and  C7_13 
ROOT
HETATM    1  N1  UNL     1      -9.431  -8.417  13.509  1.00  0.00    -0.186 NA
HETATM    2  C1  UNL     1     -10.267  -8.370  12.712  1.00  0.00     0.162 C 
HETATM    3  C2  UNL     1     -11.288  -8.313  11.705  1.00  0.00     0.324 C 
HETATM    4  O1  UNL     1     -11.639  -9.387  11.178  1.00  0.00    -0.256 OA
HETATM    5  N2  UNL     1     -11.898  -7.103  11.300  1.00  0.00    -0.340 N 
HETATM    6  C3  UNL     1     -11.451  -5.879  11.949  1.00  0.00     0.127 C 
HETATM    7  C4  UNL     1     -11.904  -4.677  11.136  1.00  0.00     0.034 C 
HETATM    8  C5  UNL     1     -13.412  -4.769  11.002  1.00  0.00     0.081 C 
HETATM    9  C15 UNL     1     -13.888  -6.016  10.350  1.00  0.00     0.034 C 
HETATM   10  C16 UNL     1     -12.907  -7.139  10.290  1.00  0.00     0.127 C 
ENDROOT
BRANCH   8  11
HETATM   11  C6  UNL     1     -13.840  -3.604  10.193  1.00  0.00     0.222 C 
HETATM   12  O2  UNL     1     -14.157  -2.547  10.783  1.00  0.00    -0.273 OA
HETATM   13  N3  UNL     1     -13.909  -3.632   8.782  1.00  0.00    -0.356 N 
ATOM     14  H3  UNL     1     -13.654  -4.486   8.286  1.00  0.00     0.162 HD
BRANCH  13  15
HETATM   15  C7  UNL     1     -14.333  -2.476   8.029  1.00  0.00     0.084 C 
HETATM   16  C8  UNL     1     -13.220  -1.882   7.207  1.00  0.00     0.025 C 
HETATM   17  C9  UNL     1     -13.407  -0.400   6.985  1.00  0.00     0.002 C 
HETATM   18  C10 UNL     1     -14.048  -0.094   5.661  1.00  0.00     0.000 C 
HETATM   19  C11 UNL     1     -15.557   0.113   5.807  1.00  0.00     0.000 C 
HETATM   20  C12 UNL     1     -16.308  -1.196   5.645  1.00  0.00     0.000 C 
HETATM   21  C13 UNL     1     -16.462  -1.809   7.004  1.00  0.00     0.002 C 
HETATM   22  C14 UNL     1     -15.455  -2.948   7.110  1.00  0.00     0.025 C 
ENDBRANCH  13  15
ENDBRANCH   8  11
TORSDOF 2
ENDMDL
MODEL 4
REMARK VINA RESULT: -7.422247901      5.962      8.228
REMARK  2 active torsions:
REMARK  status: ('A' for Active; 'I' for Inactive)
REMARK       I    between atoms: C2_3  and  N2_5 
REMARK    1  A    between atoms: C5_8  and  C6_9 
REMARK       I    between atoms: C6_9  and  N3_11 
REMARK    2  A    between atoms: N3_11  and  C7_13 
ROOT
HETATM    1  N1  UNL     1      -9.292  -5.357  15.340  1.00  0.00    -0.186 NA
HETATM    2  C1  UNL     1      -9.596  -6.194  14.604  1.00  0.00     0.162 C 
HETATM    3  C2  UNL     1      -9.954  -7.231  13.678  1.00  0.00     0.324 C 
HETATM    4  O1  UNL     1      -9.424  -8.348  13.830  1.00  0.00    -0.256 OA
HETATM    5  N2  UNL     1     -10.870  -7.029  12.620  1.00  0.00    -0.340 N 
HETATM    6  C3  UNL     1     -11.460  -5.705  12.489  1.00  0.00     0.127 C 
HETATM    7  C4  UNL     1     -12.084  -5.559  11.111  1.00  0.00     0.034 C 
HETATM    8  C5  UNL     1     -13.092  -6.682  10.954  1.00  0.00     0.081 C 
HETATM    9  C15 UNL     1     -12.509  -8.042  11.093  1.00  0.00     0.034 C 
HETATM   10  C16 UNL     1     -11.168  -8.117  11.743  1.00  0.00     0.127 C 
ENDROOT
BRANCH   8  11
HETATM   11  C6  UNL     1     -13.680  -6.542   9.601  1.00  0.00     0.222 C 
HETATM   12  O2  UNL     1     -13.285  -7.306   8.692  1.00  0.00    -0.273 OA
HETATM   13  N3  UNL     1     -14.669  -5.582   9.289  1.00  0.00    -0.356 N 
ATOM     14  H3  UNL     1     -15.002  -4.952  10.019  1.00  0.00     0.162 HD
BRANCH  13  15
HETATM   15  C7  UNL     1     -15.217  -5.476   7.958  1.00  0.00     0.084 C 
HETATM   16  C8  UNL     1     -16.692  -5.176   7.962  1.00  0.00     0.025 C 
HETATM   17  C9  UNL     1     -17.384  -5.713   6.731  1.00  0.00     0.002 C 
HETATM   18  C10 UNL     1     -17.552  -4.668   5.665  1.00  0.00     0.000 C 
HETATM   19  C11 UNL     1     -16.436  -4.751   4.623  1.00  0.00     0.000 C 
HETATM   20  C12 UNL     1     -15.256  -3.880   5.013  1.00  0.00     0.000 C 
HETATM   21  C13 UNL     1     -14.304  -4.723   5.805  1.00  0.00     0.002 C 
HETATM   22  C14 UNL     1     -14.464  -4.340   7.272  1.00  0.00     0.025 C 
ENDBRANCH  13  15
ENDBRANCH   8  11
TORSDOF 2
ENDMDL
MODEL 5
REMARK VINA RESULT: -7.402879480      4.356      8.475
REMARK  2 active torsions:
REMARK  status: ('A' for Active; 'I' for Inactive)
REMARK       I    between atoms: C2_3  and  N2_5 
REMARK    1  A    between atoms: C5_8  and  C6_9 
REMARK       I    between atoms: C6_9  and  N3_11 
REMARK    2  A    between atoms: N3_11  and  C7_13 
ROOT
HETATM    1  N1  UNL     1      -9.057  -7.572  14.151  1.00  0.00    -0.186 NA
HETATM    2  C1  UNL     1      -9.864  -7.895  13.391  1.00  0.00     0.162 C 
HETATM    3  C2  UNL     1     -10.850  -8.300  12.429  1.00  0.00     0.324 C 
HETATM    4  O1  UNL     1     -10.978  -9.520  12.212  1.00  0.00    -0.256 OA
HETATM    5  N2  UNL     1     -11.665  -7.377  11.733  1.00  0.00    -0.340 N 
HETATM    6  C3  UNL     1     -11.475  -5.964  12.026  1.00  0.00     0.127 C 
HETATM    7  C4  UNL     1     -12.124  -5.126  10.936  1.00  0.00     0.034 C 
HETATM    8  C5  UNL     1     -13.584  -5.533  10.867  1.00  0.00     0.081 C 
HETATM    9  C15 UNL     1     -13.798  -6.975  10.577  1.00  0.00     0.034 C 
HETATM   10  C16 UNL     1     -12.621  -7.867  10.792  1.00  0.00     0.127 C 
ENDROOT
BRANCH   8  11
HETATM   11  C6  UNL     1     -14.201  -4.724   9.790  1.00  0.00     0.222 C 
HETATM   12  O2  UNL     1     -15.094  -5.246   9.084  1.00  0.00    -0.273 OA
HETATM   13  N3  UNL     1     -13.827  -3.388   9.521  1.00  0.00    -0.356 N 
ATOM     14  H3  UNL     1     -13.102  -2.949  10.087  1.00  0.00     0.162 HD
BRANCH  13  15
HETATM   15  C7  UNL     1     -14.452  -2.634   8.461  1.00  0.00     0.084 C 
HETATM   16  C8  UNL     1     -14.578  -1.170   8.789  1.00  0.00     0.025 C 
HETATM   17  C9  UNL     1     -15.752  -0.530   8.089  1.00  0.00     0.002 C 
HETATM   18  C10 UNL     1     -15.353   0.170   6.820  1.00  0.00     0.000 C 
HETATM   19  C11 UNL     1     -15.582  -0.721   5.597  1.00  0.00     0.000 C 
HETATM   20  C12 UNL     1     -14.353  -1.557   5.290  1.00  0.00     0.000 C 
HETATM   21  C13 UNL     1     -14.491  -2.861   6.016  1.00  0.00     0.002 C 
HETATM   22  C14 UNL     1     -13.570  -2.810   7.228  1.00  0.00     0.025 C 
ENDBRANCH  13  15
ENDBRANCH   8  11
TORSDOF 2
ENDMDL
