MODEL 1
REMARK VINA RESULT: -7.179609538      0.000      0.000
REMARK  2 active torsions:
REMARK  status: ('A' for Active; 'I' for Inactive)
REMARK       I    between atoms: C2_2  and  N1_4 
REMARK    1  A    between atoms: C5_7  and  N2_8 
REMARK    2  A    between atoms: N2_8  and  C6_10 
ROOT
HETATM    1  C6  UNL     1     -14.321  -5.657   8.821  1.00  0.00     0.105 C 
HETATM    2  C7  UNL     1     -14.219  -4.192   8.426  1.00  0.00     0.027 C 
HETATM    3  C8  UNL     1     -14.431  -3.896   6.989  1.00  0.00     0.002 C 
HETATM    4  C9  UNL     1     -15.784  -3.321   6.788  1.00  0.00     0.007 C 
HETATM    5  C10 UNL     1     -16.850  -4.206   6.287  1.00  0.00     0.015 C 
HETATM    6  C11 UNL     1     -16.582  -5.281   5.315  1.00  0.00     0.014 C 
HETATM    7  C12 UNL     1     -16.846  -6.331   6.357  1.00  0.00     0.018 A 
HETATM    8  C13 UNL     1     -15.657  -6.917   7.068  1.00  0.00     0.041 A 
HETATM    9  C14 UNL     1     -15.645  -6.235   8.372  1.00  0.00     0.144 A 
HETATM   10  O2  UNL     1     -16.581  -5.257   8.420  1.00  0.00    -0.378 OA
HETATM   11  C15 UNL     1     -17.331  -5.246   7.282  1.00  0.00     0.130 A 
ENDROOT
BRANCH   1  12
HETATM   12  N2  UNL     1     -14.376  -5.575  10.277  1.00  0.00    -0.410 N 
ATOM     13  H2  UNL     1     -15.120  -5.068  10.756  1.00  0.00     0.154 HD
BRANCH  12  14
HETATM   14  C5  UNL     1     -13.348  -6.234  10.993  1.00  0.00     0.080 C 
HETATM   15  C4  UNL     1     -12.652  -7.205  10.076  1.00  0.00     0.044 C 
HETATM   16  C3  UNL     1     -11.403  -7.808  10.685  1.00  0.00     0.127 C 
HETATM   17  N1  UNL     1     -10.968  -6.980  11.772  1.00  0.00    -0.352 N 
HETATM   18  C2  UNL     1     -10.560  -7.530  12.995  1.00  0.00     0.215 C 
HETATM   19  C17 UNL     1     -10.976  -5.558  11.573  1.00  0.00     0.127 C 
HETATM   20  C1  UNL     1     -10.101  -6.652  14.098  1.00  0.00     0.117 C 
HETATM   21  O1  UNL     1     -10.567  -8.795  13.201  1.00  0.00    -0.274 OA
HETATM   22  C16 UNL     1     -12.406  -5.139  11.490  1.00  0.00     0.044 C 
ENDBRANCH  12  14
ENDBRANCH   1  12
TORSDOF 2
ENDMDL
MODEL 2
REMARK VINA RESULT: -6.996208676      3.923      6.663
REMARK  2 active torsions:
REMARK  status: ('A' for Active; 'I' for Inactive)
REMARK       I    between atoms: C2_2  and  N1_4 
REMARK    1  A    between atoms: C5_7  and  N2_8 
REMARK    2  A    between atoms: N2_8  and  C6_10 
ROOT
HETATM    1  C6  UNL     1     -13.499  -4.505  11.773  1.00  0.00     0.105 C 
HETATM    2  C7  UNL     1     -11.991  -4.696  11.820  1.00  0.00     0.027 C 
HETATM    3  C8  UNL     1     -11.523  -6.083  12.051  1.00  0.00     0.002 C 
HETATM    4  C9  UNL     1     -11.037  -6.668  10.777  1.00  0.00     0.007 C 
HETATM    5  C10 UNL     1     -11.929  -7.584  10.045  1.00  0.00     0.015 C 
HETATM    6  C11 UNL     1     -12.839  -8.511  10.740  1.00  0.00     0.014 C 
HETATM    7  C12 UNL     1     -14.038  -7.729  10.282  1.00  0.00     0.018 A 
HETATM    8  C13 UNL     1     -14.616  -6.722  11.238  1.00  0.00     0.041 A 
HETATM    9  C14 UNL     1     -14.116  -5.429  10.745  1.00  0.00     0.144 A 
HETATM   10  O2  UNL     1     -13.231  -5.600   9.733  1.00  0.00    -0.378 OA
HETATM   11  C15 UNL     1     -13.129  -6.917   9.396  1.00  0.00     0.130 A 
ENDROOT
BRANCH   1  12
HETATM   12  N2  UNL     1     -13.617  -3.153  11.240  1.00  0.00    -0.410 N 
ATOM     13  H2  UNL     1     -12.968  -2.796  10.538  1.00  0.00     0.154 HD
BRANCH  12  14
HETATM   14  C5  UNL     1     -14.676  -2.359  11.741  1.00  0.00     0.080 C 
HETATM   15  C4  UNL     1     -14.640  -2.382  13.247  1.00  0.00     0.044 C 
HETATM   16  C3  UNL     1     -15.601  -1.398  13.881  1.00  0.00     0.127 C 
HETATM   17  N1  UNL     1     -15.960  -0.405  12.909  1.00  0.00    -0.352 N 
HETATM   18  C2  UNL     1     -17.288   0.015  12.747  1.00  0.00     0.215 C 
HETATM   19  C17 UNL     1     -14.913   0.139  12.092  1.00  0.00     0.127 C 
HETATM   20  C1  UNL     1     -17.631   1.052  11.745  1.00  0.00     0.117 C 
HETATM   21  O1  UNL     1     -18.241  -0.476  13.450  1.00  0.00    -0.274 OA
HETATM   22  C16 UNL     1     -14.458  -0.954  11.183  1.00  0.00     0.044 C 
ENDBRANCH  12  14
ENDBRANCH   1  12
TORSDOF 2
ENDMDL
MODEL 3
REMARK VINA RESULT: -6.925033942      2.148      2.923
REMARK  2 active torsions:
REMARK  status: ('A' for Active; 'I' for Inactive)
REMARK       I    between atoms: C2_2  and  N1_4 
REMARK    1  A    between atoms: C5_7  and  N2_8 
REMARK    2  A    between atoms: N2_8  and  C6_10 
ROOT
HETATM    1  C6  UNL     1     -13.768  -3.456   9.886  1.00  0.00     0.105 C 
HETATM    2  C7  UNL     1     -14.450  -2.323  10.637  1.00  0.00     0.027 C 
HETATM    3  C8  UNL     1     -14.277  -0.970  10.059  1.00  0.00     0.002 C 
HETATM    4  C9  UNL     1     -15.519  -0.560   9.358  1.00  0.00     0.007 C 
HETATM    5  C10 UNL     1     -15.561  -0.676   7.890  1.00  0.00     0.015 C 
HETATM    6  C11 UNL     1     -14.375  -0.432   7.051  1.00  0.00     0.014 C 
HETATM    7  C12 UNL     1     -14.287  -1.890   6.695  1.00  0.00     0.018 A 
HETATM    8  C13 UNL     1     -13.335  -2.742   7.488  1.00  0.00     0.041 A 
HETATM    9  C14 UNL     1     -14.200  -3.463   8.435  1.00  0.00     0.144 A 
HETATM   10  O2  UNL     1     -15.478  -3.021   8.364  1.00  0.00    -0.378 OA
HETATM   11  C15 UNL     1     -15.618  -2.101   7.368  1.00  0.00     0.130 A 
ENDROOT
BRANCH   1  12
HETATM   12  N2  UNL     1     -14.368  -4.634  10.503  1.00  0.00    -0.410 N 
ATOM     13  H2  UNL     1     -15.379  -4.734  10.592  1.00  0.00     0.154 HD
BRANCH  12  14
HETATM   14  C5  UNL     1     -13.480  -5.632  10.971  1.00  0.00     0.080 C 
HETATM   15  C4  UNL     1     -13.179  -6.590   9.848  1.00  0.00     0.044 C 
HETATM   16  C3  UNL     1     -12.076  -7.573  10.184  1.00  0.00     0.127 C 
HETATM   17  N1  UNL     1     -11.314  -7.060  11.286  1.00  0.00    -0.352 N 
HETATM   18  C2  UNL     1     -10.932  -7.879  12.358  1.00  0.00     0.215 C 
HETATM   19  C17 UNL     1     -10.964  -5.668  11.266  1.00  0.00     0.127 C 
HETATM   20  C1  UNL     1     -10.133  -7.327  13.478  1.00  0.00     0.117 C 
HETATM   21  O1  UNL     1     -11.255  -9.119  12.407  1.00  0.00    -0.274 OA
HETATM   22  C16 UNL     1     -12.229  -4.898  11.451  1.00  0.00     0.044 C 
ENDBRANCH  12  14
ENDBRANCH   1  12
TORSDOF 2
ENDMDL
MODEL 4
REMARK VINA RESULT: -6.915763675      5.509      7.031
REMARK  2 active torsions:
REMARK  status: ('A' for Active; 'I' for Inactive)
REMARK       I    between atoms: C2_2  and  N1_4 
REMARK    1  A    between atoms: C5_7  and  N2_8 
REMARK    2  A    between atoms: N2_8  and  C6_10 
ROOT
HETATM    1  C6  UNL     1     -15.447  -1.035  12.179  1.00  0.00     0.105 C 
HETATM    2  C7  UNL     1     -14.741   0.311  12.150  1.00  0.00     0.027 C 
HETATM    3  C8  UNL     1     -15.604   1.497  12.365  1.00  0.00     0.002 C 
HETATM    4  C9  UNL     1     -15.418   2.011  13.744  1.00  0.00     0.007 C 
HETATM    5  C10 UNL     1     -16.429   1.668  14.759  1.00  0.00     0.015 C 
HETATM    6  C11 UNL     1     -17.860   1.547  14.429  1.00  0.00     0.014 C 
HETATM    7  C12 UNL     1     -17.817   0.061  14.646  1.00  0.00     0.018 A 
HETATM    8  C13 UNL     1     -17.643  -0.814  13.435  1.00  0.00     0.041 A 
HETATM    9  C14 UNL     1     -16.223  -1.197  13.469  1.00  0.00     0.144 A 
HETATM   10  O2  UNL     1     -15.563  -0.542  14.454  1.00  0.00    -0.378 OA
HETATM   11  C15 UNL     1     -16.423   0.213  15.194  1.00  0.00     0.130 A 
ENDROOT
BRANCH   1  12
HETATM   12  N2  UNL     1     -14.325  -1.964  12.251  1.00  0.00    -0.410 N 
ATOM     13  H2  UNL     1     -13.527  -1.793  12.863  1.00  0.00     0.154 HD
BRANCH  12  14
HETATM   14  C5  UNL     1     -14.396  -3.116  11.431  1.00  0.00     0.080 C 
HETATM   15  C4  UNL     1     -14.118  -2.723  10.004  1.00  0.00     0.044 C 
HETATM   16  C3  UNL     1     -13.964  -3.913   9.078  1.00  0.00     0.127 C 
HETATM   17  N1  UNL     1     -13.679  -5.080   9.863  1.00  0.00    -0.352 N 
HETATM   18  C2  UNL     1     -14.317  -6.303   9.614  1.00  0.00     0.215 C 
HETATM   19  C17 UNL     1     -12.725  -4.953  10.927  1.00  0.00     0.127 C 
HETATM   20  C1  UNL     1     -13.995  -7.498  10.431  1.00  0.00     0.117 C 
HETATM   21  O1  UNL     1     -15.190  -6.432   8.683  1.00  0.00    -0.274 OA
HETATM   22  C16 UNL     1     -13.351  -4.090  11.972  1.00  0.00     0.044 C 
ENDBRANCH  12  14
ENDBRANCH   1  12
TORSDOF 2
ENDMDL
MODEL 5
REMARK VINA RESULT: -6.709317884      2.248      6.595
REMARK  2 active torsions:
REMARK  status: ('A' for Active; 'I' for Inactive)
REMARK       I    between atoms: C2_2  and  N1_4 
REMARK    1  A    between atoms: C5_7  and  N2_8 
REMARK    2  A    between atoms: N2_8  and  C6_10 
ROOT
HETATM    1  C6  UNL     1     -14.394  -5.249  10.322  1.00  0.00     0.105 C 
HETATM    2  C7  UNL     1     -13.204  -4.413  10.768  1.00  0.00     0.027 C 
HETATM    3  C8  UNL     1     -12.401  -4.975  11.879  1.00  0.00     0.002 C 
HETATM    4  C9  UNL     1     -11.139  -5.548  11.347  1.00  0.00     0.007 C 
HETATM    5  C10 UNL     1     -11.058  -7.007  11.164  1.00  0.00     0.015 C 
HETATM    6  C11 UNL     1     -11.719  -7.949  12.085  1.00  0.00     0.014 C 
HETATM    7  C12 UNL     1     -12.707  -8.343  11.023  1.00  0.00     0.018 A 
HETATM    8  C13 UNL     1     -14.048  -7.661  11.036  1.00  0.00     0.041 A 
HETATM    9  C14 UNL     1     -13.949  -6.652   9.969  1.00  0.00     0.144 A 
HETATM   10  O2  UNL     1     -12.693  -6.593   9.466  1.00  0.00    -0.378 OA
HETATM   11  C15 UNL     1     -11.901  -7.552  10.025  1.00  0.00     0.130 A 
ENDROOT
BRANCH   1  12
HETATM   12  N2  UNL     1     -14.764  -4.604   9.067  1.00  0.00    -0.410 N 
ATOM     13  H2  UNL     1     -14.704  -3.593   8.947  1.00  0.00     0.154 HD
BRANCH  12  14
HETATM   14  C5  UNL     1     -15.212  -5.448   8.023  1.00  0.00     0.080 C 
HETATM   15  C4  UNL     1     -16.697  -5.271   7.847  1.00  0.00     0.044 C 
HETATM   16  C3  UNL     1     -17.239  -5.973   6.619  1.00  0.00     0.127 C 
HETATM   17  N1  UNL     1     -16.155  -6.238   5.717  1.00  0.00    -0.352 N 
HETATM   18  C2  UNL     1     -16.022  -7.477   5.075  1.00  0.00     0.215 C 
HETATM   19  C17 UNL     1     -15.194  -5.194   5.502  1.00  0.00     0.127 C 
HETATM   20  C1  UNL     1     -14.900  -7.722   4.138  1.00  0.00     0.117 C 
HETATM   21  O1  UNL     1     -16.857  -8.431   5.272  1.00  0.00    -0.274 OA
HETATM   22  C16 UNL     1     -14.433  -5.034   6.776  1.00  0.00     0.044 C 
ENDBRANCH  12  14
ENDBRANCH   1  12
TORSDOF 2
ENDMDL
