MODEL 1
REMARK VINA RESULT: -5.679463348      0.000      0.000
REMARK  6 active torsions:
REMARK  status: ('A' for Active; 'I' for Inactive)
REMARK    1  A    between atoms: N1_2  and  C3_4 
REMARK    2  A    between atoms: C5_6  and  N2_7 
REMARK    3  A    between atoms: N2_7  and  C6_8 
REMARK    4  A    between atoms: N2_7  and  C17_21 
REMARK    5  A    between atoms: C6_8  and  C7_9 
REMARK    6  A    between atoms: C7_9  and  O1_10 
ROOT
HETATM    1  C6  UNL     1     -14.395  -5.924  10.093  1.00  0.00     0.312 C 
ENDROOT
BRANCH   1   2
HETATM    2  N2  UNL     1     -13.103  -5.546  10.415  1.00  0.00     0.104 N 
BRANCH   2   3
HETATM    3  C5  UNL     1     -13.135  -4.245  11.133  1.00  0.00     0.228 C 
HETATM    4  C4  UNL     1     -13.383  -3.044  10.232  1.00  0.00     0.071 C 
HETATM    5  C3  UNL     1     -14.132  -2.443  11.400  1.00  0.00     0.226 C 
HETATM    6  C21 UNL     1     -14.354  -3.895  11.883  1.00  0.00     0.071 C 
BRANCH   5   7
HETATM    7  N1  UNL     1     -15.344  -1.746  11.117  1.00  0.00     0.084 N 
HETATM    8  C1  UNL     1     -15.089  -0.817  10.026  1.00  0.00     0.309 C 
HETATM    9  C2  UNL     1     -15.650  -0.938  12.302  1.00  0.00     0.309 C 
ENDBRANCH   5   7
ENDBRANCH   2   3
BRANCH   2  10
HETATM   10  C17 UNL     1     -12.226  -6.361  11.164  1.00  0.00     0.149 C 
HETATM   11  C18 UNL     1     -11.119  -5.599  11.909  1.00  0.00     0.048 C 
HETATM   12  C19 UNL     1     -11.358  -7.246  10.196  1.00  0.00     0.048 C 
HETATM   13  C20 UNL     1     -12.786  -7.382  12.086  1.00  0.00     0.048 C 
ENDBRANCH   2  10
ENDBRANCH   1   2
BRANCH   1  14
HETATM   14  C7  UNL     1     -15.078  -5.925   8.781  1.00  0.00     0.088 C 
HETATM   15  C8  UNL     1     -15.596  -7.286   8.486  1.00  0.00     0.040 C 
HETATM   16  C9  UNL     1     -16.079  -7.575   7.124  1.00  0.00     0.004 C 
HETATM   17  C10 UNL     1     -16.051  -6.439   6.155  1.00  0.00     0.005 C 
HETATM   18  C11 UNL     1     -16.670  -5.182   6.574  1.00  0.00    -0.006 C 
HETATM   19  C12 UNL     1     -17.321  -5.192   7.931  1.00  0.00     0.014 C 
HETATM   20  C14 UNL     1     -15.807  -4.110   7.127  1.00  0.00    -0.038 C 
HETATM   21  C13 UNL     1     -15.940  -4.772   8.479  1.00  0.00     0.030 C 
HETATM   22  C15 UNL     1     -14.524  -3.798   6.524  1.00  0.00     0.015 C 
HETATM   23  C16 UNL     1     -16.650  -2.806   7.201  1.00  0.00     0.015 C 
BRANCH  14  24
HETATM   24  O1  UNL     1     -13.937  -5.781   7.852  1.00  0.00    -0.388 OA
ATOM     25  H1  UNL     1     -13.764  -4.848   7.904  1.00  0.00     0.210 HD
ENDBRANCH  14  24
ENDBRANCH   1  14
TORSDOF 6
ENDMDL
MODEL 2
REMARK VINA RESULT: -5.645743121      1.238      1.897
REMARK  6 active torsions:
REMARK  status: ('A' for Active; 'I' for Inactive)
REMARK    1  A    between atoms: N1_2  and  C3_4 
REMARK    2  A    between atoms: C5_6  and  N2_7 
REMARK    3  A    between atoms: N2_7  and  C6_8 
REMARK    4  A    between atoms: N2_7  and  C17_21 
REMARK    5  A    between atoms: C6_8  and  C7_9 
REMARK    6  A    between atoms: C7_9  and  O1_10 
ROOT
HETATM    1  C6  UNL     1     -15.283  -5.152   9.488  1.00  0.00     0.312 C 
ENDROOT
BRANCH   1   2
HETATM    2  N2  UNL     1     -13.950  -5.224   9.852  1.00  0.00     0.104 N 
BRANCH   2   3
HETATM    3  C5  UNL     1     -13.619  -4.076  10.736  1.00  0.00     0.228 C 
HETATM    4  C4  UNL     1     -14.045  -2.723  10.184  1.00  0.00     0.071 C 
HETATM    5  C3  UNL     1     -14.299  -2.324  11.620  1.00  0.00     0.226 C 
HETATM    6  C21 UNL     1     -14.478  -3.832  11.909  1.00  0.00     0.071 C 
BRANCH   5   7
HETATM    7  N1  UNL     1     -15.466  -1.549  11.892  1.00  0.00     0.084 N 
HETATM    8  C1  UNL     1     -15.499  -0.435  10.957  1.00  0.00     0.309 C 
HETATM    9  C2  UNL     1     -15.289  -0.978  13.230  1.00  0.00     0.309 C 
ENDBRANCH   5   7
ENDBRANCH   2   3
BRANCH   2  10
HETATM   10  C17 UNL     1     -13.382  -6.353  10.483  1.00  0.00     0.149 C 
HETATM   11  C18 UNL     1     -12.113  -6.062  11.301  1.00  0.00     0.048 C 
HETATM   12  C19 UNL     1     -12.804  -7.337   9.402  1.00  0.00     0.048 C 
HETATM   13  C20 UNL     1     -14.249  -7.256  11.281  1.00  0.00     0.048 C 
ENDBRANCH   2  10
ENDBRANCH   1   2
BRANCH   1  14
HETATM   14  C7  UNL     1     -15.895  -5.174   8.142  1.00  0.00     0.088 C 
HETATM   15  C8  UNL     1     -17.338  -4.832   8.241  1.00  0.00     0.040 C 
HETATM   16  C9  UNL     1     -18.195  -5.048   7.062  1.00  0.00     0.004 C 
HETATM   17  C10 UNL     1     -17.516  -5.553   5.831  1.00  0.00     0.005 C 
HETATM   18  C11 UNL     1     -16.327  -4.832   5.375  1.00  0.00    -0.006 C 
HETATM   19  C12 UNL     1     -15.951  -3.615   6.178  1.00  0.00     0.014 C 
HETATM   20  C14 UNL     1     -14.989  -5.350   5.753  1.00  0.00    -0.038 C 
HETATM   21  C13 UNL     1     -15.114  -4.579   7.047  1.00  0.00     0.030 C 
HETATM   22  C15 UNL     1     -14.696  -6.770   5.706  1.00  0.00     0.015 C 
HETATM   23  C16 UNL     1     -13.927  -4.596   4.904  1.00  0.00     0.015 C 
BRANCH  14  24
HETATM   24  O1  UNL     1     -15.903  -6.621   7.842  1.00  0.00    -0.388 OA
ATOM     25  H1  UNL     1     -16.021  -6.620   6.899  1.00  0.00     0.210 HD
ENDBRANCH  14  24
ENDBRANCH   1  14
TORSDOF 6
ENDMDL
MODEL 3
REMARK VINA RESULT: -5.632396769      2.091      5.209
REMARK  6 active torsions:
REMARK  status: ('A' for Active; 'I' for Inactive)
REMARK    1  A    between atoms: N1_2  and  C3_4 
REMARK    2  A    between atoms: C5_6  and  N2_7 
REMARK    3  A    between atoms: N2_7  and  C6_8 
REMARK    4  A    between atoms: N2_7  and  C17_21 
REMARK    5  A    between atoms: C6_8  and  C7_9 
REMARK    6  A    between atoms: C7_9  and  O1_10 
ROOT
HETATM    1  C6  UNL     1     -14.311  -5.622   7.278  1.00  0.00     0.312 C 
ENDROOT
BRANCH   1   2
HETATM    2  N2  UNL     1     -15.383  -5.142   6.545  1.00  0.00     0.104 N 
BRANCH   2   3
HETATM    3  C5  UNL     1     -15.062  -3.783   6.036  1.00  0.00     0.228 C 
HETATM    4  C4  UNL     1     -15.304  -2.669   7.044  1.00  0.00     0.071 C 
HETATM    5  C3  UNL     1     -14.117  -1.974   6.417  1.00  0.00     0.226 C 
HETATM    6  C21 UNL     1     -13.647  -3.380   5.977  1.00  0.00     0.071 C 
BRANCH   5   7
HETATM    7  N1  UNL     1     -13.202  -1.316   7.292  1.00  0.00     0.084 N 
HETATM    8  C1  UNL     1     -13.968  -0.667   8.345  1.00  0.00     0.309 C 
HETATM    9  C2  UNL     1     -12.566  -0.251   6.510  1.00  0.00     0.309 C 
ENDBRANCH   5   7
ENDBRANCH   2   3
BRANCH   2  10
HETATM   10  C17 UNL     1     -15.932  -5.831   5.441  1.00  0.00     0.149 C 
HETATM   11  C18 UNL     1     -17.067  -6.806   5.790  1.00  0.00     0.048 C 
HETATM   12  C19 UNL     1     -14.870  -6.832   4.852  1.00  0.00     0.048 C 
HETATM   13  C20 UNL     1     -16.332  -5.069   4.231  1.00  0.00     0.048 C 
ENDBRANCH   2  10
ENDBRANCH   1   2
BRANCH   1  14
HETATM   14  C7  UNL     1     -14.280  -6.182   8.646  1.00  0.00     0.088 C 
HETATM   15  C8  UNL     1     -14.788  -7.578   8.628  1.00  0.00     0.040 C 
HETATM   16  C9  UNL     1     -15.088  -8.235   9.913  1.00  0.00     0.004 C 
HETATM   17  C10 UNL     1     -14.801  -7.442  11.146  1.00  0.00     0.005 C 
HETATM   18  C11 UNL     1     -13.472  -6.843  11.267  1.00  0.00    -0.006 C 
HETATM   19  C12 UNL     1     -12.514  -7.143  10.146  1.00  0.00     0.014 C 
HETATM   20  C14 UNL     1     -13.291  -5.422  10.884  1.00  0.00    -0.038 C 
HETATM   21  C13 UNL     1     -13.090  -5.886   9.459  1.00  0.00     0.030 C 
HETATM   22  C15 UNL     1     -14.270  -4.417  11.255  1.00  0.00     0.015 C 
HETATM   23  C16 UNL     1     -11.894  -4.964  11.388  1.00  0.00     0.015 C 
BRANCH  14  24
HETATM   24  O1  UNL     1     -15.368  -5.427   9.302  1.00  0.00    -0.388 OA
ATOM     25  H1  UNL     1     -14.948  -4.591   9.467  1.00  0.00     0.210 HD
ENDBRANCH  14  24
ENDBRANCH   1  14
TORSDOF 6
ENDMDL
MODEL 4
REMARK VINA RESULT: -5.604684572      2.317      5.289
REMARK  6 active torsions:
REMARK  status: ('A' for Active; 'I' for Inactive)
REMARK    1  A    between atoms: N1_2  and  C3_4 
REMARK    2  A    between atoms: C5_6  and  N2_7 
REMARK    3  A    between atoms: N2_7  and  C6_8 
REMARK    4  A    between atoms: N2_7  and  C17_21 
REMARK    5  A    between atoms: C6_8  and  C7_9 
REMARK    6  A    between atoms: C7_9  and  O1_10 
ROOT
HETATM    1  C6  UNL     1     -14.168  -4.803   8.271  1.00  0.00     0.312 C 
ENDROOT
BRANCH   1   2
HETATM    2  N2  UNL     1     -14.886  -5.904   8.702  1.00  0.00     0.104 N 
BRANCH   2   3
HETATM    3  C5  UNL     1     -15.143  -6.806   7.549  1.00  0.00     0.228 C 
HETATM    4  C4  UNL     1     -16.547  -6.695   6.973  1.00  0.00     0.071 C 
HETATM    5  C3  UNL     1     -15.916  -6.979   5.629  1.00  0.00     0.226 C 
HETATM    6  C21 UNL     1     -14.606  -6.421   6.232  1.00  0.00     0.071 C 
BRANCH   5   7
HETATM    7  N1  UNL     1     -16.390  -6.234   4.508  1.00  0.00     0.084 N 
HETATM    8  C1  UNL     1     -17.792  -6.563   4.305  1.00  0.00     0.309 C 
HETATM    9  C2  UNL     1     -15.662  -6.731   3.336  1.00  0.00     0.309 C 
ENDBRANCH   5   7
ENDBRANCH   2   3
BRANCH   2  10
HETATM   10  C17 UNL     1     -14.449  -6.752   9.744  1.00  0.00     0.149 C 
HETATM   11  C18 UNL     1     -14.753  -6.240  11.161  1.00  0.00     0.048 C 
HETATM   12  C19 UNL     1     -12.877  -6.782   9.785  1.00  0.00     0.048 C 
HETATM   13  C20 UNL     1     -14.777  -8.199   9.695  1.00  0.00     0.048 C 
ENDBRANCH   2  10
ENDBRANCH   1   2
BRANCH   1  14
HETATM   14  C7  UNL     1     -14.498  -3.365   8.369  1.00  0.00     0.088 C 
HETATM   15  C8  UNL     1     -14.162  -2.864   9.727  1.00  0.00     0.040 C 
HETATM   16  C9  UNL     1     -14.647  -1.531  10.126  1.00  0.00     0.004 C 
HETATM   17  C10 UNL     1     -15.405  -0.764   9.092  1.00  0.00     0.005 C 
HETATM   18  C11 UNL     1     -14.789  -0.623   7.773  1.00  0.00    -0.006 C 
HETATM   19  C12 UNL     1     -13.419  -1.227   7.622  1.00  0.00     0.014 C 
HETATM   20  C14 UNL     1     -15.191  -1.556   6.692  1.00  0.00    -0.038 C 
HETATM   21  C13 UNL     1     -14.152  -2.523   7.213  1.00  0.00     0.030 C 
HETATM   22  C15 UNL     1     -16.582  -1.922   6.499  1.00  0.00     0.015 C 
HETATM   23  C16 UNL     1     -14.631  -1.006   5.351  1.00  0.00     0.015 C 
BRANCH  14  24
HETATM   24  O1  UNL     1     -15.975  -3.398   8.368  1.00  0.00    -0.388 OA
ATOM     25  H1  UNL     1     -16.187  -2.476   8.274  1.00  0.00     0.210 HD
ENDBRANCH  14  24
ENDBRANCH   1  14
TORSDOF 6
ENDMDL
MODEL 5
REMARK VINA RESULT: -5.602684912      2.609      6.064
REMARK  6 active torsions:
REMARK  status: ('A' for Active; 'I' for Inactive)
REMARK    1  A    between atoms: N1_2  and  C3_4 
REMARK    2  A    between atoms: C5_6  and  N2_7 
REMARK    3  A    between atoms: N2_7  and  C6_8 
REMARK    4  A    between atoms: N2_7  and  C17_21 
REMARK    5  A    between atoms: C6_8  and  C7_9 
REMARK    6  A    between atoms: C7_9  and  O1_10 
ROOT
HETATM    1  C6  UNL     1     -14.848  -4.990   7.450  1.00  0.00     0.312 C 
ENDROOT
BRANCH   1   2
HETATM    2  N2  UNL     1     -14.235  -3.833   7.001  1.00  0.00     0.104 N 
BRANCH   2   3
HETATM    3  C5  UNL     1     -14.470  -3.687   5.541  1.00  0.00     0.228 C 
HETATM    4  C4  UNL     1     -13.474  -4.442   4.673  1.00  0.00     0.071 C 
HETATM    5  C3  UNL     1     -14.621  -4.655   3.710  1.00  0.00     0.226 C 
HETATM    6  C21 UNL     1     -15.554  -4.476   4.929  1.00  0.00     0.071 C 
BRANCH   5   7
HETATM    7  N1  UNL     1     -14.731  -5.935   3.091  1.00  0.00     0.084 N 
HETATM    8  C1  UNL     1     -13.635  -6.080   2.146  1.00  0.00     0.309 C 
HETATM    9  C2  UNL     1     -15.970  -5.917   2.307  1.00  0.00     0.309 C 
ENDBRANCH   5   7
ENDBRANCH   2   3
BRANCH   2  10
HETATM   10  C17 UNL     1     -14.500  -2.558   7.548  1.00  0.00     0.149 C 
HETATM   11  C18 UNL     1     -15.991  -2.240   7.745  1.00  0.00     0.048 C 
HETATM   12  C19 UNL     1     -14.106  -1.439   6.515  1.00  0.00     0.048 C 
HETATM   13  C20 UNL     1     -13.769  -2.119   8.763  1.00  0.00     0.048 C 
ENDBRANCH   2  10
ENDBRANCH   1   2
BRANCH   1  14
HETATM   14  C7  UNL     1     -14.605  -5.767   8.685  1.00  0.00     0.088 C 
HETATM   15  C8  UNL     1     -14.990  -7.185   8.470  1.00  0.00     0.040 C 
HETATM   16  C9  UNL     1     -15.076  -8.077   9.640  1.00  0.00     0.004 C 
HETATM   17  C10 UNL     1     -14.713  -7.478  10.959  1.00  0.00     0.005 C 
HETATM   18  C11 UNL     1     -13.434  -6.771  11.047  1.00  0.00    -0.006 C 
HETATM   19  C12 UNL     1     -12.596  -6.776   9.797  1.00  0.00     0.014 C 
HETATM   20  C14 UNL     1     -13.423  -5.295  10.908  1.00  0.00    -0.038 C 
HETATM   21  C13 UNL     1     -13.355  -5.488   9.410  1.00  0.00     0.030 C 
HETATM   22  C15 UNL     1     -14.432  -4.475  11.553  1.00  0.00     0.015 C 
HETATM   23  C16 UNL     1     -12.019  -4.784  11.339  1.00  0.00     0.015 C 
BRANCH  14  24
HETATM   24  O1  UNL     1     -15.667  -5.252   9.574  1.00  0.00    -0.388 OA
ATOM     25  H1  UNL     1     -15.216  -5.218  10.410  1.00  0.00     0.210 HD
ENDBRANCH  14  24
ENDBRANCH   1  14
TORSDOF 6
ENDMDL
