MODEL 1
REMARK VINA RESULT: -7.370746044      0.000      0.000
REMARK  4 active torsions:
REMARK  status: ('A' for Active; 'I' for Inactive)
REMARK    1  A    between atoms: C2_2  and  C3_3 
REMARK    2  A    between atoms: C2_2  and  C9_12 
REMARK    3  A    between atoms: C2_2  and  C10_15 
REMARK    4  A    between atoms: C3_3  and  C4_4 
REMARK       I    between atoms: C4_4  and  N1_6 
ROOT
HETATM    1  C1  UNL     1     -13.850  -6.042   8.088  1.00  0.00     0.032 C 
HETATM    2  C2  UNL     1     -14.748  -5.081   8.825  1.00  0.00     0.076 C 
ENDROOT
BRANCH   2   3
HETATM    3  C3  UNL     1     -15.053  -5.494  10.212  1.00  0.00     0.127 C 
BRANCH   3   4
HETATM    4  C4  UNL     1     -14.314  -6.765  10.588  1.00  0.00     0.221 C 
HETATM    5  O1  UNL     1     -14.782  -7.869  10.287  1.00  0.00    -0.273 OA
HETATM    6  N1  UNL     1     -13.088  -6.692  11.287  1.00  0.00    -0.348 N 
HETATM    7  C5  UNL     1     -12.334  -7.864  11.677  1.00  0.00     0.152 C 
HETATM    8  C8  UNL     1     -12.542  -5.397  11.641  1.00  0.00     0.152 C 
HETATM    9  C6  UNL     1     -10.890  -7.775  11.236  1.00  0.00     0.187 C 
HETATM   10  O2  UNL     1     -10.499  -6.449  11.075  1.00  0.00    -0.388 OA
HETATM   11  C7  UNL     1     -11.093  -5.661  12.068  1.00  0.00     0.187 C 
ENDBRANCH   3   4
ENDBRANCH   2   3
BRANCH   2  12
HETATM   12  C9  UNL     1     -16.120  -5.322   8.138  1.00  0.00     0.186 C 
HETATM   13  O3  UNL     1     -17.176  -4.868   8.611  1.00  0.00    -0.647 OA
HETATM   14  O4  UNL     1     -16.175  -6.053   6.977  1.00  0.00    -0.647 OA
ENDBRANCH   2  12
BRANCH   2  15
HETATM   15  C10 UNL     1     -14.550  -3.668   8.513  1.00  0.00    -0.058 C 
HETATM   16  C11 UNL     1     -14.600  -2.709   9.406  1.00  0.00    -0.072 C 
HETATM   17  C12 UNL     1     -14.851  -2.940  10.810  1.00  0.00     0.035 C 
HETATM   18  C16 UNL     1     -14.432  -1.230   9.071  1.00  0.00     0.015 C 
HETATM   19  C13 UNL     1     -14.572  -1.645  11.618  1.00  0.00     0.004 C 
HETATM   20  C14 UNL     1     -15.504  -0.537  11.194  1.00  0.00     0.001 C 
HETATM   21  C15 UNL     1     -15.551  -0.409   9.687  1.00  0.00     0.009 C 
HETATM   22  C17 UNL     1     -14.405  -0.961   7.607  1.00  0.00     0.009 C 
HETATM   23  C18 UNL     1     -13.421  -1.981   7.044  1.00  0.00     0.005 C 
HETATM   24  C19 UNL     1     -14.159  -3.287   7.075  1.00  0.00     0.036 C 
ENDBRANCH   2  15
TORSDOF 4
ENDMDL
MODEL 2
REMARK VINA RESULT: -7.225360965      1.289      1.963
REMARK  4 active torsions:
REMARK  status: ('A' for Active; 'I' for Inactive)
REMARK    1  A    between atoms: C2_2  and  C3_3 
REMARK    2  A    between atoms: C2_2  and  C9_12 
REMARK    3  A    between atoms: C2_2  and  C10_15 
REMARK    4  A    between atoms: C3_3  and  C4_4 
REMARK       I    between atoms: C4_4  and  N1_6 
ROOT
HETATM    1  C1  UNL     1     -13.518  -5.758   8.666  1.00  0.00     0.032 C 
HETATM    2  C2  UNL     1     -14.099  -4.854   9.724  1.00  0.00     0.076 C 
ENDROOT
BRANCH   2   3
HETATM    3  C3  UNL     1     -13.735  -5.242  11.104  1.00  0.00     0.127 C 
BRANCH   3   4
HETATM    4  C4  UNL     1     -12.233  -5.374  11.267  1.00  0.00     0.221 C 
HETATM    5  O1  UNL     1     -11.525  -4.364  11.352  1.00  0.00    -0.273 OA
HETATM    6  N1  UNL     1     -11.636  -6.654  11.323  1.00  0.00    -0.348 N 
HETATM    7  C5  UNL     1     -10.210  -6.850  11.476  1.00  0.00     0.152 C 
HETATM    8  C8  UNL     1     -12.467  -7.836  11.222  1.00  0.00     0.152 C 
HETATM    9  C6  UNL     1      -9.892  -7.802  12.608  1.00  0.00     0.187 C 
HETATM   10  O2  UNL     1     -10.964  -8.654  12.858  1.00  0.00    -0.388 OA
HETATM   11  C7  UNL     1     -11.574  -9.008  11.649  1.00  0.00     0.187 C 
ENDBRANCH   3   4
ENDBRANCH   2   3
BRANCH   2  12
HETATM   12  C9  UNL     1     -15.602  -5.243   9.696  1.00  0.00     0.186 C 
HETATM   13  O3  UNL     1     -16.111  -5.951  10.583  1.00  0.00    -0.647 OA
HETATM   14  O4  UNL     1     -16.397  -4.794   8.670  1.00  0.00    -0.647 OA
ENDBRANCH   2  12
BRANCH   2  15
HETATM   15  C10 UNL     1     -14.192  -3.442   9.364  1.00  0.00    -0.058 C 
HETATM   16  C11 UNL     1     -14.421  -2.482  10.228  1.00  0.00    -0.072 C 
HETATM   17  C12 UNL     1     -14.601  -2.711  11.644  1.00  0.00     0.035 C 
HETATM   18  C16 UNL     1     -14.557  -1.012   9.844  1.00  0.00     0.015 C 
HETATM   19  C13 UNL     1     -14.575  -1.359  12.406  1.00  0.00     0.004 C 
HETATM   20  C14 UNL     1     -15.716  -0.475  11.967  1.00  0.00     0.001 C 
HETATM   21  C15 UNL     1     -15.809  -0.410  10.457  1.00  0.00     0.009 C 
HETATM   22  C17 UNL     1     -14.605  -0.793   8.372  1.00  0.00     0.009 C 
HETATM   23  C18 UNL     1     -13.444  -1.615   7.822  1.00  0.00     0.005 C 
HETATM   24  C19 UNL     1     -13.905  -3.040   7.908  1.00  0.00     0.036 C 
ENDBRANCH   2  15
TORSDOF 4
ENDMDL
MODEL 3
REMARK VINA RESULT: -7.057886745      1.009      2.865
REMARK  4 active torsions:
REMARK  status: ('A' for Active; 'I' for Inactive)
REMARK    1  A    between atoms: C2_2  and  C3_3 
REMARK    2  A    between atoms: C2_2  and  C9_12 
REMARK    3  A    between atoms: C2_2  and  C10_15 
REMARK    4  A    between atoms: C3_3  and  C4_4 
REMARK       I    between atoms: C4_4  and  N1_6 
ROOT
HETATM    1  C1  UNL     1     -14.212  -6.480   7.834  1.00  0.00     0.032 C 
HETATM    2  C2  UNL     1     -14.887  -5.368   8.598  1.00  0.00     0.076 C 
ENDROOT
BRANCH   2   3
HETATM    3  C3  UNL     1     -15.147  -5.692  10.017  1.00  0.00     0.127 C 
BRANCH   3   4
HETATM    4  C4  UNL     1     -14.325  -6.882  10.476  1.00  0.00     0.221 C 
HETATM    5  O1  UNL     1     -14.703  -8.032  10.227  1.00  0.00    -0.273 OA
HETATM    6  N1  UNL     1     -13.123  -6.680  11.191  1.00  0.00    -0.348 N 
HETATM    7  C5  UNL     1     -12.294  -7.770  11.659  1.00  0.00     0.152 C 
HETATM    8  C8  UNL     1     -12.683  -5.330  11.484  1.00  0.00     0.152 C 
HETATM    9  C6  UNL     1     -10.851  -7.597  11.241  1.00  0.00     0.187 C 
HETATM   10  O2  UNL     1     -10.556  -6.256  11.015  1.00  0.00    -0.388 OA
HETATM   11  C7  UNL     1     -11.228  -5.462  11.951  1.00  0.00     0.187 C 
ENDBRANCH   3   4
ENDBRANCH   2   3
BRANCH   2  12
HETATM   12  C9  UNL     1     -16.328  -5.402   8.020  1.00  0.00     0.186 C 
HETATM   13  O3  UNL     1     -17.158  -4.515   8.284  1.00  0.00    -0.647 OA
HETATM   14  O4  UNL     1     -16.700  -6.433   7.192  1.00  0.00    -0.647 OA
ENDBRANCH   2  12
BRANCH   2  15
HETATM   15  C10 UNL     1     -14.489  -4.015   8.219  1.00  0.00    -0.058 C 
HETATM   16  C11 UNL     1     -14.178  -3.661   6.995  1.00  0.00    -0.072 C 
HETATM   17  C12 UNL     1     -14.200  -4.571   5.873  1.00  0.00     0.035 C 
HETATM   18  C16 UNL     1     -13.725  -2.257   6.608  1.00  0.00     0.015 C 
HETATM   19  C13 UNL     1     -14.052  -3.780   4.546  1.00  0.00     0.004 C 
HETATM   20  C14 UNL     1     -12.724  -3.067   4.492  1.00  0.00     0.001 C 
HETATM   21  C15 UNL     1     -12.457  -2.312   5.776  1.00  0.00     0.009 C 
HETATM   22  C17 UNL     1     -13.476  -1.378   7.784  1.00  0.00     0.009 C 
HETATM   23  C18 UNL     1     -14.705  -1.560   8.669  1.00  0.00     0.005 C 
HETATM   24  C19 UNL     1     -14.534  -2.914   9.292  1.00  0.00     0.036 C 
ENDBRANCH   2  15
TORSDOF 4
ENDMDL
MODEL 4
REMARK VINA RESULT: -6.901964461      2.550      5.713
REMARK  4 active torsions:
REMARK  status: ('A' for Active; 'I' for Inactive)
REMARK    1  A    between atoms: C2_2  and  C3_3 
REMARK    2  A    between atoms: C2_2  and  C9_12 
REMARK    3  A    between atoms: C2_2  and  C10_15 
REMARK    4  A    between atoms: C3_3  and  C4_4 
REMARK       I    between atoms: C4_4  and  N1_6 
ROOT
HETATM    1  C1  UNL     1     -16.023  -3.577   9.242  1.00  0.00     0.032 C 
HETATM    2  C2  UNL     1     -14.567  -3.823   9.548  1.00  0.00     0.076 C 
ENDROOT
BRANCH   2   3
HETATM    3  C3  UNL     1     -13.903  -2.692  10.233  1.00  0.00     0.127 C 
BRANCH   3   4
HETATM    4  C4  UNL     1     -14.896  -1.608  10.607  1.00  0.00     0.221 C 
HETATM    5  O1  UNL     1     -15.469  -0.958   9.727  1.00  0.00    -0.273 OA
HETATM    6  N1  UNL     1     -15.169  -1.337  11.968  1.00  0.00    -0.348 N 
HETATM    7  C5  UNL     1     -16.103  -0.317  12.394  1.00  0.00     0.152 C 
HETATM    8  C8  UNL     1     -14.494  -2.100  12.999  1.00  0.00     0.152 C 
HETATM    9  C6  UNL     1     -17.114  -0.858  13.380  1.00  0.00     0.187 C 
HETATM   10  O2  UNL     1     -16.614  -1.974  14.044  1.00  0.00    -0.388 OA
HETATM   11  C7  UNL     1     -15.250  -1.797  14.298  1.00  0.00     0.187 C 
ENDBRANCH   3   4
ENDBRANCH   2   3
BRANCH   2  12
HETATM   12  C9  UNL     1     -13.918  -3.737   8.140  1.00  0.00     0.186 C 
HETATM   13  O3  UNL     1     -13.918  -4.706   7.361  1.00  0.00    -0.647 OA
HETATM   14  O4  UNL     1     -13.329  -2.563   7.738  1.00  0.00    -0.647 OA
ENDBRANCH   2  12
BRANCH   2  15
HETATM   15  C10 UNL     1     -14.223  -5.196   9.906  1.00  0.00    -0.058 C 
HETATM   16  C11 UNL     1     -13.199  -5.519  10.660  1.00  0.00    -0.072 C 
HETATM   17  C12 UNL     1     -12.294  -4.548  11.232  1.00  0.00     0.035 C 
HETATM   18  C16 UNL     1     -12.818  -6.956  11.001  1.00  0.00     0.015 C 
HETATM   19  C13 UNL     1     -11.376  -5.234  12.280  1.00  0.00     0.004 C 
HETATM   20  C14 UNL     1     -10.516  -6.289  11.629  1.00  0.00     0.001 C 
HETATM   21  C15 UNL     1     -11.342  -7.196  10.742  1.00  0.00     0.009 C 
HETATM   22  C17 UNL     1     -13.599  -7.966  10.234  1.00  0.00     0.009 C 
HETATM   23  C18 UNL     1     -15.049  -7.516  10.367  1.00  0.00     0.005 C 
HETATM   24  C19 UNL     1     -15.168  -6.325   9.462  1.00  0.00     0.036 C 
ENDBRANCH   2  15
TORSDOF 4
ENDMDL
MODEL 5
REMARK VINA RESULT: -6.789548589      4.474      7.763
REMARK  4 active torsions:
REMARK  status: ('A' for Active; 'I' for Inactive)
REMARK    1  A    between atoms: C2_2  and  C3_3 
REMARK    2  A    between atoms: C2_2  and  C9_12 
REMARK    3  A    between atoms: C2_2  and  C10_15 
REMARK    4  A    between atoms: C3_3  and  C4_4 
REMARK       I    between atoms: C4_4  and  N1_6 
ROOT
HETATM    1  C1  UNL     1     -14.513   0.282  12.772  1.00  0.00     0.032 C 
HETATM    2  C2  UNL     1     -15.431  -0.906  12.630  1.00  0.00     0.076 C 
ENDROOT
BRANCH   2   3
HETATM    3  C3  UNL     1     -16.860  -0.542  12.509  1.00  0.00     0.127 C 
BRANCH   3   4
HETATM    4  C4  UNL     1     -17.034   0.922  12.155  1.00  0.00     0.221 C 
HETATM    5  O1  UNL     1     -16.879   1.303  10.989  1.00  0.00    -0.273 OA
HETATM    6  N1  UNL     1     -17.373   1.859  13.158  1.00  0.00    -0.348 N 
HETATM    7  C5  UNL     1     -17.553   3.269  12.888  1.00  0.00     0.152 C 
HETATM    8  C8  UNL     1     -17.553   1.410  14.524  1.00  0.00     0.152 C 
HETATM    9  C6  UNL     1     -18.868   3.782  13.430  1.00  0.00     0.187 C 
HETATM   10  O2  UNL     1     -19.316   2.988  14.483  1.00  0.00    -0.388 OA
HETATM   11  C7  UNL     1     -18.226   2.577  15.257  1.00  0.00     0.187 C 
ENDBRANCH   3   4
ENDBRANCH   2   3
BRANCH   2  12
HETATM   12  C9  UNL     1     -15.402  -1.514  14.058  1.00  0.00     0.186 C 
HETATM   13  O3  UNL     1     -14.344  -1.617  14.703  1.00  0.00    -0.647 OA
HETATM   14  O4  UNL     1     -16.572  -1.949  14.632  1.00  0.00    -0.647 OA
ENDBRANCH   2  12
BRANCH   2  15
HETATM   15  C10 UNL     1     -14.897  -2.026  11.862  1.00  0.00    -0.058 C 
HETATM   16  C11 UNL     1     -14.633  -1.972  10.578  1.00  0.00    -0.072 C 
HETATM   17  C12 UNL     1     -14.834  -0.788   9.773  1.00  0.00     0.035 C 
HETATM   18  C16 UNL     1     -14.112  -3.156   9.769  1.00  0.00     0.015 C 
HETATM   19  C13 UNL     1     -14.172  -0.976   8.382  1.00  0.00     0.004 C 
HETATM   20  C14 UNL     1     -14.813  -2.117   7.632  1.00  0.00     0.001 C 
HETATM   21  C15 UNL     1     -14.933  -3.347   8.507  1.00  0.00     0.009 C 
HETATM   22  C17 UNL     1     -14.121  -4.434  10.532  1.00  0.00     0.009 C 
HETATM   23  C18 UNL     1     -13.477  -4.091  11.871  1.00  0.00     0.005 C 
HETATM   24  C19 UNL     1     -14.524  -3.315  12.614  1.00  0.00     0.036 C 
ENDBRANCH   2  15
TORSDOF 4
ENDMDL
