MODEL 1
REMARK VINA RESULT: -8.006693763      0.000      0.000
REMARK  5 active torsions:
REMARK  status: ('A' for Active; 'I' for Inactive)
REMARK    1  A    between atoms: N1_2  and  C3_4 
REMARK    2  A    between atoms: C3_4  and  C4_5 
REMARK    3  A    between atoms: C4_5  and  O1_6 
REMARK    4  A    between atoms: O1_6  and  C5_7 
REMARK    5  A    between atoms: C14_16  and  O2_17 
ROOT
HETATM    1  C5  UNL     1     -16.210  -5.479   8.209  1.00  0.00     0.051 C 
HETATM    2  C6  UNL     1     -16.260  -4.237   8.652  1.00  0.00     0.007 C 
HETATM    3  C7  UNL     1     -15.052  -3.955   9.519  1.00  0.00     0.035 C 
HETATM    4  C8  UNL     1     -14.880  -5.355  10.054  1.00  0.00     0.008 C 
HETATM    5  C9  UNL     1     -13.706  -5.650  10.868  1.00  0.00    -0.005 C 
HETATM    6  C10 UNL     1     -12.674  -4.570  10.986  1.00  0.00     0.006 C 
HETATM    7  C11 UNL     1     -11.384  -5.220  11.502  1.00  0.00     0.005 C 
HETATM    8  C12 UNL     1     -11.758  -6.320  12.477  1.00  0.00    -0.008 C 
HETATM    9  C13 UNL     1     -10.506  -6.804  13.155  1.00  0.00     0.036 C 
HETATM   10  C14 UNL     1     -10.097  -8.078  12.452  1.00  0.00     0.118 C 
HETATM   11  C15 UNL     1     -11.115  -8.292  11.363  1.00  0.00     0.037 C 
HETATM   12  C16 UNL     1     -12.337  -7.491  11.714  1.00  0.00    -0.004 C 
HETATM   13  C17 UNL     1     -13.047  -6.953  10.474  1.00  0.00    -0.005 C 
HETATM   14  C18 UNL     1     -13.995  -7.990   9.986  1.00  0.00     0.006 C 
HETATM   15  C19 UNL     1     -15.100  -7.535   9.091  1.00  0.00     0.017 C 
HETATM   16  C20 UNL     1     -14.977  -6.090   8.745  1.00  0.00     0.009 C 
HETATM   17  C21 UNL     1     -13.891  -5.784   7.766  1.00  0.00     0.023 C 
ENDROOT
BRANCH   1  18
HETATM   18  O1  UNL     1     -17.176  -6.057   7.382  1.00  0.00    -0.353 OA
BRANCH  18  19
HETATM   19  C4  UNL     1     -17.203  -5.720   5.994  1.00  0.00     0.205 C 
BRANCH  19  20
HETATM   20  C3  UNL     1     -17.136  -6.928   5.128  1.00  0.00     0.297 C 
BRANCH  20  21
HETATM   21  N1  UNL     1     -16.064  -7.797   5.492  1.00  0.00     0.082 N 
HETATM   22  C1  UNL     1     -16.532  -9.139   5.678  1.00  0.00     0.309 C 
HETATM   23  C2  UNL     1     -14.972  -7.809   4.563  1.00  0.00     0.309 C 
ENDBRANCH  20  21
ENDBRANCH  19  20
ENDBRANCH  18  19
ENDBRANCH   1  18
BRANCH  10  24
HETATM   24  O2  UNL     1     -10.136  -9.177  13.309  1.00  0.00    -0.396 OA
ATOM     25  H2  UNL     1      -9.950  -9.988  12.850  1.00  0.00     0.210 HD
ENDBRANCH  10  24
TORSDOF 5
ENDMDL
MODEL 2
REMARK VINA RESULT: -7.923337771      0.714      1.031
REMARK  5 active torsions:
REMARK  status: ('A' for Active; 'I' for Inactive)
REMARK    1  A    between atoms: N1_2  and  C3_4 
REMARK    2  A    between atoms: C3_4  and  C4_5 
REMARK    3  A    between atoms: C4_5  and  O1_6 
REMARK    4  A    between atoms: O1_6  and  C5_7 
REMARK    5  A    between atoms: C14_16  and  O2_17 
ROOT
HETATM    1  C5  UNL     1     -16.181  -5.489   8.224  1.00  0.00     0.051 C 
HETATM    2  C6  UNL     1     -16.229  -4.245   8.665  1.00  0.00     0.007 C 
HETATM    3  C7  UNL     1     -15.022  -3.967   9.534  1.00  0.00     0.035 C 
HETATM    4  C8  UNL     1     -14.857  -5.367  10.073  1.00  0.00     0.008 C 
HETATM    5  C9  UNL     1     -13.685  -5.664  10.891  1.00  0.00    -0.005 C 
HETATM    6  C10 UNL     1     -12.650  -4.588  11.009  1.00  0.00     0.006 C 
HETATM    7  C11 UNL     1     -11.364  -5.242  11.530  1.00  0.00     0.005 C 
HETATM    8  C12 UNL     1     -11.745  -6.338  12.507  1.00  0.00    -0.008 C 
HETATM    9  C13 UNL     1     -10.497  -6.826  13.189  1.00  0.00     0.036 C 
HETATM   10  C14 UNL     1     -10.090  -8.103  12.489  1.00  0.00     0.118 C 
HETATM   11  C15 UNL     1     -11.107  -8.316  11.398  1.00  0.00     0.037 C 
HETATM   12  C16 UNL     1     -12.326  -7.509  11.744  1.00  0.00    -0.004 C 
HETATM   13  C17 UNL     1     -13.031  -6.971  10.501  1.00  0.00    -0.005 C 
HETATM   14  C18 UNL     1     -13.982  -8.005  10.013  1.00  0.00     0.006 C 
HETATM   15  C19 UNL     1     -15.082  -7.547   9.113  1.00  0.00     0.017 C 
HETATM   16  C20 UNL     1     -14.953  -6.103   8.765  1.00  0.00     0.009 C 
HETATM   17  C21 UNL     1     -13.862  -5.804   7.789  1.00  0.00     0.023 C 
ENDROOT
BRANCH   1  18
HETATM   18  O1  UNL     1     -17.148  -6.064   7.396  1.00  0.00    -0.353 OA
BRANCH  18  19
HETATM   19  C4  UNL     1     -17.081  -5.846   5.986  1.00  0.00     0.205 C 
BRANCH  19  20
HETATM   20  C3  UNL     1     -16.354  -6.941   5.288  1.00  0.00     0.297 C 
BRANCH  20  21
HETATM   21  N1  UNL     1     -15.487  -6.449   4.267  1.00  0.00     0.082 N 
HETATM   22  C1  UNL     1     -15.262  -5.041   4.420  1.00  0.00     0.309 C 
HETATM   23  C2  UNL     1     -14.220  -7.117   4.195  1.00  0.00     0.309 C 
ENDBRANCH  20  21
ENDBRANCH  19  20
ENDBRANCH  18  19
ENDBRANCH   1  18
BRANCH  10  24
HETATM   24  O2  UNL     1     -10.136  -9.200  13.348  1.00  0.00    -0.396 OA
ATOM     25  H2  UNL     1     -10.417  -9.988  12.898  1.00  0.00     0.210 HD
ENDBRANCH  10  24
TORSDOF 5
ENDMDL
MODEL 3
REMARK VINA RESULT: -7.645619709      1.310      2.025
REMARK  5 active torsions:
REMARK  status: ('A' for Active; 'I' for Inactive)
REMARK    1  A    between atoms: N1_2  and  C3_4 
REMARK    2  A    between atoms: C3_4  and  C4_5 
REMARK    3  A    between atoms: C4_5  and  O1_6 
REMARK    4  A    between atoms: O1_6  and  C5_7 
REMARK    5  A    between atoms: C14_16  and  O2_17 
ROOT
HETATM    1  C5  UNL     1     -16.199  -5.508   8.205  1.00  0.00     0.051 C 
HETATM    2  C6  UNL     1     -16.260  -4.268   8.653  1.00  0.00     0.007 C 
HETATM    3  C7  UNL     1     -15.061  -3.983   9.531  1.00  0.00     0.035 C 
HETATM    4  C8  UNL     1     -14.886  -5.384  10.062  1.00  0.00     0.008 C 
HETATM    5  C9  UNL     1     -13.717  -5.676  10.885  1.00  0.00    -0.005 C 
HETATM    6  C10 UNL     1     -12.692  -4.591  11.016  1.00  0.00     0.006 C 
HETATM    7  C11 UNL     1     -11.403  -5.236  11.540  1.00  0.00     0.005 C 
HETATM    8  C12 UNL     1     -11.779  -6.342  12.508  1.00  0.00    -0.008 C 
HETATM    9  C13 UNL     1     -10.531  -6.822  13.195  1.00  0.00     0.036 C 
HETATM   10  C14 UNL     1     -10.108  -8.090  12.490  1.00  0.00     0.118 C 
HETATM   11  C15 UNL     1     -11.116  -8.306  11.392  1.00  0.00     0.037 C 
HETATM   12  C16 UNL     1     -12.345  -7.513  11.735  1.00  0.00    -0.004 C 
HETATM   13  C17 UNL     1     -13.048  -6.974  10.491  1.00  0.00    -0.005 C 
HETATM   14  C18 UNL     1     -13.986  -8.014   9.991  1.00  0.00     0.006 C 
HETATM   15  C19 UNL     1     -15.086  -7.562   9.088  1.00  0.00     0.017 C 
HETATM   16  C20 UNL     1     -14.967  -6.114   8.749  1.00  0.00     0.009 C 
HETATM   17  C21 UNL     1     -13.875  -5.799   7.781  1.00  0.00     0.023 C 
ENDROOT
BRANCH   1  18
HETATM   18  O1  UNL     1     -17.155  -6.087   7.367  1.00  0.00    -0.353 OA
BRANCH  18  19
HETATM   19  C4  UNL     1     -17.045  -5.915   5.954  1.00  0.00     0.205 C 
BRANCH  19  20
HETATM   20  C3  UNL     1     -18.090  -4.998   5.423  1.00  0.00     0.297 C 
BRANCH  20  21
HETATM   21  N1  UNL     1     -19.285  -5.031   6.202  1.00  0.00     0.082 N 
HETATM   22  C1  UNL     1     -19.690  -3.707   6.576  1.00  0.00     0.309 C 
HETATM   23  C2  UNL     1     -20.387  -5.692   5.566  1.00  0.00     0.309 C 
ENDBRANCH  20  21
ENDBRANCH  19  20
ENDBRANCH  18  19
ENDBRANCH   1  18
BRANCH  10  24
HETATM   24  O2  UNL     1     -10.149  -9.193  13.342  1.00  0.00    -0.396 OA
ATOM     25  H2  UNL     1      -9.392  -9.755  13.227  1.00  0.00     0.210 HD
ENDBRANCH  10  24
TORSDOF 5
ENDMDL
MODEL 4
REMARK VINA RESULT: -7.521980219      0.904      1.076
REMARK  5 active torsions:
REMARK  status: ('A' for Active; 'I' for Inactive)
REMARK    1  A    between atoms: N1_2  and  C3_4 
REMARK    2  A    between atoms: C3_4  and  C4_5 
REMARK    3  A    between atoms: C4_5  and  O1_6 
REMARK    4  A    between atoms: O1_6  and  C5_7 
REMARK    5  A    between atoms: C14_16  and  O2_17 
ROOT
HETATM    1  C5  UNL     1     -16.160  -5.487   8.274  1.00  0.00     0.051 C 
HETATM    2  C6  UNL     1     -16.179  -4.235   8.693  1.00  0.00     0.007 C 
HETATM    3  C7  UNL     1     -14.957  -3.963   9.543  1.00  0.00     0.035 C 
HETATM    4  C8  UNL     1     -14.810  -5.356  10.104  1.00  0.00     0.008 C 
HETATM    5  C9  UNL     1     -13.634  -5.660  10.913  1.00  0.00    -0.005 C 
HETATM    6  C10 UNL     1     -12.579  -4.601  11.000  1.00  0.00     0.006 C 
HETATM    7  C11 UNL     1     -11.298  -5.269  11.516  1.00  0.00     0.005 C 
HETATM    8  C12 UNL     1     -11.686  -6.341  12.517  1.00  0.00    -0.008 C 
HETATM    9  C13 UNL     1     -10.439  -6.839  13.192  1.00  0.00     0.036 C 
HETATM   10  C14 UNL     1     -10.063  -8.135  12.510  1.00  0.00     0.118 C 
HETATM   11  C15 UNL     1     -11.097  -8.349  11.436  1.00  0.00     0.037 C 
HETATM   12  C16 UNL     1     -12.297  -7.514  11.782  1.00  0.00    -0.004 C 
HETATM   13  C17 UNL     1     -13.008  -6.985  10.538  1.00  0.00    -0.005 C 
HETATM   14  C18 UNL     1     -13.983  -8.010  10.080  1.00  0.00     0.006 C 
HETATM   15  C19 UNL     1     -15.087  -7.549   9.186  1.00  0.00     0.017 C 
HETATM   16  C20 UNL     1     -14.935  -6.114   8.810  1.00  0.00     0.009 C 
HETATM   17  C21 UNL     1     -13.852  -5.851   7.816  1.00  0.00     0.023 C 
ENDROOT
BRANCH   1  18
HETATM   18  O1  UNL     1     -17.147  -6.059   7.468  1.00  0.00    -0.353 OA
BRANCH  18  19
HETATM   19  C4  UNL     1     -18.032  -5.211   6.736  1.00  0.00     0.205 C 
BRANCH  19  20
HETATM   20  C3  UNL     1     -17.950  -5.454   5.270  1.00  0.00     0.297 C 
BRANCH  20  21
HETATM   21  N1  UNL     1     -18.029  -6.841   4.946  1.00  0.00     0.082 N 
HETATM   22  C1  UNL     1     -19.346  -7.188   4.497  1.00  0.00     0.309 C 
HETATM   23  C2  UNL     1     -17.075  -7.275   3.968  1.00  0.00     0.309 C 
ENDBRANCH  20  21
ENDBRANCH  19  20
ENDBRANCH  18  19
ENDBRANCH   1  18
BRANCH  10  24
HETATM   24  O2  UNL     1     -10.118  -9.216  13.389  1.00  0.00    -0.396 OA
ATOM     25  H2  UNL     1     -10.969  -9.288  13.807  1.00  0.00     0.210 HD
ENDBRANCH  10  24
TORSDOF 5
ENDMDL
MODEL 5
REMARK VINA RESULT: -7.425815146      2.377      3.582
REMARK  5 active torsions:
REMARK  status: ('A' for Active; 'I' for Inactive)
REMARK    1  A    between atoms: N1_2  and  C3_4 
REMARK    2  A    between atoms: C3_4  and  C4_5 
REMARK    3  A    between atoms: C4_5  and  O1_6 
REMARK    4  A    between atoms: O1_6  and  C5_7 
REMARK    5  A    between atoms: C14_16  and  O2_17 
ROOT
HETATM    1  C5  UNL     1     -14.655  -5.226   8.701  1.00  0.00     0.051 C 
HETATM    2  C6  UNL     1     -14.370  -6.337   8.047  1.00  0.00     0.007 C 
HETATM    3  C7  UNL     1     -13.536  -7.245   8.925  1.00  0.00     0.035 C 
HETATM    4  C8  UNL     1     -12.830  -6.157   9.696  1.00  0.00     0.008 C 
HETATM    5  C9  UNL     1     -11.977  -6.539  10.817  1.00  0.00    -0.005 C 
HETATM    6  C10 UNL     1     -11.987  -7.983  11.214  1.00  0.00     0.006 C 
HETATM    7  C11 UNL     1     -11.385  -8.077  12.622  1.00  0.00     0.005 C 
HETATM    8  C12 UNL     1     -10.283  -7.041  12.742  1.00  0.00    -0.008 C 
HETATM    9  C13 UNL     1      -9.541  -7.279  14.028  1.00  0.00     0.036 C 
HETATM   10  C14 UNL     1     -10.078  -6.282  15.030  1.00  0.00     0.118 C 
HETATM   11  C15 UNL     1     -11.139  -5.498  14.303  1.00  0.00     0.037 C 
HETATM   12  C16 UNL     1     -10.899  -5.661  12.829  1.00  0.00    -0.004 C 
HETATM   13  C17 UNL     1     -12.202  -5.666  12.031  1.00  0.00    -0.005 C 
HETATM   14  C18 UNL     1     -12.564  -4.260  11.711  1.00  0.00     0.006 C 
HETATM   15  C19 UNL     1     -13.517  -4.042  10.582  1.00  0.00     0.017 C 
HETATM   16  C20 UNL     1     -14.039  -5.329  10.039  1.00  0.00     0.009 C 
HETATM   17  C21 UNL     1     -15.039  -6.005  10.917  1.00  0.00     0.023 C 
ENDROOT
BRANCH   1  18
HETATM   18  O1  UNL     1     -15.411  -4.177   8.172  1.00  0.00    -0.353 OA
BRANCH  18  19
HETATM   19  C4  UNL     1     -15.191  -3.766   6.823  1.00  0.00     0.205 C 
BRANCH  19  20
HETATM   20  C3  UNL     1     -13.950  -2.957   6.683  1.00  0.00     0.297 C 
BRANCH  20  21
HETATM   21  N1  UNL     1     -13.097  -3.448   5.649  1.00  0.00     0.082 N 
HETATM   22  C1  UNL     1     -13.840  -4.216   4.693  1.00  0.00     0.309 C 
HETATM   23  C2  UNL     1     -12.362  -2.430   4.958  1.00  0.00     0.309 C 
ENDBRANCH  20  21
ENDBRANCH  19  20
ENDBRANCH  18  19
ENDBRANCH   1  18
BRANCH  10  24
HETATM   24  O2  UNL     1      -9.091  -5.392  15.453  1.00  0.00    -0.396 OA
ATOM     25  H2  UNL     1      -9.398  -4.493  15.435  1.00  0.00     0.210 HD
ENDBRANCH  10  24
TORSDOF 5
ENDMDL
