MODEL 1
REMARK VINA RESULT: -5.920245661      0.000      0.000
REMARK  5 active torsions:
REMARK  status: ('A' for Active; 'I' for Inactive)
REMARK    1  A    between atoms: C2_2  and  C3_3 
REMARK    2  A    between atoms: C3_3  and  C5_5 
REMARK    3  A    between atoms: C9_9  and  O1_10 
REMARK    4  A    between atoms: C11_14  and  O3_15 
REMARK    5  A    between atoms: O3_15  and  O4_16 
ROOT
HETATM    1  C5  UNL     1      29.763  13.948  13.470  1.00  0.00     0.000 C 
HETATM    2  C6  UNL     1      30.842  13.353  14.365  1.00  0.00     0.006 C 
HETATM    3  C7  UNL     1      32.106  13.340  13.585  1.00  0.00     0.004 C 
HETATM    4  C8  UNL     1      32.440  14.549  12.823  1.00  0.00     0.041 C 
HETATM    5  C9  UNL     1      31.320  15.397  12.340  1.00  0.00     0.092 C 
HETATM    6  C10 UNL     1      30.959  15.156  10.900  1.00  0.00     0.167 C 
HETATM    7  O2  UNL     1      32.003  15.467  10.047  1.00  0.00    -0.346 OA
HETATM    8  C11 UNL     1      31.449  15.767   8.805  1.00  0.00     0.334 C 
HETATM    9  C12 UNL     1      30.004  16.213   9.067  1.00  0.00     0.144 C 
HETATM   10  C13 UNL     1      29.104  15.153   8.496  1.00  0.00     0.215 C 
HETATM   11  O5  UNL     1      28.036  15.902   8.017  1.00  0.00    -0.353 OA
HETATM   12  C14 UNL     1      28.591  17.112   7.599  1.00  0.00     0.158 C 
HETATM   13  C15 UNL     1      27.504  18.161   7.742  1.00  0.00     0.078 C 
HETATM   14  C16 UNL     1      29.003  17.063   6.143  1.00  0.00     0.078 C 
HETATM   15  O6  UNL     1      29.687  17.367   8.391  1.00  0.00    -0.337 OA
HETATM   16  C17 UNL     1      29.996  16.300  10.536  1.00  0.00     0.060 C 
HETATM   17  C18 UNL     1      28.728  16.015  11.241  1.00  0.00     0.011 C 
HETATM   18  C19 UNL     1      29.044  16.261  12.726  1.00  0.00     0.013 C 
HETATM   19  C20 UNL     1      30.102  15.368  13.263  1.00  0.00    -0.006 C 
HETATM   20  C21 UNL     1      30.645  16.041  14.536  1.00  0.00     0.019 C 
ENDROOT
BRANCH   8  21
HETATM   21  O3  UNL     1      32.128  16.906   8.328  1.00  0.00    -0.207 OA
BRANCH  21  22
HETATM   22  O4  UNL     1      32.352  16.847   7.050  1.00  0.00    -0.248 OA
ATOM     23  H4  UNL     1      33.144  17.308   6.802  1.00  0.00     0.253 HD
ENDBRANCH  21  22
ENDBRANCH   8  21
BRANCH   5  24
HETATM   24  O1  UNL     1      31.770  16.741  12.391  1.00  0.00    -0.386 OA
ATOM     25  H1  UNL     1      31.031  17.288  12.152  1.00  0.00     0.210 HD
ENDBRANCH   5  24
BRANCH   1  26
HETATM   26  C3  UNL     1      28.393  13.573  13.856  1.00  0.00    -0.014 C 
HETATM   27  C4  UNL     1      27.811  12.782  12.665  1.00  0.00     0.010 C 
BRANCH  26  28
HETATM   28  C2  UNL     1      28.239  12.674  15.042  1.00  0.00     0.000 C 
HETATM   29  C1  UNL     1      27.787  11.269  14.607  1.00  0.00     0.005 C 
ENDBRANCH  26  28
ENDBRANCH   1  26
TORSDOF 5
ENDMDL
MODEL 2
REMARK VINA RESULT: -5.802366999      0.970      1.019
REMARK  5 active torsions:
REMARK  status: ('A' for Active; 'I' for Inactive)
REMARK    1  A    between atoms: C2_2  and  C3_3 
REMARK    2  A    between atoms: C3_3  and  C5_5 
REMARK    3  A    between atoms: C9_9  and  O1_10 
REMARK    4  A    between atoms: C11_14  and  O3_15 
REMARK    5  A    between atoms: O3_15  and  O4_16 
ROOT
HETATM    1  C5  UNL     1      29.688  14.006  13.234  1.00  0.00     0.000 C 
HETATM    2  C6  UNL     1      30.792  13.830  14.269  1.00  0.00     0.006 C 
HETATM    3  C7  UNL     1      32.050  14.336  13.662  1.00  0.00     0.004 C 
HETATM    4  C8  UNL     1      31.986  15.614  12.942  1.00  0.00     0.041 C 
HETATM    5  C9  UNL     1      30.695  15.989  12.310  1.00  0.00     0.092 C 
HETATM    6  C10 UNL     1      30.638  15.692  10.836  1.00  0.00     0.167 C 
HETATM    7  O2  UNL     1      31.579  16.417  10.127  1.00  0.00    -0.346 OA
HETATM    8  C11 UNL     1      31.112  16.537   8.820  1.00  0.00     0.334 C 
HETATM    9  C12 UNL     1      29.585  16.384   8.886  1.00  0.00     0.144 C 
HETATM   10  C13 UNL     1      29.242  15.085   8.208  1.00  0.00     0.215 C 
HETATM   11  O5  UNL     1      28.037  15.389   7.587  1.00  0.00    -0.353 OA
HETATM   12  C14 UNL     1      28.130  16.737   7.237  1.00  0.00     0.158 C 
HETATM   13  C15 UNL     1      26.714  17.283   7.228  1.00  0.00     0.078 C 
HETATM   14  C16 UNL     1      28.708  16.914   5.849  1.00  0.00     0.078 C 
HETATM   15  O6  UNL     1      28.935  17.356   8.165  1.00  0.00    -0.337 OA
HETATM   16  C17 UNL     1      29.361  16.395  10.340  1.00  0.00     0.060 C 
HETATM   17  C18 UNL     1      28.224  15.615  10.874  1.00  0.00     0.011 C 
HETATM   18  C19 UNL     1      28.233  15.898  12.386  1.00  0.00     0.013 C 
HETATM   19  C20 UNL     1      29.477  15.455  13.063  1.00  0.00    -0.006 C 
HETATM   20  C21 UNL     1      29.556  16.227  14.392  1.00  0.00     0.019 C 
ENDROOT
BRANCH   8  21
HETATM   21  O3  UNL     1      31.352  17.869   8.429  1.00  0.00    -0.207 OA
BRANCH  21  22
HETATM   22  O4  UNL     1      31.754  17.955   7.197  1.00  0.00    -0.248 OA
ATOM     23  H4  UNL     1      31.126  18.404   6.644  1.00  0.00     0.253 HD
ENDBRANCH  21  22
ENDBRANCH   8  21
BRANCH   5  24
HETATM   24  O1  UNL     1      30.582  17.399  12.410  1.00  0.00    -0.386 OA
ATOM     25  H1  UNL     1      31.168  17.770  11.759  1.00  0.00     0.210 HD
ENDBRANCH   5  24
BRANCH   1  26
HETATM   26  C3  UNL     1      28.532  13.118  13.439  1.00  0.00    -0.014 C 
HETATM   27  C4  UNL     1      29.108  11.756  13.883  1.00  0.00     0.010 C 
BRANCH  26  28
HETATM   28  C2  UNL     1      27.556  13.502  14.505  1.00  0.00     0.000 C 
HETATM   29  C1  UNL     1      26.299  12.616  14.439  1.00  0.00     0.005 C 
ENDBRANCH  26  28
ENDBRANCH   1  26
TORSDOF 5
ENDMDL
MODEL 3
REMARK VINA RESULT: -5.746040517      1.964      3.671
REMARK  5 active torsions:
REMARK  status: ('A' for Active; 'I' for Inactive)
REMARK    1  A    between atoms: C2_2  and  C3_3 
REMARK    2  A    between atoms: C3_3  and  C5_5 
REMARK    3  A    between atoms: C9_9  and  O1_10 
REMARK    4  A    between atoms: C11_14  and  O3_15 
REMARK    5  A    between atoms: O3_15  and  O4_16 
ROOT
HETATM    1  C5  UNL     1      30.380  16.015  11.278  1.00  0.00     0.000 C 
HETATM    2  C6  UNL     1      31.763  15.376  11.246  1.00  0.00     0.006 C 
HETATM    3  C7  UNL     1      32.005  14.917   9.855  1.00  0.00     0.004 C 
HETATM    4  C8  UNL     1      31.653  15.840   8.768  1.00  0.00     0.041 C 
HETATM    5  C9  UNL     1      30.555  16.810   9.012  1.00  0.00     0.092 C 
HETATM    6  C10 UNL     1      29.232  16.379   8.442  1.00  0.00     0.167 C 
HETATM    7  O2  UNL     1      29.276  16.265   7.064  1.00  0.00    -0.346 OA
HETATM    8  C11 UNL     1      27.976  16.433   6.593  1.00  0.00     0.334 C 
HETATM    9  C12 UNL     1      27.225  17.244   7.658  1.00  0.00     0.144 C 
HETATM   10  C13 UNL     1      26.200  16.328   8.269  1.00  0.00     0.215 C 
HETATM   11  O5  UNL     1      25.140  17.193   8.507  1.00  0.00    -0.353 OA
HETATM   12  C14 UNL     1      25.192  18.135   7.479  1.00  0.00     0.158 C 
HETATM   13  C15 UNL     1      24.589  19.414   8.029  1.00  0.00     0.078 C 
HETATM   14  C16 UNL     1      24.365  17.704   6.287  1.00  0.00     0.078 C 
HETATM   15  O6  UNL     1      26.509  18.281   7.111  1.00  0.00    -0.337 OA
HETATM   16  C17 UNL     1      28.328  17.619   8.558  1.00  0.00     0.060 C 
HETATM   17  C18 UNL     1      28.026  17.780   9.996  1.00  0.00     0.011 C 
HETATM   18  C19 UNL     1      29.353  18.236  10.624  1.00  0.00     0.013 C 
HETATM   19  C20 UNL     1      30.450  17.247  10.473  1.00  0.00    -0.006 C 
HETATM   20  C21 UNL     1      31.769  18.015  10.676  1.00  0.00     0.019 C 
ENDROOT
BRANCH   8  21
HETATM   21  O3  UNL     1      28.065  17.266   5.460  1.00  0.00    -0.207 OA
BRANCH  21  22
HETATM   22  O4  UNL     1      29.124  18.019   5.485  1.00  0.00    -0.248 OA
ATOM     23  H4  UNL     1      29.585  18.017   4.655  1.00  0.00     0.253 HD
ENDBRANCH  21  22
ENDBRANCH   8  21
BRANCH   5  24
HETATM   24  O1  UNL     1      30.893  17.997   8.312  1.00  0.00    -0.386 OA
ATOM     25  H1  UNL     1      30.138  18.572   8.363  1.00  0.00     0.210 HD
ENDBRANCH   5  24
BRANCH   1  26
HETATM   26  C3  UNL     1      29.771  16.050  12.617  1.00  0.00    -0.014 C 
HETATM   27  C4  UNL     1      28.606  15.037  12.588  1.00  0.00     0.010 C 
BRANCH  26  28
HETATM   28  C2  UNL     1      30.629  15.635  13.770  1.00  0.00     0.000 C 
HETATM   29  C1  UNL     1      30.070  14.366  14.438  1.00  0.00     0.005 C 
ENDBRANCH  26  28
ENDBRANCH   1  26
TORSDOF 5
ENDMDL
MODEL 4
REMARK VINA RESULT: -5.737150597      1.097      1.237
REMARK  5 active torsions:
REMARK  status: ('A' for Active; 'I' for Inactive)
REMARK    1  A    between atoms: C2_2  and  C3_3 
REMARK    2  A    between atoms: C3_3  and  C5_5 
REMARK    3  A    between atoms: C9_9  and  O1_10 
REMARK    4  A    between atoms: C11_14  and  O3_15 
REMARK    5  A    between atoms: O3_15  and  O4_16 
ROOT
HETATM    1  C5  UNL     1      30.610  13.810  13.711  1.00  0.00     0.000 C 
HETATM    2  C6  UNL     1      31.893  13.119  14.154  1.00  0.00     0.006 C 
HETATM    3  C7  UNL     1      32.893  13.308  13.071  1.00  0.00     0.004 C 
HETATM    4  C8  UNL     1      33.006  14.650  12.485  1.00  0.00     0.041 C 
HETATM    5  C9  UNL     1      31.797  15.513  12.490  1.00  0.00     0.092 C 
HETATM    6  C10 UNL     1      31.053  15.516  11.184  1.00  0.00     0.167 C 
HETATM    7  O2  UNL     1      31.821  16.026  10.153  1.00  0.00    -0.346 OA
HETATM    8  C11 UNL     1      30.946  16.515   9.186  1.00  0.00     0.334 C 
HETATM    9  C12 UNL     1      29.630  16.835   9.908  1.00  0.00     0.144 C 
HETATM   10  C13 UNL     1      28.606  15.850   9.416  1.00  0.00     0.215 C 
HETATM   11  O5  UNL     1      27.448  16.618   9.393  1.00  0.00    -0.353 OA
HETATM   12  C14 UNL     1      27.868  17.910   9.072  1.00  0.00     0.158 C 
HETATM   13  C15 UNL     1      26.865  18.861   9.697  1.00  0.00     0.078 C 
HETATM   14  C16 UNL     1      27.862  18.142   7.576  1.00  0.00     0.078 C 
HETATM   15  O6  UNL     1      29.140  18.073   9.570  1.00  0.00    -0.337 OA
HETATM   16  C17 UNL     1      30.028  16.657  11.314  1.00  0.00     0.060 C 
HETATM   17  C18 UNL     1      29.004  16.188  12.271  1.00  0.00     0.011 C 
HETATM   18  C19 UNL     1      29.718  16.180  13.634  1.00  0.00     0.013 C 
HETATM   19  C20 UNL     1      30.881  15.259  13.687  1.00  0.00    -0.006 C 
HETATM   20  C21 UNL     1      31.756  15.720  14.867  1.00  0.00     0.019 C 
ENDROOT
BRANCH   8  21
HETATM   21  O3  UNL     1      31.468  17.753   8.762  1.00  0.00    -0.207 OA
BRANCH  21  22
HETATM   22  O4  UNL     1      31.343  17.928   7.481  1.00  0.00    -0.248 OA
ATOM     23  H4  UNL     1      32.027  17.491   6.990  1.00  0.00     0.253 HD
ENDBRANCH  21  22
ENDBRANCH   8  21
BRANCH   5  24
HETATM   24  O1  UNL     1      32.246  16.847  12.666  1.00  0.00    -0.386 OA
ATOM     25  H1  UNL     1      31.471  17.395  12.716  1.00  0.00     0.210 HD
ENDBRANCH   5  24
BRANCH   1  26
HETATM   26  C3  UNL     1      29.400  13.304  14.379  1.00  0.00    -0.014 C 
HETATM   27  C4  UNL     1      28.476  12.782  13.258  1.00  0.00     0.010 C 
BRANCH  26  28
HETATM   28  C2  UNL     1      29.569  12.155  15.322  1.00  0.00     0.000 C 
HETATM   29  C1  UNL     1      28.215  11.743  15.928  1.00  0.00     0.005 C 
ENDBRANCH  26  28
ENDBRANCH   1  26
TORSDOF 5
ENDMDL
MODEL 5
REMARK VINA RESULT: -5.704851243      2.033      2.777
REMARK  5 active torsions:
REMARK  status: ('A' for Active; 'I' for Inactive)
REMARK    1  A    between atoms: C2_2  and  C3_3 
REMARK    2  A    between atoms: C3_3  and  C5_5 
REMARK    3  A    between atoms: C9_9  and  O1_10 
REMARK    4  A    between atoms: C11_14  and  O3_15 
REMARK    5  A    between atoms: O3_15  and  O4_16 
ROOT
HETATM    1  C5  UNL     1      29.606  13.677  13.293  1.00  0.00     0.000 C 
HETATM    2  C6  UNL     1      29.791  13.489  14.793  1.00  0.00     0.006 C 
HETATM    3  C7  UNL     1      31.241  13.637  15.081  1.00  0.00     0.004 C 
HETATM    4  C8  UNL     1      31.945  14.755  14.440  1.00  0.00     0.041 C 
HETATM    5  C9  UNL     1      31.430  15.241  13.134  1.00  0.00     0.092 C 
HETATM    6  C10 UNL     1      32.184  14.700  11.950  1.00  0.00     0.167 C 
HETATM    7  O2  UNL     1      33.508  15.100  11.955  1.00  0.00    -0.346 OA
HETATM    8  C11 UNL     1      33.956  15.066  10.637  1.00  0.00     0.334 C 
HETATM    9  C12 UNL     1      32.713  15.212   9.748  1.00  0.00     0.144 C 
HETATM   10  C13 UNL     1      32.520  13.899   9.040  1.00  0.00     0.215 C 
HETATM   11  O5  UNL     1      32.046  14.303   7.799  1.00  0.00    -0.353 OA
HETATM   12  C14 UNL     1      32.669  15.525   7.543  1.00  0.00     0.158 C 
HETATM   13  C15 UNL     1      31.733  16.312   6.645  1.00  0.00     0.078 C 
HETATM   14  C16 UNL     1      33.977  15.340   6.806  1.00  0.00     0.078 C 
HETATM   15  O6  UNL     1      32.892  16.142   8.753  1.00  0.00    -0.337 OA
HETATM   16  C17 UNL     1      31.683  15.525  10.752  1.00  0.00     0.060 C 
HETATM   17  C18 UNL     1      30.298  15.078  10.489  1.00  0.00     0.011 C 
HETATM   18  C19 UNL     1      29.481  15.621  11.673  1.00  0.00     0.013 C 
HETATM   19  C20 UNL     1      29.917  15.085  12.988  1.00  0.00    -0.006 C 
HETATM   20  C21 UNL     1      29.387  16.056  14.058  1.00  0.00     0.019 C 
ENDROOT
BRANCH   8  21
HETATM   21  O3  UNL     1      34.713  16.239  10.441  1.00  0.00    -0.207 OA
BRANCH  21  22
HETATM   22  O4  UNL     1      35.763  16.030   9.705  1.00  0.00    -0.248 OA
ATOM     23  H4  UNL     1      36.408  16.721   9.794  1.00  0.00     0.253 HD
ENDBRANCH  21  22
ENDBRANCH   8  21
BRANCH   5  24
HETATM   24  O1  UNL     1      31.646  16.643  13.104  1.00  0.00    -0.386 OA
ATOM     25  H1  UNL     1      30.839  17.039  12.795  1.00  0.00     0.210 HD
ENDBRANCH   5  24
BRANCH   1  26
HETATM   26  C3  UNL     1      28.375  13.069  12.764  1.00  0.00    -0.014 C 
HETATM   27  C4  UNL     1      28.238  11.697  13.459  1.00  0.00     0.010 C 
BRANCH  26  28
HETATM   28  C2  UNL     1      27.088  13.782  13.037  1.00  0.00     0.000 C 
HETATM   29  C1  UNL     1      26.195  12.955  13.980  1.00  0.00     0.005 C 
ENDBRANCH  26  28
ENDBRANCH   1  26
TORSDOF 5
ENDMDL
