MODEL 1
REMARK VINA RESULT: -6.280801869      0.000      0.000
REMARK  5 active torsions:
REMARK  status: ('A' for Active; 'I' for Inactive)
REMARK    1  A    between atoms: C3_3  and  O1_4 
REMARK    2  A    between atoms: C8_10  and  O2_11 
REMARK    3  A    between atoms: C15_20  and  C16_21 
REMARK    4  A    between atoms: C16_21  and  S1_24 
REMARK    5  A    between atoms: S1_24  and  S2_25 
ROOT
HETATM    1  C1  UNL     1      28.221  11.897  16.496  1.00  0.00     0.017 C 
HETATM    2  C2  UNL     1      28.167  11.632  15.202  1.00  0.00    -0.056 C 
HETATM    3  C3  UNL     1      27.020  10.822  14.663  1.00  0.00     0.146 C 
HETATM    4  C4  UNL     1      26.894  11.240  13.208  1.00  0.00     0.036 C 
HETATM    5  C5  UNL     1      27.100  12.716  13.158  1.00  0.00     0.008 C 
HETATM    6  C6  UNL     1      28.613  13.039  13.233  1.00  0.00    -0.002 C 
HETATM    7  C7  UNL     1      28.816  14.473  13.307  1.00  0.00     0.066 C 
HETATM    8  C8  UNL     1      29.622  15.113  14.358  1.00  0.00     0.260 C 
HETATM    9  O3  UNL     1      30.874  14.786  14.586  1.00  0.00    -0.326 OA
HETATM   10  C9  UNL     1      31.700  14.185  13.744  1.00  0.00     0.167 C 
HETATM   11  C10 UNL     1      31.495  12.679  13.807  1.00  0.00     0.069 C 
HETATM   12  C11 UNL     1      30.457  12.349  14.860  1.00  0.00     0.015 C 
HETATM   13  C12 UNL     1      29.172  12.079  14.193  1.00  0.00     0.020 C 
HETATM   14  C13 UNL     1      31.797  14.685  12.340  1.00  0.00     0.071 C 
HETATM   15  C14 UNL     1      33.244  14.519  11.917  1.00  0.00     0.039 C 
HETATM   16  C15 UNL     1      33.879  14.084  13.187  1.00  0.00     0.144 C 
HETATM   17  O4  UNL     1      33.023  14.411  14.196  1.00  0.00    -0.348 OA
ENDROOT
BRANCH   8  18
HETATM   18  O2  UNL     1      29.561  16.514  14.117  1.00  0.00    -0.371 OA
ATOM     19  H2  UNL     1      29.542  16.934  14.969  1.00  0.00     0.212 HD
ENDBRANCH   8  18
BRANCH  16  20
HETATM   20  C16 UNL     1      35.196  14.800  13.367  1.00  0.00     0.037 C 
HETATM   21  C17 UNL     1      35.645  15.502  12.102  1.00  0.00     0.030 C 
HETATM   22  C18 UNL     1      35.085  15.892  14.429  1.00  0.00     0.030 C 
BRANCH  20  23
HETATM   23  S1  UNL     1      36.525  13.698  13.904  1.00  0.00    -0.086 SA
BRANCH  23  24
HETATM   24  S2  UNL     1      35.998  11.657  13.528  1.00  0.00    -0.101 SA
HETATM   25  C19 UNL     1      34.980  10.987  14.871  1.00  0.00     0.102 C 
ENDBRANCH  23  24
ENDBRANCH  20  23
ENDBRANCH  16  20
BRANCH   3  26
HETATM   26  O1  UNL     1      27.462   9.494  14.650  1.00  0.00    -0.391 OA
ATOM     27  H1  UNL     1      26.750   8.979  15.010  1.00  0.00     0.210 HD
ENDBRANCH   3  26
TORSDOF 5
ENDMDL
MODEL 2
REMARK VINA RESULT: -6.176002961      1.490      2.262
REMARK  5 active torsions:
REMARK  status: ('A' for Active; 'I' for Inactive)
REMARK    1  A    between atoms: C3_3  and  O1_4 
REMARK    2  A    between atoms: C8_10  and  O2_11 
REMARK    3  A    between atoms: C15_20  and  C16_21 
REMARK    4  A    between atoms: C16_21  and  S1_24 
REMARK    5  A    between atoms: S1_24  and  S2_25 
ROOT
HETATM    1  C1  UNL     1      28.245  11.933  16.512  1.00  0.00     0.017 C 
HETATM    2  C2  UNL     1      28.204  11.646  15.223  1.00  0.00    -0.056 C 
HETATM    3  C3  UNL     1      27.086  10.790  14.694  1.00  0.00     0.146 C 
HETATM    4  C4  UNL     1      26.951  11.181  13.232  1.00  0.00     0.036 C 
HETATM    5  C5  UNL     1      27.108  12.662  13.159  1.00  0.00     0.008 C 
HETATM    6  C6  UNL     1      28.609  13.036  13.233  1.00  0.00    -0.002 C 
HETATM    7  C7  UNL     1      28.765  14.476  13.285  1.00  0.00     0.066 C 
HETATM    8  C8  UNL     1      29.545  15.159  14.328  1.00  0.00     0.260 C 
HETATM    9  O3  UNL     1      30.807  14.878  14.565  1.00  0.00    -0.326 OA
HETATM   10  C9  UNL     1      31.656  14.292  13.735  1.00  0.00     0.167 C 
HETATM   11  C10 UNL     1      31.500  12.781  13.821  1.00  0.00     0.069 C 
HETATM   12  C11 UNL     1      30.471  12.433  14.876  1.00  0.00     0.015 C 
HETATM   13  C12 UNL     1      29.197  12.110  14.210  1.00  0.00     0.020 C 
HETATM   14  C13 UNL     1      31.741  14.772  12.323  1.00  0.00     0.071 C 
HETATM   15  C14 UNL     1      33.193  14.647  11.907  1.00  0.00     0.039 C 
HETATM   16  C15 UNL     1      33.839  14.254  13.186  1.00  0.00     0.144 C 
HETATM   17  O4  UNL     1      32.969  14.568  14.187  1.00  0.00    -0.348 OA
ENDROOT
BRANCH   8  18
HETATM   18  O2  UNL     1      29.439  16.553  14.065  1.00  0.00    -0.371 OA
ATOM     19  H2  UNL     1      28.513  16.763  14.089  1.00  0.00     0.212 HD
ENDBRANCH   8  18
BRANCH  16  20
HETATM   20  C16 UNL     1      35.131  15.015  13.358  1.00  0.00     0.037 C 
HETATM   21  C17 UNL     1      35.391  15.385  14.804  1.00  0.00     0.030 C 
HETATM   22  C18 UNL     1      36.327  14.169  12.926  1.00  0.00     0.030 C 
BRANCH  20  23
HETATM   23  S1  UNL     1      35.190  16.527  12.369  1.00  0.00    -0.086 SA
BRANCH  23  24
HETATM   24  S2  UNL     1      34.485  18.194  13.513  1.00  0.00    -0.101 SA
HETATM   25  C19 UNL     1      32.705  18.062  13.833  1.00  0.00     0.102 C 
ENDBRANCH  23  24
ENDBRANCH  20  23
ENDBRANCH  16  20
BRANCH   3  26
HETATM   26  O1  UNL     1      27.572   9.478  14.703  1.00  0.00    -0.391 OA
ATOM     27  H1  UNL     1      28.263   9.460  15.355  1.00  0.00     0.210 HD
ENDBRANCH   3  26
TORSDOF 5
ENDMDL
MODEL 3
REMARK VINA RESULT: -6.086319457      3.810      7.370
REMARK  5 active torsions:
REMARK  status: ('A' for Active; 'I' for Inactive)
REMARK    1  A    between atoms: C3_3  and  O1_4 
REMARK    2  A    between atoms: C8_10  and  O2_11 
REMARK    3  A    between atoms: C15_20  and  C16_21 
REMARK    4  A    between atoms: C16_21  and  S1_24 
REMARK    5  A    between atoms: S1_24  and  S2_25 
ROOT
HETATM    1  C1  UNL     1      33.194  14.538  12.706  1.00  0.00     0.017 C 
HETATM    2  C2  UNL     1      32.600  15.124  13.731  1.00  0.00    -0.056 C 
HETATM    3  C3  UNL     1      33.314  16.225  14.465  1.00  0.00     0.146 C 
HETATM    4  C4  UNL     1      32.209  17.069  15.079  1.00  0.00     0.036 C 
HETATM    5  C5  UNL     1      31.125  17.175  14.060  1.00  0.00     0.008 C 
HETATM    6  C6  UNL     1      30.279  15.878  14.054  1.00  0.00    -0.002 C 
HETATM    7  C7  UNL     1      29.301  15.923  12.985  1.00  0.00     0.066 C 
HETATM    8  C8  UNL     1      29.164  14.858  11.980  1.00  0.00     0.260 C 
HETATM    9  O3  UNL     1      28.952  13.602  12.306  1.00  0.00    -0.326 OA
HETATM   10  C9  UNL     1      28.457  13.154  13.448  1.00  0.00     0.167 C 
HETATM   11  C10 UNL     1      29.568  13.036  14.480  1.00  0.00     0.069 C 
HETATM   12  C11 UNL     1      30.893  13.406  13.848  1.00  0.00     0.015 C 
HETATM   13  C12 UNL     1      31.240  14.783  14.242  1.00  0.00     0.020 C 
HETATM   14  C13 UNL     1      27.229  13.794  14.009  1.00  0.00     0.071 C 
HETATM   15  C14 UNL     1      26.428  12.693  14.675  1.00  0.00     0.039 C 
HETATM   16  C15 UNL     1      27.202  11.484  14.288  1.00  0.00     0.144 C 
HETATM   17  O4  UNL     1      27.991  11.834  13.234  1.00  0.00    -0.348 OA
ENDROOT
BRANCH   8  18
HETATM   18  O2  UNL     1      28.132  15.270  11.091  1.00  0.00    -0.371 OA
ATOM     19  H2  UNL     1      28.489  15.982  10.575  1.00  0.00     0.212 HD
ENDBRANCH   8  18
BRANCH  16  20
HETATM   20  C16 UNL     1      26.253  10.380  13.888  1.00  0.00     0.037 C 
HETATM   21  C17 UNL     1      24.905  10.914  13.450  1.00  0.00     0.030 C 
HETATM   22  C18 UNL     1      26.796   9.598  12.693  1.00  0.00     0.030 C 
BRANCH  20  23
HETATM   23  S1  UNL     1      25.982   9.175  15.208  1.00  0.00    -0.086 SA
BRANCH  23  24
HETATM   24  S2  UNL     1      24.492   7.753  14.625  1.00  0.00    -0.101 SA
HETATM   25  C19 UNL     1      22.945   8.018  15.532  1.00  0.00     0.102 C 
ENDBRANCH  23  24
ENDBRANCH  20  23
ENDBRANCH  16  20
BRANCH   3  26
HETATM   26  O1  UNL     1      33.971  15.607  15.536  1.00  0.00    -0.391 OA
ATOM     27  H1  UNL     1      34.682  16.190  15.776  1.00  0.00     0.210 HD
ENDBRANCH   3  26
TORSDOF 5
ENDMDL
MODEL 4
REMARK VINA RESULT: -6.078428351      0.978      1.445
REMARK  5 active torsions:
REMARK  status: ('A' for Active; 'I' for Inactive)
REMARK    1  A    between atoms: C3_3  and  O1_4 
REMARK    2  A    between atoms: C8_10  and  O2_11 
REMARK    3  A    between atoms: C15_20  and  C16_21 
REMARK    4  A    between atoms: C16_21  and  S1_24 
REMARK    5  A    between atoms: S1_24  and  S2_25 
ROOT
HETATM    1  C1  UNL     1      28.295  11.911  16.507  1.00  0.00     0.017 C 
HETATM    2  C2  UNL     1      28.233  11.637  15.216  1.00  0.00    -0.056 C 
HETATM    3  C3  UNL     1      27.107  10.786  14.697  1.00  0.00     0.146 C 
HETATM    4  C4  UNL     1      26.949  11.191  13.240  1.00  0.00     0.036 C 
HETATM    5  C5  UNL     1      27.106  12.673  13.180  1.00  0.00     0.008 C 
HETATM    6  C6  UNL     1      28.608  13.046  13.234  1.00  0.00    -0.002 C 
HETATM    7  C7  UNL     1      28.765  14.486  13.298  1.00  0.00     0.066 C 
HETATM    8  C8  UNL     1      29.562  15.158  14.335  1.00  0.00     0.260 C 
HETATM    9  O3  UNL     1      30.827  14.874  14.548  1.00  0.00    -0.326 OA
HETATM   10  C9  UNL     1      31.662  14.296  13.700  1.00  0.00     0.167 C 
HETATM   11  C10 UNL     1      31.507  12.784  13.774  1.00  0.00     0.069 C 
HETATM   12  C11 UNL     1      30.494  12.426  14.841  1.00  0.00     0.015 C 
HETATM   13  C12 UNL     1      29.210  12.110  14.192  1.00  0.00     0.020 C 
HETATM   14  C13 UNL     1      31.725  14.790  12.292  1.00  0.00     0.071 C 
HETATM   15  C14 UNL     1      33.171  14.668  11.851  1.00  0.00     0.039 C 
HETATM   16  C15 UNL     1      33.836  14.262  13.116  1.00  0.00     0.144 C 
HETATM   17  O4  UNL     1      32.983  14.567  14.134  1.00  0.00    -0.348 OA
ENDROOT
BRANCH   8  18
HETATM   18  O2  UNL     1      29.453  16.555  14.087  1.00  0.00    -0.371 OA
ATOM     19  H2  UNL     1      28.739  16.665  13.470  1.00  0.00     0.212 HD
ENDBRANCH   8  18
BRANCH  16  20
HETATM   20  C16 UNL     1      35.131  15.022  13.275  1.00  0.00     0.037 C 
HETATM   21  C17 UNL     1      35.182  16.259  12.402  1.00  0.00     0.030 C 
HETATM   22  C18 UNL     1      35.301  15.521  14.709  1.00  0.00     0.030 C 
BRANCH  20  23
HETATM   23  S1  UNL     1      36.586  14.012  12.909  1.00  0.00    -0.086 SA
BRANCH  23  24
HETATM   24  S2  UNL     1      37.212  14.315  10.885  1.00  0.00    -0.101 SA
HETATM   25  C19 UNL     1      36.068  13.524   9.721  1.00  0.00     0.102 C 
ENDBRANCH  23  24
ENDBRANCH  20  23
ENDBRANCH  16  20
BRANCH   3  26
HETATM   26  O1  UNL     1      27.592   9.474  14.685  1.00  0.00    -0.391 OA
ATOM     27  H1  UNL     1      27.035   8.985  15.279  1.00  0.00     0.210 HD
ENDBRANCH   3  26
TORSDOF 5
ENDMDL
MODEL 5
REMARK VINA RESULT: -5.927535791      0.970      1.306
REMARK  5 active torsions:
REMARK  status: ('A' for Active; 'I' for Inactive)
REMARK    1  A    between atoms: C3_3  and  O1_4 
REMARK    2  A    between atoms: C8_10  and  O2_11 
REMARK    3  A    between atoms: C15_20  and  C16_21 
REMARK    4  A    between atoms: C16_21  and  S1_24 
REMARK    5  A    between atoms: S1_24  and  S2_25 
ROOT
HETATM    1  C1  UNL     1      28.274  11.904  16.499  1.00  0.00     0.017 C 
HETATM    2  C2  UNL     1      28.227  11.629  15.207  1.00  0.00    -0.056 C 
HETATM    3  C3  UNL     1      27.110  10.772  14.677  1.00  0.00     0.146 C 
HETATM    4  C4  UNL     1      26.966  11.175  13.219  1.00  0.00     0.036 C 
HETATM    5  C5  UNL     1      27.116  12.657  13.158  1.00  0.00     0.008 C 
HETATM    6  C6  UNL     1      28.616  13.037  13.227  1.00  0.00    -0.002 C 
HETATM    7  C7  UNL     1      28.765  14.478  13.291  1.00  0.00     0.066 C 
HETATM    8  C8  UNL     1      29.548  15.155  14.336  1.00  0.00     0.260 C 
HETATM    9  O3  UNL     1      30.812  14.877  14.563  1.00  0.00    -0.326 OA
HETATM   10  C9  UNL     1      31.659  14.302  13.724  1.00  0.00     0.167 C 
HETATM   11  C10 UNL     1      31.510  12.790  13.798  1.00  0.00     0.069 C 
HETATM   12  C11 UNL     1      30.488  12.429  14.855  1.00  0.00     0.015 C 
HETATM   13  C12 UNL     1      29.212  12.106  14.193  1.00  0.00     0.020 C 
HETATM   14  C13 UNL     1      31.734  14.795  12.316  1.00  0.00     0.071 C 
HETATM   15  C14 UNL     1      33.185  14.680  11.890  1.00  0.00     0.039 C 
HETATM   16  C15 UNL     1      33.839  14.279  13.163  1.00  0.00     0.144 C 
HETATM   17  O4  UNL     1      32.974  14.580  14.171  1.00  0.00    -0.348 OA
ENDROOT
BRANCH   8  18
HETATM   18  O2  UNL     1      29.435  16.551  14.085  1.00  0.00    -0.371 OA
ATOM     19  H2  UNL     1      29.943  16.728  13.302  1.00  0.00     0.212 HD
ENDBRANCH   8  18
BRANCH  16  20
HETATM   20  C16 UNL     1      35.129  15.045  13.335  1.00  0.00     0.037 C 
HETATM   21  C17 UNL     1      35.790  15.359  12.009  1.00  0.00     0.030 C 
HETATM   22  C18 UNL     1      34.879  16.396  14.002  1.00  0.00     0.030 C 
BRANCH  20  23
HETATM   23  S1  UNL     1      36.327  14.176  14.372  1.00  0.00    -0.086 SA
BRANCH  23  24
HETATM   24  S2  UNL     1      36.620  15.228  16.213  1.00  0.00    -0.101 SA
HETATM   25  C19 UNL     1      35.370  14.761  17.440  1.00  0.00     0.102 C 
ENDBRANCH  23  24
ENDBRANCH  20  23
ENDBRANCH  16  20
BRANCH   3  26
HETATM   26  O1  UNL     1      27.602   9.462  14.672  1.00  0.00    -0.391 OA
ATOM     27  H1  UNL     1      26.957   8.940  15.134  1.00  0.00     0.210 HD
ENDBRANCH   3  26
TORSDOF 5
ENDMDL
