MODEL 1
REMARK VINA RESULT: -8.350443890      0.000      0.000
REMARK  13 active torsions:
REMARK  status: ('A' for Active; 'I' for Inactive)
REMARK    1  A    between atoms: C2_2  and  C3_3 
REMARK    2  A    between atoms: C3_3  and  C5_5 
REMARK    3  A    between atoms: C5_5  and  N1_6 
REMARK    4  A    between atoms: C5_5  and  C15_21 
REMARK       I    between atoms: N1_6  and  C6_8 
REMARK    5  A    between atoms: C6_8  and  C7_10 
REMARK    6  A    between atoms: N3_16  and  C11_17 
REMARK    7  A    between atoms: C15_21  and  O2_22 
REMARK    8  A    between atoms: C15_21  and  N4_24 
REMARK    9  A    between atoms: N4_24  and  C16_26 
REMARK   10  A    between atoms: C16_26  and  C18_28 
REMARK       I    between atoms: C18_28  and  N5_30 
REMARK   11  A    between atoms: N5_30  and  C19_32 
REMARK   12  A    between atoms: C19_32  and  C20_33 
REMARK   13  A    between atoms: C25_38  and  C26_39 
ROOT
HETATM    1  C15 UNL     1     -87.730 -12.436  13.119  1.00  0.00     0.135 C 
ENDROOT
BRANCH   1   2
HETATM    2  C5  UNL     1     -88.211 -13.698  13.693  1.00  0.00     0.163 C 
BRANCH   2   3
HETATM    3  C3  UNL     1     -88.365 -13.614  15.167  1.00  0.00     0.012 C 
HETATM    4  C4  UNL     1     -87.014 -13.402  15.860  1.00  0.00     0.012 C 
BRANCH   3   5
HETATM    5  C2  UNL     1     -88.826 -14.937  15.781  1.00  0.00     0.002 C 
HETATM    6  C1  UNL     1     -88.361 -15.082  17.221  1.00  0.00     0.005 C 
ENDBRANCH   3   5
ENDBRANCH   2   3
BRANCH   2   7
HETATM    7  N1  UNL     1     -89.417 -14.045  12.991  1.00  0.00    -0.344 N 
HETATM    8  C6  UNL     1     -89.676 -14.278  11.642  1.00  0.00     0.264 C 
HETATM    9  O1  UNL     1     -88.760 -14.208  10.800  1.00  0.00    -0.267 OA
ATOM     10  H1  UNL     1     -90.236 -14.139  13.592  1.00  0.00     0.163 HD
BRANCH   8  11
HETATM   11  C7  UNL     1     -91.007 -14.615  11.108  1.00  0.00     0.095 C 
HETATM   12  C8  UNL     1     -92.087 -14.719  12.124  1.00  0.00     0.112 C 
HETATM   13  N2  UNL     1     -93.272 -14.580  11.585  1.00  0.00    -0.396 N 
HETATM   14  C9  UNL     1     -93.361 -14.362  10.190  1.00  0.00     0.134 C 
ATOM     15  H2  UNL     1     -94.113 -14.629  12.159  1.00  0.00     0.158 HD
HETATM   16  C10 UNL     1     -92.350 -15.056   9.326  1.00  0.00     0.116 C 
HETATM   17  N3  UNL     1     -91.183 -15.537  10.097  1.00  0.00    -0.268 NA
BRANCH  17  18
HETATM   18  C11 UNL     1     -91.191 -16.921  10.245  1.00  0.00     0.007 C 
HETATM   19  C12 UNL     1     -92.494 -17.640  10.451  1.00  0.00     0.032 C 
HETATM   20  C13 UNL     1     -90.259 -17.397  11.321  1.00  0.00     0.032 C 
HETATM   21  C14 UNL     1     -90.643 -17.570   8.945  1.00  0.00     0.032 C 
ENDBRANCH  17  18
ENDBRANCH   8  11
ENDBRANCH   2   7
ENDBRANCH   1   2
BRANCH   1  22
HETATM   22  O2  UNL     1     -88.400 -11.342  13.359  1.00  0.00    -0.348 OA
ATOM     23  H2  UNL     1     -87.984 -10.504  13.187  1.00  0.00     0.219 HD
ENDBRANCH   1  22
BRANCH   1  24
HETATM   24  N4  UNL     1     -86.602 -12.219  12.302  1.00  0.00    -0.360 N 
ATOM     25  H4  UNL     1     -86.669 -11.540  11.543  1.00  0.00     0.162 HD
BRANCH  24  26
HETATM   26  C16 UNL     1     -85.345 -12.926  12.500  1.00  0.00     0.171 C 
HETATM   27  C17 UNL     1     -84.149 -12.088  12.106  1.00  0.00     0.042 C 
BRANCH  26  28
HETATM   28  C18 UNL     1     -85.329 -14.161  11.700  1.00  0.00     0.240 C 
HETATM   29  O3  UNL     1     -85.006 -15.245  12.230  1.00  0.00    -0.271 OA
HETATM   30  N5  UNL     1     -85.675 -14.168  10.311  1.00  0.00    -0.357 N 
ATOM     31  H5  UNL     1     -85.937 -13.279   9.885  1.00  0.00     0.162 HD
BRANCH  30  32
HETATM   32  C19 UNL     1     -85.680 -15.331   9.476  1.00  0.00     0.154 C 
BRANCH  32  33
HETATM   33  C20 UNL     1     -85.919 -14.961   8.014  1.00  0.00     0.140 C 
HETATM   34  C21 UNL     1     -84.898 -13.932   7.640  1.00  0.00     0.038 C 
HETATM   35  C22 UNL     1     -85.002 -13.543   6.172  1.00  0.00    -0.014 C 
HETATM   36  C23 UNL     1     -83.964 -14.245   5.332  1.00  0.00     0.010 C 
HETATM   37  C24 UNL     1     -86.385 -13.896   5.666  1.00  0.00     0.042 C 
HETATM   38  C25 UNL     1     -87.394 -13.690   6.776  1.00  0.00     0.187 C 
HETATM   39  O4  UNL     1     -87.223 -14.579   7.816  1.00  0.00    -0.373 OA
BRANCH  38  40
HETATM   40  C26 UNL     1     -88.779 -13.921   6.186  1.00  0.00     0.381 C 
HETATM   41  F1  UNL     1     -89.568 -14.661   7.062  1.00  0.00    -0.212 F 
HETATM   42  F2  UNL     1     -88.717 -14.647   5.009  1.00  0.00    -0.212 F 
ENDBRANCH  38  40
ENDBRANCH  32  33
ENDBRANCH  30  32
ENDBRANCH  26  28
ENDBRANCH  24  26
ENDBRANCH   1  24
TORSDOF 13
ENDMDL
MODEL 2
REMARK VINA RESULT: -8.318328828      2.056      5.686
REMARK  13 active torsions:
REMARK  status: ('A' for Active; 'I' for Inactive)
REMARK    1  A    between atoms: C2_2  and  C3_3 
REMARK    2  A    between atoms: C3_3  and  C5_5 
REMARK    3  A    between atoms: C5_5  and  N1_6 
REMARK    4  A    between atoms: C5_5  and  C15_21 
REMARK       I    between atoms: N1_6  and  C6_8 
REMARK    5  A    between atoms: C6_8  and  C7_10 
REMARK    6  A    between atoms: N3_16  and  C11_17 
REMARK    7  A    between atoms: C15_21  and  O2_22 
REMARK    8  A    between atoms: C15_21  and  N4_24 
REMARK    9  A    between atoms: N4_24  and  C16_26 
REMARK   10  A    between atoms: C16_26  and  C18_28 
REMARK       I    between atoms: C18_28  and  N5_30 
REMARK   11  A    between atoms: N5_30  and  C19_32 
REMARK   12  A    between atoms: C19_32  and  C20_33 
REMARK   13  A    between atoms: C25_38  and  C26_39 
ROOT
HETATM    1  C15 UNL     1     -88.220 -13.278  13.467  1.00  0.00     0.135 C 
ENDROOT
BRANCH   1   2
HETATM    2  C5  UNL     1     -87.105 -12.540  12.864  1.00  0.00     0.163 C 
BRANCH   2   3
HETATM    3  C3  UNL     1     -85.823 -12.797  13.567  1.00  0.00     0.012 C 
HETATM    4  C4  UNL     1     -85.779 -12.092  14.927  1.00  0.00     0.012 C 
BRANCH   3   5
HETATM    5  C2  UNL     1     -84.628 -12.167  12.850  1.00  0.00     0.002 C 
HETATM    6  C1  UNL     1     -83.772 -11.343  13.799  1.00  0.00     0.005 C 
ENDBRANCH   3   5
ENDBRANCH   2   3
BRANCH   2   7
HETATM    7  N1  UNL     1     -87.090 -12.871  11.464  1.00  0.00    -0.344 N 
HETATM    8  C6  UNL     1     -87.614 -13.950  10.756  1.00  0.00     0.264 C 
HETATM    9  O1  UNL     1     -88.241 -14.851  11.347  1.00  0.00    -0.267 OA
ATOM     10  H1  UNL     1     -86.604 -12.189  10.881  1.00  0.00     0.163 HD
BRANCH   8  11
HETATM   11  C7  UNL     1     -87.479 -14.119   9.299  1.00  0.00     0.095 C 
HETATM   12  C8  UNL     1     -87.729 -15.495   8.797  1.00  0.00     0.112 C 
HETATM   13  N2  UNL     1     -88.026 -15.497   7.522  1.00  0.00    -0.396 N 
HETATM   14  C9  UNL     1     -88.068 -14.262   6.833  1.00  0.00     0.134 C 
ATOM     15  H2  UNL     1     -88.224 -16.372   7.035  1.00  0.00     0.158 HD
HETATM   16  C10 UNL     1     -87.077 -13.217   7.251  1.00  0.00     0.116 C 
HETATM   17  N3  UNL     1     -86.483 -13.498   8.576  1.00  0.00    -0.268 NA
BRANCH  17  18
HETATM   18  C11 UNL     1     -85.161 -13.921   8.474  1.00  0.00     0.007 C 
HETATM   19  C12 UNL     1     -84.785 -15.305   8.924  1.00  0.00     0.032 C 
HETATM   20  C13 UNL     1     -84.195 -12.977   9.130  1.00  0.00     0.032 C 
HETATM   21  C14 UNL     1     -84.745 -13.922   6.979  1.00  0.00     0.032 C 
ENDBRANCH  17  18
ENDBRANCH   8  11
ENDBRANCH   2   7
ENDBRANCH   1   2
BRANCH   1  22
HETATM   22  O2  UNL     1     -89.431 -12.811  13.327  1.00  0.00    -0.348 OA
ATOM     23  H2  UNL     1     -90.163 -13.342  13.619  1.00  0.00     0.219 HD
ENDBRANCH   1  22
BRANCH   1  24
HETATM   24  N4  UNL     1     -88.178 -14.471  14.217  1.00  0.00    -0.360 N 
ATOM     25  H4  UNL     1     -87.399 -15.114  14.073  1.00  0.00     0.162 HD
BRANCH  24  26
HETATM   26  C16 UNL     1     -89.203 -14.819  15.190  1.00  0.00     0.171 C 
HETATM   27  C17 UNL     1     -88.616 -15.182  16.535  1.00  0.00     0.042 C 
BRANCH  26  28
HETATM   28  C18 UNL     1     -89.992 -15.963  14.705  1.00  0.00     0.240 C 
HETATM   29  O3  UNL     1     -90.156 -16.964  15.434  1.00  0.00    -0.271 OA
HETATM   30  N5  UNL     1     -90.589 -15.974  13.404  1.00  0.00    -0.357 N 
ATOM     31  H5  UNL     1     -90.451 -15.154  12.814  1.00  0.00     0.162 HD
BRANCH  30  32
HETATM   32  C19 UNL     1     -91.367 -17.052  12.871  1.00  0.00     0.154 C 
BRANCH  32  33
HETATM   33  C20 UNL     1     -91.608 -16.872  11.374  1.00  0.00     0.140 C 
HETATM   34  C21 UNL     1     -90.490 -17.561  10.654  1.00  0.00     0.038 C 
HETATM   35  C22 UNL     1     -90.673 -17.503   9.144  1.00  0.00    -0.014 C 
HETATM   36  C23 UNL     1     -91.235 -18.792   8.598  1.00  0.00     0.010 C 
HETATM   37  C24 UNL     1     -91.607 -16.360   8.805  1.00  0.00     0.042 C 
HETATM   38  C25 UNL     1     -91.384 -15.222   9.777  1.00  0.00     0.187 C 
HETATM   39  O4  UNL     1     -91.765 -15.544  11.063  1.00  0.00    -0.373 OA
BRANCH  38  40
HETATM   40  C26 UNL     1     -92.239 -14.049   9.316  1.00  0.00     0.381 C 
HETATM   41  F1  UNL     1     -93.534 -14.161   9.814  1.00  0.00    -0.212 F 
HETATM   42  F2  UNL     1     -92.353 -14.014   7.936  1.00  0.00    -0.212 F 
ENDBRANCH  38  40
ENDBRANCH  32  33
ENDBRANCH  30  32
ENDBRANCH  26  28
ENDBRANCH  24  26
ENDBRANCH   1  24
TORSDOF 13
ENDMDL
MODEL 3
REMARK VINA RESULT: -8.300683148      2.142      5.643
REMARK  13 active torsions:
REMARK  status: ('A' for Active; 'I' for Inactive)
REMARK    1  A    between atoms: C2_2  and  C3_3 
REMARK    2  A    between atoms: C3_3  and  C5_5 
REMARK    3  A    between atoms: C5_5  and  N1_6 
REMARK    4  A    between atoms: C5_5  and  C15_21 
REMARK       I    between atoms: N1_6  and  C6_8 
REMARK    5  A    between atoms: C6_8  and  C7_10 
REMARK    6  A    between atoms: N3_16  and  C11_17 
REMARK    7  A    between atoms: C15_21  and  O2_22 
REMARK    8  A    between atoms: C15_21  and  N4_24 
REMARK    9  A    between atoms: N4_24  and  C16_26 
REMARK   10  A    between atoms: C16_26  and  C18_28 
REMARK       I    between atoms: C18_28  and  N5_30 
REMARK   11  A    between atoms: N5_30  and  C19_32 
REMARK   12  A    between atoms: C19_32  and  C20_33 
REMARK   13  A    between atoms: C25_38  and  C26_39 
ROOT
HETATM    1  C15 UNL     1     -92.892 -15.332  11.404  1.00  0.00     0.135 C 
ENDROOT
BRANCH   1   2
HETATM    2  C5  UNL     1     -92.571 -16.687  11.868  1.00  0.00     0.163 C 
BRANCH   2   3
HETATM    3  C3  UNL     1     -92.892 -17.715  10.847  1.00  0.00     0.012 C 
HETATM    4  C4  UNL     1     -93.523 -18.958  11.483  1.00  0.00     0.012 C 
BRANCH   3   5
HETATM    5  C2  UNL     1     -91.638 -18.300  10.195  1.00  0.00     0.002 C 
HETATM    6  C1  UNL     1     -91.793 -18.428   8.688  1.00  0.00     0.005 C 
ENDBRANCH   3   5
ENDBRANCH   2   3
BRANCH   2   7
HETATM    7  N1  UNL     1     -91.194 -16.673  12.283  1.00  0.00    -0.344 N 
HETATM    8  C6  UNL     1     -90.582 -16.285  13.473  1.00  0.00     0.264 C 
HETATM    9  O1  UNL     1     -91.264 -15.864  14.427  1.00  0.00    -0.267 OA
ATOM     10  H1  UNL     1     -90.544 -17.010  11.573  1.00  0.00     0.163 HD
BRANCH   8  11
HETATM   11  C7  UNL     1     -89.128 -16.334  13.702  1.00  0.00     0.095 C 
HETATM   12  C8  UNL     1     -88.705 -17.074  14.920  1.00  0.00     0.112 C 
HETATM   13  N2  UNL     1     -87.456 -17.458  14.843  1.00  0.00    -0.396 N 
HETATM   14  C9  UNL     1     -86.719 -17.137  13.678  1.00  0.00     0.134 C 
ATOM     15  H2  UNL     1     -87.024 -17.977  15.606  1.00  0.00     0.158 HD
HETATM   16  C10 UNL     1     -87.019 -15.822  13.024  1.00  0.00     0.116 C 
HETATM   17  N3  UNL     1     -88.309 -15.250  13.467  1.00  0.00    -0.268 NA
BRANCH  17  18
HETATM   18  C11 UNL     1     -88.132 -14.161  14.315  1.00  0.00     0.007 C 
HETATM   19  C12 UNL     1     -88.352 -14.323  15.793  1.00  0.00     0.032 C 
HETATM   20  C13 UNL     1     -88.922 -12.957  13.891  1.00  0.00     0.032 C 
HETATM   21  C14 UNL     1     -86.652 -13.697  14.239  1.00  0.00     0.032 C 
ENDBRANCH  17  18
ENDBRANCH   8  11
ENDBRANCH   2   7
ENDBRANCH   1   2
BRANCH   1  22
HETATM   22  O2  UNL     1     -93.060 -14.389  12.291  1.00  0.00    -0.348 OA
ATOM     23  H2  UNL     1     -93.774 -14.469  12.914  1.00  0.00     0.219 HD
ENDBRANCH   1  22
BRANCH   1  24
HETATM   24  N4  UNL     1     -93.062 -14.876  10.082  1.00  0.00    -0.360 N 
ATOM     25  H4  UNL     1     -93.933 -15.092   9.596  1.00  0.00     0.162 HD
BRANCH  24  26
HETATM   26  C16 UNL     1     -92.042 -14.108   9.383  1.00  0.00     0.171 C 
HETATM   27  C17 UNL     1     -92.042 -14.378   7.895  1.00  0.00     0.042 C 
BRANCH  26  28
HETATM   28  C18 UNL     1     -90.710 -14.439   9.913  1.00  0.00     0.240 C 
HETATM   29  O3  UNL     1     -90.290 -13.875  10.946  1.00  0.00    -0.271 OA
HETATM   30  N5  UNL     1     -89.859 -15.400   9.279  1.00  0.00    -0.357 N 
ATOM     31  H5  UNL     1     -90.208 -15.856   8.436  1.00  0.00     0.162 HD
BRANCH  30  32
HETATM   32  C19 UNL     1     -88.555 -15.769   9.741  1.00  0.00     0.154 C 
BRANCH  32  33
HETATM   33  C20 UNL     1     -87.465 -15.068   8.933  1.00  0.00     0.140 C 
HETATM   34  C21 UNL     1     -86.971 -13.915   9.751  1.00  0.00     0.038 C 
HETATM   35  C22 UNL     1     -85.824 -13.188   9.065  1.00  0.00    -0.014 C 
HETATM   36  C23 UNL     1     -84.485 -13.595   9.626  1.00  0.00     0.010 C 
HETATM   37  C24 UNL     1     -85.865 -13.494   7.582  1.00  0.00     0.042 C 
HETATM   38  C25 UNL     1     -87.304 -13.631   7.135  1.00  0.00     0.187 C 
HETATM   39  O4  UNL     1     -87.924 -14.734   7.683  1.00  0.00    -0.373 OA
BRANCH  38  40
HETATM   40  C26 UNL     1     -87.302 -13.799   5.622  1.00  0.00     0.381 C 
HETATM   41  F1  UNL     1     -88.274 -14.714   5.228  1.00  0.00    -0.212 F 
HETATM   42  F2  UNL     1     -86.092 -14.294   5.166  1.00  0.00    -0.212 F 
ENDBRANCH  38  40
ENDBRANCH  32  33
ENDBRANCH  30  32
ENDBRANCH  26  28
ENDBRANCH  24  26
ENDBRANCH   1  24
TORSDOF 13
ENDMDL
MODEL 4
REMARK VINA RESULT: -8.103659629      2.519      5.672
REMARK  13 active torsions:
REMARK  status: ('A' for Active; 'I' for Inactive)
REMARK    1  A    between atoms: C2_2  and  C3_3 
REMARK    2  A    between atoms: C3_3  and  C5_5 
REMARK    3  A    between atoms: C5_5  and  N1_6 
REMARK    4  A    between atoms: C5_5  and  C15_21 
REMARK       I    between atoms: N1_6  and  C6_8 
REMARK    5  A    between atoms: C6_8  and  C7_10 
REMARK    6  A    between atoms: N3_16  and  C11_17 
REMARK    7  A    between atoms: C15_21  and  O2_22 
REMARK    8  A    between atoms: C15_21  and  N4_24 
REMARK    9  A    between atoms: N4_24  and  C16_26 
REMARK   10  A    between atoms: C16_26  and  C18_28 
REMARK       I    between atoms: C18_28  and  N5_30 
REMARK   11  A    between atoms: N5_30  and  C19_32 
REMARK   12  A    between atoms: C19_32  and  C20_33 
REMARK   13  A    between atoms: C25_38  and  C26_39 
ROOT
HETATM    1  C15 UNL     1     -92.543 -15.313   9.873  1.00  0.00     0.135 C 
ENDROOT
BRANCH   1   2
HETATM    2  C5  UNL     1     -92.744 -16.252  10.981  1.00  0.00     0.163 C 
BRANCH   2   3
HETATM    3  C3  UNL     1     -93.136 -17.602  10.502  1.00  0.00     0.012 C 
HETATM    4  C4  UNL     1     -93.708 -18.455  11.639  1.00  0.00     0.012 C 
BRANCH   3   5
HETATM    5  C2  UNL     1     -91.932 -18.436  10.062  1.00  0.00     0.002 C 
HETATM    6  C1  UNL     1     -92.050 -18.874   8.610  1.00  0.00     0.005 C 
ENDBRANCH   3   5
ENDBRANCH   2   3
BRANCH   2   7
HETATM    7  N1  UNL     1     -91.543 -16.231  11.773  1.00  0.00    -0.344 N 
HETATM    8  C6  UNL     1     -90.955 -15.234  12.548  1.00  0.00     0.264 C 
HETATM    9  O1  UNL     1     -91.491 -14.114  12.652  1.00  0.00    -0.267 OA
ATOM     10  H1  UNL     1     -91.025 -17.110  11.765  1.00  0.00     0.163 HD
BRANCH   8  11
HETATM   11  C7  UNL     1     -89.692 -15.406  13.286  1.00  0.00     0.095 C 
HETATM   12  C8  UNL     1     -89.721 -14.955  14.702  1.00  0.00     0.112 C 
HETATM   13  N2  UNL     1     -88.770 -15.514  15.406  1.00  0.00    -0.396 N 
HETATM   14  C9  UNL     1     -87.893 -16.420  14.763  1.00  0.00     0.134 C 
ATOM     15  H2  UNL     1     -88.663 -15.301  16.397  1.00  0.00     0.158 HD
HETATM   16  C10 UNL     1     -87.535 -16.124  13.338  1.00  0.00     0.116 C 
HETATM   17  N3  UNL     1     -88.463 -15.159  12.709  1.00  0.00    -0.268 NA
BRANCH  17  18
HETATM   18  C11 UNL     1     -87.877 -13.909  12.537  1.00  0.00     0.007 C 
HETATM   19  C12 UNL     1     -88.378 -12.736  13.331  1.00  0.00     0.032 C 
HETATM   20  C13 UNL     1     -87.842 -13.475  11.100  1.00  0.00     0.032 C 
HETATM   21  C14 UNL     1     -86.383 -13.991  12.952  1.00  0.00     0.032 C 
ENDBRANCH  17  18
ENDBRANCH   8  11
ENDBRANCH   2   7
ENDBRANCH   1   2
BRANCH   1  22
HETATM   22  O2  UNL     1     -93.589 -14.866   9.231  1.00  0.00    -0.348 OA
ATOM     23  H2  UNL     1     -93.558 -14.822   8.282  1.00  0.00     0.219 HD
ENDBRANCH   1  22
BRANCH   1  24
HETATM   24  N4  UNL     1     -91.331 -14.800   9.367  1.00  0.00    -0.360 N 
ATOM     25  H4  UNL     1     -91.030 -13.871   9.663  1.00  0.00     0.162 HD
BRANCH  24  26
HETATM   26  C16 UNL     1     -90.495 -15.544   8.437  1.00  0.00     0.171 C 
HETATM   27  C17 UNL     1     -89.286 -16.150   9.114  1.00  0.00     0.042 C 
BRANCH  26  28
HETATM   28  C18 UNL     1     -90.027 -14.659   7.359  1.00  0.00     0.240 C 
HETATM   29  O3  UNL     1     -90.851 -14.115   6.593  1.00  0.00    -0.271 OA
HETATM   30  N5  UNL     1     -88.636 -14.392   7.149  1.00  0.00    -0.357 N 
ATOM     31  H5  UNL     1     -87.969 -14.840   7.777  1.00  0.00     0.162 HD
BRANCH  30  32
HETATM   32  C19 UNL     1     -88.112 -13.543   6.121  1.00  0.00     0.154 C 
BRANCH  32  33
HETATM   33  C20 UNL     1     -86.613 -13.318   6.301  1.00  0.00     0.140 C 
HETATM   34  C21 UNL     1     -85.906 -14.228   5.345  1.00  0.00     0.038 C 
HETATM   35  C22 UNL     1     -84.397 -14.031   5.392  1.00  0.00    -0.014 C 
HETATM   36  C23 UNL     1     -83.909 -13.172   4.252  1.00  0.00     0.010 C 
HETATM   37  C24 UNL     1     -84.026 -13.382   6.709  1.00  0.00     0.042 C 
HETATM   38  C25 UNL     1     -84.951 -13.886   7.796  1.00  0.00     0.187 C 
HETATM   39  O4  UNL     1     -86.253 -13.468   7.617  1.00  0.00    -0.373 OA
BRANCH  38  40
HETATM   40  C26 UNL     1     -84.456 -13.318   9.120  1.00  0.00     0.381 C 
HETATM   41  F1  UNL     1     -84.645 -14.237  10.149  1.00  0.00    -0.212 F 
HETATM   42  F2  UNL     1     -85.157 -12.179   9.480  1.00  0.00    -0.212 F 
ENDBRANCH  38  40
ENDBRANCH  32  33
ENDBRANCH  30  32
ENDBRANCH  26  28
ENDBRANCH  24  26
ENDBRANCH   1  24
TORSDOF 13
ENDMDL
MODEL 5
REMARK VINA RESULT: -8.102707649      2.732      6.113
REMARK  13 active torsions:
REMARK  status: ('A' for Active; 'I' for Inactive)
REMARK    1  A    between atoms: C2_2  and  C3_3 
REMARK    2  A    between atoms: C3_3  and  C5_5 
REMARK    3  A    between atoms: C5_5  and  N1_6 
REMARK    4  A    between atoms: C5_5  and  C15_21 
REMARK       I    between atoms: N1_6  and  C6_8 
REMARK    5  A    between atoms: C6_8  and  C7_10 
REMARK    6  A    between atoms: N3_16  and  C11_17 
REMARK    7  A    between atoms: C15_21  and  O2_22 
REMARK    8  A    between atoms: C15_21  and  N4_24 
REMARK    9  A    between atoms: N4_24  and  C16_26 
REMARK   10  A    between atoms: C16_26  and  C18_28 
REMARK       I    between atoms: C18_28  and  N5_30 
REMARK   11  A    between atoms: N5_30  and  C19_32 
REMARK   12  A    between atoms: C19_32  and  C20_33 
REMARK   13  A    between atoms: C25_38  and  C26_39 
ROOT
HETATM    1  C15 UNL     1     -92.421 -15.225  11.754  1.00  0.00     0.135 C 
ENDROOT
BRANCH   1   2
HETATM    2  C5  UNL     1     -92.126 -16.632  12.045  1.00  0.00     0.163 C 
BRANCH   2   3
HETATM    3  C3  UNL     1     -92.387 -17.508  10.876  1.00  0.00     0.012 C 
HETATM    4  C4  UNL     1     -93.191 -18.750  11.275  1.00  0.00     0.012 C 
BRANCH   3   5
HETATM    5  C2  UNL     1     -91.107 -18.132  10.318  1.00  0.00     0.002 C 
HETATM    6  C1  UNL     1     -91.234 -18.449   8.836  1.00  0.00     0.005 C 
ENDBRANCH   3   5
ENDBRANCH   2   3
BRANCH   2   7
HETATM    7  N1  UNL     1     -90.774 -16.686  12.535  1.00  0.00    -0.344 N 
HETATM    8  C6  UNL     1     -90.253 -16.862  13.815  1.00  0.00     0.264 C 
HETATM    9  O1  UNL     1     -91.011 -17.023  14.791  1.00  0.00    -0.267 OA
ATOM     10  H1  UNL     1     -90.065 -16.573  11.811  1.00  0.00     0.163 HD
BRANCH   8  11
HETATM   11  C7  UNL     1     -88.812 -16.873  14.120  1.00  0.00     0.095 C 
HETATM   12  C8  UNL     1     -88.418 -17.713  15.281  1.00  0.00     0.112 C 
HETATM   13  N2  UNL     1     -87.150 -18.035  15.236  1.00  0.00    -0.396 N 
HETATM   14  C9  UNL     1     -86.370 -17.568  14.152  1.00  0.00     0.134 C 
ATOM     15  H2  UNL     1     -86.733 -18.610  15.968  1.00  0.00     0.158 HD
HETATM   16  C10 UNL     1     -86.697 -16.207  13.615  1.00  0.00     0.116 C 
HETATM   17  N3  UNL     1     -88.034 -15.738  14.039  1.00  0.00    -0.268 NA
BRANCH  17  18
HETATM   18  C11 UNL     1     -87.952 -14.733  14.998  1.00  0.00     0.007 C 
HETATM   19  C12 UNL     1     -88.327 -15.030  16.423  1.00  0.00     0.032 C 
HETATM   20  C13 UNL     1     -88.699 -13.491  14.606  1.00  0.00     0.032 C 
HETATM   21  C14 UNL     1     -86.475 -14.272  15.122  1.00  0.00     0.032 C 
ENDBRANCH  17  18
ENDBRANCH   8  11
ENDBRANCH   2   7
ENDBRANCH   1   2
BRANCH   1  22
HETATM   22  O2  UNL     1     -93.471 -14.677  12.304  1.00  0.00    -0.348 OA
ATOM     23  H2  UNL     1     -93.372 -13.841  12.745  1.00  0.00     0.219 HD
ENDBRANCH   1  22
BRANCH   1  24
HETATM   24  N4  UNL     1     -91.710 -14.334  10.924  1.00  0.00    -0.360 N 
ATOM     25  H4  UNL     1     -90.960 -13.775  11.332  1.00  0.00     0.162 HD
BRANCH  24  26
HETATM   26  C16 UNL     1     -92.007 -14.180   9.508  1.00  0.00     0.171 C 
HETATM   27  C17 UNL     1     -93.276 -14.900   9.108  1.00  0.00     0.042 C 
BRANCH  26  28
HETATM   28  C18 UNL     1     -90.899 -14.712   8.699  1.00  0.00     0.240 C 
HETATM   29  O3  UNL     1     -91.097 -15.052   7.513  1.00  0.00    -0.271 OA
HETATM   30  N5  UNL     1     -89.576 -14.857   9.228  1.00  0.00    -0.357 N 
ATOM     31  H5  UNL     1     -89.422 -14.577  10.197  1.00  0.00     0.162 HD
BRANCH  30  32
HETATM   32  C19 UNL     1     -88.454 -15.366   8.498  1.00  0.00     0.154 C 
BRANCH  32  33
HETATM   33  C20 UNL     1     -87.180 -14.595   8.835  1.00  0.00     0.140 C 
HETATM   34  C21 UNL     1     -86.021 -15.501   8.553  1.00  0.00     0.038 C 
HETATM   35  C22 UNL     1     -84.690 -14.802   8.789  1.00  0.00    -0.014 C 
HETATM   36  C23 UNL     1     -84.070 -14.327   7.499  1.00  0.00     0.010 C 
HETATM   37  C24 UNL     1     -84.912 -13.619   9.709  1.00  0.00     0.042 C 
HETATM   38  C25 UNL     1     -85.996 -13.956  10.709  1.00  0.00     0.187 C 
HETATM   39  O4  UNL     1     -87.233 -14.106  10.117  1.00  0.00    -0.373 OA
BRANCH  38  40
HETATM   40  C26 UNL     1     -86.087 -12.799  11.696  1.00  0.00     0.381 C 
HETATM   41  F1  UNL     1     -87.401 -12.348  11.802  1.00  0.00    -0.212 F 
HETATM   42  F2  UNL     1     -85.334 -11.714  11.279  1.00  0.00    -0.212 F 
ENDBRANCH  38  40
ENDBRANCH  32  33
ENDBRANCH  30  32
ENDBRANCH  26  28
ENDBRANCH  24  26
ENDBRANCH   1  24
TORSDOF 13
ENDMDL
