MODEL 1
REMARK VINA RESULT: -8.107789896      0.000      0.000
REMARK  9 active torsions:
REMARK  status: ('A' for Active; 'I' for Inactive)
REMARK    1  A    between atoms: N1_2  and  C2_5 
REMARK    2  A    between atoms: C2_5  and  C4_7 
REMARK       I    between atoms: C4_7  and  N2_9 
REMARK    3  A    between atoms: N2_9  and  C5_11 
REMARK    4  A    between atoms: C5_11  and  C6_12 
REMARK    5  A    between atoms: C5_11  and  C13_19 
REMARK    6  A    between atoms: C6_12  and  C7_13 
REMARK       I    between atoms: C13_19  and  N3_21 
REMARK    7  A    between atoms: N3_21  and  C14_23 
REMARK    8  A    between atoms: C21_32  and  C22_33 
REMARK       I    between atoms: C22_33  and  N4_35 
REMARK    9  A    between atoms: N4_35  and  C24_37 
ROOT
HETATM    1  C13 UNL     1     -87.686 -16.011  11.138  1.00  0.00     0.241 C 
HETATM    2  O2  UNL     1     -86.459 -16.074  10.842  1.00  0.00    -0.271 OA
HETATM    3  N3  UNL     1     -88.022 -16.136  12.503  1.00  0.00    -0.354 N 
ATOM      4  H3  UNL     1     -89.007 -16.089  12.766  1.00  0.00     0.162 HD
ENDROOT
BRANCH   1   5
HETATM    5  C5  UNL     1     -88.692 -15.812  10.064  1.00  0.00     0.180 C 
BRANCH   5   6
HETATM    6  N2  UNL     1     -88.305 -14.689   9.246  1.00  0.00    -0.346 N 
HETATM    7  C4  UNL     1     -87.932 -14.826   7.885  1.00  0.00     0.248 C 
HETATM    8  O1  UNL     1     -87.926 -15.966   7.320  1.00  0.00    -0.271 OA
ATOM      9  H2  UNL     1     -88.299 -13.758   9.665  1.00  0.00     0.163 HD
BRANCH   7  10
HETATM   10  C2  UNL     1     -87.538 -13.652   7.075  1.00  0.00     0.272 C 
HETATM   11  C3  UNL     1     -87.522 -13.934   5.591  1.00  0.00     0.050 C 
BRANCH  10  12
HETATM   12  N1  UNL     1     -86.281 -13.087   7.519  1.00  0.00    -0.067 N 
HETATM   13  C1  UNL     1     -85.148 -13.863   7.090  1.00  0.00     0.267 C 
ATOM     14  H12 UNL     1     -86.275 -12.956   8.531  1.00  0.00     0.277 HD
ATOM     15  H11 UNL     1     -86.192 -12.114   7.228  1.00  0.00     0.277 HD
ENDBRANCH  10  12
ENDBRANCH   7  10
ENDBRANCH   5   6
BRANCH   5  16
HETATM   16  C6  UNL     1     -90.024 -15.550  10.716  1.00  0.00     0.073 C 
BRANCH  16  17
HETATM   17  C7  UNL     1     -91.016 -16.607  10.527  1.00  0.00    -0.056 A 
HETATM   18  C8  UNL     1     -91.994 -16.897  11.453  1.00  0.00     0.007 A 
HETATM   19  C9  UNL     1     -92.924 -17.906  11.240  1.00  0.00     0.001 A 
HETATM   20  C10 UNL     1     -92.893 -18.655  10.084  1.00  0.00     0.000 A 
HETATM   21  C11 UNL     1     -91.925 -18.378   9.154  1.00  0.00     0.001 A 
HETATM   22  C12 UNL     1     -91.012 -17.371   9.384  1.00  0.00     0.007 A 
ENDBRANCH  16  17
ENDBRANCH   5  16
ENDBRANCH   1   5
BRANCH   3  23
HETATM   23  C14 UNL     1     -87.042 -16.329  13.549  1.00  0.00     0.100 C 
HETATM   24  C15 UNL     1     -87.303 -17.700  14.072  1.00  0.00     0.041 C 
HETATM   25  C16 UNL     1     -86.282 -18.278  14.986  1.00  0.00     0.056 C 
HETATM   26  C17 UNL     1     -86.808 -19.611  15.479  1.00  0.00     0.022 C 
HETATM   27  S1  UNL     1     -85.923 -17.289  16.450  1.00  0.00    -0.092 SA
HETATM   28  S2  UNL     1     -87.735 -16.250  16.875  1.00  0.00    -0.087 SA
HETATM   29  C18 UNL     1     -87.899 -14.998  15.569  1.00  0.00     0.025 C 
HETATM   30  C19 UNL     1     -89.341 -14.926  15.200  1.00  0.00     0.028 C 
HETATM   31  C20 UNL     1     -87.561 -13.665  16.224  1.00  0.00     0.028 C 
HETATM   32  C21 UNL     1     -86.926 -15.216  14.499  1.00  0.00     0.119 C 
BRANCH  32  33
HETATM   33  C22 UNL     1     -86.682 -13.943  13.765  1.00  0.00     0.231 C 
HETATM   34  O3  UNL     1     -87.635 -13.334  13.178  1.00  0.00    -0.273 OA
HETATM   35  N4  UNL     1     -85.411 -13.318  13.654  1.00  0.00    -0.300 N 
HETATM   36  C23 UNL     1     -84.194 -13.827  14.255  1.00  0.00     0.158 C 
BRANCH  35  37
HETATM   37  C24 UNL     1     -85.240 -12.070  12.896  1.00  0.00     0.462 C 
HETATM   38  F1  UNL     1     -84.958 -12.454  11.594  1.00  0.00    -0.191 F 
HETATM   39  F2  UNL     1     -84.190 -11.322  13.389  1.00  0.00    -0.191 F 
ENDBRANCH  35  37
ENDBRANCH  32  33
ENDBRANCH   3  23
TORSDOF 9
ENDMDL
MODEL 2
REMARK VINA RESULT: -8.055423109      2.891      5.714
REMARK  9 active torsions:
REMARK  status: ('A' for Active; 'I' for Inactive)
REMARK    1  A    between atoms: N1_2  and  C2_5 
REMARK    2  A    between atoms: C2_5  and  C4_7 
REMARK       I    between atoms: C4_7  and  N2_9 
REMARK    3  A    between atoms: N2_9  and  C5_11 
REMARK    4  A    between atoms: C5_11  and  C6_12 
REMARK    5  A    between atoms: C5_11  and  C13_19 
REMARK    6  A    between atoms: C6_12  and  C7_13 
REMARK       I    between atoms: C13_19  and  N3_21 
REMARK    7  A    between atoms: N3_21  and  C14_23 
REMARK    8  A    between atoms: C21_32  and  C22_33 
REMARK       I    between atoms: C22_33  and  N4_35 
REMARK    9  A    between atoms: N4_35  and  C24_37 
ROOT
HETATM    1  C13 UNL     1     -88.173 -14.034  11.091  1.00  0.00     0.241 C 
HETATM    2  O2  UNL     1     -88.447 -12.899  11.574  1.00  0.00    -0.271 OA
HETATM    3  N3  UNL     1     -86.964 -14.631  11.507  1.00  0.00    -0.354 N 
ATOM      4  H3  UNL     1     -86.720 -15.547  11.129  1.00  0.00     0.162 HD
ENDROOT
BRANCH   1   5
HETATM    5  C5  UNL     1     -89.110 -14.671  10.131  1.00  0.00     0.180 C 
BRANCH   5   6
HETATM    6  N2  UNL     1     -90.092 -15.439  10.858  1.00  0.00    -0.346 N 
HETATM    7  C4  UNL     1     -91.483 -15.176  10.775  1.00  0.00     0.248 C 
HETATM    8  O1  UNL     1     -91.928 -14.237  10.042  1.00  0.00    -0.271 OA
ATOM      9  H2  UNL     1     -89.772 -16.201  11.455  1.00  0.00     0.163 HD
BRANCH   7  10
HETATM   10  C2  UNL     1     -92.463 -15.982  11.537  1.00  0.00     0.272 C 
HETATM   11  C3  UNL     1     -91.834 -17.148  12.261  1.00  0.00     0.050 C 
BRANCH  10  12
HETATM   12  N1  UNL     1     -93.571 -16.408  10.708  1.00  0.00    -0.067 N 
HETATM   13  C1  UNL     1     -94.061 -17.710  11.074  1.00  0.00     0.267 C 
ATOM     14  H12 UNL     1     -93.325 -16.374   9.719  1.00  0.00     0.277 HD
ATOM     15  H11 UNL     1     -94.321 -15.718  10.714  1.00  0.00     0.277 HD
ENDBRANCH  10  12
ENDBRANCH   7  10
ENDBRANCH   5   6
BRANCH   5  16
HETATM   16  C6  UNL     1     -88.310 -15.569   9.225  1.00  0.00     0.073 C 
BRANCH  16  17
HETATM   17  C7  UNL     1     -87.816 -14.927   8.008  1.00  0.00    -0.056 A 
HETATM   18  C8  UNL     1     -86.494 -14.593   7.816  1.00  0.00     0.007 A 
HETATM   19  C9  UNL     1     -86.057 -13.986   6.645  1.00  0.00     0.001 A 
HETATM   20  C10 UNL     1     -86.945 -13.697   5.632  1.00  0.00     0.000 A 
HETATM   21  C11 UNL     1     -88.265 -14.024   5.810  1.00  0.00     0.001 A 
HETATM   22  C12 UNL     1     -88.677 -14.627   6.978  1.00  0.00     0.007 A 
ENDBRANCH  16  17
ENDBRANCH   5  16
ENDBRANCH   1   5
BRANCH   3  23
HETATM   23  C14 UNL     1     -86.052 -14.011  12.443  1.00  0.00     0.100 C 
HETATM   24  C15 UNL     1     -84.948 -13.469  11.600  1.00  0.00     0.041 C 
HETATM   25  C16 UNL     1     -83.985 -12.548  12.262  1.00  0.00     0.056 C 
HETATM   26  C17 UNL     1     -82.897 -12.222  11.258  1.00  0.00     0.022 C 
HETATM   27  S1  UNL     1     -83.162 -13.224  13.716  1.00  0.00    -0.092 SA
HETATM   28  S2  UNL     1     -83.058 -15.324  13.369  1.00  0.00    -0.087 SA
HETATM   29  C18 UNL     1     -84.759 -15.935  13.544  1.00  0.00     0.025 C 
HETATM   30  C19 UNL     1     -84.967 -16.977  12.500  1.00  0.00     0.028 C 
HETATM   31  C20 UNL     1     -84.806 -16.659  14.883  1.00  0.00     0.028 C 
HETATM   32  C21 UNL     1     -85.715 -14.830  13.612  1.00  0.00     0.119 C 
BRANCH  32  33
HETATM   33  C22 UNL     1     -86.961 -15.277  14.297  1.00  0.00     0.231 C 
HETATM   34  O3  UNL     1     -87.692 -16.190  13.792  1.00  0.00    -0.273 OA
HETATM   35  N4  UNL     1     -87.430 -14.743  15.526  1.00  0.00    -0.300 N 
HETATM   36  C23 UNL     1     -86.750 -13.710  16.282  1.00  0.00     0.158 C 
BRANCH  35  37
HETATM   37  C24 UNL     1     -88.681 -15.218  16.136  1.00  0.00     0.462 C 
HETATM   38  F1  UNL     1     -89.703 -14.670  15.377  1.00  0.00    -0.191 F 
HETATM   39  F2  UNL     1     -88.800 -14.788  17.441  1.00  0.00    -0.191 F 
ENDBRANCH  35  37
ENDBRANCH  32  33
ENDBRANCH   3  23
TORSDOF 9
ENDMDL
MODEL 3
REMARK VINA RESULT: -8.020262896      2.382      4.303
REMARK  9 active torsions:
REMARK  status: ('A' for Active; 'I' for Inactive)
REMARK    1  A    between atoms: N1_2  and  C2_5 
REMARK    2  A    between atoms: C2_5  and  C4_7 
REMARK       I    between atoms: C4_7  and  N2_9 
REMARK    3  A    between atoms: N2_9  and  C5_11 
REMARK    4  A    between atoms: C5_11  and  C6_12 
REMARK    5  A    between atoms: C5_11  and  C13_19 
REMARK    6  A    between atoms: C6_12  and  C7_13 
REMARK       I    between atoms: C13_19  and  N3_21 
REMARK    7  A    between atoms: N3_21  and  C14_23 
REMARK    8  A    between atoms: C21_32  and  C22_33 
REMARK       I    between atoms: C22_33  and  N4_35 
REMARK    9  A    between atoms: N4_35  and  C24_37 
ROOT
HETATM    1  C13 UNL     1     -86.604 -15.190  11.932  1.00  0.00     0.241 C 
HETATM    2  O2  UNL     1     -85.357 -15.301  11.761  1.00  0.00    -0.271 OA
HETATM    3  N3  UNL     1     -87.112 -15.564  13.195  1.00  0.00    -0.354 N 
ATOM      4  H3  UNL     1     -88.116 -15.485  13.356  1.00  0.00     0.162 HD
ENDROOT
BRANCH   1   5
HETATM    5  C5  UNL     1     -87.457 -14.686  10.826  1.00  0.00     0.180 C 
BRANCH   5   6
HETATM    6  N2  UNL     1     -88.841 -14.962  11.125  1.00  0.00    -0.346 N 
HETATM    7  C4  UNL     1     -89.716 -13.985  11.666  1.00  0.00     0.248 C 
HETATM    8  O1  UNL     1     -89.308 -12.806  11.911  1.00  0.00    -0.271 OA
ATOM      9  H2  UNL     1     -89.205 -15.897  10.940  1.00  0.00     0.163 HD
BRANCH   7  10
HETATM   10  C2  UNL     1     -91.131 -14.302  11.963  1.00  0.00     0.272 C 
HETATM   11  C3  UNL     1     -91.293 -15.519  12.842  1.00  0.00     0.050 C 
BRANCH  10  12
HETATM   12  N1  UNL     1     -91.924 -14.411  10.757  1.00  0.00    -0.067 N 
HETATM   13  C1  UNL     1     -93.253 -14.898  11.016  1.00  0.00     0.267 C 
ATOM     14  H12 UNL     1     -91.453 -14.985  10.058  1.00  0.00     0.277 HD
ATOM     15  H11 UNL     1     -91.949 -13.525  10.252  1.00  0.00     0.277 HD
ENDBRANCH  10  12
ENDBRANCH   7  10
ENDBRANCH   5   6
BRANCH   5  16
HETATM   16  C6  UNL     1     -87.045 -15.392   9.561  1.00  0.00     0.073 C 
BRANCH  16  17
HETATM   17  C7  UNL     1     -87.397 -14.691   8.328  1.00  0.00    -0.056 A 
HETATM   18  C8  UNL     1     -88.476 -15.040   7.545  1.00  0.00     0.007 A 
HETATM   19  C9  UNL     1     -88.784 -14.349   6.380  1.00  0.00     0.001 A 
HETATM   20  C10 UNL     1     -88.012 -13.285   5.970  1.00  0.00     0.000 A 
HETATM   21  C11 UNL     1     -86.936 -12.926   6.740  1.00  0.00     0.001 A 
HETATM   22  C12 UNL     1     -86.647 -13.623   7.893  1.00  0.00     0.007 A 
ENDBRANCH  16  17
ENDBRANCH   5  16
ENDBRANCH   1   5
BRANCH   3  23
HETATM   23  C14 UNL     1     -86.281 -16.054  14.273  1.00  0.00     0.100 C 
HETATM   24  C15 UNL     1     -86.413 -17.538  14.214  1.00  0.00     0.041 C 
HETATM   25  C16 UNL     1     -85.465 -18.331  15.042  1.00  0.00     0.056 C 
HETATM   26  C17 UNL     1     -85.857 -19.790  14.918  1.00  0.00     0.022 C 
HETATM   27  S1  UNL     1     -85.479 -17.939  16.801  1.00  0.00    -0.092 SA
HETATM   28  S2  UNL     1     -87.467 -17.287  17.209  1.00  0.00    -0.087 SA
HETATM   29  C18 UNL     1     -87.617 -15.654  16.427  1.00  0.00     0.025 C 
HETATM   30  C19 UNL     1     -88.982 -15.568  15.837  1.00  0.00     0.028 C 
HETATM   31  C20 UNL     1     -87.581 -14.643  17.565  1.00  0.00     0.028 C 
HETATM   32  C21 UNL     1     -86.474 -15.375  15.559  1.00  0.00     0.119 C 
BRANCH  32  33
HETATM   33  C22 UNL     1     -86.313 -13.904  15.387  1.00  0.00     0.231 C 
HETATM   34  O3  UNL     1     -87.199 -13.216  14.782  1.00  0.00    -0.273 OA
HETATM   35  N4  UNL     1     -85.198 -13.162  15.861  1.00  0.00    -0.300 N 
HETATM   36  C23 UNL     1     -84.084 -13.737  16.588  1.00  0.00     0.158 C 
BRANCH  35  37
HETATM   37  C24 UNL     1     -85.096 -11.713  15.638  1.00  0.00     0.462 C 
HETATM   38  F1  UNL     1     -83.745 -11.413  15.718  1.00  0.00    -0.191 F 
HETATM   39  F2  UNL     1     -85.779 -11.006  16.606  1.00  0.00    -0.191 F 
ENDBRANCH  35  37
ENDBRANCH  32  33
ENDBRANCH   3  23
TORSDOF 9
ENDMDL
MODEL 4
REMARK VINA RESULT: -7.980767779      3.065      5.778
REMARK  9 active torsions:
REMARK  status: ('A' for Active; 'I' for Inactive)
REMARK    1  A    between atoms: N1_2  and  C2_5 
REMARK    2  A    between atoms: C2_5  and  C4_7 
REMARK       I    between atoms: C4_7  and  N2_9 
REMARK    3  A    between atoms: N2_9  and  C5_11 
REMARK    4  A    between atoms: C5_11  and  C6_12 
REMARK    5  A    between atoms: C5_11  and  C13_19 
REMARK    6  A    between atoms: C6_12  and  C7_13 
REMARK       I    between atoms: C13_19  and  N3_21 
REMARK    7  A    between atoms: N3_21  and  C14_23 
REMARK    8  A    between atoms: C21_32  and  C22_33 
REMARK       I    between atoms: C22_33  and  N4_35 
REMARK    9  A    between atoms: N4_35  and  C24_37 
ROOT
HETATM    1  C13 UNL     1     -87.364 -13.173  12.270  1.00  0.00     0.241 C 
HETATM    2  O2  UNL     1     -87.987 -12.254  12.874  1.00  0.00    -0.271 OA
HETATM    3  N3  UNL     1     -86.095 -13.526  12.779  1.00  0.00    -0.354 N 
ATOM      4  H3  UNL     1     -85.573 -14.264  12.306  1.00  0.00     0.162 HD
ENDROOT
BRANCH   1   5
HETATM    5  C5  UNL     1     -87.978 -13.822  11.084  1.00  0.00     0.180 C 
BRANCH   5   6
HETATM    6  N2  UNL     1     -88.685 -15.009  11.500  1.00  0.00    -0.346 N 
HETATM    7  C4  UNL     1     -90.097 -15.126  11.419  1.00  0.00     0.248 C 
HETATM    8  O1  UNL     1     -90.807 -14.173  10.966  1.00  0.00    -0.271 OA
ATOM      9  H2  UNL     1     -88.149 -15.795  11.867  1.00  0.00     0.163 HD
BRANCH   7  10
HETATM   10  C2  UNL     1     -90.791 -16.358  11.857  1.00  0.00     0.272 C 
HETATM   11  C3  UNL     1     -90.591 -17.518  10.911  1.00  0.00     0.050 C 
BRANCH  10  12
HETATM   12  N1  UNL     1     -92.196 -16.122  12.117  1.00  0.00    -0.067 N 
HETATM   13  C1  UNL     1     -93.050 -16.958  11.317  1.00  0.00     0.267 C 
ATOM     14  H12 UNL     1     -92.431 -15.136  11.998  1.00  0.00     0.277 HD
ATOM     15  H11 UNL     1     -92.407 -16.222  13.109  1.00  0.00     0.277 HD
ENDBRANCH  10  12
ENDBRANCH   7  10
ENDBRANCH   5   6
BRANCH   5  16
HETATM   16  C6  UNL     1     -86.874 -14.181  10.125  1.00  0.00     0.073 C 
BRANCH  16  17
HETATM   17  C7  UNL     1     -87.225 -14.052   8.713  1.00  0.00    -0.056 A 
HETATM   18  C8  UNL     1     -88.252 -14.757   8.124  1.00  0.00     0.007 A 
HETATM   19  C9  UNL     1     -88.562 -14.608   6.778  1.00  0.00     0.001 A 
HETATM   20  C10 UNL     1     -87.843 -13.741   5.985  1.00  0.00     0.000 A 
HETATM   21  C11 UNL     1     -86.817 -13.033   6.557  1.00  0.00     0.001 A 
HETATM   22  C12 UNL     1     -86.527 -13.195   7.895  1.00  0.00     0.007 A 
ENDBRANCH  16  17
ENDBRANCH   5  16
ENDBRANCH   1   5
BRANCH   3  23
HETATM   23  C14 UNL     1     -85.498 -12.894  13.934  1.00  0.00     0.100 C 
HETATM   24  C15 UNL     1     -84.431 -12.012  13.380  1.00  0.00     0.041 C 
HETATM   25  C16 UNL     1     -83.812 -11.035  14.316  1.00  0.00     0.056 C 
HETATM   26  C17 UNL     1     -82.688 -10.338  13.575  1.00  0.00     0.022 C 
HETATM   27  S1  UNL     1     -83.085 -11.757  15.799  1.00  0.00    -0.092 SA
HETATM   28  S2  UNL     1     -82.458 -13.709  15.216  1.00  0.00    -0.087 SA
HETATM   29  C18 UNL     1     -83.984 -14.670  15.001  1.00  0.00     0.025 C 
HETATM   30  C19 UNL     1     -83.792 -15.550  13.814  1.00  0.00     0.028 C 
HETATM   31  C20 UNL     1     -84.067 -15.596  16.208  1.00  0.00     0.028 C 
HETATM   32  C21 UNL     1     -85.164 -13.807  15.033  1.00  0.00     0.119 C 
BRANCH  32  33
HETATM   33  C22 UNL     1     -86.365 -14.600  15.419  1.00  0.00     0.231 C 
HETATM   34  O3  UNL     1     -86.747 -15.591  14.714  1.00  0.00    -0.273 OA
HETATM   35  N4  UNL     1     -87.164 -14.332  16.562  1.00  0.00    -0.300 N 
HETATM   36  C23 UNL     1     -86.905 -13.265  17.509  1.00  0.00     0.158 C 
BRANCH  35  37
HETATM   37  C24 UNL     1     -88.349 -15.145  16.871  1.00  0.00     0.462 C 
HETATM   38  F1  UNL     1     -89.305 -14.793  15.930  1.00  0.00    -0.191 F 
HETATM   39  F2  UNL     1     -88.830 -14.873  18.135  1.00  0.00    -0.191 F 
ENDBRANCH  35  37
ENDBRANCH  32  33
ENDBRANCH   3  23
TORSDOF 9
ENDMDL
MODEL 5
REMARK VINA RESULT: -7.971678846      1.826      4.162
REMARK  9 active torsions:
REMARK  status: ('A' for Active; 'I' for Inactive)
REMARK    1  A    between atoms: N1_2  and  C2_5 
REMARK    2  A    between atoms: C2_5  and  C4_7 
REMARK       I    between atoms: C4_7  and  N2_9 
REMARK    3  A    between atoms: N2_9  and  C5_11 
REMARK    4  A    between atoms: C5_11  and  C6_12 
REMARK    5  A    between atoms: C5_11  and  C13_19 
REMARK    6  A    between atoms: C6_12  and  C7_13 
REMARK       I    between atoms: C13_19  and  N3_21 
REMARK    7  A    between atoms: N3_21  and  C14_23 
REMARK    8  A    between atoms: C21_32  and  C22_33 
REMARK       I    between atoms: C22_33  and  N4_35 
REMARK    9  A    between atoms: N4_35  and  C24_37 
ROOT
HETATM    1  C13 UNL     1     -86.593 -15.736  11.874  1.00  0.00     0.241 C 
HETATM    2  O2  UNL     1     -85.350 -15.916  11.732  1.00  0.00    -0.271 OA
HETATM    3  N3  UNL     1     -87.120 -15.916  13.172  1.00  0.00    -0.354 N 
ATOM      4  H3  UNL     1     -88.121 -15.778  13.311  1.00  0.00     0.162 HD
ENDROOT
BRANCH   1   5
HETATM    5  C5  UNL     1     -87.421 -15.356  10.702  1.00  0.00     0.180 C 
BRANCH   5   6
HETATM    6  N2  UNL     1     -88.608 -16.176  10.667  1.00  0.00    -0.346 N 
HETATM    7  C4  UNL     1     -89.916 -15.629  10.652  1.00  0.00     0.248 C 
HETATM    8  O1  UNL     1     -90.098 -14.370  10.666  1.00  0.00    -0.271 OA
ATOM      9  H2  UNL     1     -88.501 -17.191  10.653  1.00  0.00     0.163 HD
BRANCH   7  10
HETATM   10  C2  UNL     1     -91.112 -16.500  10.619  1.00  0.00     0.272 C 
HETATM   11  C3  UNL     1     -90.892 -17.778   9.846  1.00  0.00     0.050 C 
BRANCH  10  12
HETATM   12  N1  UNL     1     -92.283 -15.790  10.147  1.00  0.00    -0.067 N 
HETATM   13  C1  UNL     1     -93.500 -16.298  10.721  1.00  0.00     0.267 C 
ATOM     14  H12 UNL     1     -92.328 -15.793   9.129  1.00  0.00     0.277 HD
ATOM     15  H11 UNL     1     -92.193 -14.787  10.305  1.00  0.00     0.277 HD
ENDBRANCH  10  12
ENDBRANCH   7  10
ENDBRANCH   5   6
BRANCH   5  16
HETATM   16  C6  UNL     1     -86.598 -15.574   9.460  1.00  0.00     0.073 C 
BRANCH  16  17
HETATM   17  C7  UNL     1     -87.054 -14.831   8.287  1.00  0.00    -0.056 A 
HETATM   18  C8  UNL     1     -88.040 -15.288   7.440  1.00  0.00     0.007 A 
HETATM   19  C9  UNL     1     -88.451 -14.553   6.336  1.00  0.00     0.001 A 
HETATM   20  C10 UNL     1     -87.879 -13.333   6.052  1.00  0.00     0.000 A 
HETATM   21  C11 UNL     1     -86.896 -12.865   6.886  1.00  0.00     0.001 A 
HETATM   22  C12 UNL     1     -86.503 -13.609   7.977  1.00  0.00     0.007 A 
ENDBRANCH  16  17
ENDBRANCH   5  16
ENDBRANCH   1   5
BRANCH   3  23
HETATM   23  C14 UNL     1     -86.313 -16.285  14.313  1.00  0.00     0.100 C 
HETATM   24  C15 UNL     1     -86.462 -17.765  14.426  1.00  0.00     0.041 C 
HETATM   25  C16 UNL     1     -85.538 -18.466  15.357  1.00  0.00     0.056 C 
HETATM   26  C17 UNL     1     -85.946 -19.925  15.397  1.00  0.00     0.022 C 
HETATM   27  S1  UNL     1     -85.576 -17.871  17.058  1.00  0.00    -0.092 SA
HETATM   28  S2  UNL     1     -87.562 -17.155  17.351  1.00  0.00    -0.087 SA
HETATM   29  C18 UNL     1     -87.679 -15.623  16.383  1.00  0.00     0.025 C 
HETATM   30  C19 UNL     1     -89.033 -15.592  15.762  1.00  0.00     0.028 C 
HETATM   31  C20 UNL     1     -87.649 -14.487  17.395  1.00  0.00     0.028 C 
HETATM   32  C21 UNL     1     -86.518 -15.459  15.508  1.00  0.00     0.119 C 
BRANCH  32  33
HETATM   33  C22 UNL     1     -86.337 -14.020  15.169  1.00  0.00     0.231 C 
HETATM   34  O3  UNL     1     -87.187 -13.407  14.443  1.00  0.00    -0.273 OA
HETATM   35  N4  UNL     1     -85.239 -13.230  15.605  1.00  0.00    -0.300 N 
HETATM   36  C23 UNL     1     -84.166 -13.717  16.449  1.00  0.00     0.158 C 
BRANCH  35  37
HETATM   37  C24 UNL     1     -85.114 -11.818  15.215  1.00  0.00     0.462 C 
HETATM   38  F1  UNL     1     -83.753 -11.580  15.092  1.00  0.00    -0.191 F 
HETATM   39  F2  UNL     1     -85.639 -10.982  16.177  1.00  0.00    -0.191 F 
ENDBRANCH  35  37
ENDBRANCH  32  33
ENDBRANCH   3  23
TORSDOF 9
ENDMDL
