MODEL 1
REMARK VINA RESULT: -8.364761437      0.000      0.000
REMARK  12 active torsions:
REMARK  status: ('A' for Active; 'I' for Inactive)
REMARK    1  A    between atoms: C2_2  and  O1_3 
REMARK    2  A    between atoms: C2_2  and  N1_5 
REMARK    3  A    between atoms: N1_5  and  C3_7 
REMARK    4  A    between atoms: C6_10  and  C7_11 
REMARK    5  A    between atoms: C7_11  and  C8_12 
REMARK       I    between atoms: C8_12  and  N2_14 
REMARK    6  A    between atoms: N2_14  and  C9_15 
REMARK    7  A    between atoms: C11_17  and  O3_18 
REMARK    8  A    between atoms: C11_17  and  N3_20 
REMARK    9  A    between atoms: C16_26  and  C17_27 
REMARK       I    between atoms: C17_27  and  N4_29 
REMARK   10  A    between atoms: N4_29  and  C18_31 
REMARK   11  A    between atoms: C18_31  and  C20_33 
REMARK   12  A    between atoms: C20_33  and  C21_35 
ROOT
HETATM    1  C9  UNL     1     -87.096 -12.852  11.893  1.00  0.00     0.135 C 
HETATM    2  C10 UNL     1     -85.769 -12.118  11.359  1.00  0.00     0.090 C 
HETATM    3  C11 UNL     1     -87.093 -12.630  13.298  1.00  0.00     0.176 C 
ENDROOT
BRANCH   3   4
HETATM    4  O3  UNL     1     -87.767 -11.656  13.836  1.00  0.00    -0.344 OA
ATOM      5  H3  UNL     1     -87.339 -10.871  14.155  1.00  0.00     0.219 HD
ENDBRANCH   3   4
BRANCH   3   6
HETATM    6  N3  UNL     1     -86.394 -13.386  14.320  1.00  0.00    -0.336 N 
HETATM    7  C12 UNL     1     -85.449 -12.635  15.149  1.00  0.00     0.201 C 
HETATM    8  S1  UNL     1     -85.210 -13.668  16.602  1.00  0.00    -0.137 SA
HETATM    9  C13 UNL     1     -86.634 -14.802  16.257  1.00  0.00     0.032 C 
HETATM   10  C14 UNL     1     -86.309 -16.127  16.813  1.00  0.00     0.029 C 
HETATM   11  C15 UNL     1     -87.833 -14.165  16.779  1.00  0.00     0.029 C 
HETATM   12  C16 UNL     1     -86.504 -14.727  14.702  1.00  0.00     0.197 C 
BRANCH  12  13
HETATM   13  C17 UNL     1     -87.629 -15.526  14.153  1.00  0.00     0.242 C 
HETATM   14  O4  UNL     1     -87.414 -16.768  13.905  1.00  0.00    -0.271 OA
HETATM   15  N4  UNL     1     -88.917 -15.015  13.913  1.00  0.00    -0.348 N 
ATOM     16  H4  UNL     1     -89.022 -14.017  14.100  1.00  0.00     0.163 HD
BRANCH  15  17
HETATM   17  C18 UNL     1     -90.092 -15.655  13.454  1.00  0.00     0.155 C 
HETATM   18  C19 UNL     1     -90.853 -16.310  14.555  1.00  0.00     0.040 C 
BRANCH  17  19
HETATM   19  C20 UNL     1     -90.904 -14.873  12.468  1.00  0.00     0.203 C 
HETATM   20  O5  UNL     1     -90.868 -13.656  12.617  1.00  0.00    -0.291 OA
BRANCH  19  21
HETATM   21  C21 UNL     1     -91.693 -15.456  11.377  1.00  0.00     0.237 C 
HETATM   22  C22 UNL     1     -91.126 -16.759  10.863  1.00  0.00     0.079 C 
HETATM   23  F1  UNL     1     -92.986 -15.694  11.771  1.00  0.00    -0.217 F 
HETATM   24 CL1  UNL     1     -91.832 -14.297  10.002  1.00  0.00    -0.074 Cl
ENDBRANCH  19  21
ENDBRANCH  17  19
ENDBRANCH  15  17
ENDBRANCH  12  13
ENDBRANCH   3   6
BRANCH   1  25
HETATM   25  N2  UNL     1     -87.378 -13.917  11.137  1.00  0.00    -0.371 NA
HETATM   26  C8  UNL     1     -87.672 -15.034  10.346  1.00  0.00     0.296 C 
HETATM   27  O2  UNL     1     -87.230 -16.159  10.768  1.00  0.00    -0.257 OA
BRANCH  26  28
HETATM   28  C7  UNL     1     -88.409 -15.118   9.086  1.00  0.00     0.157 C 
BRANCH  28  29
HETATM   29  C6  UNL     1     -87.554 -14.678   7.928  1.00  0.00    -0.048 A 
HETATM   30  C5  UNL     1     -86.227 -14.277   8.123  1.00  0.00     0.010 A 
HETATM   31  C4  UNL     1     -85.465 -13.878   7.081  1.00  0.00     0.030 A 
HETATM   32  C3  UNL     1     -85.935 -13.829   5.783  1.00  0.00     0.033 A 
HETATM   33  C24 UNL     1     -87.226 -14.201   5.572  1.00  0.00     0.030 A 
HETATM   34  C23 UNL     1     -88.006 -14.624   6.650  1.00  0.00     0.010 A 
BRANCH  32  35
HETATM   35  N1  UNL     1     -85.171 -13.448   4.641  1.00  0.00    -0.341 N 
ATOM     36  H1  UNL     1     -85.609 -12.979   3.848  1.00  0.00     0.167 HD
BRANCH  35  37
HETATM   37  C2  UNL     1     -83.789 -13.741   4.645  1.00  0.00     0.111 C 
HETATM   38  C1  UNL     1     -82.702 -12.979   5.189  1.00  0.00     0.097 C 
BRANCH  37  39
HETATM   39  O1  UNL     1     -83.465 -14.895   4.064  1.00  0.00    -0.350 OA
ATOM     40  H1  UNL     1     -83.334 -15.634   4.646  1.00  0.00     0.219 HD
ENDBRANCH  37  39
ENDBRANCH  35  37
ENDBRANCH  32  35
ENDBRANCH  28  29
ENDBRANCH  26  28
ENDBRANCH   1  25
TORSDOF 12
ENDMDL
MODEL 2
REMARK VINA RESULT: -8.272174775      2.264      3.387
REMARK  12 active torsions:
REMARK  status: ('A' for Active; 'I' for Inactive)
REMARK    1  A    between atoms: C2_2  and  O1_3 
REMARK    2  A    between atoms: C2_2  and  N1_5 
REMARK    3  A    between atoms: N1_5  and  C3_7 
REMARK    4  A    between atoms: C6_10  and  C7_11 
REMARK    5  A    between atoms: C7_11  and  C8_12 
REMARK       I    between atoms: C8_12  and  N2_14 
REMARK    6  A    between atoms: N2_14  and  C9_15 
REMARK    7  A    between atoms: C11_17  and  O3_18 
REMARK    8  A    between atoms: C11_17  and  N3_20 
REMARK    9  A    between atoms: C16_26  and  C17_27 
REMARK       I    between atoms: C17_27  and  N4_29 
REMARK   10  A    between atoms: N4_29  and  C18_31 
REMARK   11  A    between atoms: C18_31  and  C20_33 
REMARK   12  A    between atoms: C20_33  and  C21_35 
ROOT
HETATM    1  C9  UNL     1     -86.081 -12.183  12.146  1.00  0.00     0.135 C 
HETATM    2  C10 UNL     1     -84.815 -12.006  13.121  1.00  0.00     0.090 C 
HETATM    3  C11 UNL     1     -87.134 -12.625  12.994  1.00  0.00     0.176 C 
ENDROOT
BRANCH   3   4
HETATM    4  O3  UNL     1     -88.003 -11.795  13.492  1.00  0.00    -0.344 OA
ATOM      5  H3  UNL     1     -88.101 -11.681  14.430  1.00  0.00     0.219 HD
ENDBRANCH   3   4
BRANCH   3   6
HETATM    6  N3  UNL     1     -87.419 -13.978  13.431  1.00  0.00    -0.336 N 
HETATM    7  C12 UNL     1     -86.986 -14.326  14.786  1.00  0.00     0.201 C 
HETATM    8  S1  UNL     1     -87.951 -15.785  15.204  1.00  0.00    -0.137 SA
HETATM    9  C13 UNL     1     -89.139 -15.630  13.791  1.00  0.00     0.032 C 
HETATM   10  C14 UNL     1     -89.589 -16.983  13.420  1.00  0.00     0.029 C 
HETATM   11  C15 UNL     1     -90.179 -14.697  14.199  1.00  0.00     0.029 C 
HETATM   12  C16 UNL     1     -88.100 -15.022  12.795  1.00  0.00     0.197 C 
BRANCH  12  13
HETATM   13  C17 UNL     1     -88.848 -14.717  11.549  1.00  0.00     0.242 C 
HETATM   14  O4  UNL     1     -89.381 -13.553  11.442  1.00  0.00    -0.271 OA
HETATM   15  N4  UNL     1     -88.987 -15.612  10.472  1.00  0.00    -0.348 N 
ATOM     16  H4  UNL     1     -88.569 -16.530  10.624  1.00  0.00     0.163 HD
BRANCH  15  17
HETATM   17  C18 UNL     1     -89.610 -15.449   9.213  1.00  0.00     0.155 C 
HETATM   18  C19 UNL     1     -88.637 -15.473   8.086  1.00  0.00     0.040 C 
BRANCH  17  19
HETATM   19  C20 UNL     1     -90.867 -16.239   9.014  1.00  0.00     0.203 C 
HETATM   20  O5  UNL     1     -91.711 -15.701   8.305  1.00  0.00    -0.291 OA
BRANCH  19  21
HETATM   21  C21 UNL     1     -91.126 -17.566   9.585  1.00  0.00     0.237 C 
HETATM   22  C22 UNL     1     -91.702 -18.542   8.587  1.00  0.00     0.079 C 
HETATM   23  F1  UNL     1     -89.977 -18.121  10.092  1.00  0.00    -0.217 F 
HETATM   24 CL1  UNL     1     -92.244 -17.444  10.995  1.00  0.00    -0.074 Cl
ENDBRANCH  19  21
ENDBRANCH  17  19
ENDBRANCH  15  17
ENDBRANCH  12  13
ENDBRANCH   3   6
BRANCH   1  25
HETATM   25  N2  UNL     1     -85.682 -12.541  10.922  1.00  0.00    -0.371 NA
HETATM   26  C8  UNL     1     -85.264 -12.914   9.639  1.00  0.00     0.296 C 
HETATM   27  O2  UNL     1     -84.614 -12.031   8.976  1.00  0.00    -0.257 OA
BRANCH  26  28
HETATM   28  C7  UNL     1     -85.464 -14.171   8.920  1.00  0.00     0.157 C 
BRANCH  28  29
HETATM   29  C6  UNL     1     -84.856 -14.111   7.544  1.00  0.00    -0.048 A 
HETATM   30  C5  UNL     1     -85.636 -13.797   6.425  1.00  0.00     0.010 A 
HETATM   31  C4  UNL     1     -85.087 -13.748   5.191  1.00  0.00     0.030 A 
HETATM   32  C3  UNL     1     -83.751 -14.013   4.953  1.00  0.00     0.033 A 
HETATM   33  C24 UNL     1     -82.979 -14.335   6.024  1.00  0.00     0.030 A 
HETATM   34  C23 UNL     1     -83.547 -14.371   7.299  1.00  0.00     0.010 A 
BRANCH  32  35
HETATM   35  N1  UNL     1     -83.110 -13.948   3.682  1.00  0.00    -0.341 N 
ATOM     36  H1  UNL     1     -83.444 -14.504   2.894  1.00  0.00     0.167 HD
BRANCH  35  37
HETATM   37  C2  UNL     1     -81.997 -13.089   3.548  1.00  0.00     0.111 C 
HETATM   38  C1  UNL     1     -80.632 -13.412   3.243  1.00  0.00     0.097 C 
BRANCH  37  39
HETATM   39  O1  UNL     1     -82.269 -11.796   3.724  1.00  0.00    -0.350 OA
ATOM     40  H1  UNL     1     -82.977 -11.596   4.324  1.00  0.00     0.219 HD
ENDBRANCH  37  39
ENDBRANCH  35  37
ENDBRANCH  32  35
ENDBRANCH  28  29
ENDBRANCH  26  28
ENDBRANCH   1  25
TORSDOF 12
ENDMDL
MODEL 3
REMARK VINA RESULT: -8.211548895      1.691      2.005
REMARK  12 active torsions:
REMARK  status: ('A' for Active; 'I' for Inactive)
REMARK    1  A    between atoms: C2_2  and  O1_3 
REMARK    2  A    between atoms: C2_2  and  N1_5 
REMARK    3  A    between atoms: N1_5  and  C3_7 
REMARK    4  A    between atoms: C6_10  and  C7_11 
REMARK    5  A    between atoms: C7_11  and  C8_12 
REMARK       I    between atoms: C8_12  and  N2_14 
REMARK    6  A    between atoms: N2_14  and  C9_15 
REMARK    7  A    between atoms: C11_17  and  O3_18 
REMARK    8  A    between atoms: C11_17  and  N3_20 
REMARK    9  A    between atoms: C16_26  and  C17_27 
REMARK       I    between atoms: C17_27  and  N4_29 
REMARK   10  A    between atoms: N4_29  and  C18_31 
REMARK   11  A    between atoms: C18_31  and  C20_33 
REMARK   12  A    between atoms: C20_33  and  C21_35 
ROOT
HETATM    1  C9  UNL     1     -87.796 -13.201  11.844  1.00  0.00     0.135 C 
HETATM    2  C10 UNL     1     -86.309 -12.714  11.477  1.00  0.00     0.090 C 
HETATM    3  C11 UNL     1     -87.789 -13.354  13.258  1.00  0.00     0.176 C 
ENDROOT
BRANCH   3   4
HETATM    4  O3  UNL     1     -88.217 -12.411  14.048  1.00  0.00    -0.344 OA
ATOM      5  H3  UNL     1     -89.135 -12.171  14.084  1.00  0.00     0.219 HD
ENDBRANCH   3   4
BRANCH   3   6
HETATM    6  N3  UNL     1     -87.341 -14.496  14.031  1.00  0.00    -0.336 N 
HETATM    7  C12 UNL     1     -86.027 -14.373  14.666  1.00  0.00     0.201 C 
HETATM    8  S1  UNL     1     -86.028 -15.637  15.946  1.00  0.00    -0.137 SA
HETATM    9  C13 UNL     1     -87.848 -15.976  15.866  1.00  0.00     0.032 C 
HETATM   10  C14 UNL     1     -88.068 -17.386  16.235  1.00  0.00     0.029 C 
HETATM   11  C15 UNL     1     -88.512 -14.985  16.699  1.00  0.00     0.029 C 
HETATM   12  C16 UNL     1     -87.978 -15.704  14.333  1.00  0.00     0.197 C 
BRANCH  12  13
HETATM   13  C17 UNL     1     -89.421 -15.839  14.009  1.00  0.00     0.242 C 
HETATM   14  O4  UNL     1     -90.270 -15.484  14.905  1.00  0.00    -0.271 OA
HETATM   15  N4  UNL     1     -89.914 -16.304  12.776  1.00  0.00    -0.348 N 
ATOM     16  H4  UNL     1     -89.195 -16.598  12.113  1.00  0.00     0.163 HD
BRANCH  15  17
HETATM   17  C18 UNL     1     -91.240 -16.432  12.303  1.00  0.00     0.155 C 
HETATM   18  C19 UNL     1     -91.930 -15.118  12.172  1.00  0.00     0.040 C 
BRANCH  17  19
HETATM   19  C20 UNL     1     -91.424 -17.387  11.163  1.00  0.00     0.203 C 
HETATM   20  O5  UNL     1     -90.384 -17.843  10.697  1.00  0.00    -0.291 OA
BRANCH  19  21
HETATM   21  C21 UNL     1     -92.719 -17.797  10.609  1.00  0.00     0.237 C 
HETATM   22  C22 UNL     1     -93.604 -18.493  11.616  1.00  0.00     0.079 C 
HETATM   23  F1  UNL     1     -93.415 -16.718  10.123  1.00  0.00    -0.217 F 
HETATM   24 CL1  UNL     1     -92.488 -18.880   9.186  1.00  0.00    -0.074 Cl
ENDBRANCH  19  21
ENDBRANCH  17  19
ENDBRANCH  15  17
ENDBRANCH  12  13
ENDBRANCH   3   6
BRANCH   1  25
HETATM   25  N2  UNL     1     -88.308 -13.931  10.850  1.00  0.00    -0.371 NA
HETATM   26  C8  UNL     1     -88.847 -14.696   9.807  1.00  0.00     0.296 C 
HETATM   27  O2  UNL     1     -90.082 -14.492   9.536  1.00  0.00    -0.257 OA
BRANCH  26  28
HETATM   28  C7  UNL     1     -88.213 -15.715   8.972  1.00  0.00     0.157 C 
BRANCH  28  29
HETATM   29  C6  UNL     1     -87.417 -15.086   7.860  1.00  0.00    -0.048 A 
HETATM   30  C5  UNL     1     -86.111 -14.630   8.078  1.00  0.00     0.010 A 
HETATM   31  C4  UNL     1     -85.401 -14.063   7.078  1.00  0.00     0.030 A 
HETATM   32  C3  UNL     1     -85.908 -13.885   5.804  1.00  0.00     0.033 A 
HETATM   33  C24 UNL     1     -87.180 -14.308   5.575  1.00  0.00     0.030 A 
HETATM   34  C23 UNL     1     -87.905 -14.905   6.607  1.00  0.00     0.010 A 
BRANCH  32  35
HETATM   35  N1  UNL     1     -85.198 -13.323   4.704  1.00  0.00    -0.341 N 
ATOM     36  H1  UNL     1     -85.670 -12.729   4.022  1.00  0.00     0.167 HD
BRANCH  35  37
HETATM   37  C2  UNL     1     -83.821 -13.615   4.588  1.00  0.00     0.111 C 
HETATM   38  C1  UNL     1     -82.689 -12.804   4.934  1.00  0.00     0.097 C 
BRANCH  37  39
HETATM   39  O1  UNL     1     -83.550 -14.823   4.094  1.00  0.00    -0.350 OA
ATOM     40  H1  UNL     1     -82.634 -15.010   3.927  1.00  0.00     0.219 HD
ENDBRANCH  37  39
ENDBRANCH  35  37
ENDBRANCH  32  35
ENDBRANCH  28  29
ENDBRANCH  26  28
ENDBRANCH   1  25
TORSDOF 12
ENDMDL
MODEL 4
REMARK VINA RESULT: -8.152728697      2.426      3.793
REMARK  12 active torsions:
REMARK  status: ('A' for Active; 'I' for Inactive)
REMARK    1  A    between atoms: C2_2  and  O1_3 
REMARK    2  A    between atoms: C2_2  and  N1_5 
REMARK    3  A    between atoms: N1_5  and  C3_7 
REMARK    4  A    between atoms: C6_10  and  C7_11 
REMARK    5  A    between atoms: C7_11  and  C8_12 
REMARK       I    between atoms: C8_12  and  N2_14 
REMARK    6  A    between atoms: N2_14  and  C9_15 
REMARK    7  A    between atoms: C11_17  and  O3_18 
REMARK    8  A    between atoms: C11_17  and  N3_20 
REMARK    9  A    between atoms: C16_26  and  C17_27 
REMARK       I    between atoms: C17_27  and  N4_29 
REMARK   10  A    between atoms: N4_29  and  C18_31 
REMARK   11  A    between atoms: C18_31  and  C20_33 
REMARK   12  A    between atoms: C20_33  and  C21_35 
ROOT
HETATM    1  C9  UNL     1     -87.670 -13.475  15.464  1.00  0.00     0.135 C 
HETATM    2  C10 UNL     1     -86.490 -12.985  16.439  1.00  0.00     0.090 C 
HETATM    3  C11 UNL     1     -88.005 -14.779  15.923  1.00  0.00     0.176 C 
ENDROOT
BRANCH   3   4
HETATM    4  O3  UNL     1     -88.995 -14.980  16.743  1.00  0.00    -0.344 OA
ATOM      5  H3  UNL     1     -89.430 -14.260  17.184  1.00  0.00     0.219 HD
ENDBRANCH   3   4
BRANCH   3   6
HETATM    6  N3  UNL     1     -87.358 -16.034  15.594  1.00  0.00    -0.336 N 
HETATM    7  C12 UNL     1     -86.072 -16.292  16.246  1.00  0.00     0.201 C 
HETATM    8  S1  UNL     1     -85.840 -18.069  16.092  1.00  0.00    -0.137 SA
HETATM    9  C13 UNL     1     -87.579 -18.436  15.568  1.00  0.00     0.032 C 
HETATM   10  C14 UNL     1     -87.553 -19.626  14.699  1.00  0.00     0.029 C 
HETATM   11  C15 UNL     1     -88.384 -18.541  16.775  1.00  0.00     0.029 C 
HETATM   12  C16 UNL     1     -87.779 -17.097  14.788  1.00  0.00     0.197 C 
BRANCH  12  13
HETATM   13  C17 UNL     1     -89.184 -17.103  14.309  1.00  0.00     0.242 C 
HETATM   14  O4  UNL     1     -90.108 -17.333  15.171  1.00  0.00    -0.271 OA
HETATM   15  N4  UNL     1     -89.567 -16.846  12.979  1.00  0.00    -0.348 N 
ATOM     16  H4  UNL     1     -88.791 -16.699  12.333  1.00  0.00     0.163 HD
BRANCH  15  17
HETATM   17  C18 UNL     1     -90.850 -16.759  12.390  1.00  0.00     0.155 C 
HETATM   18  C19 UNL     1     -91.451 -15.404  12.526  1.00  0.00     0.040 C 
BRANCH  17  19
HETATM   19  C20 UNL     1     -90.981 -17.406  11.044  1.00  0.00     0.203 C 
HETATM   20  O5  UNL     1     -89.919 -17.698  10.505  1.00  0.00    -0.291 OA
BRANCH  19  21
HETATM   21  C21 UNL     1     -92.252 -17.705  10.375  1.00  0.00     0.237 C 
HETATM   22  C22 UNL     1     -93.245 -18.409  11.270  1.00  0.00     0.079 C 
HETATM   23  F1  UNL     1     -92.851 -16.560   9.913  1.00  0.00    -0.217 F 
HETATM   24 CL1  UNL     1     -91.975 -18.711   8.905  1.00  0.00    -0.074 Cl
ENDBRANCH  19  21
ENDBRANCH  17  19
ENDBRANCH  15  17
ENDBRANCH  12  13
ENDBRANCH   3   6
BRANCH   1  25
HETATM   25  N2  UNL     1     -87.519 -12.947  14.246  1.00  0.00    -0.371 NA
HETATM   26  C8  UNL     1     -87.363 -12.393  12.969  1.00  0.00     0.296 C 
HETATM   27  O2  UNL     1     -88.352 -11.715  12.521  1.00  0.00    -0.257 OA
BRANCH  26  28
HETATM   28  C7  UNL     1     -86.232 -12.477  12.047  1.00  0.00     0.157 C 
BRANCH  28  29
HETATM   29  C6  UNL     1     -86.633 -13.140  10.756  1.00  0.00    -0.048 A 
HETATM   30  C5  UNL     1     -85.914 -12.914   9.576  1.00  0.00     0.010 A 
HETATM   31  C4  UNL     1     -86.280 -13.508   8.419  1.00  0.00     0.030 A 
HETATM   32  C3  UNL     1     -87.372 -14.350   8.320  1.00  0.00     0.033 A 
HETATM   33  C24 UNL     1     -88.093 -14.572   9.452  1.00  0.00     0.030 A 
HETATM   34  C23 UNL     1     -87.704 -13.966  10.648  1.00  0.00     0.010 A 
BRANCH  32  35
HETATM   35  N1  UNL     1     -87.788 -15.028   7.138  1.00  0.00    -0.341 N 
ATOM     36  H1  UNL     1     -87.564 -16.012   6.989  1.00  0.00     0.167 HD
BRANCH  35  37
HETATM   37  C2  UNL     1     -88.519 -14.293   6.178  1.00  0.00     0.111 C 
HETATM   38  C1  UNL     1     -89.928 -14.025   6.122  1.00  0.00     0.097 C 
BRANCH  37  39
HETATM   39  O1  UNL     1     -87.783 -13.773   5.198  1.00  0.00    -0.350 OA
ATOM     40  H1  UNL     1     -87.168 -13.095   5.450  1.00  0.00     0.219 HD
ENDBRANCH  37  39
ENDBRANCH  35  37
ENDBRANCH  32  35
ENDBRANCH  28  29
ENDBRANCH  26  28
ENDBRANCH   1  25
TORSDOF 12
ENDMDL
MODEL 5
REMARK VINA RESULT: -8.150587493      3.658      8.065
REMARK  12 active torsions:
REMARK  status: ('A' for Active; 'I' for Inactive)
REMARK    1  A    between atoms: C2_2  and  O1_3 
REMARK    2  A    between atoms: C2_2  and  N1_5 
REMARK    3  A    between atoms: N1_5  and  C3_7 
REMARK    4  A    between atoms: C6_10  and  C7_11 
REMARK    5  A    between atoms: C7_11  and  C8_12 
REMARK       I    between atoms: C8_12  and  N2_14 
REMARK    6  A    between atoms: N2_14  and  C9_15 
REMARK    7  A    between atoms: C11_17  and  O3_18 
REMARK    8  A    between atoms: C11_17  and  N3_20 
REMARK    9  A    between atoms: C16_26  and  C17_27 
REMARK       I    between atoms: C17_27  and  N4_29 
REMARK   10  A    between atoms: N4_29  and  C18_31 
REMARK   11  A    between atoms: C18_31  and  C20_33 
REMARK   12  A    between atoms: C20_33  and  C21_35 
ROOT
HETATM    1  C9  UNL     1     -89.777 -15.877  14.893  1.00  0.00     0.135 C 
HETATM    2  C10 UNL     1     -89.480 -17.206  14.039  1.00  0.00     0.090 C 
HETATM    3  C11 UNL     1     -90.123 -14.893  13.926  1.00  0.00     0.176 C 
ENDROOT
BRANCH   3   4
HETATM    4  O3  UNL     1     -91.363 -14.630  13.634  1.00  0.00    -0.344 OA
ATOM      5  H3  UNL     1     -91.902 -14.084  14.193  1.00  0.00     0.219 HD
ENDBRANCH   3   4
BRANCH   3   6
HETATM    6  N3  UNL     1     -89.232 -14.059  13.143  1.00  0.00    -0.336 N 
HETATM    7  C12 UNL     1     -88.294 -13.225  13.898  1.00  0.00     0.201 C 
HETATM    8  S1  UNL     1     -87.020 -12.791  12.704  1.00  0.00    -0.137 SA
HETATM    9  C13 UNL     1     -87.540 -14.026  11.425  1.00  0.00     0.032 C 
HETATM   10  C14 UNL     1     -87.199 -13.482  10.098  1.00  0.00     0.029 C 
HETATM   11  C15 UNL     1     -86.926 -15.298  11.773  1.00  0.00     0.029 C 
HETATM   12  C16 UNL     1     -89.064 -13.946  11.759  1.00  0.00     0.197 C 
BRANCH  12  13
HETATM   13  C17 UNL     1     -89.733 -14.944  10.886  1.00  0.00     0.242 C 
HETATM   14  O4  UNL     1     -89.149 -16.076  10.717  1.00  0.00    -0.271 OA
HETATM   15  N4  UNL     1     -90.974 -14.737  10.256  1.00  0.00    -0.348 N 
ATOM     16  H4  UNL     1     -91.377 -13.811  10.402  1.00  0.00     0.163 HD
BRANCH  15  17
HETATM   17  C18 UNL     1     -91.755 -15.601   9.454  1.00  0.00     0.155 C 
HETATM   18  C19 UNL     1     -90.976 -16.208   8.339  1.00  0.00     0.040 C 
BRANCH  17  19
HETATM   19  C20 UNL     1     -92.660 -16.529  10.206  1.00  0.00     0.203 C 
HETATM   20  O5  UNL     1     -93.692 -16.017  10.627  1.00  0.00    -0.291 OA
BRANCH  19  21
HETATM   21  C21 UNL     1     -92.395 -17.952  10.443  1.00  0.00     0.237 C 
HETATM   22  C22 UNL     1     -92.514 -18.796   9.196  1.00  0.00     0.079 C 
HETATM   23  F1  UNL     1     -91.136 -18.145  10.955  1.00  0.00    -0.217 F 
HETATM   24 CL1  UNL     1     -93.512 -18.606  11.699  1.00  0.00    -0.074 Cl
ENDBRANCH  19  21
ENDBRANCH  17  19
ENDBRANCH  15  17
ENDBRANCH  12  13
ENDBRANCH   3   6
BRANCH   1  25
HETATM   25  N2  UNL     1     -89.020 -15.850  15.993  1.00  0.00    -0.371 NA
HETATM   26  C8  UNL     1     -88.228 -15.820  17.148  1.00  0.00     0.296 C 
HETATM   27  O2  UNL     1     -88.660 -15.097  18.113  1.00  0.00    -0.257 OA
BRANCH  26  28
HETATM   28  C7  UNL     1     -86.958 -16.487  17.426  1.00  0.00     0.157 C 
BRANCH  28  29
HETATM   29  C6  UNL     1     -86.969 -17.906  16.922  1.00  0.00    -0.048 A 
HETATM   30  C5  UNL     1     -87.797 -18.872  17.507  1.00  0.00     0.010 A 
HETATM   31  C4  UNL     1     -87.800 -20.145  17.054  1.00  0.00     0.030 A 
HETATM   32  C3  UNL     1     -86.996 -20.574  16.016  1.00  0.00     0.033 A 
HETATM   33  C24 UNL     1     -86.173 -19.655  15.443  1.00  0.00     0.030 A 
HETATM   34  C23 UNL     1     -86.182 -18.338  15.905  1.00  0.00     0.010 A 
BRANCH  32  35
HETATM   35  N1  UNL     1     -86.978 -21.893  15.475  1.00  0.00    -0.341 N 
ATOM     36  H1  UNL     1     -86.675 -22.065  14.516  1.00  0.00     0.167 HD
BRANCH  35  37
HETATM   37  C2  UNL     1     -87.392 -22.954  16.311  1.00  0.00     0.111 C 
HETATM   38  C1  UNL     1     -88.681 -23.577  16.414  1.00  0.00     0.097 C 
BRANCH  37  39
HETATM   39  O1  UNL     1     -86.439 -23.440  17.104  1.00  0.00    -0.350 OA
ATOM     40  H1  UNL     1     -86.199 -22.902  17.849  1.00  0.00     0.219 HD
ENDBRANCH  37  39
ENDBRANCH  35  37
ENDBRANCH  32  35
ENDBRANCH  28  29
ENDBRANCH  26  28
ENDBRANCH   1  25
TORSDOF 12
ENDMDL
