MODEL 1
REMARK VINA RESULT: -8.625376289      0.000      0.000
REMARK  10 active torsions:
REMARK  status: ('A' for Active; 'I' for Inactive)
REMARK    1  A    between atoms: C2_2  and  C3_3 
REMARK    2  A    between atoms: C3_3  and  C4_4 
REMARK    3  A    between atoms: C4_4  and  C5_5 
REMARK    4  A    between atoms: C5_5  and  C6_6 
REMARK    5  A    between atoms: C6_6  and  N2_10 
REMARK    6  A    between atoms: N2_10  and  C7_12 
REMARK    7  A    between atoms: C11_17  and  C13_19 
REMARK    8  A    between atoms: C14_21  and  O2_22 
REMARK    9  A    between atoms: C18_27  and  O4_28 
REMARK   10  A    between atoms: C23_36  and  O7_37 
ROOT
HETATM    1  C7  UNL     1     -67.618 -13.813  50.198  1.00  0.00     0.185 C 
HETATM    2  C8  UNL     1     -68.571 -14.855  49.771  1.00  0.00     0.160 C 
HETATM    3  O1  UNL     1     -68.000 -15.788  49.181  1.00  0.00    -0.295 OA
HETATM    4  C9  UNL     1     -70.024 -15.078  49.860  1.00  0.00     0.092 C 
HETATM    5  C10 UNL     1     -70.639 -14.600  48.582  1.00  0.00     0.032 C 
HETATM    6  C11 UNL     1     -71.948 -15.160  48.201  1.00  0.00     0.020 C 
HETATM    7  C12 UNL     1     -72.739 -14.024  47.528  1.00  0.00     0.021 C 
HETATM    8  C14 UNL     1     -72.815 -15.680  49.282  1.00  0.00     0.273 C 
HETATM    9  O3  UNL     1     -72.998 -14.652  50.284  1.00  0.00    -0.331 OA
HETATM   10  C16 UNL     1     -71.973 -14.301  51.175  1.00  0.00     0.144 C 
HETATM   11  C17 UNL     1     -70.658 -14.457  51.057  1.00  0.00    -0.009 C 
HETATM   12  C18 UNL     1     -70.172 -13.895  52.305  1.00  0.00     0.126 C 
HETATM   13  C19 UNL     1     -70.611 -14.611  53.559  1.00  0.00     0.157 C 
HETATM   14  C20 UNL     1     -69.519 -14.187  54.510  1.00  0.00     0.263 C 
HETATM   15  O5  UNL     1     -69.524 -14.448  55.735  1.00  0.00    -0.265 OA
HETATM   16  O6  UNL     1     -68.536 -13.475  53.792  1.00  0.00    -0.304 OA
HETATM   17  C21 UNL     1     -68.662 -13.986  52.456  1.00  0.00     0.130 C 
HETATM   18  C22 UNL     1     -68.160 -15.387  52.490  1.00  0.00     0.053 C 
HETATM   19  C23 UNL     1     -68.019 -13.098  51.443  1.00  0.00     0.186 C 
ENDROOT
BRANCH   1  20
HETATM   20  N2  UNL     1     -67.422 -12.820  49.119  1.00  0.00    -0.366 N 
ATOM     21  H2  UNL     1     -68.143 -12.119  48.947  1.00  0.00     0.161 HD
BRANCH  20  22
HETATM   22  C6  UNL     1     -66.258 -12.827  48.324  1.00  0.00     0.071 C 
HETATM   23  N1  UNL     1     -65.404 -11.862  48.583  1.00  0.00    -0.389 N 
ATOM     24  H12 UNL     1     -64.561 -11.867  48.008  1.00  0.00     0.157 HD
ATOM     25  H11 UNL     1     -65.613 -11.213  49.341  1.00  0.00     0.157 HD
BRANCH  22  26
HETATM   26  C5  UNL     1     -65.960 -13.750  47.247  1.00  0.00     0.075 C 
BRANCH  26  27
HETATM   27  C4  UNL     1     -66.838 -13.695  46.058  1.00  0.00     0.007 C 
BRANCH  27  28
HETATM   28  C3  UNL     1     -68.076 -14.498  46.033  1.00  0.00     0.000 C 
BRANCH  28  29
HETATM   29  C2  UNL     1     -69.221 -14.078  45.201  1.00  0.00    -0.005 C 
HETATM   30  C1  UNL     1     -68.671 -13.102  44.137  1.00  0.00     0.005 C 
ENDBRANCH  28  29
ENDBRANCH  27  28
ENDBRANCH  26  27
ENDBRANCH  22  26
ENDBRANCH  20  22
ENDBRANCH   1  20
BRANCH  19  31
HETATM   31  O7  UNL     1     -66.949 -12.409  51.978  1.00  0.00    -0.390 OA
ATOM     32  H7  UNL     1     -66.807 -12.658  52.884  1.00  0.00     0.210 HD
ENDBRANCH  19  31
BRANCH  12  33
HETATM   33  O4  UNL     1     -70.556 -12.569  52.428  1.00  0.00    -0.381 OA
ATOM     34  H4  UNL     1     -70.169 -12.179  53.202  1.00  0.00     0.211 HD
ENDBRANCH  12  33
BRANCH   6  35
HETATM   35  C13 UNL     1     -71.830 -16.225  47.121  1.00  0.00     0.128 C 
HETATM   36 CL1  UNL     1     -71.205 -17.752  47.793  1.00  0.00    -0.130 Cl
ENDBRANCH   6  35
BRANCH   8  37
HETATM   37  O2  UNL     1     -74.098 -15.885  48.778  1.00  0.00    -0.365 OA
HETATM   38  C15 UNL     1     -74.689 -16.946  49.415  1.00  0.00     0.204 C 
ENDBRANCH   8  37
TORSDOF 10
ENDMDL
MODEL 2
REMARK VINA RESULT: -7.965705699      0.859      1.210
REMARK  10 active torsions:
REMARK  status: ('A' for Active; 'I' for Inactive)
REMARK    1  A    between atoms: C2_2  and  C3_3 
REMARK    2  A    between atoms: C3_3  and  C4_4 
REMARK    3  A    between atoms: C4_4  and  C5_5 
REMARK    4  A    between atoms: C5_5  and  C6_6 
REMARK    5  A    between atoms: C6_6  and  N2_10 
REMARK    6  A    between atoms: N2_10  and  C7_12 
REMARK    7  A    between atoms: C11_17  and  C13_19 
REMARK    8  A    between atoms: C14_21  and  O2_22 
REMARK    9  A    between atoms: C18_27  and  O4_28 
REMARK   10  A    between atoms: C23_36  and  O7_37 
ROOT
HETATM    1  C7  UNL     1     -67.603 -13.820  50.204  1.00  0.00     0.185 C 
HETATM    2  C8  UNL     1     -68.554 -14.862  49.773  1.00  0.00     0.160 C 
HETATM    3  O1  UNL     1     -67.979 -15.794  49.185  1.00  0.00    -0.295 OA
HETATM    4  C9  UNL     1     -70.006 -15.087  49.857  1.00  0.00     0.092 C 
HETATM    5  C10 UNL     1     -70.618 -14.609  48.578  1.00  0.00     0.032 C 
HETATM    6  C11 UNL     1     -71.925 -15.171  48.191  1.00  0.00     0.020 C 
HETATM    7  C12 UNL     1     -72.715 -14.035  47.516  1.00  0.00     0.021 C 
HETATM    8  C14 UNL     1     -72.795 -15.692  49.269  1.00  0.00     0.273 C 
HETATM    9  O3  UNL     1     -72.982 -14.665  50.271  1.00  0.00    -0.331 OA
HETATM   10  C16 UNL     1     -71.961 -14.314  51.166  1.00  0.00     0.144 C 
HETATM   11  C17 UNL     1     -70.646 -14.468  51.053  1.00  0.00    -0.009 C 
HETATM   12  C18 UNL     1     -70.164 -13.906  52.303  1.00  0.00     0.126 C 
HETATM   13  C19 UNL     1     -70.606 -14.624  53.554  1.00  0.00     0.157 C 
HETATM   14  C20 UNL     1     -69.518 -14.199  54.510  1.00  0.00     0.263 C 
HETATM   15  O5  UNL     1     -69.528 -14.461  55.734  1.00  0.00    -0.265 OA
HETATM   16  O6  UNL     1     -68.534 -13.485  53.796  1.00  0.00    -0.304 OA
HETATM   17  C21 UNL     1     -68.655 -13.995  52.458  1.00  0.00     0.130 C 
HETATM   18  C22 UNL     1     -68.151 -15.396  52.494  1.00  0.00     0.053 C 
HETATM   19  C23 UNL     1     -68.010 -13.106  51.448  1.00  0.00     0.186 C 
ENDROOT
BRANCH   1  20
HETATM   20  N2  UNL     1     -67.405 -12.826  49.126  1.00  0.00    -0.366 N 
ATOM     21  H2  UNL     1     -68.103 -12.095  48.984  1.00  0.00     0.161 HD
BRANCH  20  22
HETATM   22  C6  UNL     1     -66.269 -12.871  48.292  1.00  0.00     0.071 C 
HETATM   23  N1  UNL     1     -65.388 -11.919  48.502  1.00  0.00    -0.389 N 
ATOM     24  H12 UNL     1     -64.567 -11.952  47.897  1.00  0.00     0.157 HD
ATOM     25  H11 UNL     1     -65.559 -11.250  49.253  1.00  0.00     0.157 HD
BRANCH  22  26
HETATM   26  C5  UNL     1     -66.028 -13.822  47.225  1.00  0.00     0.075 C 
BRANCH  26  27
HETATM   27  C4  UNL     1     -66.810 -13.645  45.982  1.00  0.00     0.007 C 
BRANCH  27  28
HETATM   28  C3  UNL     1     -66.154 -13.081  44.786  1.00  0.00     0.000 C 
BRANCH  28  29
HETATM   29  C2  UNL     1     -64.688 -13.163  44.630  1.00  0.00    -0.005 C 
HETATM   30  C1  UNL     1     -64.398 -13.194  43.113  1.00  0.00     0.005 C 
ENDBRANCH  28  29
ENDBRANCH  27  28
ENDBRANCH  26  27
ENDBRANCH  22  26
ENDBRANCH  20  22
ENDBRANCH   1  20
BRANCH  19  31
HETATM   31  O7  UNL     1     -66.942 -12.416  51.988  1.00  0.00    -0.390 OA
ATOM     32  H7  UNL     1     -66.507 -11.895  51.322  1.00  0.00     0.210 HD
ENDBRANCH  19  31
BRANCH  12  33
HETATM   33  O4  UNL     1     -70.550 -12.581  52.425  1.00  0.00    -0.381 OA
ATOM     34  H4  UNL     1     -71.126 -12.467  53.171  1.00  0.00     0.211 HD
ENDBRANCH  12  33
BRANCH   6  35
HETATM   35  C13 UNL     1     -71.801 -16.235  47.111  1.00  0.00     0.128 C 
HETATM   36 CL1  UNL     1     -71.284 -17.793  47.803  1.00  0.00    -0.130 Cl
ENDBRANCH   6  35
BRANCH   8  37
HETATM   37  O2  UNL     1     -74.076 -15.899  48.760  1.00  0.00    -0.365 OA
HETATM   38  C15 UNL     1     -74.638 -17.009  49.338  1.00  0.00     0.204 C 
ENDBRANCH   8  37
TORSDOF 10
ENDMDL
MODEL 3
REMARK VINA RESULT: -7.621289746      2.613      5.298
REMARK  10 active torsions:
REMARK  status: ('A' for Active; 'I' for Inactive)
REMARK    1  A    between atoms: C2_2  and  C3_3 
REMARK    2  A    between atoms: C3_3  and  C4_4 
REMARK    3  A    between atoms: C4_4  and  C5_5 
REMARK    4  A    between atoms: C5_5  and  C6_6 
REMARK    5  A    between atoms: C6_6  and  N2_10 
REMARK    6  A    between atoms: N2_10  and  C7_12 
REMARK    7  A    between atoms: C11_17  and  C13_19 
REMARK    8  A    between atoms: C14_21  and  O2_22 
REMARK    9  A    between atoms: C18_27  and  O4_28 
REMARK   10  A    between atoms: C23_36  and  O7_37 
ROOT
HETATM    1  C7  UNL     1     -70.830 -13.972  50.023  1.00  0.00     0.185 C 
HETATM    2  C8  UNL     1     -69.494 -13.371  49.854  1.00  0.00     0.160 C 
HETATM    3  O1  UNL     1     -69.561 -12.228  49.372  1.00  0.00    -0.295 OA
HETATM    4  C9  UNL     1     -68.100 -13.773  50.107  1.00  0.00     0.092 C 
HETATM    5  C10 UNL     1     -67.542 -14.317  48.829  1.00  0.00     0.032 C 
HETATM    6  C11 UNL     1     -66.078 -14.302  48.660  1.00  0.00     0.020 C 
HETATM    7  C12 UNL     1     -65.706 -15.581  47.888  1.00  0.00     0.021 C 
HETATM    8  C14 UNL     1     -65.244 -14.304  49.882  1.00  0.00     0.273 C 
HETATM    9  O3  UNL     1     -65.627 -15.419  50.721  1.00  0.00    -0.331 OA
HETATM   10  C16 UNL     1     -66.825 -15.417  51.450  1.00  0.00     0.144 C 
HETATM   11  C17 UNL     1     -67.941 -14.725  51.241  1.00  0.00    -0.009 C 
HETATM   12  C18 UNL     1     -68.785 -15.172  52.336  1.00  0.00     0.126 C 
HETATM   13  C19 UNL     1     -68.289 -14.839  53.721  1.00  0.00     0.157 C 
HETATM   14  C20 UNL     1     -69.585 -14.882  54.492  1.00  0.00     0.263 C 
HETATM   15  O5  UNL     1     -69.656 -14.781  55.738  1.00  0.00    -0.265 OA
HETATM   16  O6  UNL     1     -70.652 -15.048  53.586  1.00  0.00    -0.304 OA
HETATM   17  C21 UNL     1     -70.143 -14.489  52.364  1.00  0.00     0.130 C 
HETATM   18  C22 UNL     1     -70.055 -13.019  52.576  1.00  0.00     0.053 C 
HETATM   19  C23 UNL     1     -70.927 -14.921  51.170  1.00  0.00     0.186 C 
ENDROOT
BRANCH   1  20
HETATM   20  N2  UNL     1     -71.240 -14.674  48.787  1.00  0.00    -0.366 N 
ATOM     21  H2  UNL     1     -70.747 -15.522  48.505  1.00  0.00     0.161 HD
BRANCH  20  22
HETATM   22  C6  UNL     1     -72.298 -14.191  47.991  1.00  0.00     0.071 C 
HETATM   23  N1  UNL     1     -73.403 -13.912  48.646  1.00  0.00    -0.389 N 
ATOM     24  H12 UNL     1     -74.169 -13.563  48.070  1.00  0.00     0.157 HD
ATOM     25  H11 UNL     1     -73.413 -14.025  49.660  1.00  0.00     0.157 HD
BRANCH  22  26
HETATM   26  C5  UNL     1     -72.283 -14.031  46.550  1.00  0.00     0.075 C 
BRANCH  26  27
HETATM   27  C4  UNL     1     -71.017 -14.350  45.855  1.00  0.00     0.007 C 
BRANCH  27  28
HETATM   28  C3  UNL     1     -70.705 -13.685  44.575  1.00  0.00     0.000 C 
BRANCH  28  29
HETATM   29  C2  UNL     1     -69.303 -13.443  44.181  1.00  0.00    -0.005 C 
HETATM   30  C1  UNL     1     -68.414 -14.037  45.297  1.00  0.00     0.005 C 
ENDBRANCH  28  29
ENDBRANCH  27  28
ENDBRANCH  26  27
ENDBRANCH  22  26
ENDBRANCH  20  22
ENDBRANCH   1  20
BRANCH  19  31
HETATM   31  O7  UNL     1     -72.248 -15.166  51.491  1.00  0.00    -0.390 OA
ATOM     32  H7  UNL     1     -72.751 -14.360  51.486  1.00  0.00     0.210 HD
ENDBRANCH  19  31
BRANCH  12  33
HETATM   33  O4  UNL     1     -68.974 -16.544  52.280  1.00  0.00    -0.381 OA
ATOM     34  H4  UNL     1     -68.993 -16.843  51.379  1.00  0.00     0.211 HD
ENDBRANCH  12  33
BRANCH   6  35
HETATM   35  C13 UNL     1     -65.610 -13.171  47.756  1.00  0.00     0.128 C 
HETATM   36 CL1  UNL     1     -64.885 -13.806  46.258  1.00  0.00    -0.130 Cl
ENDBRANCH   6  35
BRANCH   8  37
HETATM   37  O2  UNL     1     -63.924 -14.587  49.534  1.00  0.00    -0.365 OA
HETATM   38  C15 UNL     1     -63.108 -14.441  50.626  1.00  0.00     0.204 C 
ENDBRANCH   8  37
TORSDOF 10
ENDMDL
MODEL 4
REMARK VINA RESULT: -7.421264552      1.584      2.373
REMARK  10 active torsions:
REMARK  status: ('A' for Active; 'I' for Inactive)
REMARK    1  A    between atoms: C2_2  and  C3_3 
REMARK    2  A    between atoms: C3_3  and  C4_4 
REMARK    3  A    between atoms: C4_4  and  C5_5 
REMARK    4  A    between atoms: C5_5  and  C6_6 
REMARK    5  A    between atoms: C6_6  and  N2_10 
REMARK    6  A    between atoms: N2_10  and  C7_12 
REMARK    7  A    between atoms: C11_17  and  C13_19 
REMARK    8  A    between atoms: C14_21  and  O2_22 
REMARK    9  A    between atoms: C18_27  and  O4_28 
REMARK   10  A    between atoms: C23_36  and  O7_37 
ROOT
HETATM    1  C7  UNL     1     -67.580 -13.739  50.198  1.00  0.00     0.185 C 
HETATM    2  C8  UNL     1     -68.507 -14.800  49.759  1.00  0.00     0.160 C 
HETATM    3  O1  UNL     1     -67.912 -15.715  49.166  1.00  0.00    -0.295 OA
HETATM    4  C9  UNL     1     -69.955 -15.057  49.840  1.00  0.00     0.092 C 
HETATM    5  C10 UNL     1     -70.576 -14.585  48.563  1.00  0.00     0.032 C 
HETATM    6  C11 UNL     1     -71.869 -15.174  48.172  1.00  0.00     0.020 C 
HETATM    7  C12 UNL     1     -72.684 -14.051  47.503  1.00  0.00     0.021 C 
HETATM    8  C14 UNL     1     -72.729 -15.721  49.245  1.00  0.00     0.273 C 
HETATM    9  O3  UNL     1     -72.939 -14.705  50.254  1.00  0.00    -0.331 OA
HETATM   10  C16 UNL     1     -71.927 -14.336  51.152  1.00  0.00     0.144 C 
HETATM   11  C17 UNL     1     -70.608 -14.460  51.039  1.00  0.00    -0.009 C 
HETATM   12  C18 UNL     1     -70.140 -13.896  52.293  1.00  0.00     0.126 C 
HETATM   13  C19 UNL     1     -70.568 -14.631  53.539  1.00  0.00     0.157 C 
HETATM   14  C20 UNL     1     -69.490 -14.188  54.499  1.00  0.00     0.263 C 
HETATM   15  O5  UNL     1     -69.495 -14.458  55.721  1.00  0.00    -0.265 OA
HETATM   16  O6  UNL     1     -68.522 -13.448  53.790  1.00  0.00    -0.304 OA
HETATM   17  C21 UNL     1     -68.630 -13.952  52.449  1.00  0.00     0.130 C 
HETATM   18  C22 UNL     1     -68.095 -15.341  52.476  1.00  0.00     0.053 C 
HETATM   19  C23 UNL     1     -68.004 -13.043  51.446  1.00  0.00     0.186 C 
ENDROOT
BRANCH   1  20
HETATM   20  N2  UNL     1     -67.404 -12.734  49.126  1.00  0.00    -0.366 N 
ATOM     21  H2  UNL     1     -68.123 -12.027  48.979  1.00  0.00     0.161 HD
BRANCH  20  22
HETATM   22  C6  UNL     1     -66.258 -12.738  48.304  1.00  0.00     0.071 C 
HETATM   23  N1  UNL     1     -66.322 -13.543  47.267  1.00  0.00    -0.389 N 
ATOM     24  H12 UNL     1     -65.493 -13.546  46.673  1.00  0.00     0.157 HD
ATOM     25  H11 UNL     1     -67.181 -14.069  47.107  1.00  0.00     0.157 HD
BRANCH  22  26
HETATM   26  C5  UNL     1     -65.037 -11.990  48.532  1.00  0.00     0.075 C 
BRANCH  26  27
HETATM   27  C4  UNL     1     -63.798 -12.535  47.936  1.00  0.00     0.007 C 
BRANCH  27  28
HETATM   28  C3  UNL     1     -63.100 -11.768  46.886  1.00  0.00     0.000 C 
BRANCH  28  29
HETATM   29  C2  UNL     1     -62.061 -10.782  47.248  1.00  0.00    -0.005 C 
HETATM   30  C1  UNL     1     -61.716  -9.999  45.962  1.00  0.00     0.005 C 
ENDBRANCH  28  29
ENDBRANCH  27  28
ENDBRANCH  26  27
ENDBRANCH  22  26
ENDBRANCH  20  22
ENDBRANCH   1  20
BRANCH  19  31
HETATM   31  O7  UNL     1     -66.952 -12.332  51.990  1.00  0.00    -0.390 OA
ATOM     32  H7  UNL     1     -66.771 -11.553  51.478  1.00  0.00     0.210 HD
ENDBRANCH  19  31
BRANCH  12  33
HETATM   33  O4  UNL     1     -70.556 -12.580  52.423  1.00  0.00    -0.381 OA
ATOM     34  H4  UNL     1     -71.039 -12.460  53.231  1.00  0.00     0.211 HD
ENDBRANCH  12  33
BRANCH   6  35
HETATM   35  C13 UNL     1     -71.721 -16.228  47.085  1.00  0.00     0.128 C 
HETATM   36 CL1  UNL     1     -71.268 -17.804  47.780  1.00  0.00    -0.130 Cl
ENDBRANCH   6  35
BRANCH   8  37
HETATM   37  O2  UNL     1     -74.004 -15.953  48.734  1.00  0.00    -0.365 OA
HETATM   38  C15 UNL     1     -74.600 -16.987  49.410  1.00  0.00     0.204 C 
ENDBRANCH   8  37
TORSDOF 10
ENDMDL
MODEL 5
REMARK VINA RESULT: -7.375730840      2.629      5.689
REMARK  10 active torsions:
REMARK  status: ('A' for Active; 'I' for Inactive)
REMARK    1  A    between atoms: C2_2  and  C3_3 
REMARK    2  A    between atoms: C3_3  and  C4_4 
REMARK    3  A    between atoms: C4_4  and  C5_5 
REMARK    4  A    between atoms: C5_5  and  C6_6 
REMARK    5  A    between atoms: C6_6  and  N2_10 
REMARK    6  A    between atoms: N2_10  and  C7_12 
REMARK    7  A    between atoms: C11_17  and  C13_19 
REMARK    8  A    between atoms: C14_21  and  O2_22 
REMARK    9  A    between atoms: C18_27  and  O4_28 
REMARK   10  A    between atoms: C23_36  and  O7_37 
ROOT
HETATM    1  C7  UNL     1     -70.912 -13.986  50.047  1.00  0.00     0.185 C 
HETATM    2  C8  UNL     1     -69.586 -13.376  49.831  1.00  0.00     0.160 C 
HETATM    3  O1  UNL     1     -69.677 -12.241  49.334  1.00  0.00    -0.295 OA
HETATM    4  C9  UNL     1     -68.182 -13.761  50.051  1.00  0.00     0.092 C 
HETATM    5  C10 UNL     1     -67.655 -14.321  48.766  1.00  0.00     0.032 C 
HETATM    6  C11 UNL     1     -66.196 -14.295  48.556  1.00  0.00     0.020 C 
HETATM    7  C12 UNL     1     -65.835 -15.583  47.793  1.00  0.00     0.021 C 
HETATM    8  C14 UNL     1     -65.328 -14.271  49.755  1.00  0.00     0.273 C 
HETATM    9  O3  UNL     1     -65.678 -15.377  50.620  1.00  0.00    -0.331 OA
HETATM   10  C16 UNL     1     -66.855 -15.374  51.382  1.00  0.00     0.144 C 
HETATM   11  C17 UNL     1     -67.983 -14.695  51.195  1.00  0.00    -0.009 C 
HETATM   12  C18 UNL     1     -68.792 -15.132  52.319  1.00  0.00     0.126 C 
HETATM   13  C19 UNL     1     -68.260 -14.775  53.685  1.00  0.00     0.157 C 
HETATM   14  C20 UNL     1     -69.534 -14.817  54.492  1.00  0.00     0.263 C 
HETATM   15  O5  UNL     1     -69.572 -14.698  55.738  1.00  0.00    -0.265 OA
HETATM   16  O6  UNL     1     -70.625 -15.005  53.619  1.00  0.00    -0.304 OA
HETATM   17  C21 UNL     1     -70.154 -14.461  52.375  1.00  0.00     0.130 C 
HETATM   18  C22 UNL     1     -70.074 -12.987  52.562  1.00  0.00     0.053 C 
HETATM   19  C23 UNL     1     -70.968 -14.918  51.210  1.00  0.00     0.186 C 
ENDROOT
BRANCH   1  20
HETATM   20  N2  UNL     1     -71.349 -14.710  48.833  1.00  0.00    -0.366 N 
ATOM     21  H2  UNL     1     -70.685 -15.306  48.338  1.00  0.00     0.161 HD
BRANCH  20  22
HETATM   22  C6  UNL     1     -72.668 -14.591  48.348  1.00  0.00     0.071 C 
HETATM   23  N1  UNL     1     -72.980 -13.405  47.877  1.00  0.00    -0.389 N 
ATOM     24  H12 UNL     1     -73.935 -13.319  47.526  1.00  0.00     0.157 HD
ATOM     25  H11 UNL     1     -72.263 -12.680  47.860  1.00  0.00     0.157 HD
BRANCH  22  26
HETATM   26  C5  UNL     1     -73.687 -15.622  48.373  1.00  0.00     0.075 C 
BRANCH  26  27
HETATM   27  C4  UNL     1     -73.270 -16.962  48.839  1.00  0.00     0.007 C 
BRANCH  27  28
HETATM   28  C3  UNL     1     -73.453 -18.128  47.951  1.00  0.00     0.000 C 
BRANCH  28  29
HETATM   29  C2  UNL     1     -72.678 -18.241  46.699  1.00  0.00    -0.005 C 
HETATM   30  C1  UNL     1     -71.200 -17.974  47.059  1.00  0.00     0.005 C 
ENDBRANCH  28  29
ENDBRANCH  27  28
ENDBRANCH  26  27
ENDBRANCH  22  26
ENDBRANCH  20  22
ENDBRANCH   1  20
BRANCH  19  31
HETATM   31  O7  UNL     1     -72.277 -15.170  51.571  1.00  0.00    -0.390 OA
ATOM     32  H7  UNL     1     -72.503 -16.078  51.406  1.00  0.00     0.210 HD
ENDBRANCH  19  31
BRANCH  12  33
HETATM   33  O4  UNL     1     -68.970 -16.506  52.289  1.00  0.00    -0.381 OA
ATOM     34  H4  UNL     1     -68.664 -16.902  53.096  1.00  0.00     0.211 HD
ENDBRANCH  12  33
BRANCH   6  35
HETATM   35  C13 UNL     1     -65.765 -13.174  47.623  1.00  0.00     0.128 C 
HETATM   36 CL1  UNL     1     -66.414 -13.421  45.982  1.00  0.00    -0.130 Cl
ENDBRANCH   6  35
BRANCH   8  37
HETATM   37  O2  UNL     1     -64.017 -14.548  49.374  1.00  0.00    -0.365 OA
HETATM   38  C15 UNL     1     -63.177 -14.413  50.449  1.00  0.00     0.204 C 
ENDBRANCH   8  37
TORSDOF 10
ENDMDL
