MODEL 1
REMARK VINA RESULT: -8.294566918      0.000      0.000
REMARK  11 active torsions:
REMARK  status: ('A' for Active; 'I' for Inactive)
REMARK    1  A    between atoms: C3_3  and  O1_4 
REMARK    2  A    between atoms: O1_4  and  C4_5 
REMARK    3  A    between atoms: C4_5  and  C5_7 
REMARK    4  A    between atoms: C5_7  and  C6_8 
REMARK    5  A    between atoms: C6_8  and  C7_9 
REMARK    6  A    between atoms: C7_9  and  C8_10 
REMARK    7  A    between atoms: C8_10  and  C9_11 
REMARK    8  A    between atoms: C19_25  and  O4_26 
REMARK    9  A    between atoms: C20_28  and  O5_29 
REMARK   10  A    between atoms: C22_34  and  C23_35 
REMARK   11  A    between atoms: C23_35  and  O7_36 
ROOT
HETATM    1  C1  UNL     1     -67.986 -13.520  46.273  1.00  0.00     0.017 C 
HETATM    2  C2  UNL     1     -68.269 -14.358  47.243  1.00  0.00    -0.055 C 
HETATM    3  C3  UNL     1     -69.344 -15.374  47.226  1.00  0.00     0.161 C 
HETATM    4  C11 UNL     1     -69.860 -15.329  48.641  1.00  0.00     0.043 C 
HETATM    5  C12 UNL     1     -68.812 -14.572  49.469  1.00  0.00     0.006 C 
HETATM    6  C13 UNL     1     -67.610 -14.504  48.564  1.00  0.00     0.034 C 
HETATM    7  C14 UNL     1     -66.663 -13.397  48.843  1.00  0.00     0.084 C 
HETATM    8  C15 UNL     1     -65.371 -13.716  48.162  1.00  0.00    -0.012 C 
HETATM    9  N1  UNL     1     -65.195 -14.799  47.511  1.00  0.00    -0.405 N 
ATOM     10  H11 UNL     1     -64.313 -15.016  47.046  1.00  0.00     0.155 HD
ATOM     11  H12 UNL     1     -65.949 -15.483  47.439  1.00  0.00     0.155 HD
HETATM   12  C16 UNL     1     -64.270 -12.718  48.268  1.00  0.00     0.060 C 
HETATM   13  C17 UNL     1     -63.942 -12.642  49.762  1.00  0.00     0.087 C 
HETATM   14  C18 UNL     1     -65.202 -12.292  50.458  1.00  0.00     0.165 C 
HETATM   15  O3  UNL     1     -65.212 -11.321  51.191  1.00  0.00    -0.295 OA
HETATM   16  C19 UNL     1     -66.458 -13.072  50.302  1.00  0.00     0.157 C 
HETATM   17  C20 UNL     1     -66.333 -14.298  51.158  1.00  0.00     0.211 C 
HETATM   18  C21 UNL     1     -67.637 -14.807  51.693  1.00  0.00     0.170 C 
HETATM   19 CL1  UNL     1     -67.219 -16.117  52.856  1.00  0.00    -0.085 Cl
HETATM   20  O6  UNL     1     -68.371 -13.883  52.384  1.00  0.00    -0.354 OA
HETATM   21  C22 UNL     1     -69.702 -14.179  52.315  1.00  0.00     0.148 C 
HETATM   22  C24 UNL     1     -69.861 -15.428  51.477  1.00  0.00     0.043 C 
HETATM   23  C25 UNL     1     -68.544 -15.396  50.681  1.00  0.00     0.046 C 
ENDROOT
BRANCH   3  24
HETATM   24  O1  UNL     1     -70.368 -15.079  46.298  1.00  0.00    -0.311 OA
BRANCH  24  25
HETATM   25  C4  UNL     1     -71.691 -15.254  46.598  1.00  0.00     0.259 C 
HETATM   26  O2  UNL     1     -72.206 -16.394  46.528  1.00  0.00    -0.265 OA
BRANCH  25  27
HETATM   27  C5  UNL     1     -72.505 -14.086  47.006  1.00  0.00     0.111 C 
BRANCH  27  28
HETATM   28  C6  UNL     1     -73.693 -14.596  47.810  1.00  0.00     0.010 C 
BRANCH  28  29
HETATM   29  C7  UNL     1     -73.453 -14.484  49.283  1.00  0.00     0.000 C 
BRANCH  29  30
HETATM   30  C8  UNL     1     -73.370 -15.849  49.900  1.00  0.00    -0.000 C 
BRANCH  30  31
HETATM   31  C9  UNL     1     -74.489 -16.715  49.422  1.00  0.00    -0.005 C 
HETATM   32  C10 UNL     1     -73.960 -18.120  49.068  1.00  0.00     0.005 C 
ENDBRANCH  30  31
ENDBRANCH  29  30
ENDBRANCH  28  29
ENDBRANCH  27  28
ENDBRANCH  25  27
ENDBRANCH  24  25
ENDBRANCH   3  24
BRANCH  16  33
HETATM   33  O4  UNL     1     -67.502 -12.295  50.794  1.00  0.00    -0.378 OA
ATOM     34  H4  UNL     1     -67.172 -11.531  51.252  1.00  0.00     0.211 HD
ENDBRANCH  16  33
BRANCH  17  35
HETATM   35  O5  UNL     1     -65.666 -15.343  50.532  1.00  0.00    -0.388 OA
ATOM     36  H5  UNL     1     -65.786 -16.181  50.964  1.00  0.00     0.210 HD
ENDBRANCH  17  35
BRANCH  21  37
HETATM   37  C23 UNL     1     -70.351 -14.325  53.676  1.00  0.00     0.196 C 
BRANCH  37  38
HETATM   38  O7  UNL     1     -71.661 -14.772  53.605  1.00  0.00    -0.398 OA
ATOM     39  H7  UNL     1     -72.008 -15.039  54.448  1.00  0.00     0.209 HD
ENDBRANCH  37  38
ENDBRANCH  21  37
TORSDOF 11
ENDMDL
MODEL 2
REMARK VINA RESULT: -8.181280347      1.217      1.847
REMARK  11 active torsions:
REMARK  status: ('A' for Active; 'I' for Inactive)
REMARK    1  A    between atoms: C3_3  and  O1_4 
REMARK    2  A    between atoms: O1_4  and  C4_5 
REMARK    3  A    between atoms: C4_5  and  C5_7 
REMARK    4  A    between atoms: C5_7  and  C6_8 
REMARK    5  A    between atoms: C6_8  and  C7_9 
REMARK    6  A    between atoms: C7_9  and  C8_10 
REMARK    7  A    between atoms: C8_10  and  C9_11 
REMARK    8  A    between atoms: C19_25  and  O4_26 
REMARK    9  A    between atoms: C20_28  and  O5_29 
REMARK   10  A    between atoms: C22_34  and  C23_35 
REMARK   11  A    between atoms: C23_35  and  O7_36 
ROOT
HETATM    1  C1  UNL     1     -69.527 -14.524  46.430  1.00  0.00     0.017 C 
HETATM    2  C2  UNL     1     -69.342 -15.180  47.551  1.00  0.00    -0.055 C 
HETATM    3  C3  UNL     1     -70.096 -16.375  47.992  1.00  0.00     0.161 C 
HETATM    4  C11 UNL     1     -70.242 -16.141  49.473  1.00  0.00     0.043 C 
HETATM    5  C12 UNL     1     -69.251 -15.030  49.846  1.00  0.00     0.006 C 
HETATM    6  C13 UNL     1     -68.365 -14.909  48.634  1.00  0.00     0.034 C 
HETATM    7  C14 UNL     1     -67.691 -13.599  48.465  1.00  0.00     0.084 C 
HETATM    8  C15 UNL     1     -66.568 -13.782  47.496  1.00  0.00    -0.012 C 
HETATM    9  N1  UNL     1     -66.289 -14.919  46.986  1.00  0.00    -0.405 N 
ATOM     10  H11 UNL     1     -65.522 -15.044  46.324  1.00  0.00     0.155 HD
ATOM     11  H12 UNL     1     -66.839 -15.742  47.234  1.00  0.00     0.155 HD
HETATM   12  C16 UNL     1     -65.764 -12.581  47.133  1.00  0.00     0.060 C 
HETATM   13  C17 UNL     1     -65.110 -12.130  48.443  1.00  0.00     0.087 C 
HETATM   14  C18 UNL     1     -66.207 -11.907  49.412  1.00  0.00     0.165 C 
HETATM   15  O3  UNL     1     -66.283 -10.826  49.968  1.00  0.00    -0.295 OA
HETATM   16  C19 UNL     1     -67.223 -12.942  49.739  1.00  0.00     0.157 C 
HETATM   17  C20 UNL     1     -66.586 -13.909  50.692  1.00  0.00     0.211 C 
HETATM   18  C21 UNL     1     -67.546 -14.550  51.648  1.00  0.00     0.170 C 
HETATM   19 CL1  UNL     1     -66.538 -15.475  52.819  1.00  0.00    -0.085 Cl
HETATM   20  O6  UNL     1     -68.298 -13.672  52.379  1.00  0.00    -0.354 OA
HETATM   21  C22 UNL     1     -69.485 -14.241  52.739  1.00  0.00     0.148 C 
HETATM   22  C24 UNL     1     -69.524 -15.643  52.173  1.00  0.00     0.043 C 
HETATM   23  C25 UNL     1     -68.494 -15.510  51.037  1.00  0.00     0.046 C 
ENDROOT
BRANCH   3  24
HETATM   24  O1  UNL     1     -71.356 -16.495  47.365  1.00  0.00    -0.311 OA
BRANCH  24  25
HETATM   25  C4  UNL     1     -71.914 -17.712  47.088  1.00  0.00     0.259 C 
HETATM   26  O2  UNL     1     -71.222 -18.620  46.571  1.00  0.00    -0.265 OA
BRANCH  25  27
HETATM   27  C5  UNL     1     -73.342 -17.946  47.404  1.00  0.00     0.111 C 
BRANCH  27  28
HETATM   28  C6  UNL     1     -73.513 -17.852  48.914  1.00  0.00     0.010 C 
BRANCH  28  29
HETATM   29  C7  UNL     1     -74.521 -16.813  49.293  1.00  0.00     0.000 C 
BRANCH  29  30
HETATM   30  C8  UNL     1     -73.837 -15.513  49.598  1.00  0.00    -0.000 C 
BRANCH  30  31
HETATM   31  C9  UNL     1     -74.238 -14.462  48.617  1.00  0.00    -0.005 C 
HETATM   32  C10 UNL     1     -72.990 -13.880  47.920  1.00  0.00     0.005 C 
ENDBRANCH  30  31
ENDBRANCH  29  30
ENDBRANCH  28  29
ENDBRANCH  27  28
ENDBRANCH  25  27
ENDBRANCH  24  25
ENDBRANCH   3  24
BRANCH  16  33
HETATM   33  O4  UNL     1     -68.276 -12.308  50.392  1.00  0.00    -0.378 OA
ATOM     34  H4  UNL     1     -68.178 -11.364  50.363  1.00  0.00     0.211 HD
ENDBRANCH  16  33
BRANCH  17  35
HETATM   35  O5  UNL     1     -65.851 -14.904  50.060  1.00  0.00    -0.388 OA
ATOM     36  H5  UNL     1     -66.389 -15.579  49.666  1.00  0.00     0.210 HD
ENDBRANCH  17  35
BRANCH  21  37
HETATM   37  C23 UNL     1     -69.722 -14.229  54.235  1.00  0.00     0.196 C 
BRANCH  37  38
HETATM   38  O7  UNL     1     -69.481 -15.457  54.830  1.00  0.00    -0.398 OA
ATOM     39  H7  UNL     1     -68.643 -15.494  55.277  1.00  0.00     0.209 HD
ENDBRANCH  37  38
ENDBRANCH  21  37
TORSDOF 11
ENDMDL
MODEL 3
REMARK VINA RESULT: -7.936434283      0.613      1.253
REMARK  11 active torsions:
REMARK  status: ('A' for Active; 'I' for Inactive)
REMARK    1  A    between atoms: C3_3  and  O1_4 
REMARK    2  A    between atoms: O1_4  and  C4_5 
REMARK    3  A    between atoms: C4_5  and  C5_7 
REMARK    4  A    between atoms: C5_7  and  C6_8 
REMARK    5  A    between atoms: C6_8  and  C7_9 
REMARK    6  A    between atoms: C7_9  and  C8_10 
REMARK    7  A    between atoms: C8_10  and  C9_11 
REMARK    8  A    between atoms: C19_25  and  O4_26 
REMARK    9  A    between atoms: C20_28  and  O5_29 
REMARK   10  A    between atoms: C22_34  and  C23_35 
REMARK   11  A    between atoms: C23_35  and  O7_36 
ROOT
HETATM    1  C1  UNL     1     -67.994 -13.656  46.306  1.00  0.00     0.017 C 
HETATM    2  C2  UNL     1     -68.253 -14.456  47.314  1.00  0.00    -0.055 C 
HETATM    3  C3  UNL     1     -69.341 -15.457  47.371  1.00  0.00     0.161 C 
HETATM    4  C11 UNL     1     -69.804 -15.355  48.801  1.00  0.00     0.043 C 
HETATM    5  C12 UNL     1     -68.718 -14.585  49.564  1.00  0.00     0.006 C 
HETATM    6  C13 UNL     1     -67.549 -14.566  48.615  1.00  0.00     0.034 C 
HETATM    7  C14 UNL     1     -66.578 -13.464  48.822  1.00  0.00     0.084 C 
HETATM    8  C15 UNL     1     -65.316 -13.824  48.107  1.00  0.00    -0.012 C 
HETATM    9  N1  UNL     1     -65.177 -14.932  47.487  1.00  0.00    -0.405 N 
ATOM     10  H11 UNL     1     -64.316 -15.177  47.000  1.00  0.00     0.155 HD
ATOM     11  H12 UNL     1     -65.942 -15.607  47.466  1.00  0.00     0.155 HD
HETATM   12  C16 UNL     1     -64.198 -12.839  48.138  1.00  0.00     0.060 C 
HETATM   13  C17 UNL     1     -63.816 -12.716  49.616  1.00  0.00     0.087 C 
HETATM   14  C18 UNL     1     -65.045 -12.325  50.343  1.00  0.00     0.165 C 
HETATM   15  O3  UNL     1     -65.016 -11.329  51.042  1.00  0.00    -0.295 OA
HETATM   16  C19 UNL     1     -66.316 -13.092  50.260  1.00  0.00     0.157 C 
HETATM   17  C20 UNL     1     -66.176 -14.289  51.153  1.00  0.00     0.211 C 
HETATM   18  C21 UNL     1     -67.466 -14.760  51.752  1.00  0.00     0.170 C 
HETATM   19 CL1  UNL     1     -67.024 -16.035  52.944  1.00  0.00    -0.085 Cl
HETATM   20  O6  UNL     1     -68.163 -13.802  52.436  1.00  0.00    -0.354 OA
HETATM   21  C22 UNL     1     -69.499 -14.081  52.425  1.00  0.00     0.148 C 
HETATM   22  C24 UNL     1     -69.705 -15.356  51.637  1.00  0.00     0.043 C 
HETATM   23  C25 UNL     1     -68.417 -15.371  50.794  1.00  0.00     0.046 C 
ENDROOT
BRANCH   3  24
HETATM   24  O1  UNL     1     -70.394 -15.179  46.470  1.00  0.00    -0.311 OA
BRANCH  24  25
HETATM   25  C4  UNL     1     -71.659 -15.660  46.664  1.00  0.00     0.259 C 
HETATM   26  O2  UNL     1     -72.632 -14.872  46.710  1.00  0.00    -0.265 OA
BRANCH  25  27
HETATM   27  C5  UNL     1     -71.866 -17.119  46.815  1.00  0.00     0.111 C 
BRANCH  27  28
HETATM   28  C6  UNL     1     -72.252 -17.393  48.263  1.00  0.00     0.010 C 
BRANCH  28  29
HETATM   29  C7  UNL     1     -73.683 -17.814  48.384  1.00  0.00     0.000 C 
BRANCH  29  30
HETATM   30  C8  UNL     1     -74.392 -16.959  49.392  1.00  0.00    -0.000 C 
BRANCH  30  31
HETATM   31  C9  UNL     1     -73.495 -15.873  49.889  1.00  0.00    -0.005 C 
HETATM   32  C10 UNL     1     -74.157 -14.496  49.671  1.00  0.00     0.005 C 
ENDBRANCH  30  31
ENDBRANCH  29  30
ENDBRANCH  28  29
ENDBRANCH  27  28
ENDBRANCH  25  27
ENDBRANCH  24  25
ENDBRANCH   3  24
BRANCH  16  33
HETATM   33  O4  UNL     1     -67.331 -12.283  50.761  1.00  0.00    -0.378 OA
ATOM     34  H4  UNL     1     -67.854 -11.916  50.059  1.00  0.00     0.211 HD
ENDBRANCH  16  33
BRANCH  17  35
HETATM   35  O5  UNL     1     -65.546 -15.365  50.541  1.00  0.00    -0.388 OA
ATOM     36  H5  UNL     1     -65.054 -15.908  51.145  1.00  0.00     0.210 HD
ENDBRANCH  17  35
BRANCH  21  37
HETATM   37  C23 UNL     1     -70.101 -14.171  53.812  1.00  0.00     0.196 C 
BRANCH  37  38
HETATM   38  O7  UNL     1     -71.319 -14.833  53.831  1.00  0.00    -0.398 OA
ATOM     39  H7  UNL     1     -71.287 -15.679  53.400  1.00  0.00     0.209 HD
ENDBRANCH  37  38
ENDBRANCH  21  37
TORSDOF 11
ENDMDL
MODEL 4
REMARK VINA RESULT: -7.674989392      2.524      5.757
REMARK  11 active torsions:
REMARK  status: ('A' for Active; 'I' for Inactive)
REMARK    1  A    between atoms: C3_3  and  O1_4 
REMARK    2  A    between atoms: O1_4  and  C4_5 
REMARK    3  A    between atoms: C4_5  and  C5_7 
REMARK    4  A    between atoms: C5_7  and  C6_8 
REMARK    5  A    between atoms: C6_8  and  C7_9 
REMARK    6  A    between atoms: C7_9  and  C8_10 
REMARK    7  A    between atoms: C8_10  and  C9_11 
REMARK    8  A    between atoms: C19_25  and  O4_26 
REMARK    9  A    between atoms: C20_28  and  O5_29 
REMARK   10  A    between atoms: C22_34  and  C23_35 
REMARK   11  A    between atoms: C23_35  and  O7_36 
ROOT
HETATM    1  C1  UNL     1     -70.524 -15.578  49.286  1.00  0.00     0.017 C 
HETATM    2  C2  UNL     1     -69.599 -14.661  49.124  1.00  0.00    -0.055 C 
HETATM    3  C3  UNL     1     -69.200 -14.048  47.838  1.00  0.00     0.161 C 
HETATM    4  C11 UNL     1     -67.707 -13.913  47.989  1.00  0.00     0.043 C 
HETATM    5  C12 UNL     1     -67.395 -14.104  49.480  1.00  0.00     0.006 C 
HETATM    6  C13 UNL     1     -68.741 -14.019  50.150  1.00  0.00     0.034 C 
HETATM    7  C14 UNL     1     -68.842 -14.692  51.467  1.00  0.00     0.084 C 
HETATM    8  C15 UNL     1     -70.060 -14.169  52.158  1.00  0.00    -0.012 C 
HETATM    9  N1  UNL     1     -70.801 -13.268  51.640  1.00  0.00    -0.405 N 
ATOM     10  H11 UNL     1     -71.632 -12.911  52.112  1.00  0.00     0.155 HD
ATOM     11  H12 UNL     1     -70.572 -12.879  50.725  1.00  0.00     0.155 HD
HETATM   12  C16 UNL     1     -70.394 -14.737  53.494  1.00  0.00     0.060 C 
HETATM   13  C17 UNL     1     -69.215 -14.358  54.394  1.00  0.00     0.087 C 
HETATM   14  C18 UNL     1     -67.995 -14.896  53.749  1.00  0.00     0.165 C 
HETATM   15  O3  UNL     1     -67.267 -15.626  54.396  1.00  0.00    -0.295 OA
HETATM   16  C19 UNL     1     -67.619 -14.589  52.344  1.00  0.00     0.157 C 
HETATM   17  C20 UNL     1     -67.011 -13.217  52.333  1.00  0.00     0.211 C 
HETATM   18  C21 UNL     1     -65.979 -13.012  51.266  1.00  0.00     0.170 C 
HETATM   19 CL1  UNL     1     -65.240 -11.403  51.592  1.00  0.00    -0.085 Cl
HETATM   20  O6  UNL     1     -64.961 -13.926  51.272  1.00  0.00    -0.354 OA
HETATM   21  C22 UNL     1     -64.436 -14.068  50.020  1.00  0.00     0.148 C 
HETATM   22  C24 UNL     1     -65.201 -13.157  49.085  1.00  0.00     0.043 C 
HETATM   23  C25 UNL     1     -66.506 -12.978  49.881  1.00  0.00     0.046 C 
ENDROOT
BRANCH   3  24
HETATM   24  O1  UNL     1     -69.531 -14.846  46.720  1.00  0.00    -0.311 OA
BRANCH  24  25
HETATM   25  C4  UNL     1     -70.462 -14.453  45.799  1.00  0.00     0.259 C 
HETATM   26  O2  UNL     1     -71.672 -14.730  45.969  1.00  0.00    -0.265 OA
BRANCH  25  27
HETATM   27  C5  UNL     1     -70.026 -13.697  44.603  1.00  0.00     0.111 C 
BRANCH  27  28
HETATM   28  C6  UNL     1     -68.555 -14.006  44.359  1.00  0.00     0.010 C 
BRANCH  28  29
HETATM   29  C7  UNL     1     -67.707 -12.776  44.461  1.00  0.00     0.000 C 
BRANCH  29  30
HETATM   30  C8  UNL     1     -66.286 -13.094  44.103  1.00  0.00    -0.000 C 
BRANCH  30  31
HETATM   31  C9  UNL     1     -65.439 -13.182  45.330  1.00  0.00    -0.005 C 
HETATM   32  C10 UNL     1     -63.945 -13.173  44.946  1.00  0.00     0.005 C 
ENDBRANCH  30  31
ENDBRANCH  29  30
ENDBRANCH  28  29
ENDBRANCH  27  28
ENDBRANCH  25  27
ENDBRANCH  24  25
ENDBRANCH   3  24
BRANCH  16  33
HETATM   33  O4  UNL     1     -66.646 -15.505  51.957  1.00  0.00    -0.378 OA
ATOM     34  H4  UNL     1     -65.922 -15.515  52.571  1.00  0.00     0.211 HD
ENDBRANCH  16  33
BRANCH  17  35
HETATM   35  O5  UNL     1     -67.950 -12.197  52.251  1.00  0.00    -0.388 OA
ATOM     36  H5  UNL     1     -67.594 -11.339  52.448  1.00  0.00     0.210 HD
ENDBRANCH  17  35
BRANCH  21  37
HETATM   37  C23 UNL     1     -62.944 -13.808  49.966  1.00  0.00     0.196 C 
BRANCH  37  38
HETATM   38  O7  UNL     1     -62.465 -13.678  48.672  1.00  0.00    -0.398 OA
ATOM     39  H7  UNL     1     -61.566 -13.972  48.578  1.00  0.00     0.209 HD
ENDBRANCH  37  38
ENDBRANCH  21  37
TORSDOF 11
ENDMDL
MODEL 5
REMARK VINA RESULT: -7.570845789      3.019      6.978
REMARK  11 active torsions:
REMARK  status: ('A' for Active; 'I' for Inactive)
REMARK    1  A    between atoms: C3_3  and  O1_4 
REMARK    2  A    between atoms: O1_4  and  C4_5 
REMARK    3  A    between atoms: C4_5  and  C5_7 
REMARK    4  A    between atoms: C5_7  and  C6_8 
REMARK    5  A    between atoms: C6_8  and  C7_9 
REMARK    6  A    between atoms: C7_9  and  C8_10 
REMARK    7  A    between atoms: C8_10  and  C9_11 
REMARK    8  A    between atoms: C19_25  and  O4_26 
REMARK    9  A    between atoms: C20_28  and  O5_29 
REMARK   10  A    between atoms: C22_34  and  C23_35 
REMARK   11  A    between atoms: C23_35  and  O7_36 
ROOT
HETATM    1  C1  UNL     1     -65.140 -11.881  47.913  1.00  0.00     0.017 C 
HETATM    2  C2  UNL     1     -65.910 -12.909  47.641  1.00  0.00    -0.055 C 
HETATM    3  C3  UNL     1     -65.969 -13.631  46.350  1.00  0.00     0.161 C 
HETATM    4  C11 UNL     1     -67.438 -13.935  46.214  1.00  0.00     0.043 C 
HETATM    5  C12 UNL     1     -68.068 -13.706  47.595  1.00  0.00     0.006 C 
HETATM    6  C13 UNL     1     -66.886 -13.596  48.521  1.00  0.00     0.034 C 
HETATM    7  C14 UNL     1     -67.129 -12.848  49.779  1.00  0.00     0.084 C 
HETATM    8  C15 UNL     1     -66.029 -13.185  50.733  1.00  0.00    -0.012 C 
HETATM    9  N1  UNL     1     -65.106 -14.017  50.441  1.00  0.00    -0.405 N 
ATOM     10  H11 UNL     1     -64.355 -14.247  51.092  1.00  0.00     0.155 HD
ATOM     11  H12 UNL     1     -65.100 -14.477  49.530  1.00  0.00     0.155 HD
HETATM   12  C16 UNL     1     -66.037 -12.514  52.064  1.00  0.00     0.060 C 
HETATM   13  C17 UNL     1     -67.329 -12.984  52.739  1.00  0.00     0.087 C 
HETATM   14  C18 UNL     1     -68.441 -12.629  51.827  1.00  0.00     0.165 C 
HETATM   15  O3  UNL     1     -69.360 -11.960  52.261  1.00  0.00    -0.295 OA
HETATM   16  C19 UNL     1     -68.487 -13.052  50.402  1.00  0.00     0.157 C 
HETATM   17  C20 UNL     1     -68.930 -14.485  50.374  1.00  0.00     0.211 C 
HETATM   18  C21 UNL     1     -69.694 -14.867  49.143  1.00  0.00     0.170 C 
HETATM   19 CL1  UNL     1     -70.308 -16.534  49.435  1.00  0.00    -0.085 Cl
HETATM   20  O6  UNL     1     -70.783 -14.083  48.880  1.00  0.00    -0.354 OA
HETATM   21  C22 UNL     1     -71.053 -14.069  47.542  1.00  0.00     0.148 C 
HETATM   22  C24 UNL     1     -70.020 -14.928  46.847  1.00  0.00     0.043 C 
HETATM   23  C25 UNL     1     -68.894 -14.909  47.896  1.00  0.00     0.046 C 
ENDROOT
BRANCH   3  24
HETATM   24  O1  UNL     1     -65.504 -12.857  45.263  1.00  0.00    -0.311 OA
BRANCH  24  25
HETATM   25  C4  UNL     1     -64.415 -13.228  44.524  1.00  0.00     0.259 C 
HETATM   26  O2  UNL     1     -64.550 -13.546  43.319  1.00  0.00    -0.265 OA
BRANCH  25  27
HETATM   27  C5  UNL     1     -63.077 -13.249  45.160  1.00  0.00     0.111 C 
BRANCH  27  28
HETATM   28  C6  UNL     1     -62.433 -11.885  44.949  1.00  0.00     0.010 C 
BRANCH  28  29
HETATM   29  C7  UNL     1     -61.914 -11.315  46.232  1.00  0.00     0.000 C 
BRANCH  29  30
HETATM   30  C8  UNL     1     -61.730  -9.832  46.104  1.00  0.00    -0.000 C 
BRANCH  30  31
HETATM   31  C9  UNL     1     -61.095  -9.488  44.797  1.00  0.00    -0.005 C 
HETATM   32  C10 UNL     1     -60.646  -8.012  44.796  1.00  0.00     0.005 C 
ENDBRANCH  30  31
ENDBRANCH  29  30
ENDBRANCH  28  29
ENDBRANCH  27  28
ENDBRANCH  25  27
ENDBRANCH  24  25
ENDBRANCH   3  24
BRANCH  16  33
HETATM   33  O4  UNL     1     -69.452 -12.279  49.764  1.00  0.00    -0.378 OA
ATOM     34  H4  UNL     1     -69.293 -11.353  49.899  1.00  0.00     0.211 HD
ENDBRANCH  16  33
BRANCH  17  35
HETATM   35  O5  UNL     1     -67.890 -15.388  50.555  1.00  0.00    -0.388 OA
ATOM     36  H5  UNL     1     -68.181 -16.247  50.838  1.00  0.00     0.210 HD
ENDBRANCH  17  35
BRANCH  21  37
HETATM   37  C23 UNL     1     -72.466 -14.508  47.214  1.00  0.00     0.196 C 
BRANCH  37  38
HETATM   38  O7  UNL     1     -72.555 -15.856  46.903  1.00  0.00    -0.398 OA
ATOM     39  H7  UNL     1     -73.407 -16.102  46.564  1.00  0.00     0.209 HD
ENDBRANCH  37  38
ENDBRANCH  21  37
TORSDOF 11
ENDMDL
