MODEL 1
REMARK VINA RESULT: -8.991791042      0.000      0.000
REMARK  13 active torsions:
REMARK  status: ('A' for Active; 'I' for Inactive)
REMARK    1  A    between atoms: O1_1  and  C1_3 
REMARK    2  A    between atoms: C3_5  and  C4_6 
REMARK    3  A    between atoms: C4_6  and  C5_7 
REMARK    4  A    between atoms: C5_7  and  C6_8 
REMARK    5  A    between atoms: C9_12  and  C10_13 
REMARK    6  A    between atoms: C11_14  and  C12_15 
REMARK    7  A    between atoms: C12_15  and  O2_16 
REMARK    8  A    between atoms: O2_16  and  C13_17 
REMARK    9  A    between atoms: C14_19  and  C15_20 
REMARK   10  A    between atoms: C18_23  and  C19_24 
REMARK   11  A    between atoms: C25_34  and  O4_35 
REMARK   12  A    between atoms: C26_37  and  O5_38 
REMARK   13  A    between atoms: C27_40  and  O6_41 
ROOT
HETATM    1  C13 UNL     1     -71.221 -14.355  51.506  1.00  0.00     0.293 C 
HETATM    2  O3  UNL     1     -69.870 -14.392  51.100  1.00  0.00    -0.344 OA
HETATM    3  C14 UNL     1     -69.177 -13.348  51.740  1.00  0.00     0.207 C 
HETATM    4  C25 UNL     1     -68.879 -13.695  53.179  1.00  0.00     0.184 C 
HETATM    5  C26 UNL     1     -69.925 -14.702  53.624  1.00  0.00     0.183 C 
HETATM    6  C27 UNL     1     -71.236 -14.284  52.991  1.00  0.00     0.204 C 
ENDROOT
BRANCH   1   7
HETATM    7  O2  UNL     1     -71.873 -15.448  50.977  1.00  0.00    -0.347 OA
BRANCH   7   8
HETATM    8  C12 UNL     1     -72.633 -15.140  49.871  1.00  0.00     0.265 C 
BRANCH   8   9
HETATM    9  C11 UNL     1     -71.708 -14.865  48.769  1.00  0.00    -0.075 C 
HETATM   10  C10 UNL     1     -70.938 -14.622  47.872  1.00  0.00    -0.062 C 
BRANCH  10  11
HETATM   11  C9  UNL     1     -70.018 -14.307  46.806  1.00  0.00     0.051 A 
HETATM   12  C1  UNL     1     -70.441 -14.102  45.510  1.00  0.00     0.085 A 
HETATM   13  C2  UNL     1     -69.533 -13.798  44.491  1.00  0.00     0.045 A 
HETATM   14  C3  UNL     1     -68.187 -13.694  44.746  1.00  0.00    -0.055 A 
HETATM   15  C7  UNL     1     -67.775 -13.902  46.045  1.00  0.00     0.009 A 
HETATM   16  C8  UNL     1     -68.667 -14.202  47.054  1.00  0.00     0.024 A 
BRANCH  12  17
HETATM   17  O1  UNL     1     -71.797 -14.203  45.235  1.00  0.00    -0.359 OA
ATOM     18  H1  UNL     1     -72.385 -14.614  45.858  1.00  0.00     0.217 HD
ENDBRANCH  12  17
BRANCH  14  19
HETATM   19  C4  UNL     1     -67.203 -13.368  43.658  1.00  0.00     0.041 C 
BRANCH  19  20
HETATM   20  C5  UNL     1     -65.874 -12.904  44.264  1.00  0.00     0.036 C 
BRANCH  20  21
HETATM   21  C6  UNL     1     -64.798 -13.221  43.271  1.00  0.00     0.222 C 
HETATM   22  F1  UNL     1     -63.657 -13.558  44.011  1.00  0.00    -0.255 F 
ENDBRANCH  20  21
ENDBRANCH  19  20
ENDBRANCH  14  19
ENDBRANCH  10  11
ENDBRANCH   8   9
ENDBRANCH   7   8
ENDBRANCH   1   7
BRANCH   6  23
HETATM   23  O6  UNL     1     -72.239 -15.033  53.584  1.00  0.00    -0.388 OA
ATOM     24  H6  UNL     1     -73.031 -14.541  53.772  1.00  0.00     0.210 HD
ENDBRANCH   6  23
BRANCH   3  25
HETATM   25  C15 UNL     1     -67.949 -12.976  50.989  1.00  0.00     0.057 A 
HETATM   26  C16 UNL     1     -67.636 -11.670  50.676  1.00  0.00     0.031 A 
HETATM   27  C17 UNL     1     -66.487 -11.327  49.974  1.00  0.00     0.034 A 
HETATM   28  C18 UNL     1     -65.642 -12.331  49.583  1.00  0.00     0.058 A 
HETATM   29  N1  UNL     1     -65.974 -13.602  49.903  1.00  0.00    -0.300 N 
HETATM   30  N2  UNL     1     -67.064 -13.898  50.566  1.00  0.00    -0.302 N 
ATOM     31  H1  UNL     1     -65.352 -14.358  49.617  1.00  0.00     0.187 HD
ATOM     32  H2  UNL     1     -67.253 -14.879  50.772  1.00  0.00     0.186 HD
BRANCH  28  33
HETATM   33  C19 UNL     1     -64.391 -12.087  48.832  1.00  0.00    -0.008 A 
HETATM   34  C20 UNL     1     -64.439 -12.019  47.469  1.00  0.00     0.014 A 
HETATM   35  C21 UNL     1     -63.223 -11.786  46.805  1.00  0.00     0.001 A 
HETATM   36  C22 UNL     1     -62.041 -11.633  47.462  1.00  0.00     0.000 A 
HETATM   37  C23 UNL     1     -62.041 -11.709  48.835  1.00  0.00     0.001 A 
HETATM   38  C24 UNL     1     -63.201 -11.935  49.521  1.00  0.00     0.014 A 
ENDBRANCH  28  33
ENDBRANCH   3  25
BRANCH   5  39
HETATM   39  O5  UNL     1     -70.086 -14.571  55.004  1.00  0.00    -0.390 OA
ATOM     40  H5  UNL     1     -70.955 -14.223  55.165  1.00  0.00     0.210 HD
ENDBRANCH   5  39
BRANCH   4  41
HETATM   41  O4  UNL     1     -67.605 -14.214  53.355  1.00  0.00    -0.390 OA
ATOM     42  H4  UNL     1     -66.923 -13.564  53.237  1.00  0.00     0.210 HD
ENDBRANCH   4  41
TORSDOF 13
ENDMDL
MODEL 2
REMARK VINA RESULT: -8.980098986      2.530      3.341
REMARK  13 active torsions:
REMARK  status: ('A' for Active; 'I' for Inactive)
REMARK    1  A    between atoms: O1_1  and  C1_3 
REMARK    2  A    between atoms: C3_5  and  C4_6 
REMARK    3  A    between atoms: C4_6  and  C5_7 
REMARK    4  A    between atoms: C5_7  and  C6_8 
REMARK    5  A    between atoms: C9_12  and  C10_13 
REMARK    6  A    between atoms: C11_14  and  C12_15 
REMARK    7  A    between atoms: C12_15  and  O2_16 
REMARK    8  A    between atoms: O2_16  and  C13_17 
REMARK    9  A    between atoms: C14_19  and  C15_20 
REMARK   10  A    between atoms: C18_23  and  C19_24 
REMARK   11  A    between atoms: C25_34  and  O4_35 
REMARK   12  A    between atoms: C26_37  and  O5_38 
REMARK   13  A    between atoms: C27_40  and  O6_41 
ROOT
HETATM    1  C13 UNL     1     -70.503 -14.254  50.422  1.00  0.00     0.293 C 
HETATM    2  O3  UNL     1     -69.236 -14.109  51.027  1.00  0.00    -0.344 OA
HETATM    3  C14 UNL     1     -69.311 -13.091  51.995  1.00  0.00     0.207 C 
HETATM    4  C25 UNL     1     -69.988 -13.582  53.252  1.00  0.00     0.184 C 
HETATM    5  C26 UNL     1     -70.895 -14.733  52.852  1.00  0.00     0.183 C 
HETATM    6  C27 UNL     1     -71.505 -14.369  51.515  1.00  0.00     0.204 C 
ENDROOT
BRANCH   1   7
HETATM    7  O2  UNL     1     -70.463 -15.331  49.564  1.00  0.00    -0.347 OA
BRANCH   7   8
HETATM    8  C12 UNL     1     -70.804 -15.003  48.270  1.00  0.00     0.265 C 
BRANCH   8   9
HETATM    9  C11 UNL     1     -69.571 -14.624  47.577  1.00  0.00    -0.075 C 
HETATM   10  C10 UNL     1     -68.545 -14.323  47.018  1.00  0.00    -0.062 C 
BRANCH  10  11
HETATM   11  C9  UNL     1     -67.305 -13.966  46.372  1.00  0.00     0.051 A 
HETATM   12  C1  UNL     1     -67.273 -13.348  45.140  1.00  0.00     0.085 A 
HETATM   13  C2  UNL     1     -66.060 -13.010  44.531  1.00  0.00     0.045 A 
HETATM   14  C3  UNL     1     -64.858 -13.284  45.139  1.00  0.00    -0.055 A 
HETATM   15  C7  UNL     1     -64.903 -13.903  46.369  1.00  0.00     0.009 A 
HETATM   16  C8  UNL     1     -66.096 -14.238  46.975  1.00  0.00     0.024 A 
BRANCH  12  17
HETATM   17  O1  UNL     1     -68.476 -13.064  44.513  1.00  0.00    -0.359 OA
ATOM     18  H1  UNL     1     -69.018 -13.766  44.173  1.00  0.00     0.217 HD
ENDBRANCH  12  17
BRANCH  14  19
HETATM   19  C4  UNL     1     -63.550 -12.925  44.493  1.00  0.00     0.041 C 
BRANCH  19  20
HETATM   20  C5  UNL     1     -63.652 -13.068  42.970  1.00  0.00     0.036 C 
BRANCH  20  21
HETATM   21  C6  UNL     1     -63.034 -11.844  42.367  1.00  0.00     0.222 C 
HETATM   22  F1  UNL     1     -62.536 -11.081  43.431  1.00  0.00    -0.255 F 
ENDBRANCH  20  21
ENDBRANCH  19  20
ENDBRANCH  14  19
ENDBRANCH  10  11
ENDBRANCH   8   9
ENDBRANCH   7   8
ENDBRANCH   1   7
BRANCH   6  23
HETATM   23  O6  UNL     1     -72.518 -15.279  51.260  1.00  0.00    -0.388 OA
ATOM     24  H6  UNL     1     -73.288 -15.166  51.806  1.00  0.00     0.210 HD
ENDBRANCH   6  23
BRANCH   3  25
HETATM   25  C15 UNL     1     -67.969 -12.512  52.273  1.00  0.00     0.057 A 
HETATM   26  C16 UNL     1     -66.837 -12.898  51.587  1.00  0.00     0.031 A 
HETATM   27  C17 UNL     1     -65.585 -12.354  51.850  1.00  0.00     0.034 A 
HETATM   28  C18 UNL     1     -65.485 -11.401  52.828  1.00  0.00     0.058 A 
HETATM   29  N1  UNL     1     -66.611 -11.042  53.484  1.00  0.00    -0.300 N 
HETATM   30  N2  UNL     1     -67.779 -11.572  53.216  1.00  0.00    -0.302 N 
ATOM     31  H1  UNL     1     -66.549 -10.333  54.214  1.00  0.00     0.187 HD
ATOM     32  H2  UNL     1     -68.587 -11.254  53.751  1.00  0.00     0.186 HD
BRANCH  28  33
HETATM   33  C19 UNL     1     -64.207 -10.752  53.194  1.00  0.00    -0.008 A 
HETATM   34  C20 UNL     1     -63.431 -10.212  52.209  1.00  0.00     0.014 A 
HETATM   35  C21 UNL     1     -62.228  -9.609  52.611  1.00  0.00     0.001 A 
HETATM   36  C22 UNL     1     -61.831  -9.550  53.912  1.00  0.00     0.000 A 
HETATM   37  C23 UNL     1     -62.645 -10.106  54.871  1.00  0.00     0.001 A 
HETATM   38  C24 UNL     1     -63.823 -10.704  54.523  1.00  0.00     0.014 A 
ENDBRANCH  28  33
ENDBRANCH   3  25
BRANCH   5  39
HETATM   39  O5  UNL     1     -71.945 -14.790  53.769  1.00  0.00    -0.390 OA
ATOM     40  H5  UNL     1     -72.286 -15.676  53.768  1.00  0.00     0.210 HD
ENDBRANCH   5  39
BRANCH   4  41
HETATM   41  O4  UNL     1     -69.088 -13.994  54.223  1.00  0.00    -0.390 OA
ATOM     42  H4  UNL     1     -68.240 -14.227  53.864  1.00  0.00     0.210 HD
ENDBRANCH   4  41
TORSDOF 13
ENDMDL
MODEL 3
REMARK VINA RESULT: -8.897458655      2.545      3.471
REMARK  13 active torsions:
REMARK  status: ('A' for Active; 'I' for Inactive)
REMARK    1  A    between atoms: O1_1  and  C1_3 
REMARK    2  A    between atoms: C3_5  and  C4_6 
REMARK    3  A    between atoms: C4_6  and  C5_7 
REMARK    4  A    between atoms: C5_7  and  C6_8 
REMARK    5  A    between atoms: C9_12  and  C10_13 
REMARK    6  A    between atoms: C11_14  and  C12_15 
REMARK    7  A    between atoms: C12_15  and  O2_16 
REMARK    8  A    between atoms: O2_16  and  C13_17 
REMARK    9  A    between atoms: C14_19  and  C15_20 
REMARK   10  A    between atoms: C18_23  and  C19_24 
REMARK   11  A    between atoms: C25_34  and  O4_35 
REMARK   12  A    between atoms: C26_37  and  O5_38 
REMARK   13  A    between atoms: C27_40  and  O6_41 
ROOT
HETATM    1  C13 UNL     1     -70.544 -14.222  50.449  1.00  0.00     0.293 C 
HETATM    2  O3  UNL     1     -69.268 -14.086  51.038  1.00  0.00    -0.344 OA
HETATM    3  C14 UNL     1     -69.335 -13.095  52.034  1.00  0.00     0.207 C 
HETATM    4  C25 UNL     1     -69.990 -13.624  53.287  1.00  0.00     0.184 C 
HETATM    5  C26 UNL     1     -70.896 -14.769  52.870  1.00  0.00     0.183 C 
HETATM    6  C27 UNL     1     -71.528 -14.373  51.553  1.00  0.00     0.204 C 
ENDROOT
BRANCH   1   7
HETATM    7  O2  UNL     1     -70.512 -15.275  49.561  1.00  0.00    -0.347 OA
BRANCH   7   8
HETATM    8  C12 UNL     1     -70.850 -14.910  48.277  1.00  0.00     0.265 C 
BRANCH   8   9
HETATM    9  C11 UNL     1     -69.605 -14.596  47.571  1.00  0.00    -0.075 C 
HETATM   10  C10 UNL     1     -68.579 -14.321  47.000  1.00  0.00    -0.062 C 
BRANCH  10  11
HETATM   11  C9  UNL     1     -67.358 -13.967  46.319  1.00  0.00     0.051 A 
HETATM   12  C1  UNL     1     -67.358 -13.338  45.091  1.00  0.00     0.085 A 
HETATM   13  C2  UNL     1     -66.163 -13.004  44.448  1.00  0.00     0.045 A 
HETATM   14  C3  UNL     1     -64.945 -13.290  45.016  1.00  0.00    -0.055 A 
HETATM   15  C7  UNL     1     -64.956 -13.918  46.242  1.00  0.00     0.009 A 
HETATM   16  C8  UNL     1     -66.133 -14.251  46.882  1.00  0.00     0.024 A 
BRANCH  12  17
HETATM   17  O1  UNL     1     -68.579 -13.042  44.503  1.00  0.00    -0.359 OA
ATOM     18  H1  UNL     1     -69.390 -13.215  44.966  1.00  0.00     0.217 HD
ENDBRANCH  12  17
BRANCH  14  19
HETATM   19  C4  UNL     1     -63.655 -12.934  44.333  1.00  0.00     0.041 C 
BRANCH  19  20
HETATM   20  C5  UNL     1     -62.496 -12.964  45.335  1.00  0.00     0.036 C 
BRANCH  20  21
HETATM   21  C6  UNL     1     -62.130 -11.542  45.634  1.00  0.00     0.222 C 
HETATM   22  F1  UNL     1     -62.964 -11.126  46.681  1.00  0.00    -0.255 F 
ENDBRANCH  20  21
ENDBRANCH  19  20
ENDBRANCH  14  19
ENDBRANCH  10  11
ENDBRANCH   8   9
ENDBRANCH   7   8
ENDBRANCH   1   7
BRANCH   6  23
HETATM   23  O6  UNL     1     -72.540 -15.282  51.289  1.00  0.00    -0.388 OA
ATOM     24  H6  UNL     1     -72.557 -16.026  51.879  1.00  0.00     0.210 HD
ENDBRANCH   6  23
BRANCH   3  25
HETATM   25  C15 UNL     1     -67.993 -12.515  52.307  1.00  0.00     0.057 A 
HETATM   26  C16 UNL     1     -66.865 -12.889  51.606  1.00  0.00     0.031 A 
HETATM   27  C17 UNL     1     -65.613 -12.344  51.864  1.00  0.00     0.034 A 
HETATM   28  C18 UNL     1     -65.507 -11.403  52.853  1.00  0.00     0.058 A 
HETATM   29  N1  UNL     1     -66.628 -11.055  53.523  1.00  0.00    -0.300 N 
HETATM   30  N2  UNL     1     -67.797 -11.585  53.259  1.00  0.00    -0.302 N 
ATOM     31  H1  UNL     1     -66.561 -10.354  54.261  1.00  0.00     0.187 HD
ATOM     32  H2  UNL     1     -68.601 -11.276  53.805  1.00  0.00     0.186 HD
BRANCH  28  33
HETATM   33  C19 UNL     1     -64.228 -10.754  53.215  1.00  0.00    -0.008 A 
HETATM   34  C20 UNL     1     -63.834 -10.750  54.523  1.00  0.00     0.014 A 
HETATM   35  C21 UNL     1     -62.612 -10.120  54.813  1.00  0.00     0.001 A 
HETATM   36  C22 UNL     1     -61.839  -9.534  53.858  1.00  0.00     0.000 A 
HETATM   37  C23 UNL     1     -62.276  -9.562  52.554  1.00  0.00     0.001 A 
HETATM   38  C24 UNL     1     -63.458 -10.164  52.228  1.00  0.00     0.014 A 
ENDBRANCH  28  33
ENDBRANCH   3  25
BRANCH   5  39
HETATM   39  O5  UNL     1     -71.931 -14.857  53.802  1.00  0.00    -0.390 OA
ATOM     40  H5  UNL     1     -72.472 -14.083  53.711  1.00  0.00     0.210 HD
ENDBRANCH   5  39
BRANCH   4  41
HETATM   41  O4  UNL     1     -69.072 -14.055  54.233  1.00  0.00    -0.390 OA
ATOM     42  H4  UNL     1     -68.477 -14.715  53.896  1.00  0.00     0.210 HD
ENDBRANCH   4  41
TORSDOF 13
ENDMDL
MODEL 4
REMARK VINA RESULT: -8.873788827      2.578      3.605
REMARK  13 active torsions:
REMARK  status: ('A' for Active; 'I' for Inactive)
REMARK    1  A    between atoms: O1_1  and  C1_3 
REMARK    2  A    between atoms: C3_5  and  C4_6 
REMARK    3  A    between atoms: C4_6  and  C5_7 
REMARK    4  A    between atoms: C5_7  and  C6_8 
REMARK    5  A    between atoms: C9_12  and  C10_13 
REMARK    6  A    between atoms: C11_14  and  C12_15 
REMARK    7  A    between atoms: C12_15  and  O2_16 
REMARK    8  A    between atoms: O2_16  and  C13_17 
REMARK    9  A    between atoms: C14_19  and  C15_20 
REMARK   10  A    between atoms: C18_23  and  C19_24 
REMARK   11  A    between atoms: C25_34  and  O4_35 
REMARK   12  A    between atoms: C26_37  and  O5_38 
REMARK   13  A    between atoms: C27_40  and  O6_41 
ROOT
HETATM    1  C13 UNL     1     -70.545 -14.345  50.422  1.00  0.00     0.293 C 
HETATM    2  O3  UNL     1     -69.291 -14.200  51.054  1.00  0.00    -0.344 OA
HETATM    3  C14 UNL     1     -69.377 -13.156  51.994  1.00  0.00     0.207 C 
HETATM    4  C25 UNL     1     -70.091 -13.608  53.245  1.00  0.00     0.184 C 
HETATM    5  C26 UNL     1     -71.002 -14.757  52.852  1.00  0.00     0.183 C 
HETATM    6  C27 UNL     1     -71.574 -14.421  51.492  1.00  0.00     0.204 C 
ENDROOT
BRANCH   1   7
HETATM    7  O2  UNL     1     -70.498 -15.444  49.592  1.00  0.00    -0.347 OA
BRANCH   7   8
HETATM    8  C12 UNL     1     -70.818 -15.148  48.286  1.00  0.00     0.265 C 
BRANCH   8   9
HETATM    9  C11 UNL     1     -69.581 -14.744  47.613  1.00  0.00    -0.075 C 
HETATM   10  C10 UNL     1     -68.552 -14.427  47.070  1.00  0.00    -0.062 C 
BRANCH  10  11
HETATM   11  C9  UNL     1     -67.308 -14.053  46.441  1.00  0.00     0.051 A 
HETATM   12  C1  UNL     1     -66.085 -14.312  47.024  1.00  0.00     0.085 A 
HETATM   13  C2  UNL     1     -64.891 -13.942  46.398  1.00  0.00     0.045 A 
HETATM   14  C3  UNL     1     -64.894 -13.307  45.179  1.00  0.00    -0.055 A 
HETATM   15  C7  UNL     1     -66.122 -13.053  44.606  1.00  0.00     0.009 A 
HETATM   16  C8  UNL     1     -67.303 -13.416  45.219  1.00  0.00     0.024 A 
BRANCH  12  17
HETATM   17  O1  UNL     1     -66.063 -14.952  48.254  1.00  0.00    -0.359 OA
ATOM     18  H1  UNL     1     -66.559 -15.751  48.389  1.00  0.00     0.217 HD
ENDBRANCH  12  17
BRANCH  14  19
HETATM   19  C4  UNL     1     -63.617 -12.905  44.497  1.00  0.00     0.041 C 
BRANCH  19  20
HETATM   20  C5  UNL     1     -63.720 -13.148  42.987  1.00  0.00     0.036 C 
BRANCH  20  21
HETATM   21  C6  UNL     1     -63.085 -11.976  42.305  1.00  0.00     0.222 C 
HETATM   22  F1  UNL     1     -62.566 -11.156  43.316  1.00  0.00    -0.255 F 
ENDBRANCH  20  21
ENDBRANCH  19  20
ENDBRANCH  14  19
ENDBRANCH  10  11
ENDBRANCH   8   9
ENDBRANCH   7   8
ENDBRANCH   1   7
BRANCH   6  23
HETATM   23  O6  UNL     1     -72.592 -15.324  51.235  1.00  0.00    -0.388 OA
ATOM     24  H6  UNL     1     -73.289 -15.319  51.881  1.00  0.00     0.210 HD
ENDBRANCH   6  23
BRANCH   3  25
HETATM   25  C15 UNL     1     -68.036 -12.586  52.290  1.00  0.00     0.057 A 
HETATM   26  C16 UNL     1     -66.884 -13.043  51.684  1.00  0.00     0.031 A 
HETATM   27  C17 UNL     1     -65.633 -12.507  51.964  1.00  0.00     0.034 A 
HETATM   28  C18 UNL     1     -65.553 -11.489  52.876  1.00  0.00     0.058 A 
HETATM   29  N1  UNL     1     -66.698 -11.061  53.453  1.00  0.00    -0.300 N 
HETATM   30  N2  UNL     1     -67.865 -11.585  53.172  1.00  0.00    -0.302 N 
ATOM     31  H1  UNL     1     -66.651 -10.303  54.134  1.00  0.00     0.187 HD
ATOM     32  H2  UNL     1     -68.688 -11.213  53.646  1.00  0.00     0.186 HD
BRANCH  28  33
HETATM   33  C19 UNL     1     -64.277 -10.841  53.252  1.00  0.00    -0.008 A 
HETATM   34  C20 UNL     1     -63.861 -10.901  54.551  1.00  0.00     0.014 A 
HETATM   35  C21 UNL     1     -62.645 -10.269  54.855  1.00  0.00     0.001 A 
HETATM   36  C22 UNL     1     -61.896  -9.620  53.921  1.00  0.00     0.000 A 
HETATM   37  C23 UNL     1     -62.355  -9.585  52.625  1.00  0.00     0.001 A 
HETATM   38  C24 UNL     1     -63.534 -10.186  52.286  1.00  0.00     0.014 A 
ENDBRANCH  28  33
ENDBRANCH   3  25
BRANCH   5  39
HETATM   39  O5  UNL     1     -72.074 -14.779  53.745  1.00  0.00    -0.390 OA
ATOM     40  H5  UNL     1     -72.508 -15.620  53.660  1.00  0.00     0.210 HD
ENDBRANCH   5  39
BRANCH   4  41
HETATM   41  O4  UNL     1     -69.219 -14.004  54.248  1.00  0.00    -0.390 OA
ATOM     42  H4  UNL     1     -68.830 -13.271  54.710  1.00  0.00     0.210 HD
ENDBRANCH   4  41
TORSDOF 13
ENDMDL
MODEL 5
REMARK VINA RESULT: -8.785443642      1.910      2.345
REMARK  13 active torsions:
REMARK  status: ('A' for Active; 'I' for Inactive)
REMARK    1  A    between atoms: O1_1  and  C1_3 
REMARK    2  A    between atoms: C3_5  and  C4_6 
REMARK    3  A    between atoms: C4_6  and  C5_7 
REMARK    4  A    between atoms: C5_7  and  C6_8 
REMARK    5  A    between atoms: C9_12  and  C10_13 
REMARK    6  A    between atoms: C11_14  and  C12_15 
REMARK    7  A    between atoms: C12_15  and  O2_16 
REMARK    8  A    between atoms: O2_16  and  C13_17 
REMARK    9  A    between atoms: C14_19  and  C15_20 
REMARK   10  A    between atoms: C18_23  and  C19_24 
REMARK   11  A    between atoms: C25_34  and  O4_35 
REMARK   12  A    between atoms: C26_37  and  O5_38 
REMARK   13  A    between atoms: C27_40  and  O6_41 
ROOT
HETATM    1  C13 UNL     1     -70.222 -14.201  51.812  1.00  0.00     0.293 C 
HETATM    2  O3  UNL     1     -68.820 -14.050  51.868  1.00  0.00    -0.344 OA
HETATM    3  C14 UNL     1     -68.516 -12.957  52.701  1.00  0.00     0.207 C 
HETATM    4  C25 UNL     1     -68.655 -13.327  54.158  1.00  0.00     0.184 C 
HETATM    5  C26 UNL     1     -69.645 -14.476  54.236  1.00  0.00     0.183 C 
HETATM    6  C27 UNL     1     -70.724 -14.199  53.211  1.00  0.00     0.204 C 
ENDROOT
BRANCH   1   7
HETATM    7  O2  UNL     1     -70.516 -15.342  51.098  1.00  0.00    -0.347 OA
BRANCH   7   8
HETATM    8  C12 UNL     1     -71.257 -15.094  49.965  1.00  0.00     0.265 C 
BRANCH   8   9
HETATM    9  C11 UNL     1     -70.317 -14.752  48.895  1.00  0.00    -0.075 C 
HETATM   10  C10 UNL     1     -69.550 -14.451  48.014  1.00  0.00    -0.062 C 
BRANCH  10  11
HETATM   11  C9  UNL     1     -68.649 -14.073  46.952  1.00  0.00     0.051 A 
HETATM   12  C1  UNL     1     -69.068 -13.953  45.644  1.00  0.00     0.085 A 
HETATM   13  C2  UNL     1     -68.178 -13.586  44.630  1.00  0.00     0.045 A 
HETATM   14  C3  UNL     1     -66.854 -13.333  44.901  1.00  0.00    -0.055 A 
HETATM   15  C7  UNL     1     -66.448 -13.456  46.212  1.00  0.00     0.009 A 
HETATM   16  C8  UNL     1     -67.321 -13.818  47.217  1.00  0.00     0.024 A 
BRANCH  12  17
HETATM   17  O1  UNL     1     -70.400 -14.205  45.352  1.00  0.00    -0.359 OA
ATOM     18  H1  UNL     1     -70.972 -13.500  45.074  1.00  0.00     0.217 HD
ENDBRANCH  12  17
BRANCH  14  19
HETATM   19  C4  UNL     1     -65.891 -12.937  43.818  1.00  0.00     0.041 C 
BRANCH  19  20
HETATM   20  C5  UNL     1     -64.457 -13.297  44.224  1.00  0.00     0.036 C 
BRANCH  20  21
HETATM   21  C6  UNL     1     -63.595 -13.124  43.012  1.00  0.00     0.222 C 
HETATM   22  F1  UNL     1     -64.238 -12.185  42.194  1.00  0.00    -0.255 F 
ENDBRANCH  20  21
ENDBRANCH  19  20
ENDBRANCH  14  19
ENDBRANCH  10  11
ENDBRANCH   8   9
ENDBRANCH   7   8
ENDBRANCH   1   7
BRANCH   6  23
HETATM   23  O6  UNL     1     -71.756 -15.093  53.444  1.00  0.00    -0.388 OA
ATOM     24  H6  UNL     1     -71.771 -15.833  52.848  1.00  0.00     0.210 HD
ENDBRANCH   6  23
BRANCH   3  25
HETATM   25  C15 UNL     1     -67.172 -12.401  52.391  1.00  0.00     0.057 A 
HETATM   26  C16 UNL     1     -66.451 -12.777  51.277  1.00  0.00     0.031 A 
HETATM   27  C17 UNL     1     -65.195 -12.255  50.991  1.00  0.00     0.034 A 
HETATM   28  C18 UNL     1     -64.665 -11.333  51.854  1.00  0.00     0.058 A 
HETATM   29  N1  UNL     1     -65.394 -10.983  52.938  1.00  0.00    -0.300 N 
HETATM   30  N2  UNL     1     -66.576 -11.492  53.183  1.00  0.00    -0.302 N 
ATOM     31  H1  UNL     1     -65.009 -10.297  53.587  1.00  0.00     0.187 HD
ATOM     32  H2  UNL     1     -67.070 -11.183  54.020  1.00  0.00     0.186 HD
BRANCH  28  33
HETATM   33  C19 UNL     1     -63.339 -10.709  51.654  1.00  0.00    -0.008 A 
HETATM   34  C20 UNL     1     -62.887  -9.802  52.570  1.00  0.00     0.014 A 
HETATM   35  C21 UNL     1     -61.623  -9.239  52.331  1.00  0.00     0.001 A 
HETATM   36  C22 UNL     1     -60.864  -9.562  51.248  1.00  0.00     0.000 A 
HETATM   37  C23 UNL     1     -61.359 -10.480  50.352  1.00  0.00     0.001 A 
HETATM   38  C24 UNL     1     -62.584 -11.052  50.545  1.00  0.00     0.014 A 
ENDBRANCH  28  33
ENDBRANCH   3  25
BRANCH   5  39
HETATM   39  O5  UNL     1     -70.259 -14.428  55.488  1.00  0.00    -0.390 OA
ATOM     40  H5  UNL     1     -69.873 -15.108  56.029  1.00  0.00     0.210 HD
ENDBRANCH   5  39
BRANCH   4  41
HETATM   41  O4  UNL     1     -67.449 -13.690  54.738  1.00  0.00    -0.390 OA
ATOM     42  H4  UNL     1     -66.978 -12.950  55.103  1.00  0.00     0.210 HD
ENDBRANCH   4  41
TORSDOF 13
ENDMDL
