MODEL 1
REMARK VINA RESULT: -7.817875662      0.000      0.000
REMARK  8 active torsions:
REMARK  status: ('A' for Active; 'I' for Inactive)
REMARK    1  A    between atoms: C2_2  and  O1_5 
REMARK    2  A    between atoms: O1_5  and  C5_6 
REMARK       I    between atoms: C5_6  and  N1_8 
REMARK    3  A    between atoms: C9_12  and  C10_13 
REMARK    4  A    between atoms: C10_13  and  C11_14 
REMARK    5  A    between atoms: C12_17  and  C13_18 
REMARK       I    between atoms: C13_18  and  N2_20 
REMARK    6  A    between atoms: N2_20  and  C14_22 
REMARK    7  A    between atoms: C14_22  and  C15_23 
REMARK       I    between atoms: C15_23  and  N3_25 
REMARK    8  A    between atoms: N3_25  and  C16_27 
ROOT
HETATM    1  C16 UNL     1     -98.719 -14.931  44.280  1.00  0.00     0.122 A 
HETATM    2  C17 UNL     1     -97.644 -14.996  43.292  1.00  0.00     0.091 C 
HETATM    3  N4  UNL     1     -96.775 -15.031  42.508  1.00  0.00    -0.195 NA
HETATM    4  C18 UNL     1     -99.790 -15.949  44.191  1.00  0.00     0.050 A 
HETATM    5  C19 UNL     1    -100.111 -14.545  43.753  1.00  0.00     0.050 A 
ENDROOT
BRANCH   1   6
HETATM    6  N3  UNL     1     -98.330 -14.381  45.574  1.00  0.00    -0.337 N 
HETATM    7  C15 UNL     1     -97.571 -15.118  46.519  1.00  0.00     0.248 C 
HETATM    8  O6  UNL     1     -97.265 -16.299  46.097  1.00  0.00    -0.271 OA
ATOM      9  H3  UNL     1     -98.615 -13.430  45.808  1.00  0.00     0.164 HD
BRANCH   7  10
HETATM   10  C14 UNL     1     -97.122 -14.708  47.833  1.00  0.00     0.121 C 
HETATM   11  C20 UNL     1     -96.436 -13.315  47.852  1.00  0.00     0.024 C 
HETATM   12  C21 UNL     1     -95.246 -13.492  46.998  1.00  0.00     0.008 C 
HETATM   13  C24 UNL     1     -95.955 -13.802  49.230  1.00  0.00     0.015 C 
HETATM   14  C22 UNL     1     -94.707 -14.797  47.587  1.00  0.00     0.008 C 
HETATM   15  C23 UNL     1     -95.855 -15.157  48.439  1.00  0.00     0.024 C 
BRANCH  10  16
HETATM   16  N2  UNL     1     -98.190 -14.674  48.858  1.00  0.00    -0.341 N 
HETATM   17  C13 UNL     1     -98.790 -15.770  49.476  1.00  0.00     0.242 C 
HETATM   18  O5  UNL     1     -98.466 -16.945  49.189  1.00  0.00    -0.271 OA
ATOM     19  H2  UNL     1     -98.523 -13.752  49.141  1.00  0.00     0.163 HD
BRANCH  17  20
HETATM   20  C12 UNL     1     -99.870 -15.581  50.533  1.00  0.00     0.186 C 
HETATM   21  N1  UNL     1    -101.125 -15.219  49.939  1.00  0.00    -0.314 N 
HETATM   22  C5  UNL     1    -102.010 -16.229  49.510  1.00  0.00     0.364 C 
HETATM   23  C6  UNL     1    -101.518 -13.848  49.761  1.00  0.00     0.129 C 
HETATM   24  O2  UNL     1    -101.697 -17.420  49.654  1.00  0.00    -0.238 OA
HETATM   25  C7  UNL     1    -100.994 -12.933  50.834  1.00  0.00     0.020 C 
HETATM   26  C8  UNL     1     -99.553 -13.191  51.105  1.00  0.00     0.009 C 
HETATM   27  C9  UNL     1     -99.345 -14.623  51.546  1.00  0.00     0.028 C 
BRANCH  22  28
HETATM   28  O1  UNL     1    -103.240 -15.987  48.920  1.00  0.00    -0.294 OA
BRANCH  28  29
HETATM   29  C2  UNL     1    -103.622 -16.437  47.663  1.00  0.00     0.061 C 
HETATM   30  C1  UNL     1    -102.478 -16.260  46.662  1.00  0.00     0.046 C 
HETATM   31  C3  UNL     1    -104.712 -15.481  47.158  1.00  0.00     0.046 C 
HETATM   32  C4  UNL     1    -104.164 -17.816  47.597  1.00  0.00     0.046 C 
ENDBRANCH  28  29
ENDBRANCH  22  28
BRANCH  27  33
HETATM   33  C10 UNL     1     -99.868 -14.814  52.938  1.00  0.00     0.120 C 
BRANCH  33  34
HETATM   34  C11 UNL     1    -100.322 -16.160  53.270  1.00  0.00     0.172 C 
HETATM   35  O3  UNL     1     -99.533 -17.058  53.657  1.00  0.00    -0.648 OA
HETATM   36  O4  UNL     1    -101.662 -16.514  53.173  1.00  0.00    -0.648 OA
ENDBRANCH  33  34
ENDBRANCH  27  33
ENDBRANCH  17  20
ENDBRANCH  10  16
ENDBRANCH   7  10
ENDBRANCH   1   6
TORSDOF 8
ENDMDL
MODEL 2
REMARK VINA RESULT: -7.240171613      1.912      4.229
REMARK  8 active torsions:
REMARK  status: ('A' for Active; 'I' for Inactive)
REMARK    1  A    between atoms: C2_2  and  O1_5 
REMARK    2  A    between atoms: O1_5  and  C5_6 
REMARK       I    between atoms: C5_6  and  N1_8 
REMARK    3  A    between atoms: C9_12  and  C10_13 
REMARK    4  A    between atoms: C10_13  and  C11_14 
REMARK    5  A    between atoms: C12_17  and  C13_18 
REMARK       I    between atoms: C13_18  and  N2_20 
REMARK    6  A    between atoms: N2_20  and  C14_22 
REMARK    7  A    between atoms: C14_22  and  C15_23 
REMARK       I    between atoms: C15_23  and  N3_25 
REMARK    8  A    between atoms: N3_25  and  C16_27 
ROOT
HETATM    1  C16 UNL     1     -98.562 -14.940  44.386  1.00  0.00     0.122 A 
HETATM    2  C17 UNL     1     -97.532 -15.143  43.368  1.00  0.00     0.091 C 
HETATM    3  N4  UNL     1     -96.698 -15.289  42.561  1.00  0.00    -0.195 NA
HETATM    4  C18 UNL     1     -99.744 -15.830  44.346  1.00  0.00     0.050 A 
HETATM    5  C19 UNL     1     -99.916 -14.405  43.892  1.00  0.00     0.050 A 
ENDROOT
BRANCH   1   6
HETATM    6  N3  UNL     1     -98.074 -14.420  45.657  1.00  0.00    -0.337 N 
HETATM    7  C15 UNL     1     -97.466 -15.245  46.638  1.00  0.00     0.248 C 
HETATM    8  O6  UNL     1     -97.390 -16.480  46.267  1.00  0.00    -0.271 OA
ATOM      9  H3  UNL     1     -98.173 -13.422  45.850  1.00  0.00     0.164 HD
BRANCH   7  10
HETATM   10  C14 UNL     1     -96.945 -14.873  47.936  1.00  0.00     0.121 C 
HETATM   11  C20 UNL     1     -96.398 -13.420  47.996  1.00  0.00     0.024 C 
HETATM   12  C21 UNL     1     -95.277 -13.422  47.037  1.00  0.00     0.008 C 
HETATM   13  C24 UNL     1     -95.752 -13.938  49.292  1.00  0.00     0.015 C 
HETATM   14  C22 UNL     1     -94.563 -14.698  47.488  1.00  0.00     0.008 C 
HETATM   15  C23 UNL     1     -95.591 -15.225  48.404  1.00  0.00     0.024 C 
BRANCH  10  16
HETATM   16  N2  UNL     1     -97.917 -15.011  49.044  1.00  0.00    -0.341 N 
HETATM   17  C13 UNL     1     -99.307 -14.994  48.943  1.00  0.00     0.242 C 
HETATM   18  O5  UNL     1     -99.884 -14.836  47.842  1.00  0.00    -0.271 OA
ATOM     19  H2  UNL     1     -97.529 -15.131  49.980  1.00  0.00     0.163 HD
BRANCH  17  20
HETATM   20  C12 UNL     1    -100.185 -15.167  50.175  1.00  0.00     0.186 C 
HETATM   21  N1  UNL     1     -99.407 -15.531  51.325  1.00  0.00    -0.314 N 
HETATM   22  C5  UNL     1     -98.836 -14.522  52.127  1.00  0.00     0.364 C 
HETATM   23  C6  UNL     1     -99.185 -16.902  51.693  1.00  0.00     0.129 C 
HETATM   24  O2  UNL     1     -99.015 -13.331  51.834  1.00  0.00    -0.238 OA
HETATM   25  C7  UNL     1    -100.335 -17.807  51.346  1.00  0.00     0.020 C 
HETATM   26  C8  UNL     1    -100.823 -17.552  49.963  1.00  0.00     0.009 C 
HETATM   27  C9  UNL     1    -101.277 -16.116  49.819  1.00  0.00     0.028 C 
BRANCH  22  28
HETATM   28  O1  UNL     1     -98.064 -14.766  53.252  1.00  0.00    -0.294 OA
BRANCH  28  29
HETATM   29  C2  UNL     1     -98.462 -14.517  54.559  1.00  0.00     0.061 C 
HETATM   30  C1  UNL     1     -97.911 -13.172  55.038  1.00  0.00     0.046 C 
HETATM   31  C3  UNL     1     -97.754 -15.550  55.446  1.00  0.00     0.046 C 
HETATM   32  C4  UNL     1     -99.918 -14.611  54.830  1.00  0.00     0.046 C 
ENDBRANCH  28  29
ENDBRANCH  22  28
BRANCH  27  33
HETATM   33  C10 UNL     1    -102.569 -15.907  50.550  1.00  0.00     0.120 C 
BRANCH  33  34
HETATM   34  C11 UNL     1    -102.517 -15.001  51.692  1.00  0.00     0.172 C 
HETATM   35  O3  UNL     1    -102.501 -15.417  52.878  1.00  0.00    -0.648 OA
HETATM   36  O4  UNL     1    -102.482 -13.624  51.519  1.00  0.00    -0.648 OA
ENDBRANCH  33  34
ENDBRANCH  27  33
ENDBRANCH  17  20
ENDBRANCH  10  16
ENDBRANCH   7  10
ENDBRANCH   1   6
TORSDOF 8
ENDMDL
MODEL 3
REMARK VINA RESULT: -7.141074572      1.175      1.727
REMARK  8 active torsions:
REMARK  status: ('A' for Active; 'I' for Inactive)
REMARK    1  A    between atoms: C2_2  and  O1_5 
REMARK    2  A    between atoms: O1_5  and  C5_6 
REMARK       I    between atoms: C5_6  and  N1_8 
REMARK    3  A    between atoms: C9_12  and  C10_13 
REMARK    4  A    between atoms: C10_13  and  C11_14 
REMARK    5  A    between atoms: C12_17  and  C13_18 
REMARK       I    between atoms: C13_18  and  N2_20 
REMARK    6  A    between atoms: N2_20  and  C14_22 
REMARK    7  A    between atoms: C14_22  and  C15_23 
REMARK       I    between atoms: C15_23  and  N3_25 
REMARK    8  A    between atoms: N3_25  and  C16_27 
ROOT
HETATM    1  C16 UNL     1     -96.963 -15.107  44.618  1.00  0.00     0.122 A 
HETATM    2  C17 UNL     1     -98.410 -15.008  44.429  1.00  0.00     0.091 C 
HETATM    3  N4  UNL     1     -99.570 -14.944  44.291  1.00  0.00    -0.195 NA
HETATM    4  C18 UNL     1     -96.103 -14.298  43.727  1.00  0.00     0.050 A 
HETATM    5  C19 UNL     1     -96.169 -15.783  43.488  1.00  0.00     0.050 A 
ENDROOT
BRANCH   1   6
HETATM    6  N3  UNL     1     -96.543 -15.399  45.983  1.00  0.00    -0.337 N 
HETATM    7  C15 UNL     1     -96.584 -14.430  47.019  1.00  0.00     0.248 C 
HETATM    8  O6  UNL     1     -97.040 -13.291  46.614  1.00  0.00    -0.271 OA
ATOM      9  H3  UNL     1     -96.206 -16.337  46.203  1.00  0.00     0.164 HD
BRANCH   7  10
HETATM   10  C14 UNL     1     -96.195 -14.574  48.406  1.00  0.00     0.121 C 
HETATM   11  C20 UNL     1     -95.216 -13.474  48.898  1.00  0.00     0.024 C 
HETATM   12  C21 UNL     1     -94.014 -13.669  48.065  1.00  0.00     0.008 C 
HETATM   13  C24 UNL     1     -95.008 -14.467  50.053  1.00  0.00     0.015 C 
HETATM   14  C22 UNL     1     -93.852 -15.183  48.210  1.00  0.00     0.008 C 
HETATM   15  C23 UNL     1     -95.136 -15.490  48.866  1.00  0.00     0.024 C 
BRANCH  10  16
HETATM   16  N2  UNL     1     -97.330 -14.593  49.357  1.00  0.00    -0.341 N 
HETATM   17  C13 UNL     1     -98.416 -15.468  49.343  1.00  0.00     0.242 C 
HETATM   18  O5  UNL     1     -98.536 -16.353  48.466  1.00  0.00    -0.271 OA
ATOM     19  H2  UNL     1     -97.317 -13.894  50.099  1.00  0.00     0.163 HD
BRANCH  17  20
HETATM   20  C12 UNL     1     -99.506 -15.381  50.403  1.00  0.00     0.186 C 
HETATM   21  N1  UNL     1    -100.808 -15.278  49.807  1.00  0.00    -0.314 N 
HETATM   22  C5  UNL     1    -101.515 -16.450  49.469  1.00  0.00     0.364 C 
HETATM   23  C6  UNL     1    -101.424 -14.008  49.537  1.00  0.00     0.129 C 
HETATM   24  O2  UNL     1    -101.007 -17.558  49.695  1.00  0.00    -0.238 OA
HETATM   25  C7  UNL     1    -101.054 -12.941  50.529  1.00  0.00     0.020 C 
HETATM   26  C8  UNL     1     -99.588 -12.935  50.792  1.00  0.00     0.009 C 
HETATM   27  C9  UNL     1     -99.143 -14.276  51.334  1.00  0.00     0.028 C 
BRANCH  22  28
HETATM   28  O1  UNL     1    -102.771 -16.460  48.885  1.00  0.00    -0.294 OA
BRANCH  28  29
HETATM   29  C2  UNL     1    -103.016 -16.612  47.527  1.00  0.00     0.061 C 
HETATM   30  C1  UNL     1    -104.210 -15.754  47.100  1.00  0.00     0.046 C 
HETATM   31  C3  UNL     1    -103.499 -18.054  47.318  1.00  0.00     0.046 C 
HETATM   32  C4  UNL     1    -101.862 -16.387  46.623  1.00  0.00     0.046 C 
ENDBRANCH  28  29
ENDBRANCH  22  28
BRANCH  27  33
HETATM   33  C10 UNL     1     -99.618 -14.446  52.745  1.00  0.00     0.120 C 
BRANCH  33  34
HETATM   34  C11 UNL     1     -99.986 -15.802  53.136  1.00  0.00     0.172 C 
HETATM   35  O3  UNL     1     -99.137 -16.639  53.535  1.00  0.00    -0.648 OA
HETATM   36  O4  UNL     1    -101.304 -16.236  53.085  1.00  0.00    -0.648 OA
ENDBRANCH  33  34
ENDBRANCH  27  33
ENDBRANCH  17  20
ENDBRANCH  10  16
ENDBRANCH   7  10
ENDBRANCH   1   6
TORSDOF 8
ENDMDL
MODEL 4
REMARK VINA RESULT: -7.120486666      2.732      7.048
REMARK  8 active torsions:
REMARK  status: ('A' for Active; 'I' for Inactive)
REMARK    1  A    between atoms: C2_2  and  O1_5 
REMARK    2  A    between atoms: O1_5  and  C5_6 
REMARK       I    between atoms: C5_6  and  N1_8 
REMARK    3  A    between atoms: C9_12  and  C10_13 
REMARK    4  A    between atoms: C10_13  and  C11_14 
REMARK    5  A    between atoms: C12_17  and  C13_18 
REMARK       I    between atoms: C13_18  and  N2_20 
REMARK    6  A    between atoms: N2_20  and  C14_22 
REMARK    7  A    between atoms: C14_22  and  C15_23 
REMARK       I    between atoms: C15_23  and  N3_25 
REMARK    8  A    between atoms: N3_25  and  C16_27 
ROOT
HETATM    1  C16 UNL     1    -100.591 -16.171  55.910  1.00  0.00     0.122 A 
HETATM    2  C17 UNL     1    -101.440 -17.014  55.069  1.00  0.00     0.091 C 
HETATM    3  N4  UNL     1    -102.124 -17.671  54.385  1.00  0.00    -0.195 NA
HETATM    4  C18 UNL     1     -99.944 -16.807  57.079  1.00  0.00     0.050 A 
HETATM    5  C19 UNL     1    -101.105 -15.882  57.330  1.00  0.00     0.050 A 
ENDROOT
BRANCH   1   6
HETATM    6  N3  UNL     1     -99.935 -15.072  55.212  1.00  0.00    -0.337 N 
HETATM    7  C15 UNL     1     -98.769 -15.255  54.425  1.00  0.00     0.248 C 
HETATM    8  O6  UNL     1     -98.380 -16.486  54.394  1.00  0.00    -0.271 OA
ATOM      9  H3  UNL     1    -100.329 -14.135  55.293  1.00  0.00     0.164 HD
BRANCH   7  10
HETATM   10  C14 UNL     1     -98.012 -14.265  53.687  1.00  0.00     0.121 C 
HETATM   11  C20 UNL     1     -96.489 -14.291  53.988  1.00  0.00     0.024 C 
HETATM   12  C21 UNL     1     -96.404 -13.956  55.422  1.00  0.00     0.008 C 
HETATM   13  C24 UNL     1     -96.542 -12.913  53.307  1.00  0.00     0.015 C 
HETATM   14  C22 UNL     1     -97.331 -12.739  55.450  1.00  0.00     0.008 C 
HETATM   15  C23 UNL     1     -97.901 -12.853  54.095  1.00  0.00     0.024 C 
BRANCH  10  16
HETATM   16  N2  UNL     1     -98.160 -14.358  52.217  1.00  0.00    -0.341 N 
HETATM   17  C13 UNL     1     -99.336 -14.606  51.510  1.00  0.00     0.242 C 
HETATM   18  O5  UNL     1    -100.427 -14.797  52.094  1.00  0.00    -0.271 OA
ATOM     19  H2  UNL     1     -97.314 -14.227  51.663  1.00  0.00     0.163 HD
BRANCH  17  20
HETATM   20  C12 UNL     1     -99.340 -14.655  49.988  1.00  0.00     0.186 C 
HETATM   21  N1  UNL     1    -100.183 -15.710  49.501  1.00  0.00    -0.314 N 
HETATM   22  C5  UNL     1    -101.556 -15.465  49.293  1.00  0.00     0.364 C 
HETATM   23  C6  UNL     1     -99.674 -17.023  49.215  1.00  0.00     0.129 C 
HETATM   24  O2  UNL     1    -102.021 -14.340  49.527  1.00  0.00    -0.238 OA
HETATM   25  C7  UNL     1     -98.252 -17.018  48.725  1.00  0.00     0.020 C 
HETATM   26  C8  UNL     1     -97.397 -16.131  49.560  1.00  0.00     0.009 C 
HETATM   27  C9  UNL     1     -97.922 -14.712  49.535  1.00  0.00     0.028 C 
BRANCH  22  28
HETATM   28  O1  UNL     1    -102.455 -16.414  48.833  1.00  0.00    -0.294 OA
BRANCH  28  29
HETATM   29  C2  UNL     1    -102.888 -16.529  47.518  1.00  0.00     0.061 C 
HETATM   30  C1  UNL     1    -104.233 -15.822  47.335  1.00  0.00     0.046 C 
HETATM   31  C3  UNL     1    -103.209 -18.012  47.282  1.00  0.00     0.046 C 
HETATM   32  C4  UNL     1    -101.926 -16.102  46.472  1.00  0.00     0.046 C 
ENDBRANCH  28  29
ENDBRANCH  22  28
BRANCH  27  33
HETATM   33  C10 UNL     1     -97.651 -14.086  48.200  1.00  0.00     0.120 C 
BRANCH  33  34
HETATM   34  C11 UNL     1     -96.317 -13.523  48.019  1.00  0.00     0.172 C 
HETATM   35  O3  UNL     1     -95.862 -13.226  46.886  1.00  0.00    -0.648 OA
HETATM   36  O4  UNL     1     -95.481 -13.287  49.102  1.00  0.00    -0.648 OA
ENDBRANCH  33  34
ENDBRANCH  27  33
ENDBRANCH  17  20
ENDBRANCH  10  16
ENDBRANCH   7  10
ENDBRANCH   1   6
TORSDOF 8
ENDMDL
MODEL 5
REMARK VINA RESULT: -7.091466835      2.793      6.444
REMARK  8 active torsions:
REMARK  status: ('A' for Active; 'I' for Inactive)
REMARK    1  A    between atoms: C2_2  and  O1_5 
REMARK    2  A    between atoms: O1_5  and  C5_6 
REMARK       I    between atoms: C5_6  and  N1_8 
REMARK    3  A    between atoms: C9_12  and  C10_13 
REMARK    4  A    between atoms: C10_13  and  C11_14 
REMARK    5  A    between atoms: C12_17  and  C13_18 
REMARK       I    between atoms: C13_18  and  N2_20 
REMARK    6  A    between atoms: N2_20  and  C14_22 
REMARK    7  A    between atoms: C14_22  and  C15_23 
REMARK       I    between atoms: C15_23  and  N3_25 
REMARK    8  A    between atoms: N3_25  and  C16_27 
ROOT
HETATM    1  C16 UNL     1     -99.518 -15.115  44.542  1.00  0.00     0.122 A 
HETATM    2  C17 UNL     1     -98.221 -14.864  43.915  1.00  0.00     0.091 C 
HETATM    3  N4  UNL     1     -97.180 -14.648  43.426  1.00  0.00    -0.195 NA
HETATM    4  C18 UNL     1    -100.348 -16.203  43.979  1.00  0.00     0.050 A 
HETATM    5  C19 UNL     1    -100.761 -14.783  43.699  1.00  0.00     0.050 A 
ENDROOT
BRANCH   1   6
HETATM    6  N3  UNL     1     -99.584 -14.797  45.963  1.00  0.00    -0.337 N 
HETATM    7  C15 UNL     1     -99.010 -15.630  46.959  1.00  0.00     0.248 C 
HETATM    8  O6  UNL     1     -98.427 -16.669  46.460  1.00  0.00    -0.271 OA
ATOM      9  H3  UNL     1    -100.060 -13.944  46.253  1.00  0.00     0.164 HD
BRANCH   7  10
HETATM   10  C14 UNL     1     -99.003 -15.447  48.394  1.00  0.00     0.121 C 
HETATM   11  C20 UNL     1     -99.439 -16.709  49.187  1.00  0.00     0.024 C 
HETATM   12  C21 UNL     1    -100.834 -16.932  48.762  1.00  0.00     0.008 C 
HETATM   13  C24 UNL     1     -99.579 -15.690  50.330  1.00  0.00     0.015 C 
HETATM   14  C22 UNL     1    -101.374 -15.509  48.919  1.00  0.00     0.008 C 
HETATM   15  C23 UNL     1    -100.099 -14.803  49.141  1.00  0.00     0.024 C 
BRANCH  10  16
HETATM   16  N2  UNL     1     -97.696 -15.025  48.948  1.00  0.00    -0.341 N 
HETATM   17  C13 UNL     1     -96.920 -13.946  48.525  1.00  0.00     0.242 C 
HETATM   18  O5  UNL     1     -97.277 -13.210  47.577  1.00  0.00    -0.271 OA
ATOM     19  H2  UNL     1     -97.325 -15.580  49.718  1.00  0.00     0.163 HD
BRANCH  17  20
HETATM   20  C12 UNL     1     -95.597 -13.618  49.205  1.00  0.00     0.186 C 
HETATM   21  N1  UNL     1     -94.482 -14.096  48.438  1.00  0.00    -0.314 N 
HETATM   22  C5  UNL     1     -93.930 -13.283  47.428  1.00  0.00     0.364 C 
HETATM   23  C6  UNL     1     -93.901 -15.391  48.663  1.00  0.00     0.129 C 
HETATM   24  O2  UNL     1     -94.410 -12.159  47.215  1.00  0.00    -0.238 OA
HETATM   25  C7  UNL     1     -93.969 -15.835  50.099  1.00  0.00     0.020 C 
HETATM   26  C8  UNL     1     -95.321 -15.594  50.673  1.00  0.00     0.009 C 
HETATM   27  C9  UNL     1     -95.672 -14.124  50.604  1.00  0.00     0.028 C 
BRANCH  22  28
HETATM   28  O1  UNL     1     -92.861 -13.652  46.629  1.00  0.00    -0.294 OA
BRANCH  28  29
HETATM   29  C2  UNL     1     -92.950 -13.987  45.284  1.00  0.00     0.061 C 
HETATM   30  C1  UNL     1     -94.071 -15.005  45.061  1.00  0.00     0.046 C 
HETATM   31  C3  UNL     1     -91.670 -14.756  44.929  1.00  0.00     0.046 C 
HETATM   32  C4  UNL     1     -93.076 -12.856  44.333  1.00  0.00     0.046 C 
ENDBRANCH  28  29
ENDBRANCH  22  28
BRANCH  27  33
HETATM   33  C10 UNL     1     -94.867 -13.354  51.607  1.00  0.00     0.120 C 
BRANCH  33  34
HETATM   34  C11 UNL     1     -95.510 -12.172  52.169  1.00  0.00     0.172 C 
HETATM   35  O3  UNL     1     -95.183 -11.006  51.833  1.00  0.00    -0.648 OA
HETATM   36  O4  UNL     1     -96.525 -12.282  53.111  1.00  0.00    -0.648 OA
ENDBRANCH  33  34
ENDBRANCH  27  33
ENDBRANCH  17  20
ENDBRANCH  10  16
ENDBRANCH   7  10
ENDBRANCH   1   6
TORSDOF 8
ENDMDL
