MODEL 1
REMARK VINA RESULT: -8.528726312      0.000      0.000
REMARK  9 active torsions:
REMARK  status: ('A' for Active; 'I' for Inactive)
REMARK    1  A    between atoms: O1_1  and  C1_3 
REMARK    2  A    between atoms: C4_6  and  N1_7 
REMARK    3  A    between atoms: N1_7  and  C5_9 
REMARK    4  A    between atoms: C6_12  and  N3_13 
REMARK    5  A    between atoms: N3_13  and  C7_15 
REMARK    6  A    between atoms: N4_18  and  C10_19 
REMARK    7  A    between atoms: C10_19  and  C11_20 
REMARK    8  A    between atoms: C11_20  and  N5_21 
REMARK    9  A    between atoms: C21_34  and  C22_35 
ROOT
HETATM    1  C5  UNL     1    -100.188 -16.286  47.518  1.00  0.00     0.125 A 
HETATM    2  N2  UNL     1     -99.618 -15.960  48.683  1.00  0.00    -0.176 N 
ATOM      3  H2  UNL     1    -100.036 -16.326  49.539  1.00  0.00     0.186 HD
HETATM    4  C6  UNL     1     -98.508 -15.166  48.797  1.00  0.00     0.679 A 
HETATM    5  N6  UNL     1     -97.996 -14.711  47.646  1.00  0.00    -0.201 N 
ATOM      6  H6  UNL     1     -97.169 -14.115  47.683  1.00  0.00     0.183 HD
HETATM    7  C20 UNL     1     -98.527 -15.006  46.438  1.00  0.00     0.117 A 
HETATM    8  C21 UNL     1     -99.636 -15.799  46.315  1.00  0.00     0.006 A 
ENDROOT
BRANCH   4   9
HETATM    9  N3  UNL     1     -98.038 -14.907  49.968  1.00  0.00    -0.221 N 
ATOM     10  H3  UNL     1     -97.106 -14.500  50.043  1.00  0.00     0.178 HD
BRANCH   9  11
HETATM   11  C7  UNL     1     -98.776 -15.169  51.175  1.00  0.00     0.102 C 
HETATM   12  C8  UNL     1     -97.838 -15.634  52.274  1.00  0.00     0.045 C 
HETATM   13  C9  UNL     1     -98.314 -15.348  53.654  1.00  0.00     0.119 C 
HETATM   14  N4  UNL     1     -99.729 -15.262  53.736  1.00  0.00    -0.411 N 
HETATM   15  C18 UNL     1    -100.340 -14.336  52.846  1.00  0.00     0.119 C 
HETATM   16  C19 UNL     1     -99.441 -13.910  51.709  1.00  0.00     0.045 C 
BRANCH  14  17
HETATM   17  C10 UNL     1    -100.293 -15.274  55.034  1.00  0.00     0.136 C 
BRANCH  17  18
HETATM   18  C11 UNL     1    -100.160 -16.575  55.747  1.00  0.00     0.136 C 
BRANCH  18  19
HETATM   19  N5  UNL     1    -101.403 -17.152  56.150  1.00  0.00    -0.408 N 
HETATM   20  C12 UNL     1    -101.303 -18.216  57.072  1.00  0.00     0.123 C 
HETATM   21  C13 UNL     1    -102.538 -19.018  57.273  1.00  0.00     0.029 C 
HETATM   22  C14 UNL     1    -102.679 -19.956  56.079  1.00  0.00     0.174 C 
HETATM   23  C16 UNL     1    -103.738 -18.096  57.019  1.00  0.00     0.042 C 
HETATM   24  O2  UNL     1    -103.511 -19.355  55.166  1.00  0.00    -0.384 OA
HETATM   25  C15 UNL     1    -103.623 -18.006  55.492  1.00  0.00     0.139 C 
HETATM   26  C17 UNL     1    -102.388 -17.252  55.131  1.00  0.00     0.149 C 
ENDBRANCH  18  19
ENDBRANCH  17  18
ENDBRANCH  14  17
ENDBRANCH   9  11
ENDBRANCH   4   9
BRANCH   1  27
HETATM   27  N1  UNL     1    -101.218 -17.008  47.387  1.00  0.00    -0.371 N 
ATOM     28  H1  UNL     1    -101.076 -17.841  46.816  1.00  0.00     0.161 HD
BRANCH  27  29
HETATM   29  C4  UNL     1    -102.533 -16.866  47.893  1.00  0.00     0.083 C 
HETATM   30  C3  UNL     1    -103.142 -15.510  47.795  1.00  0.00     0.028 C 
HETATM   31  C2  UNL     1    -104.556 -15.516  47.275  1.00  0.00     0.034 C 
HETATM   32  C1  UNL     1    -105.433 -16.498  48.008  1.00  0.00     0.118 C 
HETATM   33  C27 UNL     1    -104.757 -17.853  48.119  1.00  0.00     0.034 C 
HETATM   34  C26 UNL     1    -103.502 -17.858  47.271  1.00  0.00     0.028 C 
BRANCH  32  35
HETATM   35  O1  UNL     1    -105.835 -16.056  49.263  1.00  0.00    -0.396 OA
ATOM     36  H1  UNL     1    -106.389 -16.675  49.725  1.00  0.00     0.210 HD
ENDBRANCH  32  35
ENDBRANCH  27  29
ENDBRANCH   1  27
BRANCH   8  37
HETATM   37  C22 UNL     1    -100.271 -16.169  45.030  1.00  0.00     0.024 C 
HETATM   38  C23 UNL     1    -101.480 -15.387  44.605  1.00  0.00     0.009 C 
HETATM   39  C24 UNL     1    -100.545 -14.431  43.872  1.00  0.00     0.001 C 
HETATM   40  C25 UNL     1     -99.563 -15.609  43.808  1.00  0.00     0.009 C 
ENDBRANCH   8  37
TORSDOF 9
ENDMDL
MODEL 2
REMARK VINA RESULT: -8.253257635      4.594      9.885
REMARK  9 active torsions:
REMARK  status: ('A' for Active; 'I' for Inactive)
REMARK    1  A    between atoms: O1_1  and  C1_3 
REMARK    2  A    between atoms: C4_6  and  N1_7 
REMARK    3  A    between atoms: N1_7  and  C5_9 
REMARK    4  A    between atoms: C6_12  and  N3_13 
REMARK    5  A    between atoms: N3_13  and  C7_15 
REMARK    6  A    between atoms: N4_18  and  C10_19 
REMARK    7  A    between atoms: C10_19  and  C11_20 
REMARK    8  A    between atoms: C11_20  and  N5_21 
REMARK    9  A    between atoms: C21_34  and  C22_35 
ROOT
HETATM    1  C5  UNL     1    -100.463 -16.062  47.583  1.00  0.00     0.125 A 
HETATM    2  N2  UNL     1     -99.659 -15.477  46.689  1.00  0.00    -0.176 N 
ATOM      3  H2  UNL     1     -98.734 -15.182  46.999  1.00  0.00     0.186 HD
HETATM    4  C6  UNL     1    -100.002 -15.251  45.381  1.00  0.00     0.679 A 
HETATM    5  N6  UNL     1    -101.227 -15.657  45.022  1.00  0.00    -0.201 N 
ATOM      6  H6  UNL     1    -101.526 -15.509  44.058  1.00  0.00     0.183 HD
HETATM    7  C20 UNL     1    -102.085 -16.255  45.880  1.00  0.00     0.117 A 
HETATM    8  C21 UNL     1    -101.749 -16.484  47.188  1.00  0.00     0.006 A 
ENDROOT
BRANCH   4   9
HETATM    9  N3  UNL     1     -99.156 -14.676  44.600  1.00  0.00    -0.221 N 
ATOM     10  H3  UNL     1     -99.449 -13.844  44.089  1.00  0.00     0.178 HD
BRANCH   9  11
HETATM   11  C7  UNL     1     -97.814 -15.160  44.419  1.00  0.00     0.102 C 
HETATM   12  C8  UNL     1     -97.361 -14.932  42.988  1.00  0.00     0.045 C 
HETATM   13  C9  UNL     1     -95.889 -14.799  42.820  1.00  0.00     0.119 C 
HETATM   14  N4  UNL     1     -95.161 -15.473  43.836  1.00  0.00    -0.411 N 
HETATM   15  C18 UNL     1     -95.497 -15.117  45.171  1.00  0.00     0.119 C 
HETATM   16  C19 UNL     1     -96.822 -14.402  45.289  1.00  0.00     0.045 C 
BRANCH  14  17
HETATM   17  C10 UNL     1     -93.773 -15.645  43.616  1.00  0.00     0.136 C 
BRANCH  17  18
HETATM   18  C11 UNL     1     -93.122 -14.513  42.899  1.00  0.00     0.136 C 
BRANCH  18  19
HETATM   19  N5  UNL     1     -92.682 -13.455  43.752  1.00  0.00    -0.408 N 
HETATM   20  C12 UNL     1     -92.249 -13.854  45.035  1.00  0.00     0.123 C 
HETATM   21  C13 UNL     1     -92.075 -12.763  46.029  1.00  0.00     0.029 C 
HETATM   22  C14 UNL     1     -93.460 -12.366  46.528  1.00  0.00     0.174 C 
HETATM   23  C16 UNL     1     -91.704 -11.488  45.259  1.00  0.00     0.042 C 
HETATM   24  O2  UNL     1     -93.884 -11.291  45.786  1.00  0.00    -0.384 OA
HETATM   25  C15 UNL     1     -93.081 -11.192  44.653  1.00  0.00     0.139 C 
HETATM   26  C17 UNL     1     -93.418 -12.244  43.651  1.00  0.00     0.149 C 
ENDBRANCH  18  19
ENDBRANCH  17  18
ENDBRANCH  14  17
ENDBRANCH   9  11
ENDBRANCH   4   9
BRANCH   1  27
HETATM   27  N1  UNL     1    -100.174 -16.272  48.796  1.00  0.00    -0.371 N 
ATOM     28  H1  UNL     1    -100.011 -17.252  49.024  1.00  0.00     0.161 HD
BRANCH  27  29
HETATM   29  C4  UNL     1    -100.035 -15.388  49.893  1.00  0.00     0.083 C 
HETATM   30  C3  UNL     1    -100.627 -14.030  49.734  1.00  0.00     0.028 C 
HETATM   31  C2  UNL     1    -101.432 -13.576  50.924  1.00  0.00     0.034 C 
HETATM   32  C1  UNL     1    -100.680 -13.737  52.221  1.00  0.00     0.118 C 
HETATM   33  C27 UNL     1    -100.061 -15.120  52.322  1.00  0.00     0.034 C 
HETATM   34  C26 UNL     1    -100.572 -15.982  51.186  1.00  0.00     0.028 C 
BRANCH  32  35
HETATM   35  O1  UNL     1     -99.713 -12.760  52.429  1.00  0.00    -0.396 OA
ATOM     36  H1  UNL     1     -99.634 -12.491  53.337  1.00  0.00     0.210 HD
ENDBRANCH  32  35
ENDBRANCH  27  29
ENDBRANCH   1  27
BRANCH   8  37
HETATM   37  C22 UNL     1    -102.631 -17.135  48.183  1.00  0.00     0.024 C 
HETATM   38  C23 UNL     1    -103.571 -16.255  48.955  1.00  0.00     0.009 C 
HETATM   39  C24 UNL     1    -104.613 -16.496  47.869  1.00  0.00     0.001 C 
HETATM   40  C25 UNL     1    -103.857 -17.800  47.581  1.00  0.00     0.009 C 
ENDBRANCH   8  37
TORSDOF 9
ENDMDL
MODEL 3
REMARK VINA RESULT: -7.920308683      5.196     10.519
REMARK  9 active torsions:
REMARK  status: ('A' for Active; 'I' for Inactive)
REMARK    1  A    between atoms: O1_1  and  C1_3 
REMARK    2  A    between atoms: C4_6  and  N1_7 
REMARK    3  A    between atoms: N1_7  and  C5_9 
REMARK    4  A    between atoms: C6_12  and  N3_13 
REMARK    5  A    between atoms: N3_13  and  C7_15 
REMARK    6  A    between atoms: N4_18  and  C10_19 
REMARK    7  A    between atoms: C10_19  and  C11_20 
REMARK    8  A    between atoms: C11_20  and  N5_21 
REMARK    9  A    between atoms: C21_34  and  C22_35 
ROOT
HETATM    1  C5  UNL     1    -100.642 -16.102  47.667  1.00  0.00     0.125 A 
HETATM    2  N2  UNL     1     -99.820 -15.526  46.784  1.00  0.00    -0.176 N 
ATOM      3  H2  UNL     1     -98.903 -15.224  47.110  1.00  0.00     0.186 HD
HETATM    4  C6  UNL     1    -100.135 -15.317  45.467  1.00  0.00     0.679 A 
HETATM    5  N6  UNL     1    -101.351 -15.731  45.085  1.00  0.00    -0.201 N 
ATOM      6  H6  UNL     1    -101.629 -15.595  44.114  1.00  0.00     0.183 HD
HETATM    7  C20 UNL     1    -102.226 -16.321  45.932  1.00  0.00     0.117 A 
HETATM    8  C21 UNL     1    -101.918 -16.534  47.249  1.00  0.00     0.006 A 
ENDROOT
BRANCH   4   9
HETATM    9  N3  UNL     1     -99.274 -14.748  44.697  1.00  0.00    -0.221 N 
ATOM     10  H3  UNL     1     -99.557 -13.920  44.173  1.00  0.00     0.178 HD
BRANCH   9  11
HETATM   11  C7  UNL     1     -97.929 -15.234  44.546  1.00  0.00     0.102 C 
HETATM   12  C8  UNL     1     -97.503 -15.157  43.091  1.00  0.00     0.045 C 
HETATM   13  C9  UNL     1     -96.035 -15.027  42.884  1.00  0.00     0.119 C 
HETATM   14  N4  UNL     1     -95.282 -15.579  43.954  1.00  0.00    -0.411 N 
HETATM   15  C18 UNL     1     -95.601 -15.085  45.248  1.00  0.00     0.119 C 
HETATM   16  C19 UNL     1     -96.934 -14.376  45.311  1.00  0.00     0.045 C 
BRANCH  14  17
HETATM   17  C10 UNL     1     -93.896 -15.758  43.729  1.00  0.00     0.136 C 
BRANCH  17  18
HETATM   18  C11 UNL     1     -93.281 -14.731  42.842  1.00  0.00     0.136 C 
BRANCH  18  19
HETATM   19  N5  UNL     1     -92.682 -13.638  43.538  1.00  0.00    -0.408 N 
HETATM   20  C12 UNL     1     -93.464 -12.464  43.605  1.00  0.00     0.123 C 
HETATM   21  C13 UNL     1     -92.754 -11.237  44.053  1.00  0.00     0.029 C 
HETATM   22  C14 UNL     1     -91.933 -10.723  42.876  1.00  0.00     0.174 C 
HETATM   23  C16 UNL     1     -91.618 -11.672  44.988  1.00  0.00     0.042 C 
HETATM   24  O2  UNL     1     -90.656 -11.213  43.005  1.00  0.00    -0.384 OA
HETATM   25  C15 UNL     1     -90.675 -12.255  43.929  1.00  0.00     0.139 C 
HETATM   26  C17 UNL     1     -91.282 -13.488  43.349  1.00  0.00     0.149 C 
ENDBRANCH  18  19
ENDBRANCH  17  18
ENDBRANCH  14  17
ENDBRANCH   9  11
ENDBRANCH   4   9
BRANCH   1  27
HETATM   27  N1  UNL     1    -100.378 -16.297  48.889  1.00  0.00    -0.371 N 
ATOM     28  H1  UNL     1    -100.256 -17.278  49.140  1.00  0.00     0.161 HD
BRANCH  27  29
HETATM   29  C4  UNL     1    -100.223 -15.395  49.969  1.00  0.00     0.083 C 
HETATM   30  C3  UNL     1    -100.683 -13.997  49.741  1.00  0.00     0.028 C 
HETATM   31  C2  UNL     1    -101.509 -13.439  50.871  1.00  0.00     0.034 C 
HETATM   32  C1  UNL     1    -100.847 -13.625  52.213  1.00  0.00     0.118 C 
HETATM   33  C27 UNL     1    -100.359 -15.052  52.385  1.00  0.00     0.034 C 
HETATM   34  C26 UNL     1    -100.880 -15.901  51.243  1.00  0.00     0.028 C 
BRANCH  32  35
HETATM   35  O1  UNL     1     -99.811 -12.730  52.452  1.00  0.00    -0.396 OA
ATOM     36  H1  UNL     1     -99.952 -12.178  53.213  1.00  0.00     0.210 HD
ENDBRANCH  32  35
ENDBRANCH  27  29
ENDBRANCH   1  27
BRANCH   8  37
HETATM   37  C22 UNL     1    -102.819 -17.176  48.233  1.00  0.00     0.024 C 
HETATM   38  C23 UNL     1    -103.764 -16.286  48.989  1.00  0.00     0.009 C 
HETATM   39  C24 UNL     1    -104.792 -16.524  47.887  1.00  0.00     0.001 C 
HETATM   40  C25 UNL     1    -104.040 -17.834  47.615  1.00  0.00     0.009 C 
ENDBRANCH   8  37
TORSDOF 9
ENDMDL
MODEL 4
REMARK VINA RESULT: -7.890953592      4.615     10.063
REMARK  9 active torsions:
REMARK  status: ('A' for Active; 'I' for Inactive)
REMARK    1  A    between atoms: O1_1  and  C1_3 
REMARK    2  A    between atoms: C4_6  and  N1_7 
REMARK    3  A    between atoms: N1_7  and  C5_9 
REMARK    4  A    between atoms: C6_12  and  N3_13 
REMARK    5  A    between atoms: N3_13  and  C7_15 
REMARK    6  A    between atoms: N4_18  and  C10_19 
REMARK    7  A    between atoms: C10_19  and  C11_20 
REMARK    8  A    between atoms: C11_20  and  N5_21 
REMARK    9  A    between atoms: C21_34  and  C22_35 
ROOT
HETATM    1  C5  UNL     1    -100.658 -16.232  47.623  1.00  0.00     0.125 A 
HETATM    2  N2  UNL     1     -99.839 -15.624  46.759  1.00  0.00    -0.176 N 
ATOM      3  H2  UNL     1     -98.904 -15.374  47.081  1.00  0.00     0.186 HD
HETATM    4  C6  UNL     1    -100.179 -15.315  45.468  1.00  0.00     0.679 A 
HETATM    5  N6  UNL     1    -101.417 -15.663  45.092  1.00  0.00    -0.201 N 
ATOM      6  H6  UNL     1    -101.714 -15.453  44.139  1.00  0.00     0.183 HD
HETATM    7  C20 UNL     1    -102.290 -16.281  45.920  1.00  0.00     0.117 A 
HETATM    8  C21 UNL     1    -101.958 -16.592  47.211  1.00  0.00     0.006 A 
ENDROOT
BRANCH   4   9
HETATM    9  N3  UNL     1     -99.318 -14.724  44.715  1.00  0.00    -0.221 N 
ATOM     10  H3  UNL     1     -99.600 -13.880  44.217  1.00  0.00     0.178 HD
BRANCH   9  11
HETATM   11  C7  UNL     1     -97.973 -15.206  44.548  1.00  0.00     0.102 C 
HETATM   12  C8  UNL     1     -97.507 -14.979  43.122  1.00  0.00     0.045 C 
HETATM   13  C9  UNL     1     -96.033 -14.844  42.968  1.00  0.00     0.119 C 
HETATM   14  N4  UNL     1     -95.314 -15.514  43.992  1.00  0.00    -0.411 N 
HETATM   15  C18 UNL     1     -95.664 -15.157  45.323  1.00  0.00     0.119 C 
HETATM   16  C19 UNL     1     -96.992 -14.444  45.426  1.00  0.00     0.045 C 
BRANCH  14  17
HETATM   17  C10 UNL     1     -93.924 -15.684  43.786  1.00  0.00     0.136 C 
BRANCH  17  18
HETATM   18  C11 UNL     1     -93.275 -14.571  43.039  1.00  0.00     0.136 C 
BRANCH  18  19
HETATM   19  N5  UNL     1     -92.794 -13.511  43.866  1.00  0.00    -0.408 N 
HETATM   20  C12 UNL     1     -92.384 -13.896  45.161  1.00  0.00     0.123 C 
HETATM   21  C13 UNL     1     -92.166 -12.788  46.128  1.00  0.00     0.029 C 
HETATM   22  C14 UNL     1     -93.535 -12.320  46.610  1.00  0.00     0.174 C 
HETATM   23  C16 UNL     1     -91.738 -11.551  45.329  1.00  0.00     0.042 C 
HETATM   24  O2  UNL     1     -93.910 -11.247  45.839  1.00  0.00    -0.384 OA
HETATM   25  C15 UNL     1     -93.098 -11.211  44.708  1.00  0.00     0.139 C 
HETATM   26  C17 UNL     1     -93.476 -12.273  43.731  1.00  0.00     0.149 C 
ENDBRANCH  18  19
ENDBRANCH  17  18
ENDBRANCH  14  17
ENDBRANCH   9  11
ENDBRANCH   4   9
BRANCH   1  27
HETATM   27  N1  UNL     1    -100.372 -16.517  48.821  1.00  0.00    -0.371 N 
ATOM     28  H1  UNL     1    -101.180 -16.726  49.407  1.00  0.00     0.161 HD
BRANCH  27  29
HETATM   29  C4  UNL     1     -99.128 -16.600  49.494  1.00  0.00     0.083 C 
HETATM   30  C3  UNL     1     -98.014 -17.258  48.756  1.00  0.00     0.028 C 
HETATM   31  C2  UNL     1     -96.715 -16.498  48.818  1.00  0.00     0.034 C 
HETATM   32  C1  UNL     1     -96.338 -16.119  50.228  1.00  0.00     0.118 C 
HETATM   33  C27 UNL     1     -97.514 -15.490  50.954  1.00  0.00     0.034 C 
HETATM   34  C26 UNL     1     -98.637 -15.242  49.968  1.00  0.00     0.028 C 
BRANCH  32  35
HETATM   35  O1  UNL     1     -95.823 -17.176  50.970  1.00  0.00    -0.396 OA
ATOM     36  H1  UNL     1     -95.204 -17.712  50.489  1.00  0.00     0.210 HD
ENDBRANCH  32  35
ENDBRANCH  27  29
ENDBRANCH   1  27
BRANCH   8  37
HETATM   37  C22 UNL     1    -102.857 -17.270  48.173  1.00  0.00     0.024 C 
HETATM   38  C23 UNL     1    -103.773 -16.406  48.991  1.00  0.00     0.009 C 
HETATM   39  C24 UNL     1    -104.821 -16.565  47.894  1.00  0.00     0.001 C 
HETATM   40  C25 UNL     1    -104.099 -17.871  47.540  1.00  0.00     0.009 C 
ENDBRANCH   8  37
TORSDOF 9
ENDMDL
MODEL 5
REMARK VINA RESULT: -7.887721167      5.289     10.815
REMARK  9 active torsions:
REMARK  status: ('A' for Active; 'I' for Inactive)
REMARK    1  A    between atoms: O1_1  and  C1_3 
REMARK    2  A    between atoms: C4_6  and  N1_7 
REMARK    3  A    between atoms: N1_7  and  C5_9 
REMARK    4  A    between atoms: C6_12  and  N3_13 
REMARK    5  A    between atoms: N3_13  and  C7_15 
REMARK    6  A    between atoms: N4_18  and  C10_19 
REMARK    7  A    between atoms: C10_19  and  C11_20 
REMARK    8  A    between atoms: C11_20  and  N5_21 
REMARK    9  A    between atoms: C21_34  and  C22_35 
ROOT
HETATM    1  C5  UNL     1    -100.097 -16.016  47.591  1.00  0.00     0.125 A 
HETATM    2  N2  UNL     1     -99.250 -15.426  46.740  1.00  0.00    -0.176 N 
ATOM      3  H2  UNL     1     -98.354 -15.103  47.105  1.00  0.00     0.186 HD
HETATM    4  C6  UNL     1     -99.513 -15.230  45.410  1.00  0.00     0.679 A 
HETATM    5  N6  UNL     1    -100.702 -15.672  44.979  1.00  0.00    -0.201 N 
ATOM      6  H6  UNL     1    -100.941 -15.546  43.996  1.00  0.00     0.183 HD
HETATM    7  C20 UNL     1    -101.599 -16.276  45.791  1.00  0.00     0.117 A 
HETATM    8  C21 UNL     1    -101.344 -16.476  47.121  1.00  0.00     0.006 A 
ENDROOT
BRANCH   4   9
HETATM    9  N3  UNL     1     -98.631 -14.646  44.675  1.00  0.00    -0.221 N 
ATOM     10  H3  UNL     1     -98.873 -13.762  44.229  1.00  0.00     0.178 HD
BRANCH   9  11
HETATM   11  C7  UNL     1     -97.318 -15.193  44.457  1.00  0.00     0.102 C 
HETATM   12  C8  UNL     1     -96.937 -15.076  42.993  1.00  0.00     0.045 C 
HETATM   13  C9  UNL     1     -95.472 -15.010  42.739  1.00  0.00     0.119 C 
HETATM   14  N4  UNL     1     -94.714 -15.644  43.759  1.00  0.00    -0.411 N 
HETATM   15  C18 UNL     1     -94.964 -15.189  45.083  1.00  0.00     0.119 C 
HETATM   16  C19 UNL     1     -96.256 -14.417  45.221  1.00  0.00     0.045 C 
BRANCH  14  17
HETATM   17  C10 UNL     1     -93.347 -15.883  43.479  1.00  0.00     0.136 C 
BRANCH  17  18
HETATM   18  C11 UNL     1     -92.410 -14.938  44.149  1.00  0.00     0.136 C 
BRANCH  18  19
HETATM   19  N5  UNL     1     -92.020 -13.827  43.342  1.00  0.00    -0.408 N 
HETATM   20  C12 UNL     1     -92.678 -12.612  43.631  1.00  0.00     0.123 C 
HETATM   21  C13 UNL     1     -92.514 -11.530  42.624  1.00  0.00     0.029 C 
HETATM   22  C14 UNL     1     -93.436 -11.847  41.452  1.00  0.00     0.174 C 
HETATM   23  C16 UNL     1     -91.154 -11.731  41.944  1.00  0.00     0.042 C 
HETATM   24  O2  UNL     1     -92.699 -12.509  40.502  1.00  0.00    -0.384 OA
HETATM   25  C15 UNL     1     -91.517 -12.952  41.090  1.00  0.00     0.139 C 
HETATM   26  C17 UNL     1     -91.756 -14.126  41.979  1.00  0.00     0.149 C 
ENDBRANCH  18  19
ENDBRANCH  17  18
ENDBRANCH  14  17
ENDBRANCH   9  11
ENDBRANCH   4   9
BRANCH   1  27
HETATM   27  N1  UNL     1     -99.882 -16.199  48.823  1.00  0.00    -0.371 N 
ATOM     28  H1  UNL     1     -99.712 -17.172  49.079  1.00  0.00     0.161 HD
BRANCH  27  29
HETATM   29  C4  UNL     1     -99.836 -15.295  49.912  1.00  0.00     0.083 C 
HETATM   30  C3  UNL     1    -100.456 -13.958  49.694  1.00  0.00     0.028 C 
HETATM   31  C2  UNL     1    -101.344 -13.511  50.826  1.00  0.00     0.034 C 
HETATM   32  C1  UNL     1    -100.667 -13.629  52.168  1.00  0.00     0.118 C 
HETATM   33  C27 UNL     1    -100.015 -14.990  52.329  1.00  0.00     0.034 C 
HETATM   34  C26 UNL     1    -100.431 -15.884  51.180  1.00  0.00     0.028 C 
BRANCH  32  35
HETATM   35  O1  UNL     1     -99.744 -12.619  52.416  1.00  0.00    -0.396 OA
ATOM     36  H1  UNL     1    -100.140 -11.768  52.563  1.00  0.00     0.210 HD
ENDBRANCH  32  35
ENDBRANCH  27  29
ENDBRANCH   1  27
BRANCH   8  37
HETATM   37  C22 UNL     1    -102.273 -17.133  48.068  1.00  0.00     0.024 C 
HETATM   38  C23 UNL     1    -103.260 -16.258  48.788  1.00  0.00     0.009 C 
HETATM   39  C24 UNL     1    -104.241 -16.508  47.648  1.00  0.00     0.001 C 
HETATM   40  C25 UNL     1    -103.461 -17.807  47.403  1.00  0.00     0.009 C 
ENDBRANCH   8  37
TORSDOF 9
ENDMDL
