MODEL 1
REMARK VINA RESULT: -8.620148266      0.000      0.000
REMARK  7 active torsions:
REMARK  status: ('A' for Active; 'I' for Inactive)
REMARK    1  A    between atoms: C2_2  and  C3_3 
REMARK    2  A    between atoms: C3_3  and  N1_4 
REMARK    3  A    between atoms: C5_6  and  C6_7 
REMARK    4  A    between atoms: C6_7  and  C7_8 
REMARK    5  A    between atoms: C12_13  and  N2_14 
REMARK    6  A    between atoms: N2_14  and  C13_16 
REMARK       I    between atoms: N4_25  and  C19_27 
REMARK    7  A    between atoms: N6_29  and  C20_31 
ROOT
HETATM    1  N1  UNL     1     -98.351 -15.457  44.604  1.00  0.00    -0.320 N 
HETATM    2  C4  UNL     1     -98.788 -15.928  45.812  1.00  0.00     0.119 A 
HETATM    3  C5  UNL     1     -97.933 -16.229  46.827  1.00  0.00     0.027 A 
HETATM    4  N3  UNL     1     -96.620 -16.038  46.582  1.00  0.00    -0.340 N 
ATOM      5  H3  UNL     1     -95.960 -16.257  47.329  1.00  0.00     0.167 HD
HETATM    6  C18 UNL     1     -96.117 -15.575  45.412  1.00  0.00     0.177 A 
HETATM    7  N4  UNL     1     -94.852 -15.423  45.273  1.00  0.00    -0.312 N 
ATOM      8  H4  UNL     1     -94.266 -15.665  46.072  1.00  0.00     0.170 HD
HETATM    9  C19 UNL     1     -94.202 -14.957  44.128  1.00  0.00     0.190 C 
HETATM   10  N5  UNL     1     -94.004 -13.565  43.964  1.00  0.00    -0.063 NA
HETATM   11  N6  UNL     1     -93.790 -15.768  43.263  1.00  0.00    -0.360 N 
ATOM     12  H6  UNL     1     -93.984 -16.742  43.499  1.00  0.00     0.162 HD
HETATM   13  C26 UNL     1     -97.030 -15.289  44.423  1.00  0.00     0.291 A 
HETATM   14  O2  UNL     1     -96.618 -14.860  43.316  1.00  0.00    -0.264 OA
ENDROOT
BRANCH   3  15
HETATM   15  C6  UNL     1     -98.336 -16.706  48.155  1.00  0.00     0.068 C 
BRANCH  15  16
HETATM   16  C7  UNL     1     -99.456 -16.014  48.837  1.00  0.00    -0.031 C 
HETATM   17  C8  UNL     1     -99.116 -15.018  49.885  1.00  0.00     0.010 C 
HETATM   18  C9  UNL     1     -99.961 -13.804  49.990  1.00  0.00     0.001 C 
HETATM   19  C10 UNL     1    -101.430 -13.990  50.002  1.00  0.00     0.002 C 
HETATM   20  C11 UNL     1    -101.910 -15.389  50.188  1.00  0.00     0.031 C 
HETATM   21  C12 UNL     1    -101.521 -16.338  49.077  1.00  0.00     0.027 C 
HETATM   22  C16 UNL     1    -100.653 -15.664  48.023  1.00  0.00     0.040 C 
HETATM   23  C17 UNL     1    -100.325 -17.097  49.528  1.00  0.00     0.040 C 
BRANCH  21  24
HETATM   24  N2  UNL     1    -102.603 -17.024  48.454  1.00  0.00    -0.404 N 
ATOM     25  H2  UNL     1    -102.460 -17.917  47.982  1.00  0.00     0.154 HD
BRANCH  24  26
HETATM   26  C13 UNL     1    -103.882 -16.425  48.511  1.00  0.00     0.124 C 
HETATM   27  C14 UNL     1    -105.103 -17.229  48.220  1.00  0.00     0.194 C 
HETATM   28  O1  UNL     1    -105.614 -16.071  47.563  1.00  0.00    -0.387 OA
HETATM   29  C15 UNL     1    -104.279 -15.778  47.192  1.00  0.00     0.194 C 
ENDBRANCH  24  26
ENDBRANCH  21  24
ENDBRANCH  15  16
ENDBRANCH   3  15
BRANCH   1  30
HETATM   30  C3  UNL     1     -99.286 -15.127  43.558  1.00  0.00     0.131 C 
BRANCH  30  31
HETATM   31  C2  UNL     1    -100.512 -14.410  43.995  1.00  0.00     0.016 C 
HETATM   32  C1  UNL     1    -101.763 -15.195  43.796  1.00  0.00     0.006 C 
ENDBRANCH  30  31
ENDBRANCH   1  30
BRANCH  11  33
HETATM   33  C20 UNL     1     -93.118 -15.619  42.038  1.00  0.00     0.084 C 
HETATM   34  C21 UNL     1     -92.350 -16.914  41.768  1.00  0.00     0.025 C 
HETATM   35  C22 UNL     1     -91.178 -16.519  40.895  1.00  0.00     0.002 C 
HETATM   36  C23 UNL     1     -91.574 -15.382  39.976  1.00  0.00     0.000 C 
HETATM   37  C24 UNL     1     -93.035 -15.440  39.603  1.00  0.00     0.002 C 
HETATM   38  C25 UNL     1     -93.934 -15.321  40.827  1.00  0.00     0.025 C 
ENDBRANCH  11  33
TORSDOF 7
ENDMDL
MODEL 2
REMARK VINA RESULT: -8.417877519      2.072      4.206
REMARK  7 active torsions:
REMARK  status: ('A' for Active; 'I' for Inactive)
REMARK    1  A    between atoms: C2_2  and  C3_3 
REMARK    2  A    between atoms: C3_3  and  N1_4 
REMARK    3  A    between atoms: C5_6  and  C6_7 
REMARK    4  A    between atoms: C6_7  and  C7_8 
REMARK    5  A    between atoms: C12_13  and  N2_14 
REMARK    6  A    between atoms: N2_14  and  C13_16 
REMARK       I    between atoms: N4_25  and  C19_27 
REMARK    7  A    between atoms: N6_29  and  C20_31 
ROOT
HETATM    1  N1  UNL     1     -94.278 -14.124  45.128  1.00  0.00    -0.320 N 
HETATM    2  C4  UNL     1     -95.367 -14.446  45.890  1.00  0.00     0.119 A 
HETATM    3  C5  UNL     1     -96.362 -15.253  45.430  1.00  0.00     0.027 A 
HETATM    4  N3  UNL     1     -96.222 -15.724  44.174  1.00  0.00    -0.340 N 
ATOM      5  H3  UNL     1     -96.956 -16.330  43.809  1.00  0.00     0.167 HD
HETATM    6  C18 UNL     1     -95.171 -15.446  43.364  1.00  0.00     0.177 A 
HETATM    7  N4  UNL     1     -95.123 -15.944  42.183  1.00  0.00    -0.312 N 
ATOM      8  H4  UNL     1     -95.900 -16.541  41.901  1.00  0.00     0.170 HD
HETATM    9  C19 UNL     1     -94.105 -15.742  41.249  1.00  0.00     0.190 C 
HETATM   10  N5  UNL     1     -92.985 -16.609  41.249  1.00  0.00    -0.063 NA
HETATM   11  N6  UNL     1     -94.192 -14.809  40.414  1.00  0.00    -0.360 N 
ATOM     12  H6  UNL     1     -95.048 -14.261  40.509  1.00  0.00     0.162 HD
HETATM   13  C26 UNL     1     -94.197 -14.625  43.884  1.00  0.00     0.291 A 
HETATM   14  O2  UNL     1     -93.202 -14.333  43.174  1.00  0.00    -0.264 OA
ENDROOT
BRANCH   3  15
HETATM   15  C6  UNL     1     -97.539 -15.664  46.206  1.00  0.00     0.068 C 
BRANCH  15  16
HETATM   16  C7  UNL     1     -98.875 -15.520  45.579  1.00  0.00    -0.031 C 
HETATM   17  C8  UNL     1     -99.018 -14.531  44.479  1.00  0.00     0.010 C 
HETATM   18  C9  UNL     1     -99.916 -14.874  43.350  1.00  0.00     0.001 C 
HETATM   19  C10 UNL     1    -101.267 -15.384  43.679  1.00  0.00     0.002 C 
HETATM   20  C11 UNL     1    -101.691 -15.240  45.101  1.00  0.00     0.031 C 
HETATM   21  C12 UNL     1    -100.854 -16.023  46.087  1.00  0.00     0.027 C 
HETATM   22  C16 UNL     1     -99.698 -16.748  45.410  1.00  0.00     0.040 C 
HETATM   23  C17 UNL     1     -99.868 -15.085  46.688  1.00  0.00     0.040 C 
BRANCH  21  24
HETATM   24  N2  UNL     1    -101.576 -16.924  46.921  1.00  0.00    -0.404 N 
ATOM     25  H2  UNL     1    -101.092 -17.570  47.544  1.00  0.00     0.154 HD
BRANCH  24  26
HETATM   26  C13 UNL     1    -102.988 -16.891  46.856  1.00  0.00     0.124 C 
HETATM   27  C14 UNL     1    -103.784 -16.433  48.030  1.00  0.00     0.194 C 
HETATM   28  O1  UNL     1    -104.720 -17.456  47.696  1.00  0.00    -0.387 OA
HETATM   29  C15 UNL     1    -103.617 -18.221  47.246  1.00  0.00     0.194 C 
ENDBRANCH  24  26
ENDBRANCH  21  24
ENDBRANCH  15  16
ENDBRANCH   3  15
BRANCH   1  30
HETATM   30  C3  UNL     1     -93.230 -13.285  45.654  1.00  0.00     0.131 C 
BRANCH  30  31
HETATM   31  C2  UNL     1     -93.669 -11.972  46.194  1.00  0.00     0.016 C 
HETATM   32  C1  UNL     1     -93.351 -10.825  45.297  1.00  0.00     0.006 C 
ENDBRANCH  30  31
ENDBRANCH   1  30
BRANCH  11  33
HETATM   33  C20 UNL     1     -93.360 -14.359  39.375  1.00  0.00     0.084 C 
HETATM   34  C21 UNL     1     -94.150 -14.461  38.069  1.00  0.00     0.025 C 
HETATM   35  C22 UNL     1     -93.115 -14.635  36.978  1.00  0.00     0.002 C 
HETATM   36  C23 UNL     1     -91.857 -13.869  37.327  1.00  0.00     0.000 C 
HETATM   37  C24 UNL     1     -92.156 -12.631  38.136  1.00  0.00     0.002 C 
HETATM   38  C25 UNL     1     -92.819 -12.974  39.465  1.00  0.00     0.025 C 
ENDBRANCH  11  33
TORSDOF 7
ENDMDL
MODEL 3
REMARK VINA RESULT: -8.320219044      3.061      5.279
REMARK  7 active torsions:
REMARK  status: ('A' for Active; 'I' for Inactive)
REMARK    1  A    between atoms: C2_2  and  C3_3 
REMARK    2  A    between atoms: C3_3  and  N1_4 
REMARK    3  A    between atoms: C5_6  and  C6_7 
REMARK    4  A    between atoms: C6_7  and  C7_8 
REMARK    5  A    between atoms: C12_13  and  N2_14 
REMARK    6  A    between atoms: N2_14  and  C13_16 
REMARK       I    between atoms: N4_25  and  C19_27 
REMARK    7  A    between atoms: N6_29  and  C20_31 
ROOT
HETATM    1  N1  UNL     1     -96.446 -13.580  50.480  1.00  0.00    -0.320 N 
HETATM    2  C4  UNL     1     -97.489 -14.427  50.741  1.00  0.00     0.119 A 
HETATM    3  C5  UNL     1     -97.778 -15.490  49.943  1.00  0.00     0.027 A 
HETATM    4  N3  UNL     1     -96.979 -15.671  48.871  1.00  0.00    -0.340 N 
ATOM      5  H3  UNL     1     -97.177 -16.462  48.258  1.00  0.00     0.167 HD
HETATM    6  C18 UNL     1     -95.931 -14.873  48.552  1.00  0.00     0.177 A 
HETATM    7  N4  UNL     1     -95.224 -15.127  47.512  1.00  0.00    -0.312 N 
ATOM      8  H4  UNL     1     -95.493 -15.940  46.958  1.00  0.00     0.170 HD
HETATM    9  C19 UNL     1     -94.122 -14.393  47.070  1.00  0.00     0.190 C 
HETATM   10  N5  UNL     1     -92.834 -14.719  47.558  1.00  0.00    -0.063 NA
HETATM   11  N6  UNL     1     -94.277 -13.463  46.240  1.00  0.00    -0.360 N 
ATOM     12  H6  UNL     1     -95.249 -13.332  45.958  1.00  0.00     0.162 HD
HETATM   13  C26 UNL     1     -95.688 -13.814  49.396  1.00  0.00     0.291 A 
HETATM   14  O2  UNL     1     -94.729 -13.041  49.146  1.00  0.00    -0.264 OA
ENDROOT
BRANCH   3  15
HETATM   15  C6  UNL     1     -98.858 -16.455  50.182  1.00  0.00     0.068 C 
BRANCH  15  16
HETATM   16  C7  UNL     1    -100.074 -16.367  49.340  1.00  0.00    -0.031 C 
HETATM   17  C8  UNL     1    -101.306 -17.034  49.834  1.00  0.00     0.010 C 
HETATM   18  C9  UNL     1    -102.607 -16.370  49.577  1.00  0.00     0.001 C 
HETATM   19  C10 UNL     1    -102.872 -15.892  48.200  1.00  0.00     0.002 C 
HETATM   20  C11 UNL     1    -101.930 -16.372  47.150  1.00  0.00     0.031 C 
HETATM   21  C12 UNL     1    -100.502 -15.909  47.331  1.00  0.00     0.027 C 
HETATM   22  C16 UNL     1    -100.319 -15.095  48.605  1.00  0.00     0.040 C 
HETATM   23  C17 UNL     1     -99.745 -17.018  47.971  1.00  0.00     0.040 C 
BRANCH  21  24
HETATM   24  N2  UNL     1     -99.940 -15.215  46.221  1.00  0.00    -0.404 N 
ATOM     25  H2  UNL     1     -99.307 -14.426  46.357  1.00  0.00     0.154 HD
BRANCH  24  26
HETATM   26  C13 UNL     1    -100.288 -15.656  44.925  1.00  0.00     0.124 C 
HETATM   27  C14 UNL     1     -99.451 -15.277  43.751  1.00  0.00     0.194 C 
HETATM   28  O1  UNL     1    -100.671 -15.143  43.022  1.00  0.00    -0.387 OA
HETATM   29  C15 UNL     1    -101.264 -14.714  44.235  1.00  0.00     0.194 C 
ENDBRANCH  24  26
ENDBRANCH  21  24
ENDBRANCH  15  16
ENDBRANCH   3  15
BRANCH   1  30
HETATM   30  C3  UNL     1     -96.154 -12.476  51.359  1.00  0.00     0.131 C 
BRANCH  30  31
HETATM   31  C2  UNL     1     -95.664 -12.845  52.713  1.00  0.00     0.016 C 
HETATM   32  C1  UNL     1     -96.625 -12.516  53.803  1.00  0.00     0.006 C 
ENDBRANCH  30  31
ENDBRANCH   1  30
BRANCH  11  33
HETATM   33  C20 UNL     1     -93.393 -12.565  45.618  1.00  0.00     0.084 C 
HETATM   34  C21 UNL     1     -93.546 -12.737  44.105  1.00  0.00     0.025 C 
HETATM   35  C22 UNL     1     -92.216 -12.322  43.511  1.00  0.00     0.002 C 
HETATM   36  C23 UNL     1     -91.604 -11.207  44.334  1.00  0.00     0.000 C 
HETATM   37  C24 UNL     1     -92.656 -10.329  44.965  1.00  0.00     0.002 C 
HETATM   38  C25 UNL     1     -93.546 -11.114  45.921  1.00  0.00     0.025 C 
ENDBRANCH  11  33
TORSDOF 7
ENDMDL
MODEL 4
REMARK VINA RESULT: -8.286555908      2.612      3.302
REMARK  7 active torsions:
REMARK  status: ('A' for Active; 'I' for Inactive)
REMARK    1  A    between atoms: C2_2  and  C3_3 
REMARK    2  A    between atoms: C3_3  and  N1_4 
REMARK    3  A    between atoms: C5_6  and  C6_7 
REMARK    4  A    between atoms: C6_7  and  C7_8 
REMARK    5  A    between atoms: C12_13  and  N2_14 
REMARK    6  A    between atoms: N2_14  and  C13_16 
REMARK       I    between atoms: N4_25  and  C19_27 
REMARK    7  A    between atoms: N6_29  and  C20_31 
ROOT
HETATM    1  N1  UNL     1     -99.271 -15.093  45.269  1.00  0.00    -0.320 N 
HETATM    2  C4  UNL     1     -99.942 -15.611  46.342  1.00  0.00     0.119 A 
HETATM    3  C5  UNL     1     -99.297 -16.096  47.437  1.00  0.00     0.027 A 
HETATM    4  N3  UNL     1     -97.949 -16.040  47.413  1.00  0.00    -0.340 N 
ATOM      5  H3  UNL     1     -97.444 -16.398  48.224  1.00  0.00     0.167 HD
HETATM    6  C18 UNL     1     -97.220 -15.541  46.385  1.00  0.00     0.177 A 
HETATM    7  N4  UNL     1     -95.940 -15.528  46.455  1.00  0.00    -0.312 N 
ATOM      8  H4  UNL     1     -95.518 -15.904  47.304  1.00  0.00     0.170 HD
HETATM    9  C19 UNL     1     -95.071 -15.045  45.474  1.00  0.00     0.190 C 
HETATM   10  N5  UNL     1     -94.707 -13.676  45.486  1.00  0.00    -0.063 NA
HETATM   11  N6  UNL     1     -94.611 -15.822  44.602  1.00  0.00    -0.360 N 
ATOM     12  H6  UNL     1     -94.939 -16.783  44.705  1.00  0.00     0.162 HD
HETATM   13  C26 UNL     1     -97.928 -15.066  45.306  1.00  0.00     0.291 A 
HETATM   14  O2  UNL     1     -97.302 -14.595  44.324  1.00  0.00    -0.264 OA
ENDROOT
BRANCH   3  15
HETATM   15  C6  UNL     1     -99.955 -16.634  48.634  1.00  0.00     0.068 C 
BRANCH  15  16
HETATM   16  C7  UNL     1    -100.347 -15.685  49.703  1.00  0.00    -0.031 C 
HETATM   17  C8  UNL     1    -100.143 -14.235  49.448  1.00  0.00     0.010 C 
HETATM   18  C9  UNL     1    -101.156 -13.288  49.973  1.00  0.00     0.001 C 
HETATM   19  C10 UNL     1    -101.575 -13.445  51.385  1.00  0.00     0.002 C 
HETATM   20  C11 UNL     1    -100.738 -14.356  52.217  1.00  0.00     0.031 C 
HETATM   21  C12 UNL     1    -100.744 -15.799  51.766  1.00  0.00     0.027 C 
HETATM   22  C16 UNL     1    -101.564 -16.002  50.499  1.00  0.00     0.040 C 
HETATM   23  C17 UNL     1     -99.513 -16.028  50.964  1.00  0.00     0.040 C 
BRANCH  21  24
HETATM   24  N2  UNL     1    -101.131 -16.746  52.757  1.00  0.00    -0.404 N 
ATOM     25  H2  UNL     1    -101.321 -17.718  52.513  1.00  0.00     0.154 HD
BRANCH  24  26
HETATM   26  C13 UNL     1    -101.244 -16.293  54.091  1.00  0.00     0.124 C 
HETATM   27  C14 UNL     1    -100.194 -16.635  55.093  1.00  0.00     0.194 C 
HETATM   28  O1  UNL     1    -101.253 -16.785  56.037  1.00  0.00    -0.387 OA
HETATM   29  C15 UNL     1    -102.051 -17.246  54.961  1.00  0.00     0.194 C 
ENDBRANCH  24  26
ENDBRANCH  21  24
ENDBRANCH  15  16
ENDBRANCH   3  15
BRANCH   1  30
HETATM   30  C3  UNL     1     -99.987 -14.567  44.133  1.00  0.00     0.131 C 
BRANCH  30  31
HETATM   31  C2  UNL     1    -101.028 -15.460  43.561  1.00  0.00     0.016 C 
HETATM   32  C1  UNL     1    -102.418 -15.054  43.913  1.00  0.00     0.006 C 
ENDBRANCH  30  31
ENDBRANCH   1  30
BRANCH  11  33
HETATM   33  C20 UNL     1     -93.739 -15.648  43.514  1.00  0.00     0.084 C 
HETATM   34  C21 UNL     1     -92.614 -16.675  43.651  1.00  0.00     0.025 C 
HETATM   35  C22 UNL     1     -91.420 -16.070  42.943  1.00  0.00     0.002 C 
HETATM   36  C23 UNL     1     -91.880 -15.245  41.759  1.00  0.00     0.000 C 
HETATM   37  C24 UNL     1     -93.147 -15.792  41.148  1.00  0.00     0.002 C 
HETATM   38  C25 UNL     1     -94.302 -15.781  42.141  1.00  0.00     0.025 C 
ENDBRANCH  11  33
TORSDOF 7
ENDMDL
MODEL 5
REMARK VINA RESULT: -8.201730400      4.598      9.628
REMARK  7 active torsions:
REMARK  status: ('A' for Active; 'I' for Inactive)
REMARK    1  A    between atoms: C2_2  and  C3_3 
REMARK    2  A    between atoms: C3_3  and  N1_4 
REMARK    3  A    between atoms: C5_6  and  C6_7 
REMARK    4  A    between atoms: C6_7  and  C7_8 
REMARK    5  A    between atoms: C12_13  and  N2_14 
REMARK    6  A    between atoms: N2_14  and  C13_16 
REMARK       I    between atoms: N4_25  and  C19_27 
REMARK    7  A    between atoms: N6_29  and  C20_31 
ROOT
HETATM    1  N1  UNL     1     -98.355 -14.431  50.540  1.00  0.00    -0.320 N 
HETATM    2  C4  UNL     1     -98.069 -14.912  49.292  1.00  0.00     0.119 A 
HETATM    3  C5  UNL     1     -98.695 -16.002  48.773  1.00  0.00     0.027 A 
HETATM    4  N3  UNL     1     -99.622 -16.593  49.556  1.00  0.00    -0.340 N 
ATOM      5  H3  UNL     1    -100.104 -17.412  49.187  1.00  0.00     0.167 HD
HETATM    6  C18 UNL     1     -99.955 -16.171  50.800  1.00  0.00     0.177 A 
HETATM    7  N4  UNL     1    -100.853 -16.796  51.469  1.00  0.00    -0.312 N 
ATOM      8  H4  UNL     1    -101.285 -17.604  51.022  1.00  0.00     0.170 HD
HETATM    9  C19 UNL     1    -101.292 -16.471  52.754  1.00  0.00     0.190 C 
HETATM   10  N5  UNL     1    -102.358 -15.552  52.909  1.00  0.00    -0.063 NA
HETATM   11  N6  UNL     1    -100.753 -17.000  53.757  1.00  0.00    -0.360 N 
ATOM     12  H6  UNL     1    -100.005 -17.651  53.516  1.00  0.00     0.162 HD
HETATM   13  C26 UNL     1     -99.289 -15.064  51.271  1.00  0.00     0.291 A 
HETATM   14  O2  UNL     1     -99.557 -14.632  52.420  1.00  0.00    -0.264 OA
ENDROOT
BRANCH   3  15
HETATM   15  C6  UNL     1     -98.460 -16.550  47.431  1.00  0.00     0.068 C 
BRANCH  15  16
HETATM   16  C7  UNL     1     -99.341 -16.100  46.327  1.00  0.00    -0.031 C 
HETATM   17  C8  UNL     1     -98.778 -15.143  45.340  1.00  0.00     0.010 C 
HETATM   18  C9  UNL     1     -99.183 -15.290  43.922  1.00  0.00     0.001 C 
HETATM   19  C10 UNL     1    -100.628 -15.439  43.633  1.00  0.00     0.002 C 
HETATM   20  C11 UNL     1    -101.553 -15.149  44.765  1.00  0.00     0.031 C 
HETATM   21  C12 UNL     1    -101.411 -16.082  45.946  1.00  0.00     0.027 C 
HETATM   22  C16 UNL     1    -100.289 -17.092  45.748  1.00  0.00     0.040 C 
HETATM   23  C17 UNL     1    -100.569 -15.398  46.964  1.00  0.00     0.040 C 
BRANCH  21  24
HETATM   24  N2  UNL     1    -102.605 -16.748  46.345  1.00  0.00    -0.404 N 
ATOM     25  H2  UNL     1    -102.913 -17.602  45.881  1.00  0.00     0.154 HD
BRANCH  24  26
HETATM   26  C13 UNL     1    -103.349 -16.185  47.407  1.00  0.00     0.124 C 
HETATM   27  C14 UNL     1    -104.429 -16.971  48.067  1.00  0.00     0.194 C 
HETATM   28  O1  UNL     1    -105.167 -15.751  48.138  1.00  0.00    -0.387 OA
HETATM   29  C15 UNL     1    -104.550 -15.390  46.915  1.00  0.00     0.194 C 
ENDBRANCH  24  26
ENDBRANCH  21  24
ENDBRANCH  15  16
ENDBRANCH   3  15
BRANCH   1  30
HETATM   30  C3  UNL     1     -97.689 -13.259  51.051  1.00  0.00     0.131 C 
BRANCH  30  31
HETATM   31  C2  UNL     1     -96.217 -13.218  50.850  1.00  0.00     0.016 C 
HETATM   32  C1  UNL     1     -95.531 -12.192  51.685  1.00  0.00     0.006 C 
ENDBRANCH  30  31
ENDBRANCH   1  30
BRANCH  11  33
HETATM   33  C20 UNL     1    -100.962 -16.885  55.142  1.00  0.00     0.084 C 
HETATM   34  C21 UNL     1    -101.943 -17.984  55.556  1.00  0.00     0.025 C 
HETATM   35  C22 UNL     1    -102.645 -17.460  56.791  1.00  0.00     0.002 C 
HETATM   36  C23 UNL     1    -101.696 -16.608  57.607  1.00  0.00     0.000 C 
HETATM   37  C24 UNL     1    -100.266 -17.072  57.476  1.00  0.00     0.002 C 
HETATM   38  C25 UNL     1     -99.775 -16.984  56.037  1.00  0.00     0.025 C 
ENDBRANCH  11  33
TORSDOF 7
ENDMDL
