MODEL 1
REMARK VINA RESULT: -7.610529902      0.000      0.000
REMARK  9 active torsions:
REMARK  status: ('A' for Active; 'I' for Inactive)
REMARK    1  A    between atoms: C2_2  and  N1_3 
REMARK    2  A    between atoms: C4_5  and  N2_6 
REMARK    3  A    between atoms: N2_6  and  N3_8 
REMARK    4  A    between atoms: C5_10  and  N4_11 
REMARK    5  A    between atoms: C5_10  and  C16_25 
REMARK    6  A    between atoms: N4_11  and  C6_13 
REMARK    7  A    between atoms: C13_20  and  O1_21 
REMARK       I    between atoms: N5_29  and  C20_30 
REMARK    8  A    between atoms: C20_30  and  C21_32 
REMARK    9  A    between atoms: N6_37  and  O3_38 
ROOT
HETATM    1  N3  UNL     1     -98.487 -13.946  52.450  1.00  0.00    -0.286 N 
ATOM      2  H3  UNL     1     -97.638 -14.205  51.948  1.00  0.00     0.188 HD
HETATM    3  C5  UNL     1     -99.518 -14.649  52.209  1.00  0.00     0.115 C 
ENDROOT
BRANCH   3   4
HETATM    4  N4  UNL     1     -99.491 -15.741  51.286  1.00  0.00    -0.372 N 
ATOM      5  H4  UNL     1    -100.021 -16.577  51.534  1.00  0.00     0.161 HD
BRANCH   4   6
HETATM    6  C6  UNL     1     -98.790 -15.755  50.060  1.00  0.00     0.091 C 
HETATM    7  C7  UNL     1     -98.976 -17.057  49.351  1.00  0.00     0.012 C 
HETATM    8  C8  UNL     1    -100.308 -17.188  48.658  1.00  0.00     0.011 C 
HETATM    9  C15 UNL     1     -97.869 -17.223  48.308  1.00  0.00     0.044 C 
HETATM   10  C9  UNL     1    -100.432 -16.085  47.655  1.00  0.00    -0.011 C 
HETATM   11  C10 UNL     1    -100.356 -14.755  48.360  1.00  0.00     0.011 C 
HETATM   12  C14 UNL     1     -99.308 -16.196  46.637  1.00  0.00     0.042 C 
HETATM   13  C11 UNL     1     -99.064 -14.636  49.106  1.00  0.00     0.012 C 
HETATM   14  C12 UNL     1     -97.953 -14.725  48.044  1.00  0.00     0.044 C 
HETATM   15  C13 UNL     1     -97.964 -16.066  47.365  1.00  0.00     0.059 C 
BRANCH  15  16
HETATM   16  O1  UNL     1     -96.944 -16.067  46.430  1.00  0.00    -0.390 OA
ATOM     17  H1  UNL     1     -97.266 -16.517  45.658  1.00  0.00     0.210 HD
ENDBRANCH  15  16
ENDBRANCH   4   6
ENDBRANCH   3   4
BRANCH   3  18
HETATM   18  C16 UNL     1    -100.776 -14.302  52.907  1.00  0.00     0.156 C 
HETATM   19  C17 UNL     1    -101.750 -13.846  51.859  1.00  0.00     0.035 C 
HETATM   20  C18 UNL     1    -102.540 -15.077  51.536  1.00  0.00     0.022 C 
HETATM   21  C19 UNL     1    -102.570 -15.826  52.838  1.00  0.00     0.127 C 
HETATM   22  N5  UNL     1    -101.369 -15.454  53.555  1.00  0.00    -0.340 N 
HETATM   23  C20 UNL     1    -100.885 -16.127  54.702  1.00  0.00     0.224 C 
HETATM   24  O2  UNL     1    -101.547 -17.146  55.105  1.00  0.00    -0.273 OA
BRANCH  23  25
HETATM   25  C21 UNL     1     -99.683 -15.751  55.473  1.00  0.00     0.078 C 
HETATM   26  C22 UNL     1     -99.570 -16.650  56.693  1.00  0.00     0.014 C 
HETATM   27  C23 UNL     1    -100.494 -16.089  57.729  1.00  0.00     0.001 C 
HETATM   28  C24 UNL     1    -100.725 -14.645  57.346  1.00  0.00     0.001 C 
HETATM   29  C25 UNL     1     -99.843 -14.389  56.133  1.00  0.00     0.014 C 
ENDBRANCH  23  25
ENDBRANCH   3  18
BRANCH   1  30
HETATM   30  N2  UNL     1     -98.384 -12.888  53.300  1.00  0.00    -0.281 N 
ATOM     31  H2  UNL     1     -99.211 -12.352  53.566  1.00  0.00     0.188 HD
BRANCH  30  32
HETATM   32  C4  UNL     1     -97.089 -12.538  53.818  1.00  0.00     0.164 A 
HETATM   33  C3  UNL     1     -96.619 -12.635  55.106  1.00  0.00     0.143 A 
HETATM   34  N1  UNL     1     -95.347 -12.200  55.172  1.00  0.00    -0.348 N 
HETATM   35  C26 UNL     1     -95.019 -11.831  53.925  1.00  0.00     0.218 A 
HETATM   36  N6  UNL     1     -96.084 -12.035  53.091  1.00  0.00    -0.201 N 
BRANCH  34  37
HETATM   37  C2  UNL     1     -94.544 -12.176  56.386  1.00  0.00     0.124 C 
HETATM   38  C1  UNL     1     -93.538 -11.069  56.382  1.00  0.00     0.027 C 
ENDBRANCH  34  37
BRANCH  36  39
HETATM   39  O3  UNL     1     -96.034 -11.742  51.759  1.00  0.00    -0.280 OA
ATOM     40  H3  UNL     1     -96.038 -10.898  51.324  1.00  0.00     0.245 HD
ENDBRANCH  36  39
ENDBRANCH  30  32
ENDBRANCH   1  30
TORSDOF 9
ENDMDL
MODEL 2
REMARK VINA RESULT: -7.354229813      2.311      5.731
REMARK  9 active torsions:
REMARK  status: ('A' for Active; 'I' for Inactive)
REMARK    1  A    between atoms: C2_2  and  N1_3 
REMARK    2  A    between atoms: C4_5  and  N2_6 
REMARK    3  A    between atoms: N2_6  and  N3_8 
REMARK    4  A    between atoms: C5_10  and  N4_11 
REMARK    5  A    between atoms: C5_10  and  C16_25 
REMARK    6  A    between atoms: N4_11  and  C6_13 
REMARK    7  A    between atoms: C13_20  and  O1_21 
REMARK       I    between atoms: N5_29  and  C20_30 
REMARK    8  A    between atoms: C20_30  and  C21_32 
REMARK    9  A    between atoms: N6_37  and  O3_38 
ROOT
HETATM    1  N3  UNL     1     -99.384 -13.618  53.048  1.00  0.00    -0.286 N 
ATOM      2  H3  UNL     1    -100.281 -13.222  52.766  1.00  0.00     0.188 HD
HETATM    3  C5  UNL     1     -98.693 -14.154  52.126  1.00  0.00     0.115 C 
ENDROOT
BRANCH   3   4
HETATM    4  N4  UNL     1     -99.144 -14.201  50.770  1.00  0.00    -0.372 N 
ATOM      5  H4  UNL     1     -98.488 -13.903  50.048  1.00  0.00     0.161 HD
BRANCH   4   6
HETATM    6  C6  UNL     1    -100.425 -14.625  50.351  1.00  0.00     0.091 C 
HETATM    7  C7  UNL     1    -100.435 -14.936  48.890  1.00  0.00     0.012 C 
HETATM    8  C8  UNL     1     -99.818 -16.267  48.547  1.00  0.00     0.011 C 
HETATM    9  C15 UNL     1    -101.880 -14.927  48.385  1.00  0.00     0.044 C 
HETATM   10  C9  UNL     1    -100.577 -17.340  49.261  1.00  0.00    -0.011 C 
HETATM   11  C10 UNL     1    -100.492 -17.110  50.748  1.00  0.00     0.011 C 
HETATM   12  C14 UNL     1    -102.031 -17.316  48.817  1.00  0.00     0.042 C 
HETATM   13  C11 UNL     1    -101.044 -15.763  51.098  1.00  0.00     0.012 C 
HETATM   14  C12 UNL     1    -102.519 -15.784  50.659  1.00  0.00     0.044 C 
HETATM   15  C13 UNL     1    -102.635 -15.951  49.170  1.00  0.00     0.059 C 
BRANCH  15  16
HETATM   16  O1  UNL     1    -103.983 -15.962  48.856  1.00  0.00    -0.390 OA
ATOM     17  H1  UNL     1    -104.200 -15.108  48.502  1.00  0.00     0.210 HD
ENDBRANCH  15  16
ENDBRANCH   4   6
ENDBRANCH   3   4
BRANCH   3  18
HETATM   18  C16 UNL     1     -97.390 -14.753  52.493  1.00  0.00     0.156 C 
HETATM   19  C17 UNL     1     -97.528 -16.240  52.333  1.00  0.00     0.035 C 
HETATM   20  C18 UNL     1     -97.003 -16.509  50.956  1.00  0.00     0.022 C 
HETATM   21  C19 UNL     1     -95.943 -15.460  50.774  1.00  0.00     0.127 C 
HETATM   22  N5  UNL     1     -96.332 -14.333  51.595  1.00  0.00    -0.340 N 
HETATM   23  C20 UNL     1     -95.750 -13.046  51.512  1.00  0.00     0.224 C 
HETATM   24  O2  UNL     1     -94.839 -12.873  50.630  1.00  0.00    -0.273 OA
BRANCH  23  25
HETATM   25  C21 UNL     1     -96.103 -11.889  52.358  1.00  0.00     0.078 C 
HETATM   26  C22 UNL     1     -95.033 -10.819  52.213  1.00  0.00     0.014 C 
HETATM   27  C23 UNL     1     -93.902 -11.216  53.109  1.00  0.00     0.001 C 
HETATM   28  C24 UNL     1     -94.488 -12.165  54.128  1.00  0.00     0.001 C 
HETATM   29  C25 UNL     1     -95.981 -12.218  53.839  1.00  0.00     0.014 C 
ENDBRANCH  23  25
ENDBRANCH   3  18
BRANCH   1  30
HETATM   30  N2  UNL     1     -99.068 -13.512  54.368  1.00  0.00    -0.281 N 
ATOM     31  H2  UNL     1     -98.374 -12.834  54.683  1.00  0.00     0.188 HD
BRANCH  30  32
HETATM   32  C4  UNL     1     -99.732 -14.372  55.311  1.00  0.00     0.164 A 
HETATM   33  C3  UNL     1     -99.940 -15.729  55.243  1.00  0.00     0.143 A 
HETATM   34  N1  UNL     1    -100.605 -16.153  56.333  1.00  0.00    -0.348 N 
HETATM   35  C26 UNL     1    -100.814 -15.062  57.085  1.00  0.00     0.218 A 
HETATM   36  N6  UNL     1    -100.280 -13.967  56.462  1.00  0.00    -0.201 N 
BRANCH  34  37
HETATM   37  C2  UNL     1    -100.979 -17.537  56.585  1.00  0.00     0.124 C 
HETATM   38  C1  UNL     1    -102.388 -17.666  57.073  1.00  0.00     0.027 C 
ENDBRANCH  34  37
BRANCH  36  39
HETATM   39  O3  UNL     1    -100.351 -12.716  57.000  1.00  0.00    -0.280 OA
ATOM     40  H3  UNL     1     -99.863 -12.338  57.723  1.00  0.00     0.245 HD
ENDBRANCH  36  39
ENDBRANCH  30  32
ENDBRANCH   1  30
TORSDOF 9
ENDMDL
MODEL 3
REMARK VINA RESULT: -7.319417899      1.489      1.692
REMARK  9 active torsions:
REMARK  status: ('A' for Active; 'I' for Inactive)
REMARK    1  A    between atoms: C2_2  and  N1_3 
REMARK    2  A    between atoms: C4_5  and  N2_6 
REMARK    3  A    between atoms: N2_6  and  N3_8 
REMARK    4  A    between atoms: C5_10  and  N4_11 
REMARK    5  A    between atoms: C5_10  and  C16_25 
REMARK    6  A    between atoms: N4_11  and  C6_13 
REMARK    7  A    between atoms: C13_20  and  O1_21 
REMARK       I    between atoms: N5_29  and  C20_30 
REMARK    8  A    between atoms: C20_30  and  C21_32 
REMARK    9  A    between atoms: N6_37  and  O3_38 
ROOT
HETATM    1  N3  UNL     1     -98.378 -14.015  52.953  1.00  0.00    -0.286 N 
ATOM      2  H3  UNL     1     -97.489 -14.266  52.520  1.00  0.00     0.188 HD
HETATM    3  C5  UNL     1     -99.382 -14.717  52.618  1.00  0.00     0.115 C 
ENDROOT
BRANCH   3   4
HETATM    4  N4  UNL     1     -99.276 -15.798  51.688  1.00  0.00    -0.372 N 
ATOM      5  H4  UNL     1     -99.761 -16.665  51.920  1.00  0.00     0.161 HD
BRANCH   4   6
HETATM    6  C6  UNL     1     -98.554 -15.760  50.474  1.00  0.00     0.091 C 
HETATM    7  C7  UNL     1     -98.788 -16.999  49.672  1.00  0.00     0.012 C 
HETATM    8  C8  UNL     1    -100.112 -17.015  48.952  1.00  0.00     0.011 C 
HETATM    9  C15 UNL     1     -97.671 -17.145  48.637  1.00  0.00     0.044 C 
HETATM   10  C9  UNL     1    -100.164 -15.840  48.027  1.00  0.00    -0.011 C 
HETATM   11  C10 UNL     1    -100.038 -14.568  48.826  1.00  0.00     0.011 C 
HETATM   12  C14 UNL     1     -99.028 -15.934  47.021  1.00  0.00     0.042 C 
HETATM   13  C11 UNL     1     -98.755 -14.565  49.598  1.00  0.00     0.012 C 
HETATM   14  C12 UNL     1     -97.630 -14.634  48.549  1.00  0.00     0.044 C 
HETATM   15  C13 UNL     1     -97.693 -15.922  47.777  1.00  0.00     0.059 C 
BRANCH  15  16
HETATM   16  O1  UNL     1     -96.658 -15.908  46.859  1.00  0.00    -0.390 OA
ATOM     17  H1  UNL     1     -95.861 -16.131  47.325  1.00  0.00     0.210 HD
ENDBRANCH  15  16
ENDBRANCH   4   6
ENDBRANCH   3   4
BRANCH   3  18
HETATM   18  C16 UNL     1    -100.695 -14.380  53.213  1.00  0.00     0.156 C 
HETATM   19  C17 UNL     1    -101.451 -13.582  52.191  1.00  0.00     0.035 C 
HETATM   20  C18 UNL     1    -102.292 -14.600  51.482  1.00  0.00     0.022 C 
HETATM   21  C19 UNL     1    -102.590 -15.612  52.551  1.00  0.00     0.127 C 
HETATM   22  N5  UNL     1    -101.484 -15.566  53.484  1.00  0.00    -0.340 N 
HETATM   23  C20 UNL     1    -101.245 -16.534  54.488  1.00  0.00     0.224 C 
HETATM   24  O2  UNL     1    -102.052 -17.526  54.546  1.00  0.00    -0.273 OA
BRANCH  23  25
HETATM   25  C21 UNL     1    -100.147 -16.495  55.473  1.00  0.00     0.078 C 
HETATM   26  C22 UNL     1    -100.356 -17.597  56.498  1.00  0.00     0.014 C 
HETATM   27  C23 UNL     1    -101.353 -17.082  57.488  1.00  0.00     0.001 C 
HETATM   28  C24 UNL     1    -101.324 -15.575  57.366  1.00  0.00     0.001 C 
HETATM   29  C25 UNL     1    -100.230 -15.259  56.358  1.00  0.00     0.014 C 
ENDBRANCH  23  25
ENDBRANCH   3  18
BRANCH   1  30
HETATM   30  N2  UNL     1     -98.349 -12.967  53.821  1.00  0.00    -0.281 N 
ATOM     31  H2  UNL     1     -98.887 -12.122  53.633  1.00  0.00     0.188 HD
BRANCH  30  32
HETATM   32  C4  UNL     1     -97.546 -13.073  55.010  1.00  0.00     0.164 A 
HETATM   33  C3  UNL     1     -96.310 -13.654  55.167  1.00  0.00     0.143 A 
HETATM   34  N1  UNL     1     -95.902 -13.541  56.445  1.00  0.00    -0.348 N 
HETATM   35  C26 UNL     1     -96.882 -12.889  57.088  1.00  0.00     0.218 A 
HETATM   36  N6  UNL     1     -97.893 -12.601  56.213  1.00  0.00    -0.201 N 
BRANCH  34  37
HETATM   37  C2  UNL     1     -94.632 -14.040  56.953  1.00  0.00     0.124 C 
HETATM   38  C1  UNL     1     -94.103 -15.180  56.142  1.00  0.00     0.027 C 
ENDBRANCH  34  37
BRANCH  36  39
HETATM   39  O3  UNL     1     -99.024 -11.942  56.597  1.00  0.00    -0.280 OA
ATOM     40  H3  UNL     1     -99.901 -12.278  56.743  1.00  0.00     0.245 HD
ENDBRANCH  36  39
ENDBRANCH  30  32
ENDBRANCH   1  30
TORSDOF 9
ENDMDL
MODEL 4
REMARK VINA RESULT: -7.221164798      3.418      7.634
REMARK  9 active torsions:
REMARK  status: ('A' for Active; 'I' for Inactive)
REMARK    1  A    between atoms: C2_2  and  N1_3 
REMARK    2  A    between atoms: C4_5  and  N2_6 
REMARK    3  A    between atoms: N2_6  and  N3_8 
REMARK    4  A    between atoms: C5_10  and  N4_11 
REMARK    5  A    between atoms: C5_10  and  C16_25 
REMARK    6  A    between atoms: N4_11  and  C6_13 
REMARK    7  A    between atoms: C13_20  and  O1_21 
REMARK       I    between atoms: N5_29  and  C20_30 
REMARK    8  A    between atoms: C20_30  and  C21_32 
REMARK    9  A    between atoms: N6_37  and  O3_38 
ROOT
HETATM    1  N3  UNL     1     -99.089 -15.295  48.080  1.00  0.00    -0.286 N 
ATOM      2  H3  UNL     1     -98.672 -14.392  47.857  1.00  0.00     0.188 HD
HETATM    3  C5  UNL     1     -99.381 -15.492  49.301  1.00  0.00     0.115 C 
ENDROOT
BRANCH   3   4
HETATM    4  N4  UNL     1     -99.139 -14.506  50.307  1.00  0.00    -0.372 N 
ATOM      5  H4  UNL     1     -99.909 -14.279  50.936  1.00  0.00     0.161 HD
BRANCH   4   6
HETATM    6  C6  UNL     1     -97.918 -13.820  50.500  1.00  0.00     0.091 C 
HETATM    7  C7  UNL     1     -97.689 -13.529  51.947  1.00  0.00     0.012 C 
HETATM    8  C8  UNL     1     -97.213 -14.720  52.739  1.00  0.00     0.011 C 
HETATM    9  C15 UNL     1     -96.650 -12.414  52.076  1.00  0.00     0.044 C 
HETATM   10  C9  UNL     1     -95.926 -15.200  52.147  1.00  0.00    -0.011 C 
HETATM   11  C10 UNL     1     -96.153 -15.603  50.713  1.00  0.00     0.011 C 
HETATM   12  C14 UNL     1     -94.890 -14.088  52.214  1.00  0.00     0.042 C 
HETATM   13  C11 UNL     1     -96.687 -14.447  49.926  1.00  0.00     0.012 C 
HETATM   14  C12 UNL     1     -95.604 -13.355  49.993  1.00  0.00     0.044 C 
HETATM   15  C13 UNL     1     -95.399 -12.887  51.407  1.00  0.00     0.059 C 
BRANCH  15  16
HETATM   16  O1  UNL     1     -94.416 -11.912  51.384  1.00  0.00    -0.390 OA
ATOM     17  H1  UNL     1     -93.662 -12.279  50.940  1.00  0.00     0.210 HD
ENDBRANCH  15  16
ENDBRANCH   4   6
ENDBRANCH   3   4
BRANCH   3  18
HETATM   18  C16 UNL     1     -99.977 -16.795  49.672  1.00  0.00     0.156 C 
HETATM   19  C17 UNL     1     -99.073 -17.419  50.696  1.00  0.00     0.035 C 
HETATM   20  C18 UNL     1     -99.684 -17.027  52.008  1.00  0.00     0.022 C 
HETATM   21  C19 UNL     1    -101.154 -16.967  51.705  1.00  0.00     0.127 C 
HETATM   22  N5  UNL     1    -101.273 -16.635  50.301  1.00  0.00    -0.340 N 
HETATM   23  C20 UNL     1    -102.476 -16.230  49.676  1.00  0.00     0.224 C 
HETATM   24  O2  UNL     1    -103.514 -16.126  50.419  1.00  0.00    -0.273 OA
BRANCH  23  25
HETATM   25  C21 UNL     1    -102.635 -15.918  48.243  1.00  0.00     0.078 C 
HETATM   26  C22 UNL     1    -104.099 -15.630  47.953  1.00  0.00     0.014 C 
HETATM   27  C23 UNL     1    -104.779 -16.956  47.810  1.00  0.00     0.001 C 
HETATM   28  C24 UNL     1    -103.689 -17.954  47.493  1.00  0.00     0.001 C 
HETATM   29  C25 UNL     1    -102.406 -17.145  47.372  1.00  0.00     0.014 C 
ENDBRANCH  23  25
ENDBRANCH   3  18
BRANCH   1  30
HETATM   30  N2  UNL     1     -99.268 -16.149  47.035  1.00  0.00    -0.281 N 
ATOM     31  H2  UNL     1     -99.611 -17.097  47.192  1.00  0.00     0.188 HD
BRANCH  30  32
HETATM   32  C4  UNL     1     -98.966 -15.691  45.706  1.00  0.00     0.164 A 
HETATM   33  C3  UNL     1     -97.739 -15.452  45.134  1.00  0.00     0.143 A 
HETATM   34  N1  UNL     1     -97.891 -15.030  43.865  1.00  0.00    -0.348 N 
HETATM   35  C26 UNL     1     -99.214 -15.005  43.641  1.00  0.00     0.218 A 
HETATM   36  N6  UNL     1     -99.877 -15.409  44.767  1.00  0.00    -0.201 N 
BRANCH  34  37
HETATM   37  C2  UNL     1     -96.793 -14.697  42.968  1.00  0.00     0.124 C 
HETATM   38  C1  UNL     1     -95.549 -15.466  43.282  1.00  0.00     0.027 C 
ENDBRANCH  34  37
BRANCH  36  39
HETATM   39  O3  UNL     1    -101.238 -15.476  44.827  1.00  0.00    -0.280 OA
ATOM     40  H3  UNL     1    -101.845 -15.978  44.296  1.00  0.00     0.245 HD
ENDBRANCH  36  39
ENDBRANCH  30  32
ENDBRANCH   1  30
TORSDOF 9
ENDMDL
MODEL 5
REMARK VINA RESULT: -7.166630686      1.973      5.487
REMARK  9 active torsions:
REMARK  status: ('A' for Active; 'I' for Inactive)
REMARK    1  A    between atoms: C2_2  and  N1_3 
REMARK    2  A    between atoms: C4_5  and  N2_6 
REMARK    3  A    between atoms: N2_6  and  N3_8 
REMARK    4  A    between atoms: C5_10  and  N4_11 
REMARK    5  A    between atoms: C5_10  and  C16_25 
REMARK    6  A    between atoms: N4_11  and  C6_13 
REMARK    7  A    between atoms: C13_20  and  O1_21 
REMARK       I    between atoms: N5_29  and  C20_30 
REMARK    8  A    between atoms: C20_30  and  C21_32 
REMARK    9  A    between atoms: N6_37  and  O3_38 
ROOT
HETATM    1  N3  UNL     1     -99.158 -13.282  51.232  1.00  0.00    -0.286 N 
ATOM      2  H3  UNL     1     -99.647 -12.788  50.485  1.00  0.00     0.188 HD
HETATM    3  C5  UNL     1     -98.093 -13.890  50.898  1.00  0.00     0.115 C 
ENDROOT
BRANCH   3   4
HETATM    4  N4  UNL     1     -97.607 -13.885  49.554  1.00  0.00    -0.372 N 
ATOM      5  H4  UNL     1     -96.630 -13.628  49.410  1.00  0.00     0.161 HD
BRANCH   4   6
HETATM    6  C6  UNL     1     -98.369 -14.209  48.410  1.00  0.00     0.091 C 
HETATM    7  C7  UNL     1     -97.486 -14.534  47.250  1.00  0.00     0.012 C 
HETATM    8  C8  UNL     1     -96.886 -15.915  47.312  1.00  0.00     0.011 C 
HETATM    9  C15 UNL     1     -98.292 -14.413  45.955  1.00  0.00     0.044 C 
HETATM   10  C9  UNL     1     -97.998 -16.915  47.350  1.00  0.00    -0.011 C 
HETATM   11  C10 UNL     1     -98.846 -16.676  48.573  1.00  0.00     0.011 C 
HETATM   12  C14 UNL     1     -98.848 -16.777  46.097  1.00  0.00     0.042 C 
HETATM   13  C11 UNL     1     -99.398 -15.285  48.558  1.00  0.00     0.012 C 
HETATM   14  C12 UNL     1    -100.272 -15.190  47.294  1.00  0.00     0.044 C 
HETATM   15  C13 UNL     1     -99.442 -15.364  46.052  1.00  0.00     0.059 C 
BRANCH  15  16
HETATM   16  O1  UNL     1    -100.294 -15.268  44.966  1.00  0.00    -0.390 OA
ATOM     17  H1  UNL     1    -100.709 -14.415  45.003  1.00  0.00     0.210 HD
ENDBRANCH  15  16
ENDBRANCH   4   6
ENDBRANCH   3   4
BRANCH   3  18
HETATM   18  C16 UNL     1     -97.357 -14.630  51.948  1.00  0.00     0.156 C 
HETATM   19  C17 UNL     1     -97.613 -16.092  51.719  1.00  0.00     0.035 C 
HETATM   20  C18 UNL     1     -96.440 -16.544  50.903  1.00  0.00     0.022 C 
HETATM   21  C19 UNL     1     -95.319 -15.669  51.387  1.00  0.00     0.127 C 
HETATM   22  N5  UNL     1     -95.925 -14.435  51.842  1.00  0.00    -0.340 N 
HETATM   23  C20 UNL     1     -95.205 -13.252  52.130  1.00  0.00     0.224 C 
HETATM   24  O2  UNL     1     -93.938 -13.279  51.947  1.00  0.00    -0.273 OA
BRANCH  23  25
HETATM   25  C21 UNL     1     -95.791 -11.991  52.626  1.00  0.00     0.078 C 
HETATM   26  C22 UNL     1     -94.672 -11.022  52.973  1.00  0.00     0.014 C 
HETATM   27  C23 UNL     1     -94.176 -11.406  54.332  1.00  0.00     0.001 C 
HETATM   28  C24 UNL     1     -95.289 -12.200  54.976  1.00  0.00     0.001 C 
HETATM   29  C25 UNL     1     -96.446 -12.173  53.988  1.00  0.00     0.014 C 
ENDBRANCH  23  25
ENDBRANCH   3  18
BRANCH   1  30
HETATM   30  N2  UNL     1     -99.722 -13.212  52.469  1.00  0.00    -0.281 N 
ATOM     31  H2  UNL     1     -99.506 -12.437  53.095  1.00  0.00     0.188 HD
BRANCH  30  32
HETATM   32  C4  UNL     1    -100.629 -14.251  52.876  1.00  0.00     0.164 A 
HETATM   33  C3  UNL     1    -100.485 -15.177  53.883  1.00  0.00     0.143 A 
HETATM   34  N1  UNL     1    -101.566 -15.977  53.937  1.00  0.00    -0.348 N 
HETATM   35  C26 UNL     1    -102.387 -15.554  52.965  1.00  0.00     0.218 A 
HETATM   36  N6  UNL     1    -101.817 -14.496  52.311  1.00  0.00    -0.201 N 
BRANCH  34  37
HETATM   37  C2  UNL     1    -101.744 -17.059  54.894  1.00  0.00     0.124 C 
HETATM   38  C1  UNL     1    -100.671 -17.080  55.936  1.00  0.00     0.027 C 
ENDBRANCH  34  37
BRANCH  36  39
HETATM   39  O3  UNL     1    -102.431 -13.866  51.268  1.00  0.00    -0.280 OA
ATOM     40  H3  UNL     1    -103.334 -13.583  51.177  1.00  0.00     0.245 HD
ENDBRANCH  36  39
ENDBRANCH  30  32
ENDBRANCH   1  30
TORSDOF 9
ENDMDL
