MODEL 1
REMARK VINA RESULT: -8.019062880      0.000      0.000
REMARK  9 active torsions:
REMARK  status: ('A' for Active; 'I' for Inactive)
REMARK    1  A    between atoms: C2_2  and  O2_4 
REMARK    2  A    between atoms: O2_4  and  C3_5 
REMARK    3  A    between atoms: C7_9  and  C8_10 
REMARK    4  A    between atoms: C9_13  and  C10_14 
REMARK    5  A    between atoms: C10_14  and  C11_15 
REMARK    6  A    between atoms: C10_14  and  C20_28 
REMARK    7  A    between atoms: C13_17  and  C14_18 
REMARK    8  A    between atoms: C20_28  and  O4_29 
REMARK    9  A    between atoms: C20_28  and  C21_31 
ROOT
HETATM    1  C10 UNL     1     -26.117  -9.079 -27.513  1.00  0.00     0.091 C 
ENDROOT
BRANCH   1   2
HETATM    2  C9  UNL     1     -26.745  -7.718 -27.695  1.00  0.00     0.099 C 
HETATM    3  N1  UNL     1     -25.969  -6.747 -28.289  1.00  0.00    -0.399 N 
HETATM    4  C8  UNL     1     -25.511  -5.681 -27.522  1.00  0.00     0.173 C 
ATOM      5  H1  UNL     1     -25.733  -6.808 -29.280  1.00  0.00     0.155 HD
HETATM    6  S1  UNL     1     -26.254  -5.964 -25.885  1.00  0.00    -0.137 SA
HETATM    7  C23 UNL     1     -27.438  -7.248 -26.436  1.00  0.00     0.102 C 
BRANCH   4   8
HETATM    8  C7  UNL     1     -26.066  -4.365 -27.997  1.00  0.00    -0.025 A 
HETATM    9  C6  UNL     1     -25.344  -3.546 -28.834  1.00  0.00     0.019 A 
HETATM   10  C4  UNL     1     -25.827  -2.337 -29.285  1.00  0.00    -0.027 A 
HETATM   11  C3  UNL     1     -27.101  -1.921 -28.877  1.00  0.00     0.091 A 
HETATM   12  C5  UNL     1     -25.032  -1.480 -30.181  1.00  0.00     0.051 C 
HETATM   13  C25 UNL     1     -27.841  -2.727 -28.038  1.00  0.00    -0.027 A 
HETATM   14  C24 UNL     1     -27.316  -3.948 -27.601  1.00  0.00     0.019 A 
HETATM   15  C26 UNL     1     -29.188  -2.268 -27.617  1.00  0.00     0.051 C 
BRANCH  11  16
HETATM   16  O2  UNL     1     -27.648  -0.715 -29.292  1.00  0.00    -0.278 OA
BRANCH  16  17
HETATM   17  C2  UNL     1     -27.282   0.494 -28.740  1.00  0.00     0.260 C 
HETATM   18  C1  UNL     1     -27.296   0.787 -27.289  1.00  0.00     0.126 C 
HETATM   19  O1  UNL     1     -26.912   1.416 -29.508  1.00  0.00    -0.265 OA
ENDBRANCH  16  17
ENDBRANCH  11  16
ENDBRANCH   4   8
ENDBRANCH   1   2
BRANCH   1  20
HETATM   20  C11 UNL     1     -24.828  -9.043 -26.774  1.00  0.00     0.044 A 
HETATM   21  C12 UNL     1     -24.563  -9.486 -25.489  1.00  0.00     0.067 A 
HETATM   22  C13 UNL     1     -23.243  -9.259 -25.225  1.00  0.00     0.109 A 
HETATM   23  O3  UNL     1     -22.758  -8.710 -26.306  1.00  0.00    -0.237 OA
HETATM   24  N2  UNL     1     -23.655  -8.571 -27.225  1.00  0.00    -0.264 N 
ATOM     25  H2  UNL     1     -23.498  -8.166 -28.147  1.00  0.00     0.194 HD
BRANCH  22  26
HETATM   26  C14 UNL     1     -22.554  -9.581 -23.977  1.00  0.00     0.008 C 
HETATM   27  C15 UNL     1     -22.346  -8.621 -23.101  1.00  0.00    -0.014 C 
HETATM   28  C16 UNL     1     -21.655  -8.870 -21.812  1.00  0.00     0.028 C 
HETATM   29  C17 UNL     1     -20.607  -9.918 -22.048  1.00  0.00     0.007 C 
HETATM   30  C18 UNL     1     -21.168 -11.181 -22.641  1.00  0.00     0.042 C 
HETATM   31  C19 UNL     1     -22.125 -10.968 -23.760  1.00  0.00     0.205 C 
HETATM   32  F1  UNL     1     -23.244 -11.775 -23.673  1.00  0.00    -0.244 F 
ENDBRANCH  22  26
ENDBRANCH   1  20
BRANCH   1  33
HETATM   33  C20 UNL     1     -25.921  -9.826 -28.786  1.00  0.00     0.148 C 
BRANCH  33  34
HETATM   34  O4  UNL     1     -26.696  -9.366 -29.834  1.00  0.00    -0.393 OA
ATOM     35  H4  UNL     1     -26.673  -9.922 -30.604  1.00  0.00     0.210 HD
ENDBRANCH  33  34
BRANCH  33  36
HETATM   36  C21 UNL     1     -26.259 -11.287 -28.576  1.00  0.00     0.107 C 
HETATM   37  C22 UNL     1     -27.282 -11.491 -27.489  1.00  0.00     0.029 C 
HETATM   38 CL1  UNL     1     -24.832 -12.268 -28.245  1.00  0.00    -0.123 Cl
ENDBRANCH  33  36
ENDBRANCH   1  33
TORSDOF 9
ENDMDL
MODEL 2
REMARK VINA RESULT: -7.976853522      1.883      2.600
REMARK  9 active torsions:
REMARK  status: ('A' for Active; 'I' for Inactive)
REMARK    1  A    between atoms: C2_2  and  O2_4 
REMARK    2  A    between atoms: O2_4  and  C3_5 
REMARK    3  A    between atoms: C7_9  and  C8_10 
REMARK    4  A    between atoms: C9_13  and  C10_14 
REMARK    5  A    between atoms: C10_14  and  C11_15 
REMARK    6  A    between atoms: C10_14  and  C20_28 
REMARK    7  A    between atoms: C13_17  and  C14_18 
REMARK    8  A    between atoms: C20_28  and  O4_29 
REMARK    9  A    between atoms: C20_28  and  C21_31 
ROOT
HETATM    1  C10 UNL     1     -27.173  -7.830 -25.948  1.00  0.00     0.091 C 
ENDROOT
BRANCH   1   2
HETATM    2  C9  UNL     1     -27.582  -6.459 -26.432  1.00  0.00     0.099 C 
HETATM    3  N1  UNL     1     -26.771  -5.861 -27.373  1.00  0.00    -0.399 N 
HETATM    4  C8  UNL     1     -26.007  -4.759 -27.008  1.00  0.00     0.173 C 
ATOM      5  H1  UNL     1     -26.733  -6.224 -28.326  1.00  0.00     0.155 HD
HETATM    6  S1  UNL     1     -26.478  -4.447 -25.278  1.00  0.00    -0.137 SA
HETATM    7  C23 UNL     1     -27.944  -5.545 -25.283  1.00  0.00     0.102 C 
BRANCH   4   8
HETATM    8  C7  UNL     1     -26.405  -3.521 -27.766  1.00  0.00    -0.025 A 
HETATM    9  C6  UNL     1     -27.623  -2.916 -27.555  1.00  0.00     0.019 A 
HETATM   10  C4  UNL     1     -28.013  -1.782 -28.234  1.00  0.00    -0.027 A 
HETATM   11  C3  UNL     1     -27.141  -1.221 -29.176  1.00  0.00     0.091 A 
HETATM   12  C5  UNL     1     -29.324  -1.155 -27.988  1.00  0.00     0.051 C 
HETATM   13  C25 UNL     1     -25.916  -1.812 -29.402  1.00  0.00    -0.027 A 
HETATM   14  C24 UNL     1     -25.555  -2.963 -28.693  1.00  0.00     0.019 A 
HETATM   15  C26 UNL     1     -25.007  -1.202 -30.404  1.00  0.00     0.051 C 
BRANCH  11  16
HETATM   16  O2  UNL     1     -27.471  -0.081 -29.895  1.00  0.00    -0.278 OA
BRANCH  16  17
HETATM   17  C2  UNL     1     -27.067   1.180 -29.511  1.00  0.00     0.260 C 
HETATM   18  C1  UNL     1     -27.300   1.759 -28.168  1.00  0.00     0.126 C 
HETATM   19  O1  UNL     1     -26.462   1.895 -30.347  1.00  0.00    -0.265 OA
ENDBRANCH  16  17
ENDBRANCH  11  16
ENDBRANCH   4   8
ENDBRANCH   1   2
BRANCH   1  20
HETATM   20  C11 UNL     1     -25.701  -8.012 -25.859  1.00  0.00     0.044 A 
HETATM   21  C12 UNL     1     -24.949  -8.394 -24.760  1.00  0.00     0.067 A 
HETATM   22  C13 UNL     1     -23.639  -8.438 -25.137  1.00  0.00     0.109 A 
HETATM   23  O3  UNL     1     -23.624  -8.098 -26.398  1.00  0.00    -0.237 OA
HETATM   24  N2  UNL     1     -24.808  -7.845 -26.846  1.00  0.00    -0.264 N 
ATOM     25  H2  UNL     1     -25.030  -7.562 -27.800  1.00  0.00     0.194 HD
BRANCH  22  26
HETATM   26  C14 UNL     1     -22.513  -8.796 -24.275  1.00  0.00     0.008 C 
HETATM   27  C15 UNL     1     -21.481  -9.415 -24.805  1.00  0.00    -0.014 C 
HETATM   28  C16 UNL     1     -20.301  -9.810 -23.995  1.00  0.00     0.028 C 
HETATM   29  C17 UNL     1     -20.789 -10.188 -22.627  1.00  0.00     0.007 C 
HETATM   30  C18 UNL     1     -21.586  -9.094 -21.970  1.00  0.00     0.042 C 
HETATM   31  C19 UNL     1     -22.592  -8.445 -22.852  1.00  0.00     0.205 C 
HETATM   32  F1  UNL     1     -22.605  -7.068 -22.731  1.00  0.00    -0.244 F 
ENDBRANCH  22  26
ENDBRANCH   1  20
BRANCH   1  33
HETATM   33  C20 UNL     1     -27.749  -8.946 -26.749  1.00  0.00     0.148 C 
BRANCH  33  34
HETATM   34  O4  UNL     1     -27.495  -8.855 -28.104  1.00  0.00    -0.393 OA
ATOM     35  H4  UNL     1     -28.156  -9.265 -28.649  1.00  0.00     0.210 HD
ENDBRANCH  33  34
BRANCH  33  36
HETATM   36  C21 UNL     1     -29.251  -8.979 -26.568  1.00  0.00     0.107 C 
HETATM   37  C22 UNL     1     -29.654  -9.300 -25.152  1.00  0.00     0.029 C 
HETATM   38 CL1  UNL     1     -30.039 -10.097 -27.681  1.00  0.00    -0.123 Cl
ENDBRANCH  33  36
ENDBRANCH   1  33
TORSDOF 9
ENDMDL
MODEL 3
REMARK VINA RESULT: -7.973203126      0.062      1.432
REMARK  9 active torsions:
REMARK  status: ('A' for Active; 'I' for Inactive)
REMARK    1  A    between atoms: C2_2  and  O2_4 
REMARK    2  A    between atoms: O2_4  and  C3_5 
REMARK    3  A    between atoms: C7_9  and  C8_10 
REMARK    4  A    between atoms: C9_13  and  C10_14 
REMARK    5  A    between atoms: C10_14  and  C11_15 
REMARK    6  A    between atoms: C10_14  and  C20_28 
REMARK    7  A    between atoms: C13_17  and  C14_18 
REMARK    8  A    between atoms: C20_28  and  O4_29 
REMARK    9  A    between atoms: C20_28  and  C21_31 
ROOT
HETATM    1  C10 UNL     1     -26.143  -9.102 -27.498  1.00  0.00     0.091 C 
ENDROOT
BRANCH   1   2
HETATM    2  C9  UNL     1     -26.776  -7.743 -27.674  1.00  0.00     0.099 C 
HETATM    3  N1  UNL     1     -26.004  -6.766 -28.264  1.00  0.00    -0.399 N 
HETATM    4  C8  UNL     1     -25.550  -5.702 -27.492  1.00  0.00     0.173 C 
ATOM      5  H1  UNL     1     -25.767  -6.823 -29.255  1.00  0.00     0.155 HD
HETATM    6  S1  UNL     1     -26.293  -5.995 -25.856  1.00  0.00    -0.137 SA
HETATM    7  C23 UNL     1     -27.472  -7.281 -26.414  1.00  0.00     0.102 C 
BRANCH   4   8
HETATM    8  C7  UNL     1     -26.110  -4.386 -27.962  1.00  0.00    -0.025 A 
HETATM    9  C6  UNL     1     -27.359  -3.961 -27.569  1.00  0.00     0.019 A 
HETATM   10  C4  UNL     1     -27.896  -2.761 -27.984  1.00  0.00    -0.027 A 
HETATM   11  C3  UNL     1     -27.147  -1.940 -28.836  1.00  0.00     0.091 A 
HETATM   12  C5  UNL     1     -29.236  -2.331 -27.548  1.00  0.00     0.051 C 
HETATM   13  C25 UNL     1     -25.893  -2.348 -29.241  1.00  0.00    -0.027 A 
HETATM   14  C24 UNL     1     -25.381  -3.574 -28.799  1.00  0.00     0.019 A 
HETATM   15  C26 UNL     1     -25.116  -1.464 -30.144  1.00  0.00     0.051 C 
BRANCH  11  16
HETATM   16  O2  UNL     1     -27.627  -0.721 -29.291  1.00  0.00    -0.278 OA
BRANCH  16  17
HETATM   17  C2  UNL     1     -27.316   0.474 -28.678  1.00  0.00     0.260 C 
HETATM   18  C1  UNL     1     -27.325   0.688 -27.213  1.00  0.00     0.126 C 
HETATM   19  O1  UNL     1     -27.003   1.453 -29.399  1.00  0.00    -0.265 OA
ENDBRANCH  16  17
ENDBRANCH  11  16
ENDBRANCH   4   8
ENDBRANCH   1   2
BRANCH   1  20
HETATM   20  C11 UNL     1     -24.855  -9.064 -26.758  1.00  0.00     0.044 A 
HETATM   21  C12 UNL     1     -24.591  -9.501 -25.470  1.00  0.00     0.067 A 
HETATM   22  C13 UNL     1     -23.272  -9.275 -25.207  1.00  0.00     0.109 A 
HETATM   23  O3  UNL     1     -22.785  -8.733 -26.291  1.00  0.00    -0.237 OA
HETATM   24  N2  UNL     1     -23.681  -8.597 -27.211  1.00  0.00    -0.264 N 
ATOM     25  H2  UNL     1     -23.522  -8.198 -28.136  1.00  0.00     0.194 HD
BRANCH  22  26
HETATM   26  C14 UNL     1     -22.584  -9.591 -23.957  1.00  0.00     0.008 C 
HETATM   27  C15 UNL     1     -22.359  -8.624 -23.094  1.00  0.00    -0.014 C 
HETATM   28  C16 UNL     1     -21.668  -8.866 -21.804  1.00  0.00     0.028 C 
HETATM   29  C17 UNL     1     -20.637  -9.933 -22.029  1.00  0.00     0.007 C 
HETATM   30  C18 UNL     1     -21.219 -11.195 -22.604  1.00  0.00     0.042 C 
HETATM   31  C19 UNL     1     -22.175 -10.982 -23.723  1.00  0.00     0.205 C 
HETATM   32  F1  UNL     1     -23.306 -11.770 -23.623  1.00  0.00    -0.244 F 
ENDBRANCH  22  26
ENDBRANCH   1  20
BRANCH   1  33
HETATM   33  C20 UNL     1     -25.944  -9.843 -28.774  1.00  0.00     0.148 C 
BRANCH  33  34
HETATM   34  O4  UNL     1     -26.720  -9.381 -29.820  1.00  0.00    -0.393 OA
ATOM     35  H4  UNL     1     -27.652  -9.520 -29.701  1.00  0.00     0.210 HD
ENDBRANCH  33  34
BRANCH  33  36
HETATM   36  C21 UNL     1     -26.278 -11.306 -28.570  1.00  0.00     0.107 C 
HETATM   37  C22 UNL     1     -27.294 -11.518 -27.479  1.00  0.00     0.029 C 
HETATM   38 CL1  UNL     1     -24.847 -12.286 -28.253  1.00  0.00    -0.123 Cl
ENDBRANCH  33  36
ENDBRANCH   1  33
TORSDOF 9
ENDMDL
MODEL 4
REMARK VINA RESULT: -7.865869401      3.020      8.867
REMARK  9 active torsions:
REMARK  status: ('A' for Active; 'I' for Inactive)
REMARK    1  A    between atoms: C2_2  and  O2_4 
REMARK    2  A    between atoms: O2_4  and  C3_5 
REMARK    3  A    between atoms: C7_9  and  C8_10 
REMARK    4  A    between atoms: C9_13  and  C10_14 
REMARK    5  A    between atoms: C10_14  and  C11_15 
REMARK    6  A    between atoms: C10_14  and  C20_28 
REMARK    7  A    between atoms: C13_17  and  C14_18 
REMARK    8  A    between atoms: C20_28  and  O4_29 
REMARK    9  A    between atoms: C20_28  and  C21_31 
ROOT
HETATM    1  C10 UNL     1     -27.728  -8.040 -26.928  1.00  0.00     0.091 C 
ENDROOT
BRANCH   1   2
HETATM    2  C9  UNL     1     -26.432  -8.751 -26.619  1.00  0.00     0.099 C 
HETATM    3  N1  UNL     1     -25.731  -8.319 -25.513  1.00  0.00    -0.399 N 
HETATM    4  C8  UNL     1     -24.529  -7.645 -25.694  1.00  0.00     0.173 C 
ATOM      5  H1  UNL     1     -26.090  -8.492 -24.574  1.00  0.00     0.155 HD
HETATM    6  S1  UNL     1     -24.277  -7.665 -27.497  1.00  0.00    -0.137 SA
HETATM    7  C23 UNL     1     -25.573  -8.910 -27.853  1.00  0.00     0.102 C 
BRANCH   4   8
HETATM    8  C7  UNL     1     -23.365  -8.402 -25.114  1.00  0.00    -0.025 A 
HETATM    9  C6  UNL     1     -22.545  -9.170 -25.909  1.00  0.00     0.019 A 
HETATM   10  C4  UNL     1     -21.473  -9.873 -25.405  1.00  0.00    -0.027 A 
HETATM   11  C3  UNL     1     -21.203  -9.809 -24.032  1.00  0.00     0.091 A 
HETATM   12  C5  UNL     1     -20.611 -10.687 -26.280  1.00  0.00     0.051 C 
HETATM   13  C25 UNL     1     -22.013  -9.045 -23.218  1.00  0.00    -0.027 A 
HETATM   14  C24 UNL     1     -23.093  -8.345 -23.766  1.00  0.00     0.019 A 
HETATM   15  C26 UNL     1     -21.711  -8.990 -21.766  1.00  0.00     0.051 C 
BRANCH  11  16
HETATM   16  O2  UNL     1     -20.141 -10.492 -23.459  1.00  0.00    -0.278 OA
BRANCH  16  17
HETATM   17  C2  UNL     1     -20.182 -11.846 -23.203  1.00  0.00     0.260 C 
HETATM   18  C1  UNL     1     -21.240 -12.513 -22.410  1.00  0.00     0.126 C 
HETATM   19  O1  UNL     1     -19.268 -12.572 -23.665  1.00  0.00    -0.265 OA
ENDBRANCH  16  17
ENDBRANCH  11  16
ENDBRANCH   4   8
ENDBRANCH   1   2
BRANCH   1  20
HETATM   20  C11 UNL     1     -27.637  -6.562 -26.806  1.00  0.00     0.044 A 
HETATM   21  C12 UNL     1     -27.107  -5.658 -27.712  1.00  0.00     0.067 A 
HETATM   22  C13 UNL     1     -27.240  -4.405 -27.188  1.00  0.00     0.109 A 
HETATM   23  O3  UNL     1     -27.820  -4.568 -26.030  1.00  0.00    -0.237 OA
HETATM   24  N2  UNL     1     -28.064  -5.811 -25.779  1.00  0.00    -0.264 N 
ATOM     25  H2  UNL     1     -28.511  -6.167 -24.934  1.00  0.00     0.194 HD
BRANCH  22  26
HETATM   26  C14 UNL     1     -26.807  -3.162 -27.825  1.00  0.00     0.008 C 
HETATM   27  C15 UNL     1     -27.429  -2.044 -27.522  1.00  0.00    -0.014 C 
HETATM   28  C16 UNL     1     -27.047  -0.743 -28.126  1.00  0.00     0.028 C 
HETATM   29  C17 UNL     1     -26.605  -1.005 -29.536  1.00  0.00     0.007 C 
HETATM   30  C18 UNL     1     -25.495  -2.016 -29.622  1.00  0.00     0.042 C 
HETATM   31  C19 UNL     1     -25.692  -3.224 -28.777  1.00  0.00     0.205 C 
HETATM   32  F1  UNL     1     -24.546  -3.601 -28.102  1.00  0.00    -0.244 F 
ENDBRANCH  22  26
ENDBRANCH   1  20
BRANCH   1  33
HETATM   33  C20 UNL     1     -28.884  -8.519 -26.120  1.00  0.00     0.148 C 
BRANCH  33  34
HETATM   34  O4  UNL     1     -28.700  -8.409 -24.755  1.00  0.00    -0.393 OA
ATOM     35  H4  UNL     1     -29.191  -7.701 -24.354  1.00  0.00     0.210 HD
ENDBRANCH  33  34
BRANCH  33  36
HETATM   36  C21 UNL     1     -29.151  -9.977 -26.429  1.00  0.00     0.107 C 
HETATM   37  C22 UNL     1     -30.331 -10.165 -27.346  1.00  0.00     0.029 C 
HETATM   38 CL1  UNL     1     -29.368 -10.945 -24.971  1.00  0.00    -0.123 Cl
ENDBRANCH  33  36
ENDBRANCH   1  33
TORSDOF 9
ENDMDL
MODEL 5
REMARK VINA RESULT: -7.829213676      3.017      8.936
REMARK  9 active torsions:
REMARK  status: ('A' for Active; 'I' for Inactive)
REMARK    1  A    between atoms: C2_2  and  O2_4 
REMARK    2  A    between atoms: O2_4  and  C3_5 
REMARK    3  A    between atoms: C7_9  and  C8_10 
REMARK    4  A    between atoms: C9_13  and  C10_14 
REMARK    5  A    between atoms: C10_14  and  C11_15 
REMARK    6  A    between atoms: C10_14  and  C20_28 
REMARK    7  A    between atoms: C13_17  and  C14_18 
REMARK    8  A    between atoms: C20_28  and  O4_29 
REMARK    9  A    between atoms: C20_28  and  C21_31 
ROOT
HETATM    1  C10 UNL     1     -27.718  -8.057 -26.928  1.00  0.00     0.091 C 
ENDROOT
BRANCH   1   2
HETATM    2  C9  UNL     1     -26.415  -8.758 -26.626  1.00  0.00     0.099 C 
HETATM    3  N1  UNL     1     -25.724  -8.338 -25.510  1.00  0.00    -0.399 N 
HETATM    4  C8  UNL     1     -24.528  -7.647 -25.672  1.00  0.00     0.173 C 
ATOM      5  H1  UNL     1     -26.085  -8.533 -24.575  1.00  0.00     0.155 HD
HETATM    6  S1  UNL     1     -24.269  -7.631 -27.474  1.00  0.00    -0.137 SA
HETATM    7  C23 UNL     1     -25.548  -8.884 -27.858  1.00  0.00     0.102 C 
BRANCH   4   8
HETATM    8  C7  UNL     1     -23.358  -8.401 -25.101  1.00  0.00    -0.025 A 
HETATM    9  C6  UNL     1     -23.064  -8.350 -23.758  1.00  0.00     0.019 A 
HETATM   10  C4  UNL     1     -21.999  -9.031 -23.208  1.00  0.00    -0.027 A 
HETATM   11  C3  UNL     1     -21.183  -9.804 -24.043  1.00  0.00     0.091 A 
HETATM   12  C5  UNL     1     -21.706  -8.959 -21.766  1.00  0.00     0.051 C 
HETATM   13  C25 UNL     1     -21.461  -9.868 -25.392  1.00  0.00    -0.027 A 
HETATM   14  C24 UNL     1     -22.551  -9.162 -25.915  1.00  0.00     0.019 A 
HETATM   15  C26 UNL     1     -20.584 -10.692 -26.261  1.00  0.00     0.051 C 
BRANCH  11  16
HETATM   16  O2  UNL     1     -20.095 -10.514 -23.556  1.00  0.00    -0.278 OA
BRANCH  16  17
HETATM   17  C2  UNL     1     -20.168 -11.851 -23.230  1.00  0.00     0.260 C 
HETATM   18  C1  UNL     1     -21.248 -12.454 -22.415  1.00  0.00     0.126 C 
HETATM   19  O1  UNL     1     -19.265 -12.619 -23.643  1.00  0.00    -0.265 OA
ENDBRANCH  16  17
ENDBRANCH  11  16
ENDBRANCH   4   8
ENDBRANCH   1   2
BRANCH   1  20
HETATM   20  C11 UNL     1     -27.636  -6.578 -26.810  1.00  0.00     0.044 A 
HETATM   21  C12 UNL     1     -27.106  -5.673 -27.716  1.00  0.00     0.067 A 
HETATM   22  C13 UNL     1     -27.249  -4.420 -27.197  1.00  0.00     0.109 A 
HETATM   23  O3  UNL     1     -27.835  -4.583 -26.041  1.00  0.00    -0.237 OA
HETATM   24  N2  UNL     1     -28.073  -5.826 -25.788  1.00  0.00    -0.264 N 
ATOM     25  H2  UNL     1     -28.522  -6.182 -24.945  1.00  0.00     0.194 HD
BRANCH  22  26
HETATM   26  C14 UNL     1     -26.821  -3.176 -27.836  1.00  0.00     0.008 C 
HETATM   27  C15 UNL     1     -27.447  -2.060 -27.535  1.00  0.00    -0.014 C 
HETATM   28  C16 UNL     1     -27.069  -0.759 -28.141  1.00  0.00     0.028 C 
HETATM   29  C17 UNL     1     -26.625  -1.021 -29.550  1.00  0.00     0.007 C 
HETATM   30  C18 UNL     1     -25.511  -2.028 -29.633  1.00  0.00     0.042 C 
HETATM   31  C19 UNL     1     -25.704  -3.236 -28.787  1.00  0.00     0.205 C 
HETATM   32  F1  UNL     1     -24.558  -3.608 -28.110  1.00  0.00    -0.244 F 
ENDBRANCH  22  26
ENDBRANCH   1  20
BRANCH   1  33
HETATM   33  C20 UNL     1     -28.865  -8.541 -26.111  1.00  0.00     0.148 C 
BRANCH  33  34
HETATM   34  O4  UNL     1     -28.662  -8.452 -24.747  1.00  0.00    -0.393 OA
ATOM     35  H4  UNL     1     -29.369  -8.025 -24.278  1.00  0.00     0.210 HD
ENDBRANCH  33  34
BRANCH  33  36
HETATM   36  C21 UNL     1     -29.143  -9.994 -26.436  1.00  0.00     0.107 C 
HETATM   37  C22 UNL     1     -30.336 -10.163 -27.341  1.00  0.00     0.029 C 
HETATM   38 CL1  UNL     1     -29.347 -10.980 -24.989  1.00  0.00    -0.123 Cl
ENDBRANCH  33  36
ENDBRANCH   1  33
TORSDOF 9
ENDMDL
