MODEL 1
REMARK VINA RESULT: -8.681177037      0.000      0.000
REMARK  5 active torsions:
REMARK  status: ('A' for Active; 'I' for Inactive)
REMARK    1  A    between atoms: C7_10  and  S1_11 
REMARK    2  A    between atoms: S1_11  and  C8_12 
REMARK    3  A    between atoms: C8_12  and  C9_13 
REMARK    4  A    between atoms: C12_19  and  N3_20 
REMARK    5  A    between atoms: C16_28  and  C17_29 
ROOT
HETATM    1  C1  UNL     1     -30.175   0.646 -27.984  1.00  0.00     0.229 C 
HETATM    2  N1  UNL     1     -29.378  -0.192 -28.035  1.00  0.00    -0.428 NA
HETATM    3  C2  UNL     1     -28.419  -1.178 -28.103  1.00  0.00     0.123 A 
HETATM    4  C3  UNL     1     -27.313  -0.963 -28.907  1.00  0.00     0.071 A 
HETATM    5  C4  UNL     1     -26.329  -1.916 -29.009  1.00  0.00     0.059 A 
HETATM    6 CL1  UNL     1     -24.921  -1.693 -30.004  1.00  0.00    -0.082 Cl
HETATM    7  C5  UNL     1     -26.462  -3.091 -28.297  1.00  0.00     0.057 A 
HETATM    8 CL2  UNL     1     -25.224  -4.314 -28.412  1.00  0.00    -0.083 Cl
HETATM    9  C6  UNL     1     -27.545  -3.334 -27.494  1.00  0.00     0.047 A 
HETATM   10  C7  UNL     1     -28.520  -2.369 -27.403  1.00  0.00     0.043 A 
ENDROOT
BRANCH  10  11
HETATM   11  S1  UNL     1     -29.974  -2.583 -26.384  1.00  0.00    -0.120 SA
BRANCH  11  12
HETATM   12  C8  UNL     1     -29.496  -3.093 -24.703  1.00  0.00     0.137 C 
BRANCH  12  13
HETATM   13  C9  UNL     1     -28.998  -1.872 -24.013  1.00  0.00     0.041 A 
HETATM   14  C10 UNL     1     -28.545  -1.986 -22.715  1.00  0.00     0.101 A 
HETATM   15  C11 UNL     1     -28.069  -0.900 -22.014  1.00  0.00     0.261 A 
HETATM   16  O1  UNL     1     -27.666  -1.028 -20.842  1.00  0.00    -0.268 OA
HETATM   17  N2  UNL     1     -28.069   0.293 -22.669  1.00  0.00    -0.156 N 
HETATM   18  C12 UNL     1     -28.498   0.438 -23.925  1.00  0.00     0.690 A 
ATOM     19  H2  UNL     1     -27.724   1.116 -22.176  1.00  0.00     0.187 HD
HETATM   20  N7  UNL     1     -28.963  -0.672 -24.578  1.00  0.00    -0.194 N 
ATOM     21  H7  UNL     1     -29.295  -0.573 -25.537  1.00  0.00     0.184 HD
BRANCH  18  22
HETATM   22  N3  UNL     1     -28.475   1.686 -24.611  1.00  0.00    -0.152 N 
HETATM   23  C13 UNL     1     -29.429   2.732 -24.491  1.00  0.00     0.114 C 
HETATM   24  N4  UNL     1     -30.100   3.148 -23.520  1.00  0.00    -0.387 N 
HETATM   25  C14 UNL     1     -29.470   3.340 -25.884  1.00  0.00     0.174 C 
ATOM     26  H42 UNL     1     -30.072   2.740 -22.586  1.00  0.00     0.157 HD
ATOM     27  H41 UNL     1     -30.785   3.899 -23.434  1.00  0.00     0.157 HD
HETATM   28  C15 UNL     1     -30.061   4.657 -25.868  1.00  0.00     0.072 C 
HETATM   29  C16 UNL     1     -27.984   3.364 -26.173  1.00  0.00     0.106 C 
HETATM   30  N5  UNL     1     -30.530   5.697 -25.870  1.00  0.00    -0.196 NA
HETATM   31  C21 UNL     1     -27.469   2.099 -25.584  1.00  0.00     0.228 C 
HETATM   32  C22 UNL     1     -26.169   2.259 -24.937  1.00  0.00     0.086 C 
HETATM   33  N6  UNL     1     -25.146   2.391 -24.448  1.00  0.00    -0.195 NA
BRANCH  29  34
HETATM   34  C17 UNL     1     -27.851   3.390 -27.664  1.00  0.00     0.061 A 
HETATM   35  C18 UNL     1     -27.120   2.546 -28.456  1.00  0.00     0.035 A 
HETATM   36  C19 UNL     1     -27.319   2.978 -29.765  1.00  0.00     0.027 A 
HETATM   37  C20 UNL     1     -28.156   4.052 -29.697  1.00  0.00     0.142 A 
HETATM   38  O2  UNL     1     -28.439   4.252 -28.427  1.00  0.00    -0.327 OA
ENDBRANCH  29  34
ENDBRANCH  18  22
ENDBRANCH  12  13
ENDBRANCH  11  12
ENDBRANCH  10  11
TORSDOF 5
ENDMDL
MODEL 2
REMARK VINA RESULT: -8.184017347      2.920      5.721
REMARK  5 active torsions:
REMARK  status: ('A' for Active; 'I' for Inactive)
REMARK    1  A    between atoms: C7_10  and  S1_11 
REMARK    2  A    between atoms: S1_11  and  C8_12 
REMARK    3  A    between atoms: C8_12  and  C9_13 
REMARK    4  A    between atoms: C12_19  and  N3_20 
REMARK    5  A    between atoms: C16_28  and  C17_29 
ROOT
HETATM    1  C1  UNL     1     -31.892   1.679 -25.742  1.00  0.00     0.229 C 
HETATM    2  N1  UNL     1     -31.017   1.947 -26.450  1.00  0.00    -0.428 NA
HETATM    3  C2  UNL     1     -29.982   2.256 -27.305  1.00  0.00     0.123 A 
HETATM    4  C3  UNL     1     -29.792   1.460 -28.421  1.00  0.00     0.071 A 
HETATM    5  C4  UNL     1     -28.774   1.727 -29.303  1.00  0.00     0.059 A 
HETATM    6 CL1  UNL     1     -28.496   0.757 -30.719  1.00  0.00    -0.082 Cl
HETATM    7  C5  UNL     1     -27.944   2.801 -29.057  1.00  0.00     0.057 A 
HETATM    8 CL2  UNL     1     -26.644   3.157 -30.166  1.00  0.00    -0.083 Cl
HETATM    9  C6  UNL     1     -28.105   3.607 -27.962  1.00  0.00     0.047 A 
HETATM   10  C7  UNL     1     -29.129   3.326 -27.090  1.00  0.00     0.043 A 
ENDROOT
BRANCH  10  11
HETATM   11  S1  UNL     1     -29.430   4.314 -25.629  1.00  0.00    -0.120 SA
BRANCH  11  12
HETATM   12  C8  UNL     1     -28.329   3.789 -24.277  1.00  0.00     0.137 C 
BRANCH  12  13
HETATM   13  C9  UNL     1     -28.807   2.451 -23.833  1.00  0.00     0.041 A 
HETATM   14  C10 UNL     1     -29.707   2.386 -22.789  1.00  0.00     0.101 A 
HETATM   15  C11 UNL     1     -30.194   1.183 -22.325  1.00  0.00     0.261 A 
HETATM   16  O1  UNL     1     -31.005   1.149 -21.380  1.00  0.00    -0.268 OA
HETATM   17  N2  UNL     1     -29.741   0.063 -22.951  1.00  0.00    -0.156 N 
HETATM   18  C12 UNL     1     -28.872   0.091 -23.965  1.00  0.00     0.690 A 
ATOM     19  H2  UNL     1     -30.082  -0.842 -22.629  1.00  0.00     0.187 HD
HETATM   20  N7  UNL     1     -28.418   1.311 -24.388  1.00  0.00    -0.194 N 
ATOM     21  H7  UNL     1     -27.753   1.344 -25.160  1.00  0.00     0.184 HD
BRANCH  18  22
HETATM   22  N3  UNL     1     -28.421  -1.086 -24.628  1.00  0.00    -0.152 N 
HETATM   23  C13 UNL     1     -27.695  -2.157 -24.043  1.00  0.00     0.114 C 
HETATM   24  N4  UNL     1     -27.738  -2.677 -22.905  1.00  0.00    -0.387 N 
HETATM   25  C14 UNL     1     -26.787  -2.630 -25.167  1.00  0.00     0.174 C 
ATOM     26  H42 UNL     1     -28.348  -2.360 -22.151  1.00  0.00     0.157 HD
ATOM     27  H41 UNL     1     -27.218  -3.447 -22.485  1.00  0.00     0.157 HD
HETATM   28  C15 UNL     1     -26.274  -3.955 -24.908  1.00  0.00     0.072 C 
HETATM   29  C16 UNL     1     -27.785  -2.597 -26.304  1.00  0.00     0.106 C 
HETATM   30  N5  UNL     1     -25.858  -5.000 -24.714  1.00  0.00    -0.196 NA
HETATM   31  C21 UNL     1     -28.606  -1.383 -26.044  1.00  0.00     0.228 C 
HETATM   32  C22 UNL     1     -30.022  -1.577 -26.344  1.00  0.00     0.086 C 
HETATM   33  N6  UNL     1     -31.124  -1.734 -26.596  1.00  0.00    -0.195 NA
BRANCH  29  34
HETATM   34  C17 UNL     1     -26.980  -2.478 -27.560  1.00  0.00     0.061 A 
HETATM   35  C18 UNL     1     -26.733  -1.350 -28.296  1.00  0.00     0.035 A 
HETATM   36  C19 UNL     1     -25.940  -1.754 -29.366  1.00  0.00     0.027 A 
HETATM   37  C20 UNL     1     -25.747  -3.096 -29.223  1.00  0.00     0.142 A 
HETATM   38  O2  UNL     1     -26.387  -3.472 -28.135  1.00  0.00    -0.327 OA
ENDBRANCH  29  34
ENDBRANCH  18  22
ENDBRANCH  12  13
ENDBRANCH  11  12
ENDBRANCH  10  11
TORSDOF 5
ENDMDL
MODEL 3
REMARK VINA RESULT: -8.157857306      3.656      6.723
REMARK  5 active torsions:
REMARK  status: ('A' for Active; 'I' for Inactive)
REMARK    1  A    between atoms: C7_10  and  S1_11 
REMARK    2  A    between atoms: S1_11  and  C8_12 
REMARK    3  A    between atoms: C8_12  and  C9_13 
REMARK    4  A    between atoms: C12_19  and  N3_20 
REMARK    5  A    between atoms: C16_28  and  C17_29 
ROOT
HETATM    1  C1  UNL     1     -27.255   4.699 -30.363  1.00  0.00     0.229 C 
HETATM    2  N1  UNL     1     -27.853   4.203 -29.505  1.00  0.00    -0.428 NA
HETATM    3  C2  UNL     1     -28.567   3.628 -28.477  1.00  0.00     0.123 A 
HETATM    4  C3  UNL     1     -28.862   4.403 -27.369  1.00  0.00     0.071 A 
HETATM    5  C4  UNL     1     -29.572   3.875 -26.318  1.00  0.00     0.059 A 
HETATM    6 CL1  UNL     1     -29.966   4.807 -24.905  1.00  0.00    -0.082 Cl
HETATM    7  C5  UNL     1     -29.986   2.561 -26.387  1.00  0.00     0.057 A 
HETATM    8 CL2  UNL     1     -30.889   1.871 -25.062  1.00  0.00    -0.083 Cl
HETATM    9  C6  UNL     1     -29.710   1.768 -27.469  1.00  0.00     0.047 A 
HETATM   10  C7  UNL     1     -28.999   2.313 -28.512  1.00  0.00     0.043 A 
ENDROOT
BRANCH  10  11
HETATM   11  S1  UNL     1     -28.584   1.368 -29.973  1.00  0.00    -0.120 SA
BRANCH  11  12
HETATM   12  C8  UNL     1     -26.826   0.895 -29.940  1.00  0.00     0.137 C 
BRANCH  12  13
HETATM   13  C9  UNL     1     -26.747  -0.402 -29.214  1.00  0.00     0.041 A 
HETATM   14  C10 UNL     1     -25.847  -1.349 -29.655  1.00  0.00     0.101 A 
HETATM   15  C11 UNL     1     -25.718  -2.572 -29.032  1.00  0.00     0.261 A 
HETATM   16  O1  UNL     1     -24.898  -3.413 -29.449  1.00  0.00    -0.268 OA
HETATM   17  N2  UNL     1     -26.526  -2.796 -27.961  1.00  0.00    -0.156 N 
HETATM   18  C12 UNL     1     -27.407  -1.900 -27.508  1.00  0.00     0.690 A 
ATOM     19  H2  UNL     1     -26.455  -3.692 -27.480  1.00  0.00     0.187 HD
HETATM   20  N7  UNL     1     -27.497  -0.701 -28.162  1.00  0.00    -0.194 N 
ATOM     21  H7  UNL     1     -28.168  -0.009 -27.826  1.00  0.00     0.184 HD
BRANCH  18  22
HETATM   22  N3  UNL     1     -28.234  -2.134 -26.372  1.00  0.00    -0.152 N 
HETATM   23  C13 UNL     1     -29.626  -2.416 -26.386  1.00  0.00     0.114 C 
HETATM   24  N4  UNL     1     -30.343  -3.061 -27.185  1.00  0.00    -0.387 N 
HETATM   25  C14 UNL     1     -30.138  -1.758 -25.116  1.00  0.00     0.174 C 
ATOM     26  H42 UNL     1     -30.000  -3.503 -28.037  1.00  0.00     0.157 HD
ATOM     27  H41 UNL     1     -31.342  -3.264 -27.195  1.00  0.00     0.157 HD
HETATM   28  C15 UNL     1     -31.433  -2.272 -24.740  1.00  0.00     0.072 C 
HETATM   29  C16 UNL     1     -29.036  -2.187 -24.170  1.00  0.00     0.106 C 
HETATM   30  N5  UNL     1     -32.459  -2.668 -24.433  1.00  0.00    -0.196 NA
HETATM   31  C21 UNL     1     -27.793  -2.099 -24.982  1.00  0.00     0.228 C 
HETATM   32  C22 UNL     1     -26.859  -3.190 -24.715  1.00  0.00     0.086 C 
HETATM   33  N6  UNL     1     -26.130  -4.039 -24.488  1.00  0.00    -0.195 NA
BRANCH  29  34
HETATM   34  C17 UNL     1     -29.048  -1.200 -23.044  1.00  0.00     0.061 A 
HETATM   35  C18 UNL     1     -28.584   0.088 -23.052  1.00  0.00     0.035 A 
HETATM   36  C19 UNL     1     -28.820   0.589 -21.774  1.00  0.00     0.027 A 
HETATM   37  C20 UNL     1     -29.409  -0.414 -21.065  1.00  0.00     0.142 A 
HETATM   38  O2  UNL     1     -29.520  -1.452 -21.868  1.00  0.00    -0.327 OA
ENDBRANCH  29  34
ENDBRANCH  18  22
ENDBRANCH  12  13
ENDBRANCH  11  12
ENDBRANCH  10  11
TORSDOF 5
ENDMDL
MODEL 4
REMARK VINA RESULT: -8.134266325      5.071      9.173
REMARK  5 active torsions:
REMARK  status: ('A' for Active; 'I' for Inactive)
REMARK    1  A    between atoms: C7_10  and  S1_11 
REMARK    2  A    between atoms: S1_11  and  C8_12 
REMARK    3  A    between atoms: C8_12  and  C9_13 
REMARK    4  A    between atoms: C12_19  and  N3_20 
REMARK    5  A    between atoms: C16_28  and  C17_29 
ROOT
HETATM    1  C1  UNL     1     -26.330   3.194 -29.967  1.00  0.00     0.229 C 
HETATM    2  N1  UNL     1     -27.171   3.041 -29.187  1.00  0.00    -0.428 NA
HETATM    3  C2  UNL     1     -28.173   2.876 -28.256  1.00  0.00     0.123 A 
HETATM    4  C3  UNL     1     -28.531   3.963 -27.477  1.00  0.00     0.071 A 
HETATM    5  C4  UNL     1     -29.524   3.849 -26.536  1.00  0.00     0.059 A 
HETATM    6 CL1  UNL     1     -30.010   5.184 -25.534  1.00  0.00    -0.082 Cl
HETATM    7  C5  UNL     1     -30.158   2.633 -26.379  1.00  0.00     0.057 A 
HETATM    8 CL2  UNL     1     -31.422   2.467 -25.188  1.00  0.00    -0.083 Cl
HETATM    9  C6  UNL     1     -29.826   1.539 -27.133  1.00  0.00     0.047 A 
HETATM   10  C7  UNL     1     -28.830   1.671 -28.072  1.00  0.00     0.043 A 
ENDROOT
BRANCH  10  11
HETATM   11  S1  UNL     1     -28.318   0.308 -29.110  1.00  0.00    -0.120 SA
BRANCH  11  12
HETATM   12  C8  UNL     1     -28.581  -1.274 -28.247  1.00  0.00     0.137 C 
BRANCH  12  13
HETATM   13  C9  UNL     1     -27.367  -2.099 -28.491  1.00  0.00     0.041 A 
HETATM   14  C10 UNL     1     -26.373  -1.586 -29.299  1.00  0.00     0.101 A 
HETATM   15  C11 UNL     1     -25.221  -2.292 -29.569  1.00  0.00     0.261 A 
HETATM   16  O1  UNL     1     -24.338  -1.808 -30.303  1.00  0.00    -0.268 OA
HETATM   17  N2  UNL     1     -25.114  -3.522 -28.997  1.00  0.00    -0.156 N 
HETATM   18  C12 UNL     1     -26.056  -4.047 -28.209  1.00  0.00     0.690 A 
ATOM     19  H2  UNL     1     -24.274  -4.069 -29.179  1.00  0.00     0.187 HD
HETATM   20  N7  UNL     1     -27.183  -3.306 -27.973  1.00  0.00    -0.194 N 
ATOM     21  H7  UNL     1     -27.909  -3.697 -27.374  1.00  0.00     0.184 HD
BRANCH  18  22
HETATM   22  N3  UNL     1     -25.927  -5.326 -27.597  1.00  0.00    -0.152 N 
HETATM   23  C13 UNL     1     -25.070  -6.379 -28.016  1.00  0.00     0.114 C 
HETATM   24  N4  UNL     1     -23.924  -6.377 -28.521  1.00  0.00    -0.387 N 
HETATM   25  C14 UNL     1     -25.856  -7.636 -27.680  1.00  0.00     0.174 C 
ATOM     26  H42 UNL     1     -23.397  -5.534 -28.747  1.00  0.00     0.157 HD
ATOM     27  H41 UNL     1     -23.309  -7.133 -28.822  1.00  0.00     0.157 HD
HETATM   28  C15 UNL     1     -25.002  -8.799 -27.648  1.00  0.00     0.072 C 
HETATM   29  C16 UNL     1     -26.359  -7.237 -26.309  1.00  0.00     0.106 C 
HETATM   30  N5  UNL     1     -24.339  -9.728 -27.624  1.00  0.00    -0.196 NA
HETATM   31  C21 UNL     1     -26.678  -5.789 -26.436  1.00  0.00     0.228 C 
HETATM   32  C22 UNL     1     -26.313  -5.019 -25.250  1.00  0.00     0.086 C 
HETATM   33  N6  UNL     1     -26.038  -4.428 -24.313  1.00  0.00    -0.195 NA
BRANCH  29  34
HETATM   34  C17 UNL     1     -27.580  -8.066 -26.057  1.00  0.00     0.061 A 
HETATM   35  C18 UNL     1     -28.439  -8.598 -26.981  1.00  0.00     0.035 A 
HETATM   36  C19 UNL     1     -29.409  -9.283 -26.254  1.00  0.00     0.027 A 
HETATM   37  C20 UNL     1     -29.089  -9.133 -24.938  1.00  0.00     0.142 A 
HETATM   38  O2  UNL     1     -27.995  -8.402 -24.880  1.00  0.00    -0.327 OA
ENDBRANCH  29  34
ENDBRANCH  18  22
ENDBRANCH  12  13
ENDBRANCH  11  12
ENDBRANCH  10  11
TORSDOF 5
ENDMDL
MODEL 5
REMARK VINA RESULT: -8.065729012      3.572      6.498
REMARK  5 active torsions:
REMARK  status: ('A' for Active; 'I' for Inactive)
REMARK    1  A    between atoms: C7_10  and  S1_11 
REMARK    2  A    between atoms: S1_11  and  C8_12 
REMARK    3  A    between atoms: C8_12  and  C9_13 
REMARK    4  A    between atoms: C12_19  and  N3_20 
REMARK    5  A    between atoms: C16_28  and  C17_29 
ROOT
HETATM    1  C1  UNL     1     -31.438   1.237 -26.972  1.00  0.00     0.229 C 
HETATM    2  N1  UNL     1     -31.241   1.320 -25.835  1.00  0.00    -0.428 NA
HETATM    3  C2  UNL     1     -30.991   1.411 -24.483  1.00  0.00     0.123 A 
HETATM    4  C3  UNL     1     -29.992   0.619 -23.945  1.00  0.00     0.071 A 
HETATM    5  C4  UNL     1     -29.705   0.673 -22.603  1.00  0.00     0.059 A 
HETATM    6 CL1  UNL     1     -28.459  -0.300 -21.881  1.00  0.00    -0.082 Cl
HETATM    7  C5  UNL     1     -30.431   1.530 -21.800  1.00  0.00     0.057 A 
HETATM    8 CL2  UNL     1     -30.082   1.613 -20.093  1.00  0.00    -0.083 Cl
HETATM    9  C6  UNL     1     -31.427   2.325 -22.302  1.00  0.00     0.047 A 
HETATM   10  C7  UNL     1     -31.700   2.259 -23.648  1.00  0.00     0.043 A 
ENDROOT
BRANCH  10  11
HETATM   11  S1  UNL     1     -32.978   3.253 -24.406  1.00  0.00    -0.120 SA
BRANCH  11  12
HETATM   12  C8  UNL     1     -32.673   5.020 -24.089  1.00  0.00     0.137 C 
BRANCH  12  13
HETATM   13  C9  UNL     1     -31.629   5.453 -25.057  1.00  0.00     0.041 A 
HETATM   14  C10 UNL     1     -31.590   6.779 -25.435  1.00  0.00     0.101 A 
HETATM   15  C11 UNL     1     -30.651   7.252 -26.327  1.00  0.00     0.261 A 
HETATM   16  O1  UNL     1     -30.636   8.454 -26.655  1.00  0.00    -0.268 OA
HETATM   17  N2  UNL     1     -29.765   6.342 -26.815  1.00  0.00    -0.156 N 
HETATM   18  C12 UNL     1     -29.774   5.052 -26.468  1.00  0.00     0.690 A 
ATOM     19  H2  UNL     1     -29.059   6.661 -27.478  1.00  0.00     0.187 HD
HETATM   20  N7  UNL     1     -30.727   4.632 -25.580  1.00  0.00    -0.194 N 
ATOM     21  H7  UNL     1     -30.745   3.649 -25.309  1.00  0.00     0.184 HD
BRANCH  18  22
HETATM   22  N3  UNL     1     -28.829   4.111 -26.967  1.00  0.00    -0.152 N 
HETATM   23  C13 UNL     1     -28.400   3.981 -28.315  1.00  0.00     0.114 C 
HETATM   24  N4  UNL     1     -28.209   4.824 -29.220  1.00  0.00    -0.387 N 
HETATM   25  C14 UNL     1     -28.156   2.488 -28.470  1.00  0.00     0.174 C 
ATOM     26  H42 UNL     1     -28.373   5.826 -29.116  1.00  0.00     0.157 HD
ATOM     27  H41 UNL     1     -27.901   4.731 -30.187  1.00  0.00     0.157 HD
HETATM   28  C15 UNL     1     -27.334   2.205 -29.623  1.00  0.00     0.072 C 
HETATM   29  C16 UNL     1     -27.443   2.230 -27.160  1.00  0.00     0.106 C 
HETATM   30  N5  UNL     1     -26.689   1.967 -30.534  1.00  0.00    -0.196 NA
HETATM   31  C21 UNL     1     -28.150   3.091 -26.175  1.00  0.00     0.228 C 
HETATM   32  C22 UNL     1     -27.247   3.712 -25.209  1.00  0.00     0.086 C 
HETATM   33  N6  UNL     1     -26.535   4.180 -24.449  1.00  0.00    -0.195 NA
BRANCH  29  34
HETATM   34  C17 UNL     1     -27.622   0.772 -26.870  1.00  0.00     0.061 A 
HETATM   35  C18 UNL     1     -27.057   0.042 -25.859  1.00  0.00     0.035 A 
HETATM   36  C19 UNL     1     -27.531  -1.259 -26.014  1.00  0.00     0.027 A 
HETATM   37  C20 UNL     1     -28.352  -1.248 -27.101  1.00  0.00     0.142 A 
HETATM   38  O2  UNL     1     -28.369  -0.017 -27.570  1.00  0.00    -0.327 OA
ENDBRANCH  29  34
ENDBRANCH  18  22
ENDBRANCH  12  13
ENDBRANCH  11  12
ENDBRANCH  10  11
TORSDOF 5
ENDMDL
