MODEL 1
REMARK VINA RESULT: -7.609524327      0.000      0.000
REMARK  10 active torsions:
REMARK  status: ('A' for Active; 'I' for Inactive)
REMARK    1  A    between atoms: S1_2  and  C2_3 
REMARK    2  A    between atoms: C2_3  and  C25_38 
REMARK    3  A    between atoms: N1_4  and  C3_6 
REMARK    4  A    between atoms: C4_7  and  C5_8 
REMARK    5  A    between atoms: C10_13  and  C11_14 
REMARK    6  A    between atoms: C14_19  and  O1_20 
REMARK    7  A    between atoms: N3_22  and  C15_23 
REMARK    8  A    between atoms: C15_23  and  C16_24 
REMARK    9  A    between atoms: C16_24  and  N4_25 
REMARK   10  A    between atoms: C21_30  and  O2_31 
ROOT
HETATM    1  C3  UNL     1     -27.757   0.540 -26.245  1.00  0.00     0.082 A 
HETATM    2  C4  UNL     1     -27.871   0.059 -27.515  1.00  0.00    -0.020 A 
HETATM    3  C9  UNL     1     -27.569  -1.291 -27.732  1.00  0.00     0.027 A 
HETATM    4  C10 UNL     1     -27.170  -2.133 -26.716  1.00  0.00     0.029 A 
HETATM    5  C23 UNL     1     -27.059  -1.641 -25.434  1.00  0.00     0.169 A 
HETATM    6  F1  UNL     1     -26.665  -2.470 -24.423  1.00  0.00    -0.202 F 
HETATM    7  C24 UNL     1     -27.351  -0.320 -25.207  1.00  0.00     0.182 A 
HETATM    8  F2  UNL     1     -27.250   0.108 -23.915  1.00  0.00    -0.200 F 
ENDROOT
BRANCH   4   9
HETATM    9  C11 UNL     1     -26.857  -3.554 -26.983  1.00  0.00     0.027 A 
HETATM   10  N2  UNL     1     -25.742  -4.031 -27.413  1.00  0.00    -0.354 N 
HETATM   11  C12 UNL     1     -25.815  -5.456 -27.550  1.00  0.00     0.095 A 
ATOM     12  H2  UNL     1     -24.918  -3.470 -27.627  1.00  0.00     0.166 HD
HETATM   13  C13 UNL     1     -27.076  -5.857 -27.170  1.00  0.00     0.030 A 
HETATM   14  C21 UNL     1     -25.100  -6.585 -27.918  1.00  0.00     0.172 A 
HETATM   15  C14 UNL     1     -27.102  -7.241 -27.317  1.00  0.00     0.153 A 
HETATM   16  C22 UNL     1     -27.837  -4.645 -26.777  1.00  0.00     0.103 A 
HETATM   17  N3  UNL     1     -25.903  -7.646 -27.767  1.00  0.00    -0.304 N 
BRANCH  15  18
HETATM   18  O1  UNL     1     -28.208  -8.060 -27.037  1.00  0.00    -0.345 OA
ATOM     19  H1  UNL     1     -28.622  -8.648 -27.658  1.00  0.00     0.219 HD
ENDBRANCH  15  18
BRANCH  17  20
HETATM   20  C15 UNL     1     -25.540  -9.022 -28.043  1.00  0.00     0.163 C 
BRANCH  20  21
HETATM   21  C16 UNL     1     -25.011  -9.705 -26.792  1.00  0.00     0.292 C 
BRANCH  21  22
HETATM   22  N4  UNL     1     -23.563  -9.657 -26.796  1.00  0.00     0.090 N 
HETATM   23  C17 UNL     1     -22.971 -10.948 -26.614  1.00  0.00     0.272 C 
HETATM   24  C18 UNL     1     -21.514 -10.589 -26.345  1.00  0.00     0.032 C 
HETATM   25  C19 UNL     1     -21.661  -9.422 -25.389  1.00  0.00     0.032 C 
HETATM   26  C20 UNL     1     -23.047  -8.908 -25.672  1.00  0.00     0.272 C 
ENDBRANCH  21  22
ENDBRANCH  20  21
ENDBRANCH  17  20
BRANCH  14  27
HETATM   27  O2  UNL     1     -23.767  -6.555 -28.364  1.00  0.00    -0.344 OA
ATOM     28  H2  UNL     1     -23.508  -6.714 -29.264  1.00  0.00     0.219 HD
ENDBRANCH  14  27
ENDBRANCH   4   9
BRANCH   2  29
HETATM   29  C5  UNL     1     -28.332   0.870 -28.629  1.00  0.00    -0.022 C 
HETATM   30  C6  UNL     1     -28.206   0.042 -29.927  1.00  0.00     0.019 C 
HETATM   31  C7  UNL     1     -29.810   1.211 -28.544  1.00  0.00     0.019 C 
HETATM   32  C8  UNL     1     -27.478   2.070 -28.837  1.00  0.00     0.019 C 
ENDBRANCH   2  29
BRANCH   1  33
HETATM   33  N1  UNL     1     -28.013   1.841 -25.904  1.00  0.00    -0.351 N 
HETATM   34  C2  UNL     1     -28.913   2.493 -25.370  1.00  0.00     0.051 C 
ATOM     35  H1  UNL     1     -27.235   2.445 -26.169  1.00  0.00     0.166 HD
BRANCH  34  36
HETATM   36  S1  UNL     1     -30.433   1.882 -24.753  1.00  0.00    -0.121 SA
HETATM   37  C1  UNL     1     -30.399   0.959 -23.242  1.00  0.00     0.097 C 
ENDBRANCH  34  36
BRANCH  34  38
HETATM   38  C25 UNL     1     -28.719   3.996 -25.261  1.00  0.00     0.043 A 
HETATM   39  C26 UNL     1     -28.992   4.742 -26.566  1.00  0.00     0.012 A 
HETATM   40  C27 UNL     1     -29.874   4.910 -25.388  1.00  0.00     0.012 A 
ENDBRANCH  34  38
ENDBRANCH   1  33
TORSDOF 10
ENDMDL
MODEL 2
REMARK VINA RESULT: -7.545345361      0.745      1.553
REMARK  10 active torsions:
REMARK  status: ('A' for Active; 'I' for Inactive)
REMARK    1  A    between atoms: S1_2  and  C2_3 
REMARK    2  A    between atoms: C2_3  and  C25_38 
REMARK    3  A    between atoms: N1_4  and  C3_6 
REMARK    4  A    between atoms: C4_7  and  C5_8 
REMARK    5  A    between atoms: C10_13  and  C11_14 
REMARK    6  A    between atoms: C14_19  and  O1_20 
REMARK    7  A    between atoms: N3_22  and  C15_23 
REMARK    8  A    between atoms: C15_23  and  C16_24 
REMARK    9  A    between atoms: C16_24  and  N4_25 
REMARK   10  A    between atoms: C21_30  and  O2_31 
ROOT
HETATM    1  C3  UNL     1     -27.877   0.786 -26.233  1.00  0.00     0.082 A 
HETATM    2  C4  UNL     1     -27.807   0.344 -27.521  1.00  0.00    -0.020 A 
HETATM    3  C9  UNL     1     -27.487  -1.003 -27.733  1.00  0.00     0.027 A 
HETATM    4  C10 UNL     1     -27.249  -1.879 -26.695  1.00  0.00     0.029 A 
HETATM    5  C23 UNL     1     -27.323  -1.427 -25.396  1.00  0.00     0.169 A 
HETATM    6  F1  UNL     1     -27.089  -2.289 -24.364  1.00  0.00    -0.202 F 
HETATM    7  C24 UNL     1     -27.635  -0.109 -25.175  1.00  0.00     0.182 A 
HETATM    8  F2  UNL     1     -27.722   0.280 -23.869  1.00  0.00    -0.200 F 
ENDROOT
BRANCH   4   9
HETATM    9  C11 UNL     1     -26.911  -3.295 -26.957  1.00  0.00     0.027 A 
HETATM   10  N2  UNL     1     -27.667  -4.318 -26.762  1.00  0.00    -0.354 N 
HETATM   11  C12 UNL     1     -26.996  -5.528 -27.134  1.00  0.00     0.095 A 
ATOM     12  H2  UNL     1     -28.617  -4.272 -26.393  1.00  0.00     0.166 HD
HETATM   13  C13 UNL     1     -25.739  -5.197 -27.587  1.00  0.00     0.030 A 
HETATM   14  C21 UNL     1     -27.129  -6.906 -27.213  1.00  0.00     0.172 A 
HETATM   15  C14 UNL     1     -25.125  -6.396 -27.937  1.00  0.00     0.153 A 
HETATM   16  C22 UNL     1     -25.601  -3.722 -27.501  1.00  0.00     0.103 A 
HETATM   17  N3  UNL     1     -25.985  -7.402 -27.700  1.00  0.00    -0.304 N 
BRANCH  15  18
HETATM   18  O1  UNL     1     -23.823  -6.516 -28.450  1.00  0.00    -0.345 OA
ATOM     19  H1  UNL     1     -23.180  -7.153 -28.161  1.00  0.00     0.219 HD
ENDBRANCH  15  18
BRANCH  17  20
HETATM   20  C15 UNL     1     -25.709  -8.805 -27.940  1.00  0.00     0.163 C 
BRANCH  20  21
HETATM   21  C16 UNL     1     -25.196  -9.479 -26.677  1.00  0.00     0.292 C 
BRANCH  21  22
HETATM   22  N4  UNL     1     -23.756  -9.612 -26.756  1.00  0.00     0.090 N 
HETATM   23  C17 UNL     1     -23.308 -10.931 -26.421  1.00  0.00     0.272 C 
HETATM   24  C18 UNL     1     -21.805 -10.722 -26.274  1.00  0.00     0.032 C 
HETATM   25  C19 UNL     1     -21.753  -9.427 -25.487  1.00  0.00     0.032 C 
HETATM   26  C20 UNL     1     -23.086  -8.789 -25.774  1.00  0.00     0.272 C 
ENDBRANCH  21  22
ENDBRANCH  20  21
ENDBRANCH  17  20
BRANCH  14  27
HETATM   27  O2  UNL     1     -28.290  -7.602 -26.830  1.00  0.00    -0.344 OA
ATOM     28  H2  UNL     1     -28.500  -7.823 -25.931  1.00  0.00     0.219 HD
ENDBRANCH  14  27
ENDBRANCH   4   9
BRANCH   2  29
HETATM   29  C5  UNL     1     -28.093   1.192 -28.665  1.00  0.00    -0.022 C 
HETATM   30  C6  UNL     1     -27.701   0.434 -29.952  1.00  0.00     0.019 C 
HETATM   31  C7  UNL     1     -29.575   1.480 -28.836  1.00  0.00     0.019 C 
HETATM   32  C8  UNL     1     -27.266   2.429 -28.663  1.00  0.00     0.019 C 
ENDBRANCH   2  29
BRANCH   1  33
HETATM   33  N1  UNL     1     -28.170   2.080 -25.895  1.00  0.00    -0.351 N 
HETATM   34  C2  UNL     1     -29.113   2.716 -25.417  1.00  0.00     0.051 C 
ATOM     35  H1  UNL     1     -27.381   2.695 -26.094  1.00  0.00     0.166 HD
BRANCH  34  36
HETATM   36  S1  UNL     1     -30.667   2.082 -24.920  1.00  0.00    -0.121 SA
HETATM   37  C1  UNL     1     -31.938   1.958 -26.147  1.00  0.00     0.097 C 
ENDBRANCH  34  36
BRANCH  34  38
HETATM   38  C25 UNL     1     -28.942   4.218 -25.274  1.00  0.00     0.043 A 
HETATM   39  C26 UNL     1     -29.089   4.977 -26.592  1.00  0.00     0.012 A 
HETATM   40  C27 UNL     1     -30.086   5.126 -25.506  1.00  0.00     0.012 A 
ENDBRANCH  34  38
ENDBRANCH   1  33
TORSDOF 10
ENDMDL
MODEL 3
REMARK VINA RESULT: -7.329625962      1.705      2.887
REMARK  10 active torsions:
REMARK  status: ('A' for Active; 'I' for Inactive)
REMARK    1  A    between atoms: S1_2  and  C2_3 
REMARK    2  A    between atoms: C2_3  and  C25_38 
REMARK    3  A    between atoms: N1_4  and  C3_6 
REMARK    4  A    between atoms: C4_7  and  C5_8 
REMARK    5  A    between atoms: C10_13  and  C11_14 
REMARK    6  A    between atoms: C14_19  and  O1_20 
REMARK    7  A    between atoms: N3_22  and  C15_23 
REMARK    8  A    between atoms: C15_23  and  C16_24 
REMARK    9  A    between atoms: C16_24  and  N4_25 
REMARK   10  A    between atoms: C21_30  and  O2_31 
ROOT
HETATM    1  C3  UNL     1     -28.465   0.667 -26.800  1.00  0.00     0.082 A 
HETATM    2  C4  UNL     1     -27.842   0.034 -25.765  1.00  0.00    -0.020 A 
HETATM    3  C9  UNL     1     -27.427  -1.288 -25.962  1.00  0.00     0.027 A 
HETATM    4  C10 UNL     1     -27.623  -1.956 -27.152  1.00  0.00     0.029 A 
HETATM    5  C23 UNL     1     -28.251  -1.311 -28.195  1.00  0.00     0.169 A 
HETATM    6  F1  UNL     1     -28.447  -1.967 -29.376  1.00  0.00    -0.202 F 
HETATM    7  C24 UNL     1     -28.663  -0.015 -28.015  1.00  0.00     0.182 A 
HETATM    8  F2  UNL     1     -29.256   0.585 -29.089  1.00  0.00    -0.200 F 
ENDROOT
BRANCH   4   9
HETATM    9  C11 UNL     1     -27.172  -3.355 -27.323  1.00  0.00     0.027 A 
HETATM   10  N2  UNL     1     -27.866  -4.419 -27.121  1.00  0.00    -0.354 N 
HETATM   11  C12 UNL     1     -27.091  -5.594 -27.392  1.00  0.00     0.095 A 
ATOM     12  H2  UNL     1     -28.837  -4.426 -26.808  1.00  0.00     0.166 HD
HETATM   13  C13 UNL     1     -25.835  -5.194 -27.790  1.00  0.00     0.030 A 
HETATM   14  C21 UNL     1     -27.123  -6.980 -27.410  1.00  0.00     0.172 A 
HETATM   15  C14 UNL     1     -25.120  -6.360 -28.044  1.00  0.00     0.153 A 
HETATM   16  C22 UNL     1     -25.806  -3.710 -27.770  1.00  0.00     0.103 A 
HETATM   17  N3  UNL     1     -25.920  -7.413 -27.807  1.00  0.00    -0.304 N 
BRANCH  15  18
HETATM   18  O1  UNL     1     -23.784  -6.409 -28.476  1.00  0.00    -0.345 OA
ATOM     19  H1  UNL     1     -23.462  -6.943 -29.192  1.00  0.00     0.219 HD
ENDBRANCH  15  18
BRANCH  17  20
HETATM   20  C15 UNL     1     -25.533  -8.802 -27.960  1.00  0.00     0.163 C 
BRANCH  20  21
HETATM   21  C16 UNL     1     -25.033  -9.374 -26.642  1.00  0.00     0.292 C 
BRANCH  21  22
HETATM   22  N4  UNL     1     -23.586  -9.428 -26.663  1.00  0.00     0.090 N 
HETATM   23  C17 UNL     1     -23.086 -10.769 -26.589  1.00  0.00     0.272 C 
HETATM   24  C18 UNL     1     -21.605 -10.536 -26.313  1.00  0.00     0.032 C 
HETATM   25  C19 UNL     1     -21.660  -9.439 -25.267  1.00  0.00     0.032 C 
HETATM   26  C20 UNL     1     -23.008  -8.808 -25.491  1.00  0.00     0.272 C 
ENDBRANCH  21  22
ENDBRANCH  20  21
ENDBRANCH  17  20
BRANCH  14  27
HETATM   27  O2  UNL     1     -28.253  -7.740 -27.059  1.00  0.00    -0.344 OA
ATOM     28  H2  UNL     1     -28.208  -8.623 -26.714  1.00  0.00     0.219 HD
ENDBRANCH  14  27
ENDBRANCH   4   9
BRANCH   2  29
HETATM   29  C5  UNL     1     -27.555   0.686 -24.498  1.00  0.00    -0.022 C 
HETATM   30  C6  UNL     1     -26.669  -0.253 -23.650  1.00  0.00     0.019 C 
HETATM   31  C7  UNL     1     -26.723   1.947 -24.655  1.00  0.00     0.019 C 
HETATM   32  C8  UNL     1     -28.786   0.907 -23.694  1.00  0.00     0.019 C 
ENDBRANCH   2  29
BRANCH   1  33
HETATM   33  N1  UNL     1     -28.926   1.954 -26.731  1.00  0.00    -0.351 N 
HETATM   34  C2  UNL     1     -29.999   2.540 -26.565  1.00  0.00     0.051 C 
ATOM     35  H1  UNL     1     -28.163   2.620 -26.850  1.00  0.00     0.166 HD
BRANCH  34  36
HETATM   36  S1  UNL     1     -31.570   1.809 -26.316  1.00  0.00    -0.121 SA
HETATM   37  C1  UNL     1     -32.684   2.610 -25.197  1.00  0.00     0.097 C 
ENDBRANCH  34  36
BRANCH  34  38
HETATM   38  C25 UNL     1     -29.982   4.057 -26.617  1.00  0.00     0.043 A 
HETATM   39  C26 UNL     1     -29.643   4.709 -25.278  1.00  0.00     0.012 A 
HETATM   40  C27 UNL     1     -28.716   4.797 -26.430  1.00  0.00     0.012 A 
ENDBRANCH  34  38
ENDBRANCH   1  33
TORSDOF 10
ENDMDL
MODEL 4
REMARK VINA RESULT: -7.265300897      1.019      1.646
REMARK  10 active torsions:
REMARK  status: ('A' for Active; 'I' for Inactive)
REMARK    1  A    between atoms: S1_2  and  C2_3 
REMARK    2  A    between atoms: C2_3  and  C25_38 
REMARK    3  A    between atoms: N1_4  and  C3_6 
REMARK    4  A    between atoms: C4_7  and  C5_8 
REMARK    5  A    between atoms: C10_13  and  C11_14 
REMARK    6  A    between atoms: C14_19  and  O1_20 
REMARK    7  A    between atoms: N3_22  and  C15_23 
REMARK    8  A    between atoms: C15_23  and  C16_24 
REMARK    9  A    between atoms: C16_24  and  N4_25 
REMARK   10  A    between atoms: C21_30  and  O2_31 
ROOT
HETATM    1  C3  UNL     1     -27.784   0.566 -26.232  1.00  0.00     0.082 A 
HETATM    2  C4  UNL     1     -27.893   0.087 -27.504  1.00  0.00    -0.020 A 
HETATM    3  C9  UNL     1     -27.589  -1.261 -27.723  1.00  0.00     0.027 A 
HETATM    4  C10 UNL     1     -27.192  -2.105 -26.708  1.00  0.00     0.029 A 
HETATM    5  C23 UNL     1     -27.085  -1.616 -25.424  1.00  0.00     0.169 A 
HETATM    6  F1  UNL     1     -26.693  -2.446 -24.413  1.00  0.00    -0.202 F 
HETATM    7  C24 UNL     1     -27.380  -0.296 -25.196  1.00  0.00     0.182 A 
HETATM    8  F2  UNL     1     -27.283   0.130 -23.902  1.00  0.00    -0.200 F 
ENDROOT
BRANCH   4   9
HETATM    9  C11 UNL     1     -26.875  -3.525 -26.977  1.00  0.00     0.027 A 
HETATM   10  N2  UNL     1     -25.762  -3.998 -27.415  1.00  0.00    -0.354 N 
HETATM   11  C12 UNL     1     -25.831  -5.423 -27.551  1.00  0.00     0.095 A 
ATOM     12  H2  UNL     1     -24.941  -3.434 -27.636  1.00  0.00     0.166 HD
HETATM   13  C13 UNL     1     -27.087  -5.829 -27.161  1.00  0.00     0.030 A 
HETATM   14  C21 UNL     1     -25.115  -6.551 -27.924  1.00  0.00     0.172 A 
HETATM   15  C14 UNL     1     -27.110  -7.213 -27.307  1.00  0.00     0.153 A 
HETATM   16  C22 UNL     1     -27.849  -4.620 -26.763  1.00  0.00     0.103 A 
HETATM   17  N3  UNL     1     -25.912  -7.614 -27.766  1.00  0.00    -0.304 N 
BRANCH  15  18
HETATM   18  O1  UNL     1     -28.210  -8.037 -27.018  1.00  0.00    -0.345 OA
ATOM     19  H1  UNL     1     -28.172  -8.980 -26.912  1.00  0.00     0.219 HD
ENDBRANCH  15  18
BRANCH  17  20
HETATM   20  C15 UNL     1     -25.547  -8.989 -28.045  1.00  0.00     0.163 C 
BRANCH  20  21
HETATM   21  C16 UNL     1     -24.680  -9.556 -26.932  1.00  0.00     0.292 C 
BRANCH  21  22
HETATM   22  N4  UNL     1     -25.411 -10.595 -26.237  1.00  0.00     0.090 N 
HETATM   23  C17 UNL     1     -26.488 -11.124 -27.019  1.00  0.00     0.272 C 
HETATM   24  C18 UNL     1     -27.260 -11.932 -25.982  1.00  0.00     0.032 C 
HETATM   25  C19 UNL     1     -27.267 -10.982 -24.801  1.00  0.00     0.032 C 
HETATM   26  C20 UNL     1     -26.089 -10.083 -25.067  1.00  0.00     0.272 C 
ENDBRANCH  21  22
ENDBRANCH  20  21
ENDBRANCH  17  20
BRANCH  14  27
HETATM   27  O2  UNL     1     -23.785  -6.515 -28.382  1.00  0.00    -0.344 OA
ATOM     28  H2  UNL     1     -23.263  -7.292 -28.545  1.00  0.00     0.219 HD
ENDBRANCH  14  27
ENDBRANCH   4   9
BRANCH   2  29
HETATM   29  C5  UNL     1     -28.352   0.900 -28.618  1.00  0.00    -0.022 C 
HETATM   30  C6  UNL     1     -28.203   0.082 -29.920  1.00  0.00     0.019 C 
HETATM   31  C7  UNL     1     -29.835   1.222 -28.546  1.00  0.00     0.019 C 
HETATM   32  C8  UNL     1     -27.511   2.111 -28.809  1.00  0.00     0.019 C 
ENDBRANCH   2  29
BRANCH   1  33
HETATM   33  N1  UNL     1     -28.043   1.866 -25.890  1.00  0.00    -0.351 N 
HETATM   34  C2  UNL     1     -28.953   2.519 -25.374  1.00  0.00     0.051 C 
ATOM     35  H1  UNL     1     -27.256   2.469 -26.132  1.00  0.00     0.166 HD
BRANCH  34  36
HETATM   36  S1  UNL     1     -30.491   1.909 -24.799  1.00  0.00    -0.121 SA
HETATM   37  C1  UNL     1     -30.493   0.946 -23.313  1.00  0.00     0.097 C 
ENDBRANCH  34  36
BRANCH  34  38
HETATM   38  C25 UNL     1     -28.756   4.019 -25.250  1.00  0.00     0.043 A 
HETATM   39  C26 UNL     1     -29.000   4.775 -26.555  1.00  0.00     0.012 A 
HETATM   40  C27 UNL     1     -29.905   4.938 -25.395  1.00  0.00     0.012 A 
ENDBRANCH  34  38
ENDBRANCH   1  33
TORSDOF 10
ENDMDL
MODEL 5
REMARK VINA RESULT: -7.261763024      1.592      2.522
REMARK  10 active torsions:
REMARK  status: ('A' for Active; 'I' for Inactive)
REMARK    1  A    between atoms: S1_2  and  C2_3 
REMARK    2  A    between atoms: C2_3  and  C25_38 
REMARK    3  A    between atoms: N1_4  and  C3_6 
REMARK    4  A    between atoms: C4_7  and  C5_8 
REMARK    5  A    between atoms: C10_13  and  C11_14 
REMARK    6  A    between atoms: C14_19  and  O1_20 
REMARK    7  A    between atoms: N3_22  and  C15_23 
REMARK    8  A    between atoms: C15_23  and  C16_24 
REMARK    9  A    between atoms: C16_24  and  N4_25 
REMARK   10  A    between atoms: C21_30  and  O2_31 
ROOT
HETATM    1  C3  UNL     1     -28.262   0.404 -26.762  1.00  0.00     0.082 A 
HETATM    2  C4  UNL     1     -27.798  -0.292 -25.686  1.00  0.00    -0.020 A 
HETATM    3  C9  UNL     1     -27.390  -1.616 -25.890  1.00  0.00     0.027 A 
HETATM    4  C10 UNL     1     -27.441  -2.224 -27.127  1.00  0.00     0.029 A 
HETATM    5  C23 UNL     1     -27.910  -1.515 -28.211  1.00  0.00     0.169 A 
HETATM    6  F1  UNL     1     -27.963  -2.110 -29.438  1.00  0.00    -0.202 F 
HETATM    7  C24 UNL     1     -28.313  -0.217 -28.024  1.00  0.00     0.182 A 
HETATM    8  F2  UNL     1     -28.744   0.448 -29.137  1.00  0.00    -0.200 F 
ENDROOT
BRANCH   4   9
HETATM    9  C11 UNL     1     -27.004  -3.626 -27.305  1.00  0.00     0.027 A 
HETATM   10  N2  UNL     1     -25.844  -4.030 -27.685  1.00  0.00    -0.354 N 
HETATM   11  C12 UNL     1     -25.794  -5.462 -27.740  1.00  0.00     0.095 A 
ATOM     12  H2  UNL     1     -25.064  -3.414 -27.917  1.00  0.00     0.166 HD
HETATM   13  C13 UNL     1     -27.024  -5.946 -27.360  1.00  0.00     0.030 A 
HETATM   14  C21 UNL     1     -24.978  -6.545 -28.028  1.00  0.00     0.172 A 
HETATM   15  C14 UNL     1     -26.931  -7.333 -27.426  1.00  0.00     0.153 A 
HETATM   16  C22 UNL     1     -27.893  -4.783 -27.053  1.00  0.00     0.103 A 
HETATM   17  N3  UNL     1     -25.692  -7.660 -27.830  1.00  0.00    -0.304 N 
BRANCH  15  18
HETATM   18  O1  UNL     1     -27.971  -8.227 -27.118  1.00  0.00    -0.345 OA
ATOM     19  H1  UNL     1     -27.857  -9.072 -26.700  1.00  0.00     0.219 HD
ENDBRANCH  15  18
BRANCH  17  20
HETATM   20  C15 UNL     1     -25.210  -9.014 -28.019  1.00  0.00     0.163 C 
BRANCH  20  21
HETATM   21  C16 UNL     1     -24.801  -9.634 -26.691  1.00  0.00     0.292 C 
BRANCH  21  22
HETATM   22  N4  UNL     1     -23.396  -9.373 -26.454  1.00  0.00     0.090 N 
HETATM   23  C17 UNL     1     -22.590 -10.551 -26.583  1.00  0.00     0.272 C 
HETATM   24  C18 UNL     1     -21.263 -10.088 -25.992  1.00  0.00     0.032 C 
HETATM   25  C19 UNL     1     -21.726  -9.333 -24.761  1.00  0.00     0.032 C 
HETATM   26  C20 UNL     1     -23.149  -8.966 -25.088  1.00  0.00     0.272 C 
ENDBRANCH  21  22
ENDBRANCH  20  21
ENDBRANCH  17  20
BRANCH  14  27
HETATM   27  O2  UNL     1     -23.642  -6.427 -28.452  1.00  0.00    -0.344 OA
ATOM     28  H2  UNL     1     -23.111  -5.653 -28.310  1.00  0.00     0.219 HD
ENDBRANCH  14  27
ENDBRANCH   4   9
BRANCH   2  29
HETATM   29  C5  UNL     1     -27.667   0.293 -24.363  1.00  0.00    -0.022 C 
HETATM   30  C6  UNL     1     -26.970  -0.729 -23.438  1.00  0.00     0.019 C 
HETATM   31  C7  UNL     1     -26.753   1.506 -24.338  1.00  0.00     0.019 C 
HETATM   32  C8  UNL     1     -28.990   0.559 -23.737  1.00  0.00     0.019 C 
ENDBRANCH   2  29
BRANCH   1  33
HETATM   33  N1  UNL     1     -28.700   1.699 -26.692  1.00  0.00    -0.351 N 
HETATM   34  C2  UNL     1     -29.771   2.309 -26.652  1.00  0.00     0.051 C 
ATOM     35  H1  UNL     1     -27.912   2.347 -26.665  1.00  0.00     0.166 HD
BRANCH  34  36
HETATM   36  S1  UNL     1     -31.378   1.615 -26.671  1.00  0.00    -0.121 SA
HETATM   37  C1  UNL     1     -32.314   1.659 -25.168  1.00  0.00     0.097 C 
ENDBRANCH  34  36
BRANCH  34  38
HETATM   38  C25 UNL     1     -29.712   3.826 -26.621  1.00  0.00     0.043 A 
HETATM   39  C26 UNL     1     -29.672   4.405 -25.208  1.00  0.00     0.012 A 
HETATM   40  C27 UNL     1     -28.506   4.517 -26.116  1.00  0.00     0.012 A 
ENDBRANCH  34  38
ENDBRANCH   1  33
TORSDOF 10
ENDMDL
