MODEL 1
REMARK VINA RESULT: -7.640568892      0.000      0.000
REMARK  8 active torsions:
REMARK  status: ('A' for Active; 'I' for Inactive)
REMARK    1  A    between atoms: O1_2  and  N1_3 
REMARK    2  A    between atoms: C2_5  and  C3_6 
REMARK    3  A    between atoms: C4_7  and  S1_8 
REMARK    4  A    between atoms: S1_8  and  C5_9 
REMARK    5  A    between atoms: C9_16  and  C10_17 
REMARK    6  A    between atoms: C10_17  and  O2_18 
REMARK    7  A    between atoms: C16_30  and  C17_31 
REMARK    8  A    between atoms: C17_31  and  O3_34 
ROOT
HETATM    1  C5  UNL     1     -27.927  -0.953 -28.253  1.00  0.00     0.052 A 
HETATM    2  C6  UNL     1     -26.963  -0.539 -29.128  1.00  0.00     0.025 A 
HETATM    3  C7  UNL     1     -26.934   0.802 -29.715  1.00  0.00     0.070 C 
HETATM    4  N2  UNL     1     -25.982  -1.389 -29.472  1.00  0.00    -0.352 N 
ATOM      5  H2  UNL     1     -25.260  -1.082 -30.125  1.00  0.00     0.166 HD
HETATM    6  C8  UNL     1     -25.931  -2.659 -28.963  1.00  0.00     0.089 A 
HETATM    7  S2  UNL     1     -24.861  -3.943 -29.185  1.00  0.00    -0.066 SA
HETATM    8  C9  UNL     1     -25.626  -5.144 -28.114  1.00  0.00     0.080 A 
HETATM    9  C13 UNL     1     -26.676  -4.433 -27.663  1.00  0.00     0.070 A 
HETATM   10 CL1  UNL     1     -27.894  -5.159 -26.556  1.00  0.00    -0.082 Cl
HETATM   11  C14 UNL     1     -26.846  -3.152 -28.090  1.00  0.00     0.044 A 
HETATM   12  C15 UNL     1     -27.860  -2.246 -27.745  1.00  0.00     0.068 A 
HETATM   13 CL2  UNL     1     -29.151  -2.679 -26.621  1.00  0.00    -0.082 Cl
ENDROOT
BRANCH   1  14
HETATM   14  S1  UNL     1     -29.282   0.024 -27.707  1.00  0.00    -0.068 SA
BRANCH  14  15
HETATM   15  C4  UNL     1     -29.149   1.082 -26.393  1.00  0.00     0.087 A 
HETATM   16  C3  UNL     1     -29.149   2.488 -26.450  1.00  0.00     0.023 A 
HETATM   17  C20 UNL     1     -29.078   2.948 -25.156  1.00  0.00    -0.022 A 
HETATM   18  C16 UNL     1     -29.035   1.872 -24.326  1.00  0.00     0.051 A 
HETATM   19  C21 UNL     1     -29.052   4.379 -24.724  1.00  0.00     0.051 C 
HETATM   20  N4  UNL     1     -29.078   0.771 -25.086  1.00  0.00    -0.350 N 
ATOM     21  H4  UNL     1     -29.060  -0.182 -24.721  1.00  0.00     0.166 HD
BRANCH  16  22
HETATM   22  C2  UNL     1     -29.207   3.296 -27.660  1.00  0.00     0.128 C 
HETATM   23  N1  UNL     1     -28.126   3.829 -28.112  1.00  0.00    -0.278 N 
ATOM     24  H1  UNL     1     -27.260   3.664 -27.599  1.00  0.00     0.193 HD
BRANCH  23  25
HETATM   25  O1  UNL     1     -28.067   4.600 -29.232  1.00  0.00    -0.286 OA
HETATM   26  C1  UNL     1     -27.256   4.272 -30.357  1.00  0.00     0.237 C 
ENDBRANCH  23  25
ENDBRANCH  16  22
BRANCH  18  27
HETATM   27  C17 UNL     1     -28.953   1.888 -22.823  1.00  0.00     0.093 C 
HETATM   28  C18 UNL     1     -30.140   2.586 -22.209  1.00  0.00     0.052 C 
HETATM   29  C19 UNL     1     -28.774   0.488 -22.284  1.00  0.00     0.052 C 
BRANCH  27  30
HETATM   30  O3  UNL     1     -27.805   2.600 -22.454  1.00  0.00    -0.384 OA
ATOM     31  H3  UNL     1     -28.056   3.501 -22.284  1.00  0.00     0.211 HD
ENDBRANCH  27  30
ENDBRANCH  18  27
ENDBRANCH  14  15
ENDBRANCH   1  14
BRANCH   8  32
HETATM   32  C10 UNL     1     -25.102  -6.466 -27.968  1.00  0.00     0.156 C 
HETATM   33  N3  UNL     1     -25.550  -7.722 -27.751  1.00  0.00    -0.370 N 
HETATM   34  C11 UNL     1     -24.491  -8.831 -27.747  1.00  0.00     0.151 C 
HETATM   35  C12 UNL     1     -26.860  -8.228 -27.463  1.00  0.00     0.151 C 
BRANCH  32  36
HETATM   36  O2  UNL     1     -23.754  -6.449 -28.081  1.00  0.00    -0.345 OA
ATOM     37  H2  UNL     1     -23.358  -6.913 -27.352  1.00  0.00     0.219 HD
ENDBRANCH  32  36
ENDBRANCH   8  32
TORSDOF 8
ENDMDL
MODEL 2
REMARK VINA RESULT: -7.633916831      1.725      1.930
REMARK  8 active torsions:
REMARK  status: ('A' for Active; 'I' for Inactive)
REMARK    1  A    between atoms: O1_2  and  N1_3 
REMARK    2  A    between atoms: C2_5  and  C3_6 
REMARK    3  A    between atoms: C4_7  and  S1_8 
REMARK    4  A    between atoms: S1_8  and  C5_9 
REMARK    5  A    between atoms: C9_16  and  C10_17 
REMARK    6  A    between atoms: C10_17  and  O2_18 
REMARK    7  A    between atoms: C16_30  and  C17_31 
REMARK    8  A    between atoms: C17_31  and  O3_34 
ROOT
HETATM    1  C5  UNL     1     -28.153  -0.207 -28.954  1.00  0.00     0.052 A 
HETATM    2  C6  UNL     1     -27.016   0.201 -29.595  1.00  0.00     0.025 A 
HETATM    3  C7  UNL     1     -26.883   1.507 -30.243  1.00  0.00     0.070 C 
HETATM    4  N2  UNL     1     -25.957  -0.623 -29.635  1.00  0.00    -0.352 N 
ATOM      5  H2  UNL     1     -25.107  -0.322 -30.112  1.00  0.00     0.166 HD
HETATM    6  C8  UNL     1     -25.995  -1.860 -29.049  1.00  0.00     0.089 A 
HETATM    7  S2  UNL     1     -24.867  -3.106 -28.921  1.00  0.00    -0.066 SA
HETATM    8  C9  UNL     1     -25.835  -4.278 -27.992  1.00  0.00     0.080 A 
HETATM    9  C13 UNL     1     -26.984  -3.590 -27.856  1.00  0.00     0.070 A 
HETATM   10 CL1  UNL     1     -28.414  -4.306 -27.032  1.00  0.00    -0.082 Cl
HETATM   11  C14 UNL     1     -27.081  -2.344 -28.393  1.00  0.00     0.044 A 
HETATM   12  C15 UNL     1     -28.174  -1.464 -28.363  1.00  0.00     0.068 A 
HETATM   13 CL2  UNL     1     -29.688  -1.891 -27.560  1.00  0.00    -0.082 Cl
ENDROOT
BRANCH   1  14
HETATM   14  S1  UNL     1     -29.628   0.739 -28.817  1.00  0.00    -0.068 SA
BRANCH  14  15
HETATM   15  C4  UNL     1     -30.002   1.613 -27.417  1.00  0.00     0.087 A 
HETATM   16  C3  UNL     1     -29.428   2.833 -27.016  1.00  0.00     0.023 A 
HETATM   17  C20 UNL     1     -30.058   3.218 -25.857  1.00  0.00    -0.022 A 
HETATM   18  C16 UNL     1     -30.988   2.276 -25.547  1.00  0.00     0.051 A 
HETATM   19  C21 UNL     1     -29.779   4.455 -25.065  1.00  0.00     0.051 C 
HETATM   20  N4  UNL     1     -30.936   1.329 -26.491  1.00  0.00    -0.350 N 
ATOM     21  H4  UNL     1     -31.529   0.498 -26.507  1.00  0.00     0.166 HD
BRANCH  16  22
HETATM   22  C2  UNL     1     -28.360   3.544 -27.705  1.00  0.00     0.128 C 
HETATM   23  N1  UNL     1     -28.661   4.400 -28.619  1.00  0.00    -0.278 N 
ATOM     24  H1  UNL     1     -29.649   4.548 -28.828  1.00  0.00     0.193 HD
BRANCH  23  25
HETATM   25  O1  UNL     1     -27.745   5.119 -29.322  1.00  0.00    -0.286 OA
HETATM   26  C1  UNL     1     -27.415   4.839 -30.680  1.00  0.00     0.237 C 
ENDBRANCH  23  25
ENDBRANCH  16  22
BRANCH  18  27
HETATM   27  C17 UNL     1     -31.918   2.274 -24.364  1.00  0.00     0.093 C 
HETATM   28  C18 UNL     1     -31.160   2.315 -23.061  1.00  0.00     0.052 C 
HETATM   29  C19 UNL     1     -32.923   3.396 -24.473  1.00  0.00     0.052 C 
BRANCH  27  30
HETATM   30  O3  UNL     1     -32.655   1.084 -24.388  1.00  0.00    -0.384 OA
ATOM     31  H3  UNL     1     -32.748   0.810 -25.293  1.00  0.00     0.211 HD
ENDBRANCH  27  30
ENDBRANCH  18  27
ENDBRANCH  14  15
ENDBRANCH   1  14
BRANCH   8  32
HETATM   32  C10 UNL     1     -25.325  -5.566 -27.639  1.00  0.00     0.156 C 
HETATM   33  N3  UNL     1     -25.460  -6.481 -26.654  1.00  0.00    -0.370 N 
HETATM   34  C11 UNL     1     -24.672  -7.785 -26.825  1.00  0.00     0.151 C 
HETATM   35  C12 UNL     1     -26.181  -6.446 -25.416  1.00  0.00     0.151 C 
BRANCH  32  36
HETATM   36  O2  UNL     1     -24.441  -5.990 -28.572  1.00  0.00    -0.345 OA
ATOM     37  H2  UNL     1     -24.073  -6.828 -28.317  1.00  0.00     0.219 HD
ENDBRANCH  32  36
ENDBRANCH   8  32
TORSDOF 8
ENDMDL
MODEL 3
REMARK VINA RESULT: -7.537607276      1.886      2.238
REMARK  8 active torsions:
REMARK  status: ('A' for Active; 'I' for Inactive)
REMARK    1  A    between atoms: O1_2  and  N1_3 
REMARK    2  A    between atoms: C2_5  and  C3_6 
REMARK    3  A    between atoms: C4_7  and  S1_8 
REMARK    4  A    between atoms: S1_8  and  C5_9 
REMARK    5  A    between atoms: C9_16  and  C10_17 
REMARK    6  A    between atoms: C10_17  and  O2_18 
REMARK    7  A    between atoms: C16_30  and  C17_31 
REMARK    8  A    between atoms: C17_31  and  O3_34 
ROOT
HETATM    1  C5  UNL     1     -26.584  -2.340 -28.664  1.00  0.00     0.052 A 
HETATM    2  C6  UNL     1     -25.413  -2.511 -29.349  1.00  0.00     0.025 A 
HETATM    3  C7  UNL     1     -24.835  -1.486 -30.220  1.00  0.00     0.070 C 
HETATM    4  N2  UNL     1     -24.744  -3.669 -29.223  1.00  0.00    -0.352 N 
ATOM      5  H2  UNL     1     -23.870  -3.799 -29.733  1.00  0.00     0.166 HD
HETATM    6  C8  UNL     1     -25.212  -4.677 -28.424  1.00  0.00     0.089 A 
HETATM    7  S2  UNL     1     -24.629  -6.215 -28.055  1.00  0.00    -0.066 SA
HETATM    8  C9  UNL     1     -25.916  -6.754 -26.946  1.00  0.00     0.080 A 
HETATM    9  C13 UNL     1     -26.713  -5.669 -26.955  1.00  0.00     0.070 A 
HETATM   10 CL1  UNL     1     -28.261  -5.636 -26.040  1.00  0.00    -0.082 Cl
HETATM   11  C14 UNL     1     -26.364  -4.592 -27.710  1.00  0.00     0.044 A 
HETATM   12  C15 UNL     1     -27.044  -3.374 -27.857  1.00  0.00     0.068 A 
HETATM   13 CL2  UNL     1     -28.562  -3.049 -27.014  1.00  0.00    -0.082 Cl
ENDROOT
BRANCH   1  14
HETATM   14  S1  UNL     1     -27.587  -0.898 -28.724  1.00  0.00    -0.068 SA
BRANCH  14  15
HETATM   15  C4  UNL     1     -27.602   0.232 -27.464  1.00  0.00     0.087 A 
HETATM   16  C3  UNL     1     -27.690   1.630 -27.597  1.00  0.00     0.023 A 
HETATM   17  C20 UNL     1     -27.728   2.158 -26.329  1.00  0.00    -0.022 A 
HETATM   18  C16 UNL     1     -27.665   1.132 -25.440  1.00  0.00     0.051 A 
HETATM   19  C21 UNL     1     -27.822   3.608 -25.974  1.00  0.00     0.051 C 
HETATM   20  N4  UNL     1     -27.590  -0.008 -26.140  1.00  0.00    -0.350 N 
ATOM     21  H4  UNL     1     -27.532  -0.937 -25.723  1.00  0.00     0.166 HD
BRANCH  16  22
HETATM   22  C2  UNL     1     -27.728   2.370 -28.851  1.00  0.00     0.128 C 
HETATM   23  N1  UNL     1     -26.645   2.902 -29.300  1.00  0.00    -0.278 N 
ATOM     24  H1  UNL     1     -25.792   2.783 -28.753  1.00  0.00     0.193 HD
BRANCH  23  25
HETATM   25  O1  UNL     1     -26.566   3.612 -30.458  1.00  0.00    -0.286 OA
HETATM   26  C1  UNL     1     -27.353   4.773 -30.711  1.00  0.00     0.237 C 
ENDBRANCH  23  25
ENDBRANCH  16  22
BRANCH  18  27
HETATM   27  C17 UNL     1     -27.676   1.229 -23.938  1.00  0.00     0.093 C 
HETATM   28  C18 UNL     1     -28.947   1.861 -23.431  1.00  0.00     0.052 C 
HETATM   29  C19 UNL     1     -27.423  -0.124 -23.314  1.00  0.00     0.052 C 
BRANCH  27  30
HETATM   30  O3  UNL     1     -26.610   2.047 -23.544  1.00  0.00    -0.384 OA
ATOM     31  H3  UNL     1     -26.481   1.938 -22.609  1.00  0.00     0.211 HD
ENDBRANCH  27  30
ENDBRANCH  18  27
ENDBRANCH  14  15
ENDBRANCH   1  14
BRANCH   8  32
HETATM   32  C10 UNL     1     -25.908  -8.056 -26.359  1.00  0.00     0.156 C 
HETATM   33  N3  UNL     1     -25.155  -8.786 -25.505  1.00  0.00    -0.370 N 
HETATM   34  C11 UNL     1     -25.679 -10.185 -25.162  1.00  0.00     0.151 C 
HETATM   35  C12 UNL     1     -23.894  -8.514 -24.880  1.00  0.00     0.151 C 
BRANCH  32  36
HETATM   36  O2  UNL     1     -26.974  -8.769 -26.790  1.00  0.00    -0.345 OA
ATOM     37  H2  UNL     1     -26.776  -9.699 -26.769  1.00  0.00     0.219 HD
ENDBRANCH  32  36
ENDBRANCH   8  32
TORSDOF 8
ENDMDL
MODEL 4
REMARK VINA RESULT: -7.462611800      3.323      4.946
REMARK  8 active torsions:
REMARK  status: ('A' for Active; 'I' for Inactive)
REMARK    1  A    between atoms: O1_2  and  N1_3 
REMARK    2  A    between atoms: C2_5  and  C3_6 
REMARK    3  A    between atoms: C4_7  and  S1_8 
REMARK    4  A    between atoms: S1_8  and  C5_9 
REMARK    5  A    between atoms: C9_16  and  C10_17 
REMARK    6  A    between atoms: C10_17  and  O2_18 
REMARK    7  A    between atoms: C16_30  and  C17_31 
REMARK    8  A    between atoms: C17_31  and  O3_34 
ROOT
HETATM    1  C5  UNL     1     -28.263   2.481 -26.845  1.00  0.00     0.052 A 
HETATM    2  C6  UNL     1     -28.266   2.587 -28.207  1.00  0.00     0.025 A 
HETATM    3  C7  UNL     1     -28.405   3.861 -28.914  1.00  0.00     0.070 C 
HETATM    4  N2  UNL     1     -28.127   1.476 -28.950  1.00  0.00    -0.352 N 
ATOM      5  H2  UNL     1     -28.128   1.552 -29.967  1.00  0.00     0.166 HD
HETATM    6  C8  UNL     1     -27.984   0.245 -28.369  1.00  0.00     0.089 A 
HETATM    7  S2  UNL     1     -27.793  -1.307 -28.997  1.00  0.00    -0.066 SA
HETATM    8  C9  UNL     1     -27.693  -2.226 -27.474  1.00  0.00     0.080 A 
HETATM    9  C13 UNL     1     -27.821  -1.228 -26.580  1.00  0.00     0.070 A 
HETATM   10 CL1  UNL     1     -27.861  -1.552 -24.811  1.00  0.00    -0.082 Cl
HETATM   11  C14 UNL     1     -27.970   0.049 -27.025  1.00  0.00     0.044 A 
HETATM   12  C15 UNL     1     -28.116   1.224 -26.271  1.00  0.00     0.068 A 
HETATM   13 CL2  UNL     1     -28.122   1.199 -24.505  1.00  0.00    -0.082 Cl
ENDROOT
BRANCH   1  14
HETATM   14  S1  UNL     1     -28.443   3.826 -25.728  1.00  0.00    -0.068 SA
BRANCH  14  15
HETATM   15  C4  UNL     1     -29.915   4.641 -25.540  1.00  0.00     0.087 A 
HETATM   16  C3  UNL     1     -31.090   4.120 -24.969  1.00  0.00     0.023 A 
HETATM   17  C20 UNL     1     -32.023   5.130 -24.963  1.00  0.00    -0.022 A 
HETATM   18  C16 UNL     1     -31.452   6.236 -25.509  1.00  0.00     0.051 A 
HETATM   19  C21 UNL     1     -33.424   5.041 -24.449  1.00  0.00     0.051 C 
HETATM   20  N4  UNL     1     -30.195   5.921 -25.846  1.00  0.00    -0.350 N 
ATOM     21  H4  UNL     1     -29.535   6.567 -26.279  1.00  0.00     0.166 HD
BRANCH  16  22
HETATM   22  C2  UNL     1     -31.277   2.760 -24.483  1.00  0.00     0.128 C 
HETATM   23  N1  UNL     1     -31.597   1.832 -25.317  1.00  0.00    -0.278 N 
ATOM     24  H1  UNL     1     -31.709   2.089 -26.298  1.00  0.00     0.193 HD
BRANCH  23  25
HETATM   25  O1  UNL     1     -31.794   0.532 -24.972  1.00  0.00    -0.286 OA
HETATM   26  C1  UNL     1     -31.530  -0.555 -25.856  1.00  0.00     0.237 C 
ENDBRANCH  23  25
ENDBRANCH  16  22
BRANCH  18  27
HETATM   27  C17 UNL     1     -32.093   7.583 -25.711  1.00  0.00     0.093 C 
HETATM   28  C18 UNL     1     -31.125   8.576 -26.304  1.00  0.00     0.052 C 
HETATM   29  C19 UNL     1     -33.353   7.456 -26.534  1.00  0.00     0.052 C 
BRANCH  27  30
HETATM   30  O3  UNL     1     -32.489   8.072 -24.461  1.00  0.00    -0.384 OA
ATOM     31  H3  UNL     1     -32.551   9.019 -24.517  1.00  0.00     0.211 HD
ENDBRANCH  27  30
ENDBRANCH  18  27
ENDBRANCH  14  15
ENDBRANCH   1  14
BRANCH   8  32
HETATM   32  C10 UNL     1     -27.556  -3.648 -27.459  1.00  0.00     0.156 C 
HETATM   33  N3  UNL     1     -26.641  -4.588 -27.785  1.00  0.00    -0.370 N 
HETATM   34  C11 UNL     1     -27.024  -6.042 -27.486  1.00  0.00     0.151 C 
HETATM   35  C12 UNL     1     -25.362  -4.489 -28.423  1.00  0.00     0.151 C 
BRANCH  32  36
HETATM   36  O2  UNL     1     -28.683  -4.221 -26.975  1.00  0.00    -0.345 OA
ATOM     37  H2  UNL     1     -28.578  -5.164 -26.932  1.00  0.00     0.219 HD
ENDBRANCH  32  36
ENDBRANCH   8  32
TORSDOF 8
ENDMDL
MODEL 5
REMARK VINA RESULT: -7.457659876      3.183      8.882
REMARK  8 active torsions:
REMARK  status: ('A' for Active; 'I' for Inactive)
REMARK    1  A    between atoms: O1_2  and  N1_3 
REMARK    2  A    between atoms: C2_5  and  C3_6 
REMARK    3  A    between atoms: C4_7  and  S1_8 
REMARK    4  A    between atoms: S1_8  and  C5_9 
REMARK    5  A    between atoms: C9_16  and  C10_17 
REMARK    6  A    between atoms: C10_17  and  O2_18 
REMARK    7  A    between atoms: C16_30  and  C17_31 
REMARK    8  A    between atoms: C17_31  and  O3_34 
ROOT
HETATM    1  C5  UNL     1     -30.224   0.645 -26.822  1.00  0.00     0.052 A 
HETATM    2  C6  UNL     1     -30.890  -0.299 -26.092  1.00  0.00     0.025 A 
HETATM    3  C7  UNL     1     -31.105  -1.670 -26.558  1.00  0.00     0.070 C 
HETATM    4  N2  UNL     1     -31.373   0.029 -24.883  1.00  0.00    -0.352 N 
ATOM      5  H2  UNL     1     -31.870  -0.674 -24.336  1.00  0.00     0.166 HD
HETATM    6  C8  UNL     1     -31.210   1.288 -24.370  1.00  0.00     0.089 A 
HETATM    7  S2  UNL     1     -31.681   2.008 -22.920  1.00  0.00    -0.066 SA
HETATM    8  C9  UNL     1     -31.016   3.640 -23.178  1.00  0.00     0.080 A 
HETATM    9  C13 UNL     1     -30.471   3.490 -24.400  1.00  0.00     0.070 A 
HETATM   10 CL1  UNL     1     -29.680   4.864 -25.250  1.00  0.00    -0.082 Cl
HETATM   11  C14 UNL     1     -30.562   2.285 -25.025  1.00  0.00     0.044 A 
HETATM   12  C15 UNL     1     -30.066   1.917 -26.286  1.00  0.00     0.068 A 
HETATM   13 CL2  UNL     1     -29.188   3.060 -27.308  1.00  0.00    -0.082 Cl
ENDROOT
BRANCH   1  14
HETATM   14  S1  UNL     1     -29.540   0.388 -28.421  1.00  0.00    -0.068 SA
BRANCH  14  15
HETATM   15  C4  UNL     1     -28.135  -0.526 -28.656  1.00  0.00     0.087 A 
HETATM   16  C3  UNL     1     -27.062  -0.203 -29.505  1.00  0.00     0.023 A 
HETATM   17  C20 UNL     1     -26.110  -1.183 -29.350  1.00  0.00    -0.022 A 
HETATM   18  C16 UNL     1     -26.571  -2.081 -28.439  1.00  0.00     0.051 A 
HETATM   19  C21 UNL     1     -24.792  -1.260 -30.052  1.00  0.00     0.051 C 
HETATM   20  N4  UNL     1     -27.781  -1.669 -28.039  1.00  0.00    -0.350 N 
ATOM     21  H4  UNL     1     -28.359  -2.157 -27.355  1.00  0.00     0.166 HD
BRANCH  16  22
HETATM   22  C2  UNL     1     -26.985   0.953 -30.388  1.00  0.00     0.128 C 
HETATM   23  N1  UNL     1     -26.671   2.100 -29.896  1.00  0.00    -0.278 N 
ATOM     24  H1  UNL     1     -26.486   2.156 -28.894  1.00  0.00     0.193 HD
BRANCH  23  25
HETATM   25  O1  UNL     1     -26.570   3.242 -30.628  1.00  0.00    -0.286 OA
HETATM   26  C1  UNL     1     -27.430   4.363 -30.440  1.00  0.00     0.237 C 
ENDBRANCH  23  25
ENDBRANCH  16  22
BRANCH  18  27
HETATM   27  C17 UNL     1     -25.871  -3.321 -27.952  1.00  0.00     0.093 C 
HETATM   28  C18 UNL     1     -26.091  -3.539 -26.476  1.00  0.00     0.052 C 
HETATM   29  C19 UNL     1     -26.280  -4.522 -28.773  1.00  0.00     0.052 C 
BRANCH  27  30
HETATM   30  O3  UNL     1     -24.496  -3.157 -28.155  1.00  0.00    -0.384 OA
ATOM     31  H3  UNL     1     -24.041  -3.472 -27.383  1.00  0.00     0.211 HD
ENDBRANCH  27  30
ENDBRANCH  18  27
ENDBRANCH  14  15
ENDBRANCH   1  14
BRANCH   8  32
HETATM   32  C10 UNL     1     -31.182   4.683 -22.215  1.00  0.00     0.156 C 
HETATM   33  N3  UNL     1     -32.174   5.432 -21.684  1.00  0.00    -0.370 N 
HETATM   34  C11 UNL     1     -31.767   6.415 -20.580  1.00  0.00     0.151 C 
HETATM   35  C12 UNL     1     -33.569   5.524 -22.000  1.00  0.00     0.151 C 
BRANCH  32  36
HETATM   36  O2  UNL     1     -29.986   5.017 -21.678  1.00  0.00    -0.345 OA
ATOM     37  H2  UNL     1     -29.877   5.961 -21.684  1.00  0.00     0.219 HD
ENDBRANCH  32  36
ENDBRANCH   8  32
TORSDOF 8
ENDMDL
