MODEL 1
REMARK VINA RESULT: -8.219827193      0.000      0.000
REMARK  5 active torsions:
REMARK  status: ('A' for Active; 'I' for Inactive)
REMARK    1  A    between atoms: C3_3  and  N1_4 
REMARK    2  A    between atoms: C5_8  and  C6_9 
REMARK       I    between atoms: C6_9  and  N2_11 
REMARK    3  A    between atoms: N2_11  and  C7_13 
REMARK    4  A    between atoms: C10_17  and  C11_18 
REMARK    5  A    between atoms: C21_30  and  C22_31 
ROOT
HETATM    1  C6  UNL     1     -81.557 -13.929   8.128  1.00  0.00     0.256 C 
HETATM    2  O3  UNL     1     -81.924 -13.247   9.095  1.00  0.00    -0.267 OA
HETATM    3  N2  UNL     1     -82.137 -15.106   7.702  1.00  0.00    -0.316 N 
ATOM      4  H2  UNL     1     -81.711 -15.491   6.858  1.00  0.00     0.169 HD
ENDROOT
BRANCH   3   5
HETATM    5  C7  UNL     1     -83.218 -15.894   8.208  1.00  0.00     0.093 A 
HETATM    6  S1  UNL     1     -83.133 -16.632   9.787  1.00  0.00    -0.075 SA
HETATM    7  C8  UNL     1     -84.626 -17.408   9.826  1.00  0.00    -0.008 A 
HETATM    8  C9  UNL     1     -85.196 -17.106   8.657  1.00  0.00    -0.027 A 
HETATM    9  C19 UNL     1     -85.020 -18.246  11.019  1.00  0.00     0.046 C 
HETATM   10  C10 UNL     1     -84.449 -16.303   7.809  1.00  0.00     0.070 A 
HETATM   11  C12 UNL     1     -86.604 -17.597   8.253  1.00  0.00     0.041 C 
HETATM   12  C13 UNL     1     -87.720 -16.660   8.418  1.00  0.00     0.005 C 
HETATM   13  C14 UNL     1     -88.609 -16.647   9.607  1.00  0.00     0.000 C 
HETATM   14  C15 UNL     1     -88.798 -17.877  10.417  1.00  0.00     0.000 C 
HETATM   15  C16 UNL     1     -88.675 -17.801  11.912  1.00  0.00     0.000 C 
HETATM   16  C17 UNL     1     -87.274 -18.183  12.483  1.00  0.00     0.000 C 
HETATM   17  C18 UNL     1     -86.426 -18.384  11.297  1.00  0.00     0.005 C 
BRANCH  10  18
HETATM   18  C11 UNL     1     -85.017 -15.630   6.580  1.00  0.00     0.268 C 
HETATM   19  N3  UNL     1     -85.548 -16.245   5.446  1.00  0.00    -0.057 NA
HETATM   20  O4  UNL     1     -85.020 -14.370   6.528  1.00  0.00    -0.271 OA
ENDBRANCH  10  18
ENDBRANCH   3   5
BRANCH   1  21
HETATM   21  C5  UNL     1     -80.387 -13.386   7.401  1.00  0.00     0.035 A 
HETATM   22  C4  UNL     1     -79.411 -14.222   6.924  1.00  0.00     0.053 A 
HETATM   23  C3  UNL     1     -78.306 -13.746   6.233  1.00  0.00     0.110 A 
HETATM   24  C2  UNL     1     -78.143 -12.404   5.995  1.00  0.00    -0.014 A 
HETATM   25  C1  UNL     1     -76.943 -11.910   5.267  1.00  0.00     0.052 C 
HETATM   26  C21 UNL     1     -79.116 -11.536   6.465  1.00  0.00     0.057 A 
HETATM   27  C20 UNL     1     -80.219 -12.047   7.159  1.00  0.00     0.034 A 
BRANCH  23  28
HETATM   28  N1  UNL     1     -77.319 -14.655   5.746  1.00  0.00    -0.115 N 
HETATM   29  O1  UNL     1     -77.481 -15.202   4.608  1.00  0.00    -0.532 OA
HETATM   30  O2  UNL     1     -76.182 -15.001   6.413  1.00  0.00    -0.532 OA
ENDBRANCH  23  28
BRANCH  26  31
HETATM   31  C22 UNL     1     -79.073 -10.091   6.254  1.00  0.00     0.418 C 
HETATM   32  F1  UNL     1     -79.107  -9.803   4.885  1.00  0.00    -0.166 F 
HETATM   33  F2  UNL     1     -80.180  -9.502   6.818  1.00  0.00    -0.166 F 
HETATM   34  F3  UNL     1     -77.979  -9.494   6.872  1.00  0.00    -0.166 F 
ENDBRANCH  26  31
ENDBRANCH   1  21
TORSDOF 5
ENDMDL
MODEL 2
REMARK VINA RESULT: -8.024010966      4.647      9.900
REMARK  5 active torsions:
REMARK  status: ('A' for Active; 'I' for Inactive)
REMARK    1  A    between atoms: C3_3  and  N1_4 
REMARK    2  A    between atoms: C5_8  and  C6_9 
REMARK       I    between atoms: C6_9  and  N2_11 
REMARK    3  A    between atoms: N2_11  and  C7_13 
REMARK    4  A    between atoms: C10_17  and  C11_18 
REMARK    5  A    between atoms: C21_30  and  C22_31 
ROOT
HETATM    1  C6  UNL     1     -84.906 -15.503   7.246  1.00  0.00     0.256 C 
HETATM    2  O3  UNL     1     -85.495 -14.936   6.315  1.00  0.00    -0.267 OA
HETATM    3  N2  UNL     1     -83.541 -15.516   7.451  1.00  0.00    -0.316 N 
ATOM      4  H2  UNL     1     -83.260 -16.004   8.302  1.00  0.00     0.169 HD
ENDROOT
BRANCH   3   5
HETATM    5  C7  UNL     1     -82.444 -14.980   6.707  1.00  0.00     0.093 A 
HETATM    6  S1  UNL     1     -82.459 -14.967   4.962  1.00  0.00    -0.075 SA
HETATM    7  C8  UNL     1     -80.961 -14.259   4.664  1.00  0.00    -0.008 A 
HETATM    8  C9  UNL     1     -80.451 -14.022   5.875  1.00  0.00    -0.027 A 
HETATM    9  C19 UNL     1     -80.480 -14.059   3.247  1.00  0.00     0.046 C 
HETATM   10  C10 UNL     1     -81.240 -14.401   6.950  1.00  0.00     0.070 A 
HETATM   11  C12 UNL     1     -79.075 -13.355   6.095  1.00  0.00     0.041 C 
HETATM   12  C13 UNL     1     -79.059 -11.922   6.407  1.00  0.00     0.005 C 
HETATM   13  C14 UNL     1     -78.852 -10.864   5.387  1.00  0.00     0.000 C 
HETATM   14  C15 UNL     1     -78.113 -11.163   4.135  1.00  0.00     0.000 C 
HETATM   15  C16 UNL     1     -78.697 -10.744   2.816  1.00  0.00     0.000 C 
HETATM   16  C17 UNL     1     -79.508 -11.848   2.068  1.00  0.00     0.000 C 
HETATM   17  C18 UNL     1     -79.558 -12.980   3.007  1.00  0.00     0.005 C 
BRANCH  10  18
HETATM   18  C11 UNL     1     -80.973 -13.974   8.375  1.00  0.00     0.268 C 
HETATM   19  N3  UNL     1     -79.922 -14.377   9.198  1.00  0.00    -0.057 NA
HETATM   20  O4  UNL     1     -81.775 -13.171   8.926  1.00  0.00    -0.271 OA
ENDBRANCH  10  18
ENDBRANCH   3   5
BRANCH   1  21
HETATM   21  C5  UNL     1     -85.794 -16.214   8.194  1.00  0.00     0.035 A 
HETATM   22  C4  UNL     1     -85.294 -16.747   9.354  1.00  0.00     0.053 A 
HETATM   23  C3  UNL     1     -86.101 -17.414  10.265  1.00  0.00     0.110 A 
HETATM   24  C2  UNL     1     -87.446 -17.567  10.042  1.00  0.00    -0.014 A 
HETATM   25  C1  UNL     1     -88.292 -18.300  11.022  1.00  0.00     0.052 C 
HETATM   26  C21 UNL     1     -87.978 -17.037   8.878  1.00  0.00     0.057 A 
HETATM   27  C20 UNL     1     -87.139 -16.371   7.977  1.00  0.00     0.034 A 
BRANCH  23  28
HETATM   28  N1  UNL     1     -85.538 -17.945  11.465  1.00  0.00    -0.115 N 
HETATM   29  O1  UNL     1     -84.816 -18.991  11.405  1.00  0.00    -0.532 OA
HETATM   30  O2  UNL     1     -85.711 -17.414  12.708  1.00  0.00    -0.532 OA
ENDBRANCH  23  28
BRANCH  26  31
HETATM   31  C22 UNL     1     -89.396 -17.109   8.536  1.00  0.00     0.418 C 
HETATM   32  F1  UNL     1     -90.146 -16.335   9.429  1.00  0.00    -0.166 F 
HETATM   33  F2  UNL     1     -89.603 -16.592   7.280  1.00  0.00    -0.166 F 
HETATM   34  F3  UNL     1     -89.865 -18.418   8.481  1.00  0.00    -0.166 F 
ENDBRANCH  26  31
ENDBRANCH   1  21
TORSDOF 5
ENDMDL
MODEL 3
REMARK VINA RESULT: -7.970668062      6.963     11.693
REMARK  5 active torsions:
REMARK  status: ('A' for Active; 'I' for Inactive)
REMARK    1  A    between atoms: C3_3  and  N1_4 
REMARK    2  A    between atoms: C5_8  and  C6_9 
REMARK       I    between atoms: C6_9  and  N2_11 
REMARK    3  A    between atoms: N2_11  and  C7_13 
REMARK    4  A    between atoms: C10_17  and  C11_18 
REMARK    5  A    between atoms: C21_30  and  C22_31 
ROOT
HETATM    1  C6  UNL     1     -87.006 -18.248  12.485  1.00  0.00     0.256 C 
HETATM    2  O3  UNL     1     -85.920 -18.759  12.794  1.00  0.00    -0.267 OA
HETATM    3  N2  UNL     1     -87.198 -17.268  11.533  1.00  0.00    -0.316 N 
ATOM      4  H2  UNL     1     -88.177 -17.013  11.399  1.00  0.00     0.169 HD
ENDROOT
BRANCH   3   5
HETATM    5  C7  UNL     1     -86.295 -16.539  10.696  1.00  0.00     0.093 A 
HETATM    6  S1  UNL     1     -84.905 -15.724  11.365  1.00  0.00    -0.075 SA
HETATM    7  C8  UNL     1     -84.255 -15.059   9.962  1.00  0.00    -0.008 A 
HETATM    8  C9  UNL     1     -85.076 -15.456   8.986  1.00  0.00    -0.027 A 
HETATM    9  C19 UNL     1     -83.017 -14.197  10.027  1.00  0.00     0.046 C 
HETATM   10  C10 UNL     1     -86.149 -16.241   9.379  1.00  0.00     0.070 A 
HETATM   11  C12 UNL     1     -84.861 -15.090   7.501  1.00  0.00     0.041 C 
HETATM   12  C13 UNL     1     -84.234 -16.098   6.640  1.00  0.00     0.005 C 
HETATM   13  C14 UNL     1     -82.783 -16.121   6.329  1.00  0.00     0.000 C 
HETATM   14  C15 UNL     1     -81.982 -14.872   6.388  1.00  0.00     0.000 C 
HETATM   15  C16 UNL     1     -80.675 -14.867   7.126  1.00  0.00     0.000 C 
HETATM   16  C17 UNL     1     -80.746 -14.356   8.599  1.00  0.00     0.000 C 
HETATM   17  C18 UNL     1     -82.180 -14.150   8.857  1.00  0.00     0.005 C 
BRANCH  10  18
HETATM   18  C11 UNL     1     -87.020 -17.011   8.413  1.00  0.00     0.268 C 
HETATM   19  N3  UNL     1     -88.196 -16.577   7.802  1.00  0.00    -0.057 NA
HETATM   20  O4  UNL     1     -86.689 -18.189   8.108  1.00  0.00    -0.271 OA
ENDBRANCH  10  18
ENDBRANCH   3   5
BRANCH   1  21
HETATM   21  C5  UNL     1     -88.168 -18.773  13.237  1.00  0.00     0.035 A 
HETATM   22  C4  UNL     1     -89.141 -17.925  13.701  1.00  0.00     0.053 A 
HETATM   23  C3  UNL     1     -90.245 -18.386  14.403  1.00  0.00     0.110 A 
HETATM   24  C2  UNL     1     -90.413 -19.723  14.663  1.00  0.00    -0.014 A 
HETATM   25  C1  UNL     1     -91.595 -20.197  15.432  1.00  0.00     0.052 C 
HETATM   26  C21 UNL     1     -89.446 -20.603  14.204  1.00  0.00     0.057 A 
HETATM   27  C20 UNL     1     -88.342 -20.107  13.500  1.00  0.00     0.034 A 
BRANCH  23  28
HETATM   28  N1  UNL     1     -91.239 -17.467  14.860  1.00  0.00    -0.115 N 
HETATM   29  O1  UNL     1     -91.322 -17.206  16.102  1.00  0.00    -0.532 OA
HETATM   30  O2  UNL     1     -92.133 -16.825  14.057  1.00  0.00    -0.532 OA
ENDBRANCH  23  28
BRANCH  26  31
HETATM   31  C22 UNL     1     -89.520 -22.049  14.392  1.00  0.00     0.418 C 
HETATM   32  F1  UNL     1     -88.376 -22.662  13.872  1.00  0.00    -0.166 F 
HETATM   33  F2  UNL     1     -89.564 -22.346  15.734  1.00  0.00    -0.166 F 
HETATM   34  F3  UNL     1     -90.680 -22.598  13.853  1.00  0.00    -0.166 F 
ENDBRANCH  26  31
ENDBRANCH   1  21
TORSDOF 5
ENDMDL
MODEL 4
REMARK VINA RESULT: -7.944077911      2.242      2.533
REMARK  5 active torsions:
REMARK  status: ('A' for Active; 'I' for Inactive)
REMARK    1  A    between atoms: C3_3  and  N1_4 
REMARK    2  A    between atoms: C5_8  and  C6_9 
REMARK       I    between atoms: C6_9  and  N2_11 
REMARK    3  A    between atoms: N2_11  and  C7_13 
REMARK    4  A    between atoms: C10_17  and  C11_18 
REMARK    5  A    between atoms: C21_30  and  C22_31 
ROOT
HETATM    1  C6  UNL     1     -81.937 -14.744   5.096  1.00  0.00     0.256 C 
HETATM    2  O3  UNL     1     -82.357 -15.475   4.187  1.00  0.00    -0.267 OA
HETATM    3  N2  UNL     1     -82.296 -14.819   6.426  1.00  0.00    -0.316 N 
ATOM      4  H2  UNL     1     -81.803 -14.152   7.021  1.00  0.00     0.169 HD
ENDROOT
BRANCH   3   5
HETATM    5  C7  UNL     1     -83.224 -15.644   7.135  1.00  0.00     0.093 A 
HETATM    6  S1  UNL     1     -82.744 -16.511   8.571  1.00  0.00    -0.075 SA
HETATM    7  C8  UNL     1     -84.192 -17.287   8.940  1.00  0.00    -0.008 A 
HETATM    8  C9  UNL     1     -85.042 -16.889   7.990  1.00  0.00    -0.027 A 
HETATM    9  C19 UNL     1     -84.278 -18.221  10.123  1.00  0.00     0.046 C 
HETATM   10  C10 UNL     1     -84.526 -16.019   7.042  1.00  0.00     0.070 A 
HETATM   11  C12 UNL     1     -86.517 -17.343   7.934  1.00  0.00     0.041 C 
HETATM   12  C13 UNL     1     -87.529 -16.422   8.461  1.00  0.00     0.005 C 
HETATM   13  C14 UNL     1     -88.074 -16.507   9.839  1.00  0.00     0.000 C 
HETATM   14  C15 UNL     1     -88.072 -17.800  10.569  1.00  0.00     0.000 C 
HETATM   15  C16 UNL     1     -87.559 -17.850  11.980  1.00  0.00     0.000 C 
HETATM   16  C17 UNL     1     -86.066 -18.279  12.129  1.00  0.00     0.000 C 
HETATM   17  C18 UNL     1     -85.564 -18.381  10.749  1.00  0.00     0.005 C 
BRANCH  10  18
HETATM   18  C11 UNL     1     -85.381 -15.245   6.064  1.00  0.00     0.268 C 
HETATM   19  N3  UNL     1     -86.242 -15.763   5.098  1.00  0.00    -0.057 NA
HETATM   20  O4  UNL     1     -85.331 -13.985   6.083  1.00  0.00    -0.271 OA
ENDBRANCH  10  18
ENDBRANCH   3   5
BRANCH   1  21
HETATM   21  C5  UNL     1     -80.964 -13.717   4.658  1.00  0.00     0.035 A 
HETATM   22  C4  UNL     1     -80.533 -13.673   3.357  1.00  0.00     0.053 A 
HETATM   23  C3  UNL     1     -79.628 -12.720   2.913  1.00  0.00     0.110 A 
HETATM   24  C2  UNL     1     -79.123 -11.771   3.766  1.00  0.00    -0.014 A 
HETATM   25  C1  UNL     1     -78.140 -10.767   3.277  1.00  0.00     0.052 C 
HETATM   26  C21 UNL     1     -79.542 -11.791   5.087  1.00  0.00     0.057 A 
HETATM   27  C20 UNL     1     -80.456 -12.767   5.504  1.00  0.00     0.034 A 
BRANCH  23  28
HETATM   28  N1  UNL     1     -79.215 -12.706   1.547  1.00  0.00    -0.115 N 
HETATM   29  O1  UNL     1     -78.302 -13.506   1.163  1.00  0.00    -0.532 OA
HETATM   30  O2  UNL     1     -79.726 -11.886   0.586  1.00  0.00    -0.532 OA
ENDBRANCH  23  28
BRANCH  26  31
HETATM   31  C22 UNL     1     -79.100 -10.822   6.086  1.00  0.00     0.418 C 
HETATM   32  F1  UNL     1     -79.351  -9.521   5.638  1.00  0.00    -0.166 F 
HETATM   33  F2  UNL     1     -79.810 -10.993   7.251  1.00  0.00    -0.166 F 
HETATM   34  F3  UNL     1     -77.765 -10.990   6.437  1.00  0.00    -0.166 F 
ENDBRANCH  26  31
ENDBRANCH   1  21
TORSDOF 5
ENDMDL
MODEL 5
REMARK VINA RESULT: -7.938263431      6.619     11.273
REMARK  5 active torsions:
REMARK  status: ('A' for Active; 'I' for Inactive)
REMARK    1  A    between atoms: C3_3  and  N1_4 
REMARK    2  A    between atoms: C5_8  and  C6_9 
REMARK       I    between atoms: C6_9  and  N2_11 
REMARK    3  A    between atoms: N2_11  and  C7_13 
REMARK    4  A    between atoms: C10_17  and  C11_18 
REMARK    5  A    between atoms: C21_30  and  C22_31 
ROOT
HETATM    1  C6  UNL     1     -86.932 -18.302  12.313  1.00  0.00     0.256 C 
HETATM    2  O3  UNL     1     -85.874 -18.937  12.435  1.00  0.00    -0.267 OA
HETATM    3  N2  UNL     1     -87.138 -17.228  11.471  1.00  0.00    -0.316 N 
ATOM      4  H2  UNL     1     -88.094 -16.873  11.488  1.00  0.00     0.169 HD
ENDROOT
BRANCH   3   5
HETATM    5  C7  UNL     1     -86.275 -16.515  10.580  1.00  0.00     0.093 A 
HETATM    6  S1  UNL     1     -84.849 -15.700  11.167  1.00  0.00    -0.075 SA
HETATM    7  C8  UNL     1     -84.268 -15.055   9.724  1.00  0.00    -0.008 A 
HETATM    8  C9  UNL     1     -85.141 -15.459   8.797  1.00  0.00    -0.027 A 
HETATM    9  C19 UNL     1     -83.024 -14.201   9.716  1.00  0.00     0.046 C 
HETATM   10  C10 UNL     1     -86.196 -16.233   9.254  1.00  0.00     0.070 A 
HETATM   11  C12 UNL     1     -85.000 -15.112   7.298  1.00  0.00     0.041 C 
HETATM   12  C13 UNL     1     -84.424 -16.134   6.418  1.00  0.00     0.005 C 
HETATM   13  C14 UNL     1     -82.991 -16.169   6.034  1.00  0.00     0.000 C 
HETATM   14  C15 UNL     1     -82.182 -14.924   6.036  1.00  0.00     0.000 C 
HETATM   15  C16 UNL     1     -80.838 -14.919   6.706  1.00  0.00     0.000 C 
HETATM   16  C17 UNL     1     -80.830 -14.390   8.174  1.00  0.00     0.000 C 
HETATM   17  C18 UNL     1     -82.247 -14.172   8.503  1.00  0.00     0.005 C 
BRANCH  10  18
HETATM   18  C11 UNL     1     -87.120 -17.009   8.344  1.00  0.00     0.268 C 
HETATM   19  N3  UNL     1     -88.349 -16.595   7.832  1.00  0.00    -0.057 NA
HETATM   20  O4  UNL     1     -86.785 -18.174   7.993  1.00  0.00    -0.271 OA
ENDBRANCH  10  18
ENDBRANCH   3   5
BRANCH   1  21
HETATM   21  C5  UNL     1     -88.039 -18.782  13.169  1.00  0.00     0.035 A 
HETATM   22  C4  UNL     1     -88.250 -20.125  13.353  1.00  0.00     0.053 A 
HETATM   23  C3  UNL     1     -89.274 -20.607  14.154  1.00  0.00     0.110 A 
HETATM   24  C2  UNL     1     -90.128 -19.752  14.805  1.00  0.00    -0.014 A 
HETATM   25  C1  UNL     1     -91.232 -20.287  15.646  1.00  0.00     0.052 C 
HETATM   26  C21 UNL     1     -89.938 -18.389  14.639  1.00  0.00     0.057 A 
HETATM   27  C20 UNL     1     -88.895 -17.933  13.822  1.00  0.00     0.034 A 
BRANCH  23  28
HETATM   28  N1  UNL     1     -89.450 -22.014  14.323  1.00  0.00    -0.115 N 
HETATM   29  O1  UNL     1     -88.463 -22.725  14.698  1.00  0.00    -0.532 OA
HETATM   30  O2  UNL     1     -90.617 -22.684  14.112  1.00  0.00    -0.532 OA
ENDBRANCH  23  28
BRANCH  26  31
HETATM   31  C22 UNL     1     -90.759 -17.377  15.296  1.00  0.00     0.418 C 
HETATM   32  F1  UNL     1     -90.795 -17.608  16.675  1.00  0.00    -0.166 F 
HETATM   33  F2  UNL     1     -90.208 -16.131  15.109  1.00  0.00    -0.166 F 
HETATM   34  F3  UNL     1     -92.041 -17.299  14.760  1.00  0.00    -0.166 F 
ENDBRANCH  26  31
ENDBRANCH   1  21
TORSDOF 5
ENDMDL
