MODEL 1
REMARK VINA RESULT: -7.957136227      0.000      0.000
REMARK  7 active torsions:
REMARK  status: ('A' for Active; 'I' for Inactive)
REMARK    1  A    between atoms: O1_2  and  C2_3 
REMARK       I    between atoms: C2_3  and  N1_5 
REMARK    2  A    between atoms: C4_9  and  C5_10 
REMARK    3  A    between atoms: C6_11  and  C7_12 
REMARK    4  A    between atoms: C7_12  and  O4_15 
REMARK    5  A    between atoms: C17_25  and  O6_26 
REMARK    6  A    between atoms: O6_26  and  C18_27 
REMARK    7  A    between atoms: C20_30  and  O8_32 
ROOT
HETATM    1  C2  UNL     1     -89.000 -13.021  18.055  1.00  0.00     0.366 C 
HETATM    2  O2  UNL     1     -88.775 -12.050  18.812  1.00  0.00    -0.238 OA
HETATM    3  N1  UNL     1     -89.862 -12.888  16.967  1.00  0.00    -0.284 N 
ATOM      4  H1  UNL     1     -90.806 -13.259  17.078  1.00  0.00     0.173 HD
HETATM    5  C3  UNL     1     -89.583 -12.350  15.851  1.00  0.00     0.158 C 
HETATM    6  O3  UNL     1     -90.568 -12.306  14.881  1.00  0.00    -0.295 OA
HETATM    7  C4  UNL     1     -90.619 -11.951  13.543  1.00  0.00     0.074 C 
HETATM    8  C10 UNL     1     -89.518 -11.674  12.816  1.00  0.00     0.019 C 
HETATM    9  C11 UNL     1     -88.074 -11.656  13.151  1.00  0.00     0.057 C 
HETATM   10  C12 UNL     1     -87.760 -12.439  14.337  1.00  0.00     0.068 C 
HETATM   11  C13 UNL     1     -88.222 -11.793  15.635  1.00  0.00     0.205 C 
HETATM   12  O5  UNL     1     -87.167 -12.439  16.231  1.00  0.00    -0.366 OA
HETATM   13  C14 UNL     1     -86.471 -12.213  15.015  1.00  0.00     0.068 C 
HETATM   14  C15 UNL     1     -85.503 -13.332  14.790  1.00  0.00     0.047 C 
HETATM   15  C16 UNL     1     -85.940 -10.835  14.976  1.00  0.00     0.074 C 
HETATM   16  C17 UNL     1     -86.215 -10.046  13.734  1.00  0.00     0.169 C 
HETATM   17  C20 UNL     1     -87.566 -10.256  13.121  1.00  0.00     0.088 C 
HETATM   18  C21 UNL     1     -87.437  -9.844  11.646  1.00  0.00     0.049 C 
ENDROOT
BRANCH   7  19
HETATM   19  C5  UNL     1     -91.887 -11.860  12.853  1.00  0.00     0.036 C 
HETATM   20  C6  UNL     1     -92.717 -12.790  12.508  1.00  0.00     0.012 C 
BRANCH  20  21
HETATM   21  C7  UNL     1     -92.592 -14.240  12.735  1.00  0.00     0.068 C 
HETATM   22  C8  UNL     1     -93.674 -15.068  12.111  1.00  0.00     0.050 C 
HETATM   23  C9  UNL     1     -91.281 -14.682  12.021  1.00  0.00     0.050 C 
BRANCH  21  24
HETATM   24  O4  UNL     1     -92.353 -14.549  14.078  1.00  0.00    -0.387 OA
ATOM     25  H4  UNL     1     -91.557 -15.054  14.196  1.00  0.00     0.211 HD
ENDBRANCH  21  24
ENDBRANCH  20  21
ENDBRANCH   7  19
BRANCH  17  26
HETATM   26  O8  UNL     1     -88.523  -9.404  13.658  1.00  0.00    -0.387 OA
ATOM     27  H8  UNL     1     -88.153  -8.941  14.400  1.00  0.00     0.210 HD
ENDBRANCH  17  26
BRANCH   1  28
HETATM   28  O1  UNL     1     -88.381 -14.236  18.310  1.00  0.00    -0.309 OA
HETATM   29  C1  UNL     1     -88.658 -15.398  17.533  1.00  0.00     0.215 C 
ENDBRANCH   1  28
BRANCH  16  30
HETATM   30  O6  UNL     1     -85.162 -10.267  12.820  1.00  0.00    -0.313 OA
BRANCH  30  31
HETATM   31  C18 UNL     1     -83.910  -9.751  13.101  1.00  0.00     0.255 C 
HETATM   32  C19 UNL     1     -83.680  -8.348  13.532  1.00  0.00     0.126 C 
HETATM   33  O7  UNL     1     -82.876 -10.495  12.993  1.00  0.00    -0.266 OA
ENDBRANCH  30  31
ENDBRANCH  16  30
TORSDOF 7
ENDMDL
MODEL 2
REMARK VINA RESULT: -7.874499915      2.725      5.513
REMARK  7 active torsions:
REMARK  status: ('A' for Active; 'I' for Inactive)
REMARK    1  A    between atoms: O1_2  and  C2_3 
REMARK       I    between atoms: C2_3  and  N1_5 
REMARK    2  A    between atoms: C4_9  and  C5_10 
REMARK    3  A    between atoms: C6_11  and  C7_12 
REMARK    4  A    between atoms: C7_12  and  O4_15 
REMARK    5  A    between atoms: C17_25  and  O6_26 
REMARK    6  A    between atoms: O6_26  and  C18_27 
REMARK    7  A    between atoms: C20_30  and  O8_32 
ROOT
HETATM    1  C2  UNL     1     -85.925 -12.579  10.259  1.00  0.00     0.366 C 
HETATM    2  O2  UNL     1     -85.366 -13.660  10.553  1.00  0.00    -0.238 OA
HETATM    3  N1  UNL     1     -87.269 -12.552   9.891  1.00  0.00    -0.284 N 
ATOM      4  H1  UNL     1     -87.473 -12.477   8.894  1.00  0.00     0.173 HD
HETATM    5  C3  UNL     1     -88.264 -12.612  10.679  1.00  0.00     0.158 C 
HETATM    6  O3  UNL     1     -89.534 -12.571  10.134  1.00  0.00    -0.295 OA
HETATM    7  C4  UNL     1     -90.821 -12.469  10.637  1.00  0.00     0.074 C 
HETATM    8  C10 UNL     1     -91.081 -12.219  11.937  1.00  0.00     0.019 C 
HETATM    9  C11 UNL     1     -90.203 -11.998  13.111  1.00  0.00     0.057 C 
HETATM   10  C12 UNL     1     -88.855 -11.595  12.738  1.00  0.00     0.068 C 
HETATM   11  C13 UNL     1     -88.024 -12.721  12.142  1.00  0.00     0.205 C 
HETATM   12  O5  UNL     1     -86.930 -12.073  12.658  1.00  0.00    -0.366 OA
HETATM   13  C14 UNL     1     -87.778 -11.713  13.738  1.00  0.00     0.068 C 
HETATM   14  C15 UNL     1     -87.349 -10.384  14.276  1.00  0.00     0.047 C 
HETATM   15  C16 UNL     1     -87.890 -12.832  14.697  1.00  0.00     0.074 C 
HETATM   16  C17 UNL     1     -89.274 -13.212  15.123  1.00  0.00     0.169 C 
HETATM   17  C20 UNL     1     -90.321 -13.145  14.054  1.00  0.00     0.088 C 
HETATM   18  C21 UNL     1     -91.668 -13.007  14.780  1.00  0.00     0.049 C 
ENDROOT
BRANCH   7  19
HETATM   19  C5  UNL     1     -91.967 -12.632   9.771  1.00  0.00     0.036 C 
HETATM   20  C6  UNL     1     -92.638 -13.695   9.467  1.00  0.00     0.012 C 
BRANCH  20  21
HETATM   21  C7  UNL     1     -92.408 -15.072   9.940  1.00  0.00     0.068 C 
HETATM   22  C8  UNL     1     -93.494 -15.623  10.814  1.00  0.00     0.050 C 
HETATM   23  C9  UNL     1     -92.412 -15.974   8.672  1.00  0.00     0.050 C 
BRANCH  21  24
HETATM   24  O4  UNL     1     -91.123 -15.246  10.462  1.00  0.00    -0.387 OA
ATOM     25  H4  UNL     1     -90.477 -15.409   9.785  1.00  0.00     0.211 HD
ENDBRANCH  21  24
ENDBRANCH  20  21
ENDBRANCH   7  19
BRANCH  17  26
HETATM   26  O8  UNL     1     -90.411 -14.329  13.334  1.00  0.00    -0.387 OA
ATOM     27  H8  UNL     1     -89.655 -14.412  12.765  1.00  0.00     0.210 HD
ENDBRANCH  17  26
BRANCH   1  28
HETATM   28  O1  UNL     1     -85.190 -11.403  10.303  1.00  0.00    -0.309 OA
HETATM   29  C1  UNL     1     -85.518 -10.282   9.489  1.00  0.00     0.215 C 
ENDBRANCH   1  28
BRANCH  16  30
HETATM   30  O6  UNL     1     -89.615 -12.458  16.267  1.00  0.00    -0.313 OA
BRANCH  30  31
HETATM   31  C18 UNL     1     -89.158 -12.872  17.505  1.00  0.00     0.255 C 
HETATM   32  C19 UNL     1     -88.642 -11.943  18.541  1.00  0.00     0.126 C 
HETATM   33  O7  UNL     1     -89.168 -14.115  17.803  1.00  0.00    -0.266 OA
ENDBRANCH  30  31
ENDBRANCH  16  30
TORSDOF 7
ENDMDL
MODEL 3
REMARK VINA RESULT: -7.846177559      3.073      6.392
REMARK  7 active torsions:
REMARK  status: ('A' for Active; 'I' for Inactive)
REMARK    1  A    between atoms: O1_2  and  C2_3 
REMARK       I    between atoms: C2_3  and  N1_5 
REMARK    2  A    between atoms: C4_9  and  C5_10 
REMARK    3  A    between atoms: C6_11  and  C7_12 
REMARK    4  A    between atoms: C7_12  and  O4_15 
REMARK    5  A    between atoms: C17_25  and  O6_26 
REMARK    6  A    between atoms: O6_26  and  C18_27 
REMARK    7  A    between atoms: C20_30  and  O8_32 
ROOT
HETATM    1  C2  UNL     1     -91.076 -13.366   9.969  1.00  0.00     0.366 C 
HETATM    2  O2  UNL     1     -92.133 -12.768  10.275  1.00  0.00    -0.238 OA
HETATM    3  N1  UNL     1     -89.896 -12.655   9.751  1.00  0.00    -0.284 N 
ATOM      4  H1  UNL     1     -89.625 -12.497   8.781  1.00  0.00     0.173 HD
HETATM    5  C3  UNL     1     -89.127 -12.187  10.648  1.00  0.00     0.158 C 
HETATM    6  O3  UNL     1     -87.993 -11.505  10.246  1.00  0.00    -0.295 OA
HETATM    7  C4  UNL     1     -86.875 -10.991  10.881  1.00  0.00     0.074 C 
HETATM    8  C10 UNL     1     -86.599 -11.223  12.181  1.00  0.00     0.019 C 
HETATM    9  C11 UNL     1     -87.299 -12.001  13.231  1.00  0.00     0.057 C 
HETATM   10  C12 UNL     1     -88.214 -12.991  12.683  1.00  0.00     0.068 C 
HETATM   11  C13 UNL     1     -89.474 -12.390  12.079  1.00  0.00     0.205 C 
HETATM   12  O5  UNL     1     -90.096 -13.564  12.423  1.00  0.00    -0.366 OA
HETATM   13  C14 UNL     1     -89.250 -13.561  13.563  1.00  0.00     0.068 C 
HETATM   14  C15 UNL     1     -88.953 -14.975  13.955  1.00  0.00     0.047 C 
HETATM   15  C16 UNL     1     -89.795 -12.666  14.604  1.00  0.00     0.074 C 
HETATM   16  C17 UNL     1     -88.841 -11.683  15.208  1.00  0.00     0.169 C 
HETATM   17  C20 UNL     1     -87.852 -11.076  14.260  1.00  0.00     0.088 C 
HETATM   18  C21 UNL     1     -86.676 -10.588  15.120  1.00  0.00     0.049 C 
ENDROOT
BRANCH   7  19
HETATM   19  C5  UNL     1     -85.934 -10.161  10.161  1.00  0.00     0.036 C 
HETATM   20  C6  UNL     1     -85.348 -10.359   9.025  1.00  0.00     0.012 C 
BRANCH  20  21
HETATM   21  C7  UNL     1     -85.487 -11.521   8.129  1.00  0.00     0.068 C 
HETATM   22  C8  UNL     1     -86.677 -11.471   7.219  1.00  0.00     0.050 C 
HETATM   23  C9  UNL     1     -84.252 -11.493   7.183  1.00  0.00     0.050 C 
BRANCH  21  24
HETATM   24  O4  UNL     1     -85.351 -12.735   8.809  1.00  0.00    -0.387 OA
ATOM     25  H4  UNL     1     -85.678 -13.470   8.304  1.00  0.00     0.211 HD
ENDBRANCH  21  24
ENDBRANCH  20  21
ENDBRANCH   7  19
BRANCH  17  26
HETATM   26  O8  UNL     1     -88.352  -9.938  13.640  1.00  0.00    -0.387 OA
ATOM     27  H8  UNL     1     -88.226  -9.188  14.208  1.00  0.00     0.210 HD
ENDBRANCH  17  26
BRANCH   1  28
HETATM   28  O1  UNL     1     -91.090 -14.748   9.848  1.00  0.00    -0.309 OA
HETATM   29  C1  UNL     1     -91.813 -15.404   8.810  1.00  0.00     0.215 C 
ENDBRANCH   1  28
BRANCH  16  30
HETATM   30  O6  UNL     1     -88.224 -12.284  16.326  1.00  0.00    -0.313 OA
BRANCH  30  31
HETATM   31  C18 UNL     1     -88.764 -12.079  17.582  1.00  0.00     0.255 C 
HETATM   32  C19 UNL     1     -88.306 -11.011  18.507  1.00  0.00     0.126 C 
HETATM   33  O7  UNL     1     -89.710 -12.831  18.000  1.00  0.00    -0.266 OA
ENDBRANCH  30  31
ENDBRANCH  16  30
TORSDOF 7
ENDMDL
MODEL 4
REMARK VINA RESULT: -7.780117655      2.659      5.772
REMARK  7 active torsions:
REMARK  status: ('A' for Active; 'I' for Inactive)
REMARK    1  A    between atoms: O1_2  and  C2_3 
REMARK       I    between atoms: C2_3  and  N1_5 
REMARK    2  A    between atoms: C4_9  and  C5_10 
REMARK    3  A    between atoms: C6_11  and  C7_12 
REMARK    4  A    between atoms: C7_12  and  O4_15 
REMARK    5  A    between atoms: C17_25  and  O6_26 
REMARK    6  A    between atoms: O6_26  and  C18_27 
REMARK    7  A    between atoms: C20_30  and  O8_32 
ROOT
HETATM    1  C2  UNL     1     -87.808 -11.686  18.457  1.00  0.00     0.366 C 
HETATM    2  O2  UNL     1     -88.856 -11.410  19.083  1.00  0.00    -0.238 OA
HETATM    3  N1  UNL     1     -87.572 -12.985  18.006  1.00  0.00    -0.284 N 
ATOM      4  H1  UNL     1     -86.928 -13.554  18.555  1.00  0.00     0.173 HD
HETATM    5  C3  UNL     1     -88.082 -13.525  16.975  1.00  0.00     0.158 C 
HETATM    6  O3  UNL     1     -87.732 -14.829  16.678  1.00  0.00    -0.295 OA
HETATM    7  C4  UNL     1     -87.945 -15.690  15.614  1.00  0.00     0.074 C 
HETATM    8  C10 UNL     1     -88.504 -15.293  14.452  1.00  0.00     0.019 C 
HETATM    9  C11 UNL     1     -89.010 -13.983  13.979  1.00  0.00     0.057 C 
HETATM   10  C12 UNL     1     -88.464 -12.862  14.731  1.00  0.00     0.068 C 
HETATM   11  C13 UNL     1     -89.027 -12.740  16.138  1.00  0.00     0.205 C 
HETATM   12  O5  UNL     1     -88.802 -11.391  16.018  1.00  0.00    -0.366 OA
HETATM   13  C14 UNL     1     -89.144 -11.557  14.650  1.00  0.00     0.068 C 
HETATM   14  C15 UNL     1     -88.380 -10.564  13.831  1.00  0.00     0.047 C 
HETATM   15  C16 UNL     1     -90.612 -11.589  14.489  1.00  0.00     0.074 C 
HETATM   16  C17 UNL     1     -91.171 -12.710  13.670  1.00  0.00     0.169 C 
HETATM   17  C20 UNL     1     -90.492 -14.035  13.838  1.00  0.00     0.088 C 
HETATM   18  C21 UNL     1     -90.806 -14.843  12.570  1.00  0.00     0.049 C 
ENDROOT
BRANCH   7  19
HETATM   19  C5  UNL     1     -87.571 -17.084  15.707  1.00  0.00     0.036 C 
HETATM   20  C6  UNL     1     -87.831 -17.957  16.624  1.00  0.00     0.012 C 
BRANCH  20  21
HETATM   21  C7  UNL     1     -88.604 -17.761  17.863  1.00  0.00     0.068 C 
HETATM   22  C8  UNL     1     -89.238 -19.004  18.409  1.00  0.00     0.050 C 
HETATM   23  C9  UNL     1     -87.583 -17.316  18.950  1.00  0.00     0.050 C 
BRANCH  21  24
HETATM   24  O4  UNL     1     -89.482 -16.676  17.775  1.00  0.00    -0.387 OA
ATOM     25  H4  UNL     1     -89.563 -16.210  18.598  1.00  0.00     0.211 HD
ENDBRANCH  21  24
ENDBRANCH  20  21
ENDBRANCH   7  19
BRANCH  17  26
HETATM   26  O8  UNL     1     -91.031 -14.770  14.886  1.00  0.00    -0.387 OA
ATOM     27  H8  UNL     1     -91.976 -14.804  14.795  1.00  0.00     0.210 HD
ENDBRANCH  17  26
BRANCH   1  28
HETATM   28  O1  UNL     1     -86.879 -10.685  18.215  1.00  0.00    -0.309 OA
HETATM   29  C1  UNL     1     -85.534 -10.979  17.853  1.00  0.00     0.215 C 
ENDBRANCH   1  28
BRANCH  16  30
HETATM   30  O6  UNL     1     -91.229 -12.296  12.321  1.00  0.00    -0.313 OA
BRANCH  30  31
HETATM   31  C18 UNL     1     -92.458 -12.231  11.691  1.00  0.00     0.255 C 
HETATM   32  C19 UNL     1     -92.622 -12.204  10.215  1.00  0.00     0.126 C 
HETATM   33  O7  UNL     1     -93.529 -12.191  12.388  1.00  0.00    -0.266 OA
ENDBRANCH  30  31
ENDBRANCH  16  30
TORSDOF 7
ENDMDL
MODEL 5
REMARK VINA RESULT: -7.564351290      2.743      7.005
REMARK  7 active torsions:
REMARK  status: ('A' for Active; 'I' for Inactive)
REMARK    1  A    between atoms: O1_2  and  C2_3 
REMARK       I    between atoms: C2_3  and  N1_5 
REMARK    2  A    between atoms: C4_9  and  C5_10 
REMARK    3  A    between atoms: C6_11  and  C7_12 
REMARK    4  A    between atoms: C7_12  and  O4_15 
REMARK    5  A    between atoms: C17_25  and  O6_26 
REMARK    6  A    between atoms: O6_26  and  C18_27 
REMARK    7  A    between atoms: C20_30  and  O8_32 
ROOT
HETATM    1  C2  UNL     1     -86.234 -12.300  10.981  1.00  0.00     0.366 C 
HETATM    2  O2  UNL     1     -86.352 -11.060  10.853  1.00  0.00    -0.238 OA
HETATM    3  N1  UNL     1     -86.272 -12.889  12.244  1.00  0.00    -0.284 N 
ATOM      4  H1  UNL     1     -85.378 -13.156  12.656  1.00  0.00     0.173 HD
HETATM    5  C3  UNL     1     -87.315 -13.126  12.930  1.00  0.00     0.158 C 
HETATM    6  O3  UNL     1     -87.163 -13.720  14.169  1.00  0.00    -0.295 OA
HETATM    7  C4  UNL     1     -88.019 -14.251  15.120  1.00  0.00     0.074 C 
HETATM    8  C10 UNL     1     -89.339 -14.426  14.902  1.00  0.00     0.019 C 
HETATM    9  C11 UNL     1     -90.207 -14.148  13.732  1.00  0.00     0.057 C 
HETATM   10  C12 UNL     1     -89.459 -14.039  12.489  1.00  0.00     0.068 C 
HETATM   11  C13 UNL     1     -88.645 -12.759  12.376  1.00  0.00     0.205 C 
HETATM   12  O5  UNL     1     -88.823 -12.867  11.019  1.00  0.00    -0.366 OA
HETATM   13  C14 UNL     1     -90.103 -13.395  11.329  1.00  0.00     0.068 C 
HETATM   14  C15 UNL     1     -90.495 -14.380  10.273  1.00  0.00     0.047 C 
HETATM   15  C16 UNL     1     -91.051 -12.301  11.626  1.00  0.00     0.074 C 
HETATM   16  C17 UNL     1     -91.860 -12.439  12.879  1.00  0.00     0.169 C 
HETATM   17  C20 UNL     1     -91.142 -13.033  14.051  1.00  0.00     0.088 C 
HETATM   18  C21 UNL     1     -92.228 -13.595  14.981  1.00  0.00     0.049 C 
ENDROOT
BRANCH   7  19
HETATM   19  C5  UNL     1     -87.523 -14.650  16.418  1.00  0.00     0.036 C 
HETATM   20  C6  UNL     1     -87.436 -13.977  17.520  1.00  0.00     0.012 C 
BRANCH  20  21
HETATM   21  C7  UNL     1     -87.835 -12.578  17.756  1.00  0.00     0.068 C 
HETATM   22  C8  UNL     1     -89.051 -12.410  18.615  1.00  0.00     0.050 C 
HETATM   23  C9  UNL     1     -86.675 -11.924  18.562  1.00  0.00     0.050 C 
BRANCH  21  24
HETATM   24  O4  UNL     1     -87.874 -11.831  16.575  1.00  0.00    -0.387 OA
ATOM     25  H4  UNL     1     -88.462 -11.088  16.637  1.00  0.00     0.211 HD
ENDBRANCH  21  24
ENDBRANCH  20  21
ENDBRANCH   7  19
BRANCH  17  26
HETATM   26  O8  UNL     1     -90.477 -12.071  14.800  1.00  0.00    -0.387 OA
ATOM     27  H8  UNL     1     -89.764 -12.479  15.276  1.00  0.00     0.210 HD
ENDBRANCH  17  26
BRANCH   1  28
HETATM   28  O1  UNL     1     -86.064 -13.085   9.850  1.00  0.00    -0.309 OA
HETATM   29  C1  UNL     1     -86.177 -12.546   8.537  1.00  0.00     0.215 C 
ENDBRANCH   1  28
BRANCH  16  30
HETATM   30  O6  UNL     1     -93.055 -13.125  12.567  1.00  0.00    -0.313 OA
BRANCH  30  31
HETATM   31  C18 UNL     1     -93.977 -12.521  11.732  1.00  0.00     0.255 C 
HETATM   32  C19 UNL     1     -93.993 -12.705  10.259  1.00  0.00     0.126 C 
HETATM   33  O7  UNL     1     -94.877 -11.758  12.224  1.00  0.00    -0.266 OA
ENDBRANCH  30  31
ENDBRANCH  16  30
TORSDOF 7
ENDMDL
