MODEL 1
REMARK VINA RESULT: -8.189758814      0.000      0.000
REMARK  5 active torsions:
REMARK  status: ('A' for Active; 'I' for Inactive)
REMARK    1  A    between atoms: C2_2  and  C3_3 
REMARK       I    between atoms: C3_3  and  N1_5 
REMARK    2  A    between atoms: N1_5  and  C4_7 
REMARK    3  A    between atoms: C10_15  and  C11_16 
REMARK    4  A    between atoms: C17_24  and  C18_25 
REMARK    5  A    between atoms: N3_26  and  C19_28 
ROOT
HETATM    1  C4  UNL     1    -111.605 -16.174  85.483  1.00  0.00     0.098 A 
HETATM    2  S1  UNL     1    -111.181 -16.641  87.140  1.00  0.00    -0.074 SA
HETATM    3  C5  UNL     1    -112.711 -16.953  87.755  1.00  0.00     0.009 A 
HETATM    4  C6  UNL     1    -113.525 -16.700  86.700  1.00  0.00    -0.019 A 
HETATM    5  C7  UNL     1    -112.955 -16.300  85.533  1.00  0.00     0.086 A 
HETATM    6  C8  UNL     1    -113.801 -16.010  84.349  1.00  0.00     0.103 C 
HETATM    7  N2  UNL     1    -114.503 -15.792  83.440  1.00  0.00    -0.191 NA
HETATM    8  C9  UNL     1    -115.036 -16.870  86.838  1.00  0.00     0.053 C 
HETATM    9  C10 UNL     1    -115.366 -18.138  87.571  1.00  0.00     0.054 C 
HETATM   10  C15 UNL     1    -115.607 -17.773  89.031  1.00  0.00     0.091 C 
HETATM   11  C16 UNL     1    -114.340 -17.222  89.578  1.00  0.00     0.141 C 
HETATM   12  O3  UNL     1    -114.500 -16.506  90.547  1.00  0.00    -0.297 OA
HETATM   13  C17 UNL     1    -112.951 -17.395  89.154  1.00  0.00     0.134 C 
ENDROOT
BRANCH   1  14
HETATM   14  N1  UNL     1    -110.639 -15.803  84.518  1.00  0.00    -0.320 N 
HETATM   15  C3  UNL     1    -109.836 -14.704  84.286  1.00  0.00     0.222 C 
HETATM   16  O1  UNL     1    -109.699 -13.633  84.886  1.00  0.00    -0.273 OA
ATOM     17  H1  UNL     1    -110.501 -16.531  83.817  1.00  0.00     0.169 HD
BRANCH  15  18
HETATM   18  C2  UNL     1    -108.926 -14.804  83.053  1.00  0.00     0.098 C 
HETATM   19  C1  UNL     1    -109.681 -15.392  81.916  1.00  0.00     0.014 C 
ENDBRANCH  15  18
ENDBRANCH   1  14
BRANCH  13  20
HETATM   20  C18 UNL     1    -112.031 -16.642  90.056  1.00  0.00     0.075 C 
HETATM   21  N3  UNL     1    -112.016 -15.375  89.932  1.00  0.00    -0.380 N 
ATOM     22  H3  UNL     1    -112.633 -14.976  89.225  1.00  0.00     0.160 HD
BRANCH  21  23
HETATM   23  C19 UNL     1    -111.230 -14.468  90.673  1.00  0.00     0.100 C 
HETATM   24  C20 UNL     1    -110.105 -15.126  91.436  1.00  0.00     0.056 C 
HETATM   25  C21 UNL     1    -112.118 -13.733  91.649  1.00  0.00     0.056 C 
HETATM   26 CL1  UNL     1    -110.569 -13.264  89.514  1.00  0.00    -0.097 Cl
ENDBRANCH  21  23
ENDBRANCH  13  20
BRANCH   9  27
HETATM   27  C11 UNL     1    -116.524 -18.842  86.991  1.00  0.00     0.057 A 
HETATM   28  C12 UNL     1    -116.555 -19.403  85.738  1.00  0.00     0.035 A 
HETATM   29  C13 UNL     1    -117.830 -19.961  85.597  1.00  0.00     0.027 A 
HETATM   30  C14 UNL     1    -118.470 -19.687  86.784  1.00  0.00     0.142 A 
HETATM   31  O2  UNL     1    -117.667 -19.022  87.591  1.00  0.00    -0.327 OA
ENDBRANCH   9  27
TORSDOF 5
ENDMDL
MODEL 2
REMARK VINA RESULT: -8.186980695      1.463      1.708
REMARK  5 active torsions:
REMARK  status: ('A' for Active; 'I' for Inactive)
REMARK    1  A    between atoms: C2_2  and  C3_3 
REMARK       I    between atoms: C3_3  and  N1_5 
REMARK    2  A    between atoms: N1_5  and  C4_7 
REMARK    3  A    between atoms: C10_15  and  C11_16 
REMARK    4  A    between atoms: C17_24  and  C18_25 
REMARK    5  A    between atoms: N3_26  and  C19_28 
ROOT
HETATM    1  C4  UNL     1    -112.015 -15.122  83.935  1.00  0.00     0.098 A 
HETATM    2  S1  UNL     1    -111.360 -15.213  85.580  1.00  0.00    -0.074 SA
HETATM    3  C5  UNL     1    -112.744 -15.651  86.422  1.00  0.00     0.009 A 
HETATM    4  C6  UNL     1    -113.687 -15.724  85.449  1.00  0.00    -0.019 A 
HETATM    5  C7  UNL     1    -113.310 -15.452  84.172  1.00  0.00     0.086 A 
HETATM    6  C8  UNL     1    -114.303 -15.516  83.070  1.00  0.00     0.103 C 
HETATM    7  N2  UNL     1    -115.115 -15.578  82.232  1.00  0.00    -0.191 NA
HETATM    8  C9  UNL     1    -115.123 -16.106  85.797  1.00  0.00     0.053 C 
HETATM    9  C10 UNL     1    -115.150 -17.260  86.758  1.00  0.00     0.054 C 
HETATM   10  C15 UNL     1    -115.313 -16.685  88.160  1.00  0.00     0.091 C 
HETATM   11  C16 UNL     1    -114.118 -15.850  88.452  1.00  0.00     0.141 C 
HETATM   12  O3  UNL     1    -114.312 -15.008  89.306  1.00  0.00    -0.297 OA
HETATM   13  C17 UNL     1    -112.767 -15.870  87.892  1.00  0.00     0.134 C 
ENDROOT
BRANCH   1  14
HETATM   14  N1  UNL     1    -111.227 -14.779  82.811  1.00  0.00    -0.320 N 
HETATM   15  C3  UNL     1    -109.912 -14.955  82.429  1.00  0.00     0.222 C 
HETATM   16  O1  UNL     1    -108.952 -15.502  82.980  1.00  0.00    -0.273 OA
ATOM     17  H1  UNL     1    -111.765 -14.275  82.107  1.00  0.00     0.169 HD
BRANCH  15  18
HETATM   18  C2  UNL     1    -109.544 -14.370  81.057  1.00  0.00     0.098 C 
HETATM   19  C1  UNL     1    -108.188 -14.831  80.661  1.00  0.00     0.014 C 
ENDBRANCH  15  18
ENDBRANCH   1  14
BRANCH  13  20
HETATM   20  C18 UNL     1    -111.916 -14.832  88.542  1.00  0.00     0.075 C 
HETATM   21  N3  UNL     1    -111.471 -15.099  89.704  1.00  0.00    -0.380 N 
ATOM     22  H3  UNL     1    -111.731 -16.003  90.098  1.00  0.00     0.160 HD
BRANCH  21  23
HETATM   23  C19 UNL     1    -110.653 -14.272  90.501  1.00  0.00     0.100 C 
HETATM   24  C20 UNL     1    -109.585 -15.026  91.257  1.00  0.00     0.056 C 
HETATM   25  C21 UNL     1    -111.520 -13.529  91.489  1.00  0.00     0.056 C 
HETATM   26 CL1  UNL     1    -109.897 -13.060  89.410  1.00  0.00    -0.097 Cl
ENDBRANCH  21  23
ENDBRANCH  13  20
BRANCH   9  27
HETATM   27  C11 UNL     1    -116.214 -18.231  86.445  1.00  0.00     0.057 A 
HETATM   28  C12 UNL     1    -117.274 -18.527  87.265  1.00  0.00     0.035 A 
HETATM   29  C13 UNL     1    -118.031 -19.488  86.586  1.00  0.00     0.027 A 
HETATM   30  C14 UNL     1    -117.360 -19.696  85.403  1.00  0.00     0.142 A 
HETATM   31  O2  UNL     1    -116.285 -18.934  85.350  1.00  0.00    -0.327 OA
ENDBRANCH   9  27
TORSDOF 5
ENDMDL
MODEL 3
REMARK VINA RESULT: -8.177673217      1.141      1.305
REMARK  5 active torsions:
REMARK  status: ('A' for Active; 'I' for Inactive)
REMARK    1  A    between atoms: C2_2  and  C3_3 
REMARK       I    between atoms: C3_3  and  N1_5 
REMARK    2  A    between atoms: N1_5  and  C4_7 
REMARK    3  A    between atoms: C10_15  and  C11_16 
REMARK    4  A    between atoms: C17_24  and  C18_25 
REMARK    5  A    between atoms: N3_26  and  C19_28 
ROOT
HETATM    1  C4  UNL     1    -112.279 -16.067  84.979  1.00  0.00     0.098 A 
HETATM    2  S1  UNL     1    -111.580 -16.513  86.546  1.00  0.00    -0.074 SA
HETATM    3  C5  UNL     1    -112.982 -16.836  87.410  1.00  0.00     0.009 A 
HETATM    4  C6  UNL     1    -113.964 -16.602  86.503  1.00  0.00    -0.019 A 
HETATM    5  C7  UNL     1    -113.600 -16.208  85.254  1.00  0.00     0.086 A 
HETATM    6  C8  UNL     1    -114.635 -15.939  84.225  1.00  0.00     0.103 C 
HETATM    7  N2  UNL     1    -115.481 -15.737  83.444  1.00  0.00    -0.191 NA
HETATM    8  C9  UNL     1    -115.428 -16.787  86.891  1.00  0.00     0.053 C 
HETATM    9  C10 UNL     1    -115.616 -18.052  87.680  1.00  0.00     0.054 C 
HETATM   10  C15 UNL     1    -115.615 -17.676  89.156  1.00  0.00     0.091 C 
HETATM   11  C16 UNL     1    -114.282 -17.105  89.480  1.00  0.00     0.141 C 
HETATM   12  O3  UNL     1    -114.287 -16.381  90.457  1.00  0.00    -0.297 OA
HETATM   13  C17 UNL     1    -112.980 -17.267  88.833  1.00  0.00     0.134 C 
ENDROOT
BRANCH   1  14
HETATM   14  N1  UNL     1    -111.492 -15.695  83.863  1.00  0.00    -0.320 N 
HETATM   15  C3  UNL     1    -111.567 -14.742  82.868  1.00  0.00     0.222 C 
HETATM   16  O1  UNL     1    -112.395 -13.859  82.622  1.00  0.00    -0.273 OA
ATOM     17  H1  UNL     1    -110.660 -16.277  83.772  1.00  0.00     0.169 HD
BRANCH  15  18
HETATM   18  C2  UNL     1    -110.412 -14.757  81.856  1.00  0.00     0.098 C 
HETATM   19  C1  UNL     1    -109.177 -15.264  82.509  1.00  0.00     0.014 C 
ENDBRANCH  15  18
ENDBRANCH   1  14
BRANCH  13  20
HETATM   20  C18 UNL     1    -111.933 -16.495  89.563  1.00  0.00     0.075 C 
HETATM   21  N3  UNL     1    -111.956 -15.229  89.430  1.00  0.00    -0.380 N 
ATOM     22  H3  UNL     1    -112.688 -14.843  88.834  1.00  0.00     0.160 HD
BRANCH  21  23
HETATM   23  C19 UNL     1    -111.070 -14.306  90.023  1.00  0.00     0.100 C 
HETATM   24  C20 UNL     1    -111.620 -13.656  91.270  1.00  0.00     0.056 C 
HETATM   25  C21 UNL     1    -110.733 -13.231  89.018  1.00  0.00     0.056 C 
HETATM   26 CL1  UNL     1    -109.555 -15.194  90.408  1.00  0.00    -0.097 Cl
ENDBRANCH  21  23
ENDBRANCH  13  20
BRANCH   9  27
HETATM   27  C11 UNL     1    -116.846 -18.773  87.306  1.00  0.00     0.057 A 
HETATM   28  C12 UNL     1    -117.026 -19.463  86.132  1.00  0.00     0.035 A 
HETATM   29  C13 UNL     1    -118.320 -19.990  86.188  1.00  0.00     0.027 A 
HETATM   30  C14 UNL     1    -118.821 -19.571  87.400  1.00  0.00     0.142 A 
HETATM   31  O2  UNL     1    -117.920 -18.851  88.040  1.00  0.00    -0.327 OA
ENDBRANCH   9  27
TORSDOF 5
ENDMDL
MODEL 4
REMARK VINA RESULT: -8.164920942      2.823      7.227
REMARK  5 active torsions:
REMARK  status: ('A' for Active; 'I' for Inactive)
REMARK    1  A    between atoms: C2_2  and  C3_3 
REMARK       I    between atoms: C3_3  and  N1_5 
REMARK    2  A    between atoms: N1_5  and  C4_7 
REMARK    3  A    between atoms: C10_15  and  C11_16 
REMARK    4  A    between atoms: C17_24  and  C18_25 
REMARK    5  A    between atoms: N3_26  and  C19_28 
ROOT
HETATM    1  C4  UNL     1    -113.457 -16.348  89.617  1.00  0.00     0.098 A 
HETATM    2  S1  UNL     1    -114.599 -17.431  88.801  1.00  0.00    -0.074 SA
HETATM    3  C5  UNL     1    -114.456 -16.871  87.225  1.00  0.00     0.009 A 
HETATM    4  C6  UNL     1    -113.547 -15.870  87.334  1.00  0.00    -0.019 A 
HETATM    5  C7  UNL     1    -113.034 -15.604  88.564  1.00  0.00     0.086 A 
HETATM    6  C8  UNL     1    -112.037 -14.519  88.738  1.00  0.00     0.103 C 
HETATM    7  N2  UNL     1    -111.254 -13.657  88.832  1.00  0.00    -0.191 NA
HETATM    8  C9  UNL     1    -113.121 -15.082  86.099  1.00  0.00     0.053 C 
HETATM    9  C10 UNL     1    -112.878 -16.000  84.936  1.00  0.00     0.054 C 
HETATM   10  C15 UNL     1    -114.143 -16.009  84.087  1.00  0.00     0.091 C 
HETATM   11  C16 UNL     1    -115.244 -16.568  84.915  1.00  0.00     0.141 C 
HETATM   12  O3  UNL     1    -116.351 -16.231  84.542  1.00  0.00    -0.297 OA
HETATM   13  C17 UNL     1    -115.220 -17.444  86.085  1.00  0.00     0.134 C 
ENDROOT
BRANCH   1  14
HETATM   14  N1  UNL     1    -113.199 -16.410  91.007  1.00  0.00    -0.320 N 
HETATM   15  C3  UNL     1    -113.549 -15.667  92.116  1.00  0.00     0.222 C 
HETATM   16  O1  UNL     1    -114.241 -14.652  92.254  1.00  0.00    -0.273 OA
ATOM     17  H1  UNL     1    -112.605 -17.202  91.250  1.00  0.00     0.169 HD
BRANCH  15  18
HETATM   18  C2  UNL     1    -112.985 -16.175  93.451  1.00  0.00     0.098 C 
HETATM   19  C1  UNL     1    -113.877 -15.762  94.565  1.00  0.00     0.014 C 
ENDBRANCH  15  18
ENDBRANCH   1  14
BRANCH  13  20
HETATM   20  C18 UNL     1    -116.608 -17.741  86.544  1.00  0.00     0.075 C 
HETATM   21  N3  UNL     1    -117.228 -16.805  87.144  1.00  0.00    -0.380 N 
ATOM     22  H3  UNL     1    -116.725 -15.926  87.264  1.00  0.00     0.160 HD
BRANCH  21  23
HETATM   23  C19 UNL     1    -118.539 -16.862  87.660  1.00  0.00     0.100 C 
HETATM   24  C20 UNL     1    -119.013 -18.265  87.954  1.00  0.00     0.056 C 
HETATM   25  C21 UNL     1    -119.485 -16.222  86.671  1.00  0.00     0.056 C 
HETATM   26 CL1  UNL     1    -118.563 -15.875  89.163  1.00  0.00    -0.097 Cl
ENDBRANCH  21  23
ENDBRANCH  13  20
BRANCH   9  27
HETATM   27  C11 UNL     1    -111.697 -15.610  84.144  1.00  0.00     0.057 A 
HETATM   28  C12 UNL     1    -111.742 -15.022  82.904  1.00  0.00     0.035 A 
HETATM   29  C13 UNL     1    -110.412 -14.824  82.522  1.00  0.00     0.027 A 
HETATM   30  C14 UNL     1    -109.666 -15.312  83.571  1.00  0.00     0.142 A 
HETATM   31  O2  UNL     1    -110.460 -15.771  84.519  1.00  0.00    -0.327 OA
ENDBRANCH   9  27
TORSDOF 5
ENDMDL
MODEL 5
REMARK VINA RESULT: -8.135148065      2.877      7.451
REMARK  5 active torsions:
REMARK  status: ('A' for Active; 'I' for Inactive)
REMARK    1  A    between atoms: C2_2  and  C3_3 
REMARK       I    between atoms: C3_3  and  N1_5 
REMARK    2  A    between atoms: N1_5  and  C4_7 
REMARK    3  A    between atoms: C10_15  and  C11_16 
REMARK    4  A    between atoms: C17_24  and  C18_25 
REMARK    5  A    between atoms: N3_26  and  C19_28 
ROOT
HETATM    1  C4  UNL     1    -111.522 -15.995  87.957  1.00  0.00     0.098 A 
HETATM    2  S1  UNL     1    -112.868 -16.864  87.200  1.00  0.00    -0.074 SA
HETATM    3  C5  UNL     1    -112.812 -16.203  85.658  1.00  0.00     0.009 A 
HETATM    4  C6  UNL     1    -111.775 -15.332  85.734  1.00  0.00    -0.019 A 
HETATM    5  C7  UNL     1    -111.113 -15.227  86.916  1.00  0.00     0.086 A 
HETATM    6  C8  UNL     1    -109.972 -14.287  87.052  1.00  0.00     0.103 C 
HETATM    7  N2  UNL     1    -109.079 -13.536  87.117  1.00  0.00    -0.191 NA
HETATM    8  C9  UNL     1    -111.376 -14.505  84.514  1.00  0.00     0.053 C 
HETATM    9  C10 UNL     1    -111.370 -15.352  83.274  1.00  0.00     0.054 C 
HETATM   10  C15 UNL     1    -112.704 -15.141  82.568  1.00  0.00     0.091 C 
HETATM   11  C16 UNL     1    -113.780 -15.626  83.472  1.00  0.00     0.141 C 
HETATM   12  O3  UNL     1    -114.865 -15.130  83.245  1.00  0.00    -0.297 OA
HETATM   13  C17 UNL     1    -113.753 -16.588  84.573  1.00  0.00     0.134 C 
ENDROOT
BRANCH   1  14
HETATM   14  N1  UNL     1    -111.137 -16.196  89.304  1.00  0.00    -0.320 N 
HETATM   15  C3  UNL     1    -111.130 -17.257  90.187  1.00  0.00     0.222 C 
HETATM   16  O1  UNL     1    -111.478 -18.437  90.073  1.00  0.00    -0.273 OA
ATOM     17  H1  UNL     1    -110.772 -15.343  89.728  1.00  0.00     0.169 HD
BRANCH  15  18
HETATM   18  C2  UNL     1    -110.589 -16.940  91.589  1.00  0.00     0.098 C 
HETATM   19  C1  UNL     1    -111.142 -17.906  92.573  1.00  0.00     0.014 C 
ENDBRANCH  15  18
ENDBRANCH   1  14
BRANCH  13  20
HETATM   20  C18 UNL     1    -115.115 -16.750  85.159  1.00  0.00     0.075 C 
HETATM   21  N3  UNL     1    -115.451 -17.925  85.515  1.00  0.00    -0.380 N 
ATOM     22  H3  UNL     1    -114.761 -18.663  85.372  1.00  0.00     0.160 HD
BRANCH  21  23
HETATM   23  C19 UNL     1    -116.680 -18.310  86.089  1.00  0.00     0.100 C 
HETATM   24  C20 UNL     1    -116.577 -18.677  87.550  1.00  0.00     0.056 C 
HETATM   25  C21 UNL     1    -117.231 -19.492  85.326  1.00  0.00     0.056 C 
HETATM   26 CL1  UNL     1    -117.820 -16.937  85.876  1.00  0.00    -0.097 Cl
ENDBRANCH  21  23
ENDBRANCH  13  20
BRANCH   9  27
HETATM   27  C11 UNL     1    -110.233 -15.047  82.386  1.00  0.00     0.057 A 
HETATM   28  C12 UNL     1    -108.930 -15.407  82.626  1.00  0.00     0.035 A 
HETATM   29  C13 UNL     1    -108.190 -14.924  81.542  1.00  0.00     0.027 A 
HETATM   30  C14 UNL     1    -109.114 -14.305  80.731  1.00  0.00     0.142 A 
HETATM   31  O2  UNL     1    -110.318 -14.396  81.260  1.00  0.00    -0.327 OA
ENDBRANCH   9  27
TORSDOF 5
ENDMDL
