MODEL 1
REMARK VINA RESULT: -9.338026568      0.000      0.000
REMARK  4 active torsions:
REMARK  status: ('A' for Active; 'I' for Inactive)
REMARK    1  A    between atoms: C7_9  and  C8_10 
REMARK    2  A    between atoms: C10_14  and  C11_15 
REMARK    3  A    between atoms: C11_15  and  N3_16 
REMARK    4  A    between atoms: C17_30  and  C18_31 
ROOT
HETATM    1  C1  UNL     1    -119.867 -19.194  88.189  1.00  0.00     0.069 C 
HETATM    2  C2  UNL     1    -118.670 -18.477  87.686  1.00  0.00     0.020 A 
HETATM    3  C3  UNL     1    -118.270 -17.319  88.332  1.00  0.00     0.113 A 
HETATM    4  N1  UNL     1    -117.205 -16.646  87.912  1.00  0.00    -0.362 N 
ATOM      5  H1  UNL     1    -116.938 -15.799  88.413  1.00  0.00     0.165 HD
HETATM    6  C4  UNL     1    -116.454 -17.033  86.849  1.00  0.00     0.058 A 
HETATM    7  C5  UNL     1    -115.244 -16.320  86.502  1.00  0.00    -0.004 A 
HETATM    8  C6  UNL     1    -114.606 -15.601  87.519  1.00  0.00     0.044 A 
HETATM    9  C7  UNL     1    -113.485 -14.845  87.309  1.00  0.00     0.052 A 
HETATM   10  N4  UNL     1    -112.984 -14.788  86.076  1.00  0.00    -0.358 N 
ATOM     11  H4  UNL     1    -112.151 -14.223  85.912  1.00  0.00     0.166 HD
HETATM   12  C17 UNL     1    -113.533 -15.445  85.036  1.00  0.00     0.019 A 
HETATM   13  C22 UNL     1    -114.671 -16.215  85.270  1.00  0.00     0.039 A 
HETATM   14  C23 UNL     1    -116.843 -18.193  86.185  1.00  0.00     0.118 A 
HETATM   15  N5  UNL     1    -117.935 -18.882  86.620  1.00  0.00    -0.366 N 
ATOM     16  H5  UNL     1    -118.210 -19.732  86.127  1.00  0.00     0.165 HD
ENDROOT
BRANCH   9  17
HETATM   17  C8  UNL     1    -112.867 -14.227  88.487  1.00  0.00     0.049 A 
HETATM   18  C9  UNL     1    -113.505 -13.345  89.377  1.00  0.00     0.110 A 
HETATM   19  N2  UNL     1    -112.809 -12.972  90.393  1.00  0.00    -0.360 N 
HETATM   20  C10 UNL     1    -111.581 -13.377  90.593  1.00  0.00     0.088 A 
ATOM     21  H2  UNL     1    -113.231 -12.335  91.069  1.00  0.00     0.165 HD
HETATM   22  S1  UNL     1    -111.339 -14.389  89.238  1.00  0.00    -0.071 SA
BRANCH  20  23
HETATM   23  C11 UNL     1    -110.707 -13.017  91.775  1.00  0.00     0.177 C 
HETATM   24  C12 UNL     1    -109.461 -12.420  91.218  1.00  0.00     0.046 C 
HETATM   25  C13 UNL     1    -108.425 -12.070  92.220  1.00  0.00     0.009 C 
HETATM   26  C14 UNL     1    -108.203 -13.142  93.250  1.00  0.00     0.079 C 
HETATM   27  C15 UNL     1    -109.472 -13.777  93.716  1.00  0.00     0.246 C 
HETATM   28  F1  UNL     1    -109.130 -14.954  94.388  1.00  0.00    -0.206 F 
HETATM   29  F2  UNL     1    -110.095 -12.959  94.621  1.00  0.00    -0.206 F 
HETATM   30  C16 UNL     1    -110.373 -14.221  92.585  1.00  0.00     0.124 C 
BRANCH  23  31
HETATM   31  N3  UNL     1    -111.469 -12.071  92.571  1.00  0.00    -0.064 N 
ATOM     32  H33 UNL     1    -111.042 -11.147  92.619  1.00  0.00     0.275 HD
ATOM     33  H32 UNL     1    -112.342 -11.782  92.131  1.00  0.00     0.275 HD
ATOM     34  H31 UNL     1    -111.599 -12.506  93.484  1.00  0.00     0.275 HD
ENDBRANCH  23  31
ENDBRANCH  20  23
ENDBRANCH   9  17
BRANCH  12  35
HETATM   35  C18 UNL     1    -112.987 -15.339  83.657  1.00  0.00    -0.001 A 
HETATM   36  C19 UNL     1    -111.485 -15.443  83.568  1.00  0.00     0.022 C 
HETATM   37  C20 UNL     1    -113.771 -15.847  82.493  1.00  0.00     0.016 A 
HETATM   38  C21 UNL     1    -113.612 -14.373  82.678  1.00  0.00     0.016 A 
ENDBRANCH  12  35
TORSDOF 4
ENDMDL
MODEL 2
REMARK VINA RESULT: -9.252318005      4.576      8.425
REMARK  4 active torsions:
REMARK  status: ('A' for Active; 'I' for Inactive)
REMARK    1  A    between atoms: C7_9  and  C8_10 
REMARK    2  A    between atoms: C10_14  and  C11_15 
REMARK    3  A    between atoms: C11_15  and  N3_16 
REMARK    4  A    between atoms: C17_30  and  C18_31 
ROOT
HETATM    1  C1  UNL     1    -111.064 -13.476  92.326  1.00  0.00     0.069 C 
HETATM    2  C2  UNL     1    -111.757 -13.982  91.118  1.00  0.00     0.020 A 
HETATM    3  C3  UNL     1    -111.495 -13.377  89.899  1.00  0.00     0.113 A 
HETATM    4  N1  UNL     1    -112.097 -13.799  88.793  1.00  0.00    -0.362 N 
ATOM      5  H1  UNL     1    -111.879 -13.332  87.913  1.00  0.00     0.165 HD
HETATM    6  C4  UNL     1    -112.988 -14.823  88.778  1.00  0.00     0.058 A 
HETATM    7  C5  UNL     1    -113.532 -15.309  87.529  1.00  0.00    -0.004 A 
HETATM    8  C6  UNL     1    -112.782 -15.085  86.368  1.00  0.00     0.044 A 
HETATM    9  C7  UNL     1    -113.209 -15.449  85.121  1.00  0.00     0.052 A 
HETATM   10  N4  UNL     1    -114.399 -16.038  85.008  1.00  0.00    -0.358 N 
ATOM     11  H4  UNL     1    -114.724 -16.308  84.080  1.00  0.00     0.166 HD
HETATM   12  C17 UNL     1    -115.189 -16.290  86.068  1.00  0.00     0.019 A 
HETATM   13  C22 UNL     1    -114.735 -15.919  87.332  1.00  0.00     0.039 A 
HETATM   14  C23 UNL     1    -113.266 -15.442  89.993  1.00  0.00     0.118 A 
HETATM   15  N5  UNL     1    -112.645 -15.007  91.126  1.00  0.00    -0.366 N 
ATOM     16  H5  UNL     1    -112.856 -15.469  92.011  1.00  0.00     0.165 HD
ENDROOT
BRANCH   9  17
HETATM   17  C8  UNL     1    -112.275 -15.242  84.009  1.00  0.00     0.049 A 
HETATM   18  C9  UNL     1    -112.630 -14.865  82.702  1.00  0.00     0.110 A 
HETATM   19  N2  UNL     1    -111.651 -14.662  81.891  1.00  0.00    -0.360 N 
HETATM   20  C10 UNL     1    -110.400 -14.801  82.248  1.00  0.00     0.088 A 
ATOM     21  H2  UNL     1    -111.859 -14.382  80.932  1.00  0.00     0.165 HD
HETATM   22  S1  UNL     1    -110.569 -15.262  83.884  1.00  0.00    -0.071 SA
BRANCH  20  23
HETATM   23  C11 UNL     1    -109.193 -14.549  81.371  1.00  0.00     0.177 C 
HETATM   24  C12 UNL     1    -108.612 -15.883  81.052  1.00  0.00     0.046 C 
HETATM   25  C13 UNL     1    -107.357 -15.854  80.260  1.00  0.00     0.009 C 
HETATM   26  C14 UNL     1    -106.365 -14.836  80.750  1.00  0.00     0.079 C 
HETATM   27  C15 UNL     1    -106.999 -13.543  81.145  1.00  0.00     0.246 C 
HETATM   28  F1  UNL     1    -106.058 -12.823  81.885  1.00  0.00    -0.206 F 
HETATM   29  F2  UNL     1    -107.287 -12.807  80.027  1.00  0.00    -0.206 F 
HETATM   30  C16 UNL     1    -108.181 -13.712  82.074  1.00  0.00     0.124 C 
BRANCH  23  31
HETATM   31  N3  UNL     1    -109.683 -13.860  80.191  1.00  0.00    -0.064 N 
ATOM     32  H33 UNL     1    -109.994 -14.491  79.453  1.00  0.00     0.275 HD
ATOM     33  H32 UNL     1    -110.576 -13.389  80.338  1.00  0.00     0.275 HD
ATOM     34  H31 UNL     1    -108.936 -13.229  79.897  1.00  0.00     0.275 HD
ENDBRANCH  23  31
ENDBRANCH  20  23
ENDBRANCH   9  17
BRANCH  12  35
HETATM   35  C18 UNL     1    -116.533 -16.911  85.922  1.00  0.00    -0.001 A 
HETATM   36  C19 UNL     1    -116.511 -18.386  85.608  1.00  0.00     0.022 C 
HETATM   37  C20 UNL     1    -117.689 -16.405  86.718  1.00  0.00     0.016 A 
HETATM   38  C21 UNL     1    -117.644 -16.139  85.250  1.00  0.00     0.016 A 
ENDBRANCH  12  35
TORSDOF 4
ENDMDL
MODEL 3
REMARK VINA RESULT: -9.043339030      4.007      8.626
REMARK  4 active torsions:
REMARK  status: ('A' for Active; 'I' for Inactive)
REMARK    1  A    between atoms: C7_9  and  C8_10 
REMARK    2  A    between atoms: C10_14  and  C11_15 
REMARK    3  A    between atoms: C11_15  and  N3_16 
REMARK    4  A    between atoms: C17_30  and  C18_31 
ROOT
HETATM    1  C1  UNL     1    -107.696 -12.667  91.212  1.00  0.00     0.069 C 
HETATM    2  C2  UNL     1    -108.130 -13.125  89.871  1.00  0.00     0.020 A 
HETATM    3  C3  UNL     1    -109.143 -14.066  89.786  1.00  0.00     0.113 A 
HETATM    4  N1  UNL     1    -109.560 -14.504  88.604  1.00  0.00    -0.362 N 
ATOM      5  H1  UNL     1    -110.309 -15.196  88.579  1.00  0.00     0.165 HD
HETATM    6  C4  UNL     1    -109.037 -14.075  87.427  1.00  0.00     0.058 A 
HETATM    7  C5  UNL     1    -109.601 -14.507  86.167  1.00  0.00    -0.004 A 
HETATM    8  C6  UNL     1    -110.938 -14.924  86.169  1.00  0.00     0.044 A 
HETATM    9  C7  UNL     1    -111.572 -15.404  85.056  1.00  0.00     0.052 A 
HETATM   10  N4  UNL     1    -110.881 -15.482  83.920  1.00  0.00    -0.358 N 
ATOM     11  H4  UNL     1    -111.347 -15.842  83.088  1.00  0.00     0.166 HD
HETATM   12  C17 UNL     1    -109.591 -15.106  83.825  1.00  0.00     0.019 A 
HETATM   13  C22 UNL     1    -108.963 -14.614  84.968  1.00  0.00     0.039 A 
HETATM   14  C23 UNL     1    -108.016 -13.131  87.492  1.00  0.00     0.118 A 
HETATM   15  N5  UNL     1    -107.592 -12.682  88.707  1.00  0.00    -0.366 N 
ATOM     16  H5  UNL     1    -106.845 -11.989  88.743  1.00  0.00     0.165 HD
ENDROOT
BRANCH   9  17
HETATM   17  C8  UNL     1    -113.001 -15.709  85.182  1.00  0.00     0.049 A 
HETATM   18  C9  UNL     1    -113.913 -15.809  84.116  1.00  0.00     0.110 A 
HETATM   19  N2  UNL     1    -115.110 -16.161  84.434  1.00  0.00    -0.360 N 
HETATM   20  C10 UNL     1    -115.469 -16.407  85.667  1.00  0.00     0.088 A 
ATOM     21  H2  UNL     1    -115.806 -16.251  83.693  1.00  0.00     0.165 HD
HETATM   22  S1  UNL     1    -114.005 -16.129  86.502  1.00  0.00    -0.071 SA
BRANCH  20  23
HETATM   23  C11 UNL     1    -116.840 -16.857  86.121  1.00  0.00     0.177 C 
HETATM   24  C12 UNL     1    -117.763 -15.709  85.895  1.00  0.00     0.046 C 
HETATM   25  C13 UNL     1    -119.158 -15.919  86.357  1.00  0.00     0.009 C 
HETATM   26  C14 UNL     1    -119.249 -16.541  87.722  1.00  0.00     0.079 C 
HETATM   27  C15 UNL     1    -118.246 -17.627  87.939  1.00  0.00     0.246 C 
HETATM   28  F1  UNL     1    -118.195 -17.883  89.312  1.00  0.00    -0.206 F 
HETATM   29  F2  UNL     1    -118.668 -18.776  87.326  1.00  0.00    -0.206 F 
HETATM   30  C16 UNL     1    -116.836 -17.228  87.564  1.00  0.00     0.124 C 
BRANCH  23  31
HETATM   31  N3  UNL     1    -117.180 -18.011  85.307  1.00  0.00    -0.064 N 
ATOM     32  H33 UNL     1    -116.687 -18.037  84.415  1.00  0.00     0.275 HD
ATOM     33  H32 UNL     1    -116.816 -18.889  85.677  1.00  0.00     0.275 HD
ATOM     34  H31 UNL     1    -118.195 -18.003  85.209  1.00  0.00     0.275 HD
ENDBRANCH  23  31
ENDBRANCH  20  23
ENDBRANCH   9  17
BRANCH  12  35
HETATM   35  C18 UNL     1    -108.821 -15.237  82.560  1.00  0.00    -0.001 A 
HETATM   36  C19 UNL     1    -107.365 -15.581  82.745  1.00  0.00     0.022 C 
HETATM   37  C20 UNL     1    -109.483 -15.743  81.322  1.00  0.00     0.016 A 
HETATM   38  C21 UNL     1    -109.107 -14.301  81.410  1.00  0.00     0.016 A 
ENDBRANCH  12  35
TORSDOF 4
ENDMDL
MODEL 4
REMARK VINA RESULT: -8.925347344      4.337      9.229
REMARK  4 active torsions:
REMARK  status: ('A' for Active; 'I' for Inactive)
REMARK    1  A    between atoms: C7_9  and  C8_10 
REMARK    2  A    between atoms: C10_14  and  C11_15 
REMARK    3  A    between atoms: C11_15  and  N3_16 
REMARK    4  A    between atoms: C17_30  and  C18_31 
ROOT
HETATM    1  C1  UNL     1    -107.068 -15.906  79.714  1.00  0.00     0.069 C 
HETATM    2  C2  UNL     1    -107.665 -15.651  81.046  1.00  0.00     0.020 A 
HETATM    3  C3  UNL     1    -109.014 -15.346  81.122  1.00  0.00     0.113 A 
HETATM    4  N1  UNL     1    -109.588 -15.108  82.296  1.00  0.00    -0.362 N 
ATOM      5  H1  UNL     1    -110.583 -14.889  82.314  1.00  0.00     0.165 HD
HETATM    6  C4  UNL     1    -108.912 -15.145  83.473  1.00  0.00     0.058 A 
HETATM    7  C5  UNL     1    -109.609 -14.983  84.730  1.00  0.00    -0.004 A 
HETATM    8  C6  UNL     1    -110.974 -15.297  84.755  1.00  0.00     0.044 A 
HETATM    9  C7  UNL     1    -111.756 -15.138  85.866  1.00  0.00     0.052 A 
HETATM   10  N4  UNL     1    -111.192 -14.655  86.971  1.00  0.00    -0.358 N 
ATOM     11  H4  UNL     1    -111.771 -14.530  87.801  1.00  0.00     0.166 HD
HETATM   12  C17 UNL     1    -109.889 -14.322  87.038  1.00  0.00     0.019 A 
HETATM   13  C22 UNL     1    -109.106 -14.497  85.899  1.00  0.00     0.039 A 
HETATM   14  C23 UNL     1    -107.555 -15.447  83.417  1.00  0.00     0.118 A 
HETATM   15  N5  UNL     1    -106.970 -15.692  82.210  1.00  0.00    -0.366 N 
ATOM     16  H5  UNL     1    -105.975 -15.914  82.181  1.00  0.00     0.165 HD
ENDROOT
BRANCH   9  17
HETATM   17  C8  UNL     1    -113.144 -15.603  85.775  1.00  0.00     0.049 A 
HETATM   18  C9  UNL     1    -113.750 -16.152  84.631  1.00  0.00     0.110 A 
HETATM   19  N2  UNL     1    -114.958 -16.570  84.781  1.00  0.00    -0.360 N 
HETATM   20  C10 UNL     1    -115.595 -16.488  85.920  1.00  0.00     0.088 A 
ATOM     21  H2  UNL     1    -115.437 -16.980  83.979  1.00  0.00     0.165 HD
HETATM   22  S1  UNL     1    -114.413 -15.757  86.913  1.00  0.00    -0.071 SA
BRANCH  20  23
HETATM   23  C11 UNL     1    -116.999 -16.985  86.191  1.00  0.00     0.177 C 
HETATM   24  C12 UNL     1    -117.901 -15.806  86.060  1.00  0.00     0.046 C 
HETATM   25  C13 UNL     1    -119.329 -16.065  86.371  1.00  0.00     0.009 C 
HETATM   26  C14 UNL     1    -119.531 -16.876  87.620  1.00  0.00     0.079 C 
HETATM   27  C15 UNL     1    -118.549 -17.992  87.758  1.00  0.00     0.246 C 
HETATM   28  F1  UNL     1    -118.610 -18.444  89.079  1.00  0.00    -0.206 F 
HETATM   29  F2  UNL     1    -118.918 -19.037  86.954  1.00  0.00    -0.206 F 
HETATM   30  C16 UNL     1    -117.113 -17.559  87.561  1.00  0.00     0.124 C 
BRANCH  23  31
HETATM   31  N3  UNL     1    -117.269 -18.005  85.194  1.00  0.00    -0.064 N 
ATOM     32  H33 UNL     1    -116.473 -18.202  84.589  1.00  0.00     0.275 HD
ATOM     33  H32 UNL     1    -117.362 -18.941  85.588  1.00  0.00     0.275 HD
ATOM     34  H31 UNL     1    -118.098 -17.695  84.685  1.00  0.00     0.275 HD
ENDBRANCH  23  31
ENDBRANCH  20  23
ENDBRANCH   9  17
BRANCH  12  35
HETATM   35  C18 UNL     1    -109.282 -13.746  88.267  1.00  0.00    -0.001 A 
HETATM   36  C19 UNL     1    -107.947 -13.079  88.055  1.00  0.00     0.022 C 
HETATM   37  C20 UNL     1    -110.150 -13.194  89.349  1.00  0.00     0.016 A 
HETATM   38  C21 UNL     1    -109.421 -14.476  89.583  1.00  0.00     0.016 A 
ENDBRANCH  12  35
TORSDOF 4
ENDMDL
MODEL 5
REMARK VINA RESULT: -8.924337770      1.523      4.953
REMARK  4 active torsions:
REMARK  status: ('A' for Active; 'I' for Inactive)
REMARK    1  A    between atoms: C7_9  and  C8_10 
REMARK    2  A    between atoms: C10_14  and  C11_15 
REMARK    3  A    between atoms: C11_15  and  N3_16 
REMARK    4  A    between atoms: C17_30  and  C18_31 
ROOT
HETATM    1  C1  UNL     1    -109.557 -14.477  80.807  1.00  0.00     0.069 C 
HETATM    2  C2  UNL     1    -110.552 -14.780  81.863  1.00  0.00     0.020 A 
HETATM    3  C3  UNL     1    -110.102 -15.027  83.149  1.00  0.00     0.113 A 
HETATM    4  N1  UNL     1    -110.961 -15.304  84.123  1.00  0.00    -0.362 N 
ATOM      5  H1  UNL     1    -110.594 -15.479  85.059  1.00  0.00     0.165 HD
HETATM    6  C4  UNL     1    -112.303 -15.365  83.934  1.00  0.00     0.058 A 
HETATM    7  C5  UNL     1    -113.199 -15.566  85.052  1.00  0.00    -0.004 A 
HETATM    8  C6  UNL     1    -112.739 -15.192  86.320  1.00  0.00     0.044 A 
HETATM    9  C7  UNL     1    -113.467 -15.378  87.463  1.00  0.00     0.052 A 
HETATM   10  N4  UNL     1    -114.667 -15.948  87.362  1.00  0.00    -0.358 N 
ATOM     11  H4  UNL     1    -115.213 -16.092  88.210  1.00  0.00     0.166 HD
HETATM   12  C17 UNL     1    -115.188 -16.342  86.184  1.00  0.00     0.019 A 
HETATM   13  C22 UNL     1    -114.435 -16.139  85.030  1.00  0.00     0.039 A 
HETATM   14  C23 UNL     1    -112.775 -15.122  82.647  1.00  0.00     0.118 A 
HETATM   15  N5  UNL     1    -111.891 -14.836  81.650  1.00  0.00    -0.366 N 
ATOM     16  H5  UNL     1    -112.247 -14.658  80.711  1.00  0.00     0.165 HD
ENDROOT
BRANCH   9  17
HETATM   17  C8  UNL     1    -112.902 -14.846  88.708  1.00  0.00     0.049 A 
HETATM   18  C9  UNL     1    -113.284 -15.226  90.007  1.00  0.00     0.110 A 
HETATM   19  N2  UNL     1    -112.612 -14.694  90.967  1.00  0.00    -0.360 N 
HETATM   20  C10 UNL     1    -111.636 -13.847  90.760  1.00  0.00     0.088 A 
ATOM     21  H2  UNL     1    -112.849 -14.943  91.928  1.00  0.00     0.165 HD
HETATM   22  S1  UNL     1    -111.627 -13.760  89.055  1.00  0.00    -0.071 SA
BRANCH  20  23
HETATM   23  C11 UNL     1    -110.775 -13.205  91.826  1.00  0.00     0.177 C 
HETATM   24  C12 UNL     1    -109.633 -12.560  91.120  1.00  0.00     0.046 C 
HETATM   25  C13 UNL     1    -108.615 -11.937  92.002  1.00  0.00     0.009 C 
HETATM   26  C14 UNL     1    -108.227 -12.800  93.170  1.00  0.00     0.079 C 
HETATM   27  C15 UNL     1    -109.391 -13.499  93.793  1.00  0.00     0.246 C 
HETATM   28  F1  UNL     1    -108.882 -14.507  94.617  1.00  0.00    -0.206 F 
HETATM   29  F2  UNL     1    -110.081 -12.629  94.594  1.00  0.00    -0.206 F 
HETATM   30  C16 UNL     1    -110.267 -14.219  92.792  1.00  0.00     0.124 C 
BRANCH  23  31
HETATM   31  N3  UNL     1    -111.622 -12.242  92.508  1.00  0.00    -0.064 N 
ATOM     32  H33 UNL     1    -112.080 -11.587  91.876  1.00  0.00     0.275 HD
ATOM     33  H32 UNL     1    -112.470 -12.653  92.898  1.00  0.00     0.275 HD
ATOM     34  H31 UNL     1    -111.033 -11.788  93.206  1.00  0.00     0.275 HD
ENDBRANCH  23  31
ENDBRANCH  20  23
ENDBRANCH   9  17
BRANCH  12  35
HETATM   35  C18 UNL     1    -116.511 -17.015  86.091  1.00  0.00    -0.001 A 
HETATM   36  C19 UNL     1    -117.644 -16.114  85.670  1.00  0.00     0.022 C 
HETATM   37  C20 UNL     1    -116.602 -18.450  85.691  1.00  0.00     0.016 A 
HETATM   38  C21 UNL     1    -116.886 -18.069  87.106  1.00  0.00     0.016 A 
ENDBRANCH  12  35
TORSDOF 4
ENDMDL
