MODEL 1
REMARK VINA RESULT: -8.800925424      0.000      0.000
REMARK  6 active torsions:
REMARK  status: ('A' for Active; 'I' for Inactive)
REMARK    1  A    between atoms: C2_3  and  C4_6 
REMARK    2  A    between atoms: C4_6  and  C5_7 
REMARK    3  A    between atoms: C4_6  and  C18_27 
REMARK    4  A    between atoms: N3_9  and  C7_10 
REMARK    5  A    between atoms: C7_10  and  O1_11 
REMARK    6  A    between atoms: C7_10  and  C8_13 
ROOT
HETATM    1  N1  UNL     1    -116.515 -19.991  85.687  1.00  0.00    -0.196 NA
HETATM    2  C1  UNL     1    -116.555 -19.108  86.467  1.00  0.00     0.083 C 
HETATM    3  C2  UNL     1    -116.623 -18.055  87.445  1.00  0.00     0.229 C 
HETATM    4  C3  UNL     1    -115.758 -18.305  88.605  1.00  0.00     0.083 C 
HETATM    5  N2  UNL     1    -115.045 -18.488  89.516  1.00  0.00    -0.196 NA
ENDROOT
BRANCH   3   6
HETATM    6  C4  UNL     1    -116.444 -16.695  86.862  1.00  0.00    -0.032 C 
BRANCH   6   7
HETATM    7  C5  UNL     1    -115.016 -16.260  86.856  1.00  0.00    -0.003 A 
HETATM    8  C6  UNL     1    -114.027 -16.727  86.018  1.00  0.00     0.112 A 
HETATM    9  N3  UNL     1    -112.881 -16.027  86.095  1.00  0.00    -0.300 N 
HETATM   10  C12 UNL     1    -113.106 -15.055  87.020  1.00  0.00     0.055 A 
HETATM   11  C13 UNL     1    -112.296 -14.063  87.562  1.00  0.00     0.075 A 
HETATM   12  C17 UNL     1    -114.400 -15.182  87.496  1.00  0.00     0.005 A 
HETATM   13  C14 UNL     1    -112.808 -13.246  88.559  1.00  0.00     0.142 A 
HETATM   14  F1  UNL     1    -111.966 -12.288  89.039  1.00  0.00    -0.204 F 
HETATM   15  C15 UNL     1    -114.077 -13.383  89.028  1.00  0.00     0.085 A 
HETATM   16  N4  UNL     1    -114.558 -12.555  90.067  1.00  0.00    -0.099 NA
HETATM   17  C16 UNL     1    -114.883 -14.362  88.488  1.00  0.00     0.044 A 
BRANCH   9  18
HETATM   18  C7  UNL     1    -111.704 -16.228  85.348  1.00  0.00     0.164 C 
BRANCH  18  19
HETATM   19  O1  UNL     1    -110.787 -17.033  85.809  1.00  0.00    -0.345 OA
ATOM     20  H1  UNL     1    -111.045 -17.880  86.153  1.00  0.00     0.219 HD
ENDBRANCH  18  19
BRANCH  18  21
HETATM   21  C8  UNL     1    -111.354 -15.627  84.076  1.00  0.00     0.058 A 
HETATM   22  C9  UNL     1    -112.205 -15.179  83.085  1.00  0.00     0.025 A 
HETATM   23  C10 UNL     1    -111.659 -14.657  81.975  1.00  0.00     0.033 A 
HETATM   24  C11 UNL     1    -110.288 -14.610  81.914  1.00  0.00     0.075 A 
HETATM   25 CL1  UNL     1    -109.329 -13.958  80.564  1.00  0.00    -0.076 Cl
HETATM   26  S1  UNL     1    -109.805 -15.291  83.396  1.00  0.00    -0.074 SA
ENDBRANCH  18  21
ENDBRANCH   9  18
ENDBRANCH   6   7
BRANCH   6  27
HETATM   27  C18 UNL     1    -117.484 -15.681  87.019  1.00  0.00     0.018 C 
HETATM   28  C19 UNL     1    -118.629 -15.948  86.032  1.00  0.00     0.009 C 
HETATM   29  C20 UNL     1    -119.850 -16.261  86.895  1.00  0.00     0.001 C 
HETATM   30  C21 UNL     1    -119.608 -15.349  88.084  1.00  0.00     0.001 C 
HETATM   31  C22 UNL     1    -118.150 -15.748  88.381  1.00  0.00     0.009 C 
ENDBRANCH   6  27
ENDBRANCH   3   6
TORSDOF 6
ENDMDL
MODEL 2
REMARK VINA RESULT: -8.650260421      4.413      7.156
REMARK  6 active torsions:
REMARK  status: ('A' for Active; 'I' for Inactive)
REMARK    1  A    between atoms: C2_3  and  C4_6 
REMARK    2  A    between atoms: C4_6  and  C5_7 
REMARK    3  A    between atoms: C4_6  and  C18_27 
REMARK    4  A    between atoms: N3_9  and  C7_10 
REMARK    5  A    between atoms: C7_10  and  O1_11 
REMARK    6  A    between atoms: C7_10  and  C8_13 
ROOT
HETATM    1  N1  UNL     1    -110.310 -13.374  87.600  1.00  0.00    -0.196 NA
HETATM    2  C1  UNL     1    -111.186 -14.056  87.995  1.00  0.00     0.083 C 
HETATM    3  C2  UNL     1    -112.258 -14.865  88.511  1.00  0.00     0.229 C 
HETATM    4  C3  UNL     1    -113.559 -14.187  88.444  1.00  0.00     0.083 C 
HETATM    5  N2  UNL     1    -114.601 -13.660  88.363  1.00  0.00    -0.196 NA
ENDROOT
BRANCH   3   6
HETATM    6  C4  UNL     1    -112.285 -16.243  87.941  1.00  0.00    -0.032 C 
BRANCH   6   7
HETATM    7  C5  UNL     1    -113.200 -16.358  86.769  1.00  0.00    -0.003 A 
HETATM    8  C6  UNL     1    -114.525 -16.735  86.804  1.00  0.00     0.112 A 
HETATM    9  N3  UNL     1    -115.165 -16.567  85.633  1.00  0.00    -0.300 N 
HETATM   10  C12 UNL     1    -114.237 -16.058  84.778  1.00  0.00     0.055 A 
HETATM   11  C13 UNL     1    -114.282 -15.723  83.429  1.00  0.00     0.075 A 
HETATM   12  C17 UNL     1    -113.035 -15.925  85.450  1.00  0.00     0.005 A 
HETATM   13  C14 UNL     1    -113.125 -15.279  82.807  1.00  0.00     0.142 A 
HETATM   14  F1  UNL     1    -113.240 -14.957  81.487  1.00  0.00    -0.204 F 
HETATM   15  C15 UNL     1    -111.944 -15.160  83.472  1.00  0.00     0.085 A 
HETATM   16  N4  UNL     1    -110.776 -14.733  82.801  1.00  0.00    -0.099 NA
HETATM   17  C16 UNL     1    -111.900 -15.485  84.811  1.00  0.00     0.044 A 
BRANCH   9  18
HETATM   18  C7  UNL     1    -116.522 -16.823  85.356  1.00  0.00     0.164 C 
BRANCH  18  19
HETATM   19  O1  UNL     1    -117.095 -16.206  84.361  1.00  0.00    -0.345 OA
ATOM     20  H1  UNL     1    -117.792 -16.642  83.884  1.00  0.00     0.219 HD
ENDBRANCH  18  19
BRANCH  18  21
HETATM   21  C8  UNL     1    -117.413 -17.720  86.067  1.00  0.00     0.058 A 
HETATM   22  C9  UNL     1    -117.476 -19.096  85.985  1.00  0.00     0.025 A 
HETATM   23  C10 UNL     1    -118.391 -19.731  86.735  1.00  0.00     0.033 A 
HETATM   24  C11 UNL     1    -119.198 -18.953  87.529  1.00  0.00     0.075 A 
HETATM   25 CL1  UNL     1    -120.472 -19.550  88.618  1.00  0.00    -0.076 Cl
HETATM   26  S1  UNL     1    -118.659 -17.372  87.207  1.00  0.00    -0.074 SA
ENDBRANCH  18  21
ENDBRANCH   9  18
ENDBRANCH   6   7
BRANCH   6  27
HETATM   27  C18 UNL     1    -112.112 -17.404  88.810  1.00  0.00     0.018 C 
HETATM   28  C19 UNL     1    -110.720 -17.369  89.460  1.00  0.00     0.009 C 
HETATM   29  C20 UNL     1    -110.971 -17.222  90.959  1.00  0.00     0.001 C 
HETATM   30  C21 UNL     1    -112.245 -18.030  91.123  1.00  0.00     0.001 C 
HETATM   31  C22 UNL     1    -113.067 -17.388  89.989  1.00  0.00     0.009 C 
ENDBRANCH   6  27
ENDBRANCH   3   6
TORSDOF 6
ENDMDL
MODEL 3
REMARK VINA RESULT: -8.591160043      4.346      6.836
REMARK  6 active torsions:
REMARK  status: ('A' for Active; 'I' for Inactive)
REMARK    1  A    between atoms: C2_3  and  C4_6 
REMARK    2  A    between atoms: C4_6  and  C5_7 
REMARK    3  A    between atoms: C4_6  and  C18_27 
REMARK    4  A    between atoms: N3_9  and  C7_10 
REMARK    5  A    between atoms: C7_10  and  O1_11 
REMARK    6  A    between atoms: C7_10  and  C8_13 
ROOT
HETATM    1  N1  UNL     1    -109.005 -15.538  88.254  1.00  0.00    -0.196 NA
HETATM    2  C1  UNL     1    -110.063 -16.058  88.237  1.00  0.00     0.083 C 
HETATM    3  C2  UNL     1    -111.337 -16.726  88.202  1.00  0.00     0.229 C 
HETATM    4  C3  UNL     1    -111.481 -17.720  89.273  1.00  0.00     0.083 C 
HETATM    5  N2  UNL     1    -111.609 -18.492  90.145  1.00  0.00    -0.196 NA
ENDROOT
BRANCH   3   6
HETATM    6  C4  UNL     1    -112.493 -15.790  88.111  1.00  0.00    -0.032 C 
BRANCH   6   7
HETATM    7  C5  UNL     1    -113.334 -16.038  86.904  1.00  0.00    -0.003 A 
HETATM    8  C6  UNL     1    -114.642 -16.472  86.899  1.00  0.00     0.112 A 
HETATM    9  N3  UNL     1    -115.221 -16.424  85.686  1.00  0.00    -0.300 N 
HETATM   10  C12 UNL     1    -114.268 -15.941  84.843  1.00  0.00     0.055 A 
HETATM   11  C13 UNL     1    -114.250 -15.714  83.472  1.00  0.00     0.075 A 
HETATM   12  C17 UNL     1    -113.112 -15.702  85.566  1.00  0.00     0.005 A 
HETATM   13  C14 UNL     1    -113.078 -15.266  82.879  1.00  0.00     0.142 A 
HETATM   14  F1  UNL     1    -113.132 -15.054  81.533  1.00  0.00    -0.204 F 
HETATM   15  C15 UNL     1    -111.944 -15.042  83.595  1.00  0.00     0.085 A 
HETATM   16  N4  UNL     1    -110.758 -14.616  82.955  1.00  0.00    -0.099 NA
HETATM   17  C16 UNL     1    -111.962 -15.261  84.955  1.00  0.00     0.044 A 
BRANCH   9  18
HETATM   18  C7  UNL     1    -116.548 -16.763  85.358  1.00  0.00     0.164 C 
BRANCH  18  19
HETATM   19  O1  UNL     1    -117.104 -16.219  84.311  1.00  0.00    -0.345 OA
ATOM     20  H1  UNL     1    -118.024 -15.987  84.343  1.00  0.00     0.219 HD
ENDBRANCH  18  19
BRANCH  18  21
HETATM   21  C8  UNL     1    -117.426 -17.675  86.065  1.00  0.00     0.058 A 
HETATM   22  C9  UNL     1    -117.471 -19.052  85.977  1.00  0.00     0.025 A 
HETATM   23  C10 UNL     1    -118.376 -19.702  86.725  1.00  0.00     0.033 A 
HETATM   24  C11 UNL     1    -119.191 -18.939  87.525  1.00  0.00     0.075 A 
HETATM   25 CL1  UNL     1    -120.456 -19.559  88.613  1.00  0.00    -0.076 Cl
HETATM   26  S1  UNL     1    -118.674 -17.349  87.210  1.00  0.00    -0.074 SA
ENDBRANCH  18  21
ENDBRANCH   9  18
ENDBRANCH   6   7
BRANCH   6  27
HETATM   27  C18 UNL     1    -112.378 -14.424  88.616  1.00  0.00     0.018 C 
HETATM   28  C19 UNL     1    -113.664 -13.642  88.307  1.00  0.00     0.009 C 
HETATM   29  C20 UNL     1    -114.270 -13.297  89.666  1.00  0.00     0.001 C 
HETATM   30  C21 UNL     1    -113.019 -13.079  90.497  1.00  0.00     0.001 C 
HETATM   31  C22 UNL     1    -112.275 -14.377  90.129  1.00  0.00     0.009 C 
ENDBRANCH   6  27
ENDBRANCH   3   6
TORSDOF 6
ENDMDL
MODEL 4
REMARK VINA RESULT: -8.467909326      4.289      7.078
REMARK  6 active torsions:
REMARK  status: ('A' for Active; 'I' for Inactive)
REMARK    1  A    between atoms: C2_3  and  C4_6 
REMARK    2  A    between atoms: C4_6  and  C5_7 
REMARK    3  A    between atoms: C4_6  and  C18_27 
REMARK    4  A    between atoms: N3_9  and  C7_10 
REMARK    5  A    between atoms: C7_10  and  O1_11 
REMARK    6  A    between atoms: C7_10  and  C8_13 
ROOT
HETATM    1  N1  UNL     1    -114.571 -12.531  89.747  1.00  0.00    -0.196 NA
HETATM    2  C1  UNL     1    -113.683 -13.043  89.164  1.00  0.00     0.083 C 
HETATM    3  C2  UNL     1    -112.593 -13.633  88.434  1.00  0.00     0.229 C 
HETATM    4  C3  UNL     1    -111.283 -13.161  88.899  1.00  0.00     0.083 C 
HETATM    5  N2  UNL     1    -110.236 -12.809  89.288  1.00  0.00    -0.196 NA
ENDROOT
BRANCH   3   6
HETATM    6  C4  UNL     1    -112.682 -15.118  88.338  1.00  0.00    -0.032 C 
BRANCH   6   7
HETATM    7  C5  UNL     1    -113.377 -15.569  87.097  1.00  0.00    -0.003 A 
HETATM    8  C6  UNL     1    -114.668 -16.042  87.014  1.00  0.00     0.112 A 
HETATM    9  N3  UNL     1    -115.107 -16.194  85.751  1.00  0.00    -0.300 N 
HETATM   10  C12 UNL     1    -114.072 -15.810  84.955  1.00  0.00     0.055 A 
HETATM   11  C13 UNL     1    -113.903 -15.788  83.575  1.00  0.00     0.075 A 
HETATM   12  C17 UNL     1    -113.010 -15.428  85.756  1.00  0.00     0.005 A 
HETATM   13  C14 UNL     1    -112.678 -15.395  83.054  1.00  0.00     0.142 A 
HETATM   14  F1  UNL     1    -112.583 -15.386  81.694  1.00  0.00    -0.204 F 
HETATM   15  C15 UNL     1    -111.636 -15.030  83.848  1.00  0.00     0.085 A 
HETATM   16  N4  UNL     1    -110.392 -14.665  83.285  1.00  0.00    -0.099 NA
HETATM   17  C16 UNL     1    -111.805 -15.045  85.215  1.00  0.00     0.044 A 
BRANCH   9  18
HETATM   18  C7  UNL     1    -116.383 -16.621  85.335  1.00  0.00     0.164 C 
BRANCH  18  19
HETATM   19  O1  UNL     1    -116.881 -16.149  84.226  1.00  0.00    -0.345 OA
ATOM     20  H1  UNL     1    -117.769 -15.813  84.223  1.00  0.00     0.219 HD
ENDBRANCH  18  19
BRANCH  18  21
HETATM   21  C8  UNL     1    -117.263 -17.555  86.009  1.00  0.00     0.058 A 
HETATM   22  C9  UNL     1    -117.322 -18.926  85.859  1.00  0.00     0.025 A 
HETATM   23  C10 UNL     1    -118.227 -19.601  86.585  1.00  0.00     0.033 A 
HETATM   24  C11 UNL     1    -119.028 -18.867  87.425  1.00  0.00     0.075 A 
HETATM   25 CL1  UNL     1    -120.290 -19.523  88.495  1.00  0.00    -0.076 Cl
HETATM   26  S1  UNL     1    -118.498 -17.270  87.177  1.00  0.00    -0.074 SA
ENDBRANCH  18  21
ENDBRANCH   9  18
ENDBRANCH   6   7
BRANCH   6  27
HETATM   27  C18 UNL     1    -112.809 -15.930  89.546  1.00  0.00     0.018 C 
HETATM   28  C19 UNL     1    -112.899 -17.417  89.170  1.00  0.00     0.009 C 
HETATM   29  C20 UNL     1    -111.652 -18.066  89.766  1.00  0.00     0.001 C 
HETATM   30  C21 UNL     1    -111.482 -17.258  91.040  1.00  0.00     0.001 C 
HETATM   31  C22 UNL     1    -111.576 -15.848  90.427  1.00  0.00     0.009 C 
ENDBRANCH   6  27
ENDBRANCH   3   6
TORSDOF 6
ENDMDL
MODEL 5
REMARK VINA RESULT: -8.325456293      1.610      2.763
REMARK  6 active torsions:
REMARK  status: ('A' for Active; 'I' for Inactive)
REMARK    1  A    between atoms: C2_3  and  C4_6 
REMARK    2  A    between atoms: C4_6  and  C5_7 
REMARK    3  A    between atoms: C4_6  and  C18_27 
REMARK    4  A    between atoms: N3_9  and  C7_10 
REMARK    5  A    between atoms: C7_10  and  O1_11 
REMARK    6  A    between atoms: C7_10  and  C8_13 
ROOT
HETATM    1  N1  UNL     1    -118.673 -14.608  86.818  1.00  0.00    -0.196 NA
HETATM    2  C1  UNL     1    -118.040 -15.432  86.261  1.00  0.00     0.083 C 
HETATM    3  C2  UNL     1    -117.295 -16.437  85.550  1.00  0.00     0.229 C 
HETATM    4  C3  UNL     1    -116.591 -15.896  84.381  1.00  0.00     0.083 C 
HETATM    5  N2  UNL     1    -116.004 -15.460  83.466  1.00  0.00    -0.196 NA
ENDROOT
BRANCH   3   6
HETATM    6  C4  UNL     1    -116.420 -17.259  86.434  1.00  0.00    -0.032 C 
BRANCH   6   7
HETATM    7  C5  UNL     1    -115.065 -16.659  86.611  1.00  0.00    -0.003 A 
HETATM    8  C6  UNL     1    -113.953 -16.919  85.839  1.00  0.00     0.112 A 
HETATM    9  N3  UNL     1    -112.917 -16.100  86.094  1.00  0.00    -0.300 N 
HETATM   10  C12 UNL     1    -113.346 -15.259  87.073  1.00  0.00     0.055 A 
HETATM   11  C13 UNL     1    -112.721 -14.237  87.779  1.00  0.00     0.075 A 
HETATM   12  C17 UNL     1    -114.650 -15.585  87.402  1.00  0.00     0.005 A 
HETATM   13  C14 UNL     1    -113.420 -13.590  88.788  1.00  0.00     0.142 A 
HETATM   14  F1  UNL     1    -112.753 -12.591  89.432  1.00  0.00    -0.204 F 
HETATM   15  C15 UNL     1    -114.698 -13.923  89.112  1.00  0.00     0.085 A 
HETATM   16  N4  UNL     1    -115.371 -13.265  90.166  1.00  0.00    -0.099 NA
HETATM   17  C16 UNL     1    -115.321 -14.931  88.409  1.00  0.00     0.044 A 
BRANCH   9  18
HETATM   18  C7  UNL     1    -111.662 -16.085  85.454  1.00  0.00     0.164 C 
BRANCH  18  19
HETATM   19  O1  UNL     1    -110.633 -16.607  86.060  1.00  0.00    -0.345 OA
ATOM     20  H1  UNL     1    -110.516 -17.550  86.047  1.00  0.00     0.219 HD
ENDBRANCH  18  19
BRANCH  18  21
HETATM   21  C8  UNL     1    -111.343 -15.533  84.152  1.00  0.00     0.058 A 
HETATM   22  C9  UNL     1    -112.217 -15.099  83.175  1.00  0.00     0.025 A 
HETATM   23  C10 UNL     1    -111.699 -14.626  82.031  1.00  0.00     0.033 A 
HETATM   24  C11 UNL     1    -110.330 -14.613  81.922  1.00  0.00     0.075 A 
HETATM   25 CL1  UNL     1    -109.405 -14.027  80.519  1.00  0.00    -0.076 Cl
HETATM   26  S1  UNL     1    -109.812 -15.256  83.409  1.00  0.00    -0.074 SA
ENDBRANCH  18  21
ENDBRANCH   9  18
ENDBRANCH   6   7
BRANCH   6  27
HETATM   27  C18 UNL     1    -116.550 -18.714  86.456  1.00  0.00     0.018 C 
HETATM   28  C19 UNL     1    -117.449 -19.141  87.626  1.00  0.00     0.009 C 
HETATM   29  C20 UNL     1    -118.674 -19.789  86.986  1.00  0.00     0.001 C 
HETATM   30  C21 UNL     1    -118.052 -20.455  85.772  1.00  0.00     0.001 C 
HETATM   31  C22 UNL     1    -117.267 -19.246  85.229  1.00  0.00     0.009 C 
ENDBRANCH   6  27
ENDBRANCH   3   6
TORSDOF 6
ENDMDL
