MODEL 1
REMARK VINA RESULT: -7.866357782      0.000      0.000
REMARK  7 active torsions:
REMARK  status: ('A' for Active; 'I' for Inactive)
REMARK    1  A    between atoms: C2_2  and  O1_3 
REMARK    2  A    between atoms: O1_3  and  C3_4 
REMARK    3  A    between atoms: C3_4  and  C4_6 
REMARK    4  A    between atoms: C5_7  and  N1_8 
REMARK    5  A    between atoms: N1_8  and  C6_10 
REMARK    6  A    between atoms: C7_13  and  C8_14 
REMARK    7  A    between atoms: C16_26  and  C17_27 
ROOT
HETATM    1  C4  UNL     1    -113.870 -16.149  86.375  1.00  0.00     0.087 A 
HETATM    2  C5  UNL     1    -114.478 -16.200  85.165  1.00  0.00     0.079 A 
HETATM    3  C11 UNL     1    -113.738 -15.621  84.086  1.00  0.00     0.067 A 
HETATM    4  C12 UNL     1    -114.172 -15.561  82.788  1.00  0.00     0.034 A 
HETATM    5  C13 UNL     1    -113.194 -14.932  82.069  1.00  0.00     0.020 A 
HETATM    6  C14 UNL     1    -112.171 -14.636  82.982  1.00  0.00     0.098 A 
HETATM    7  N3  UNL     1    -112.519 -15.063  84.220  1.00  0.00    -0.318 N 
HETATM    8  C15 UNL     1    -111.894 -15.016  85.446  1.00  0.00     0.064 A 
HETATM    9  C16 UNL     1    -110.633 -14.590  85.742  1.00  0.00    -0.019 A 
HETATM   10  C20 UNL     1    -110.236 -14.743  87.083  1.00  0.00     0.060 A 
HETATM   11  S2  UNL     1    -111.579 -15.464  87.825  1.00  0.00    -0.098 SA
HETATM   12  C21 UNL     1    -112.598 -15.560  86.478  1.00  0.00     0.051 A 
ENDROOT
BRANCH   2  13
HETATM   13  N1  UNL     1    -115.655 -16.876  84.906  1.00  0.00    -0.334 N 
ATOM     14  H1  UNL     1    -115.644 -17.433  84.052  1.00  0.00     0.168 HD
BRANCH  13  15
HETATM   15  C6  UNL     1    -116.742 -16.920  85.546  1.00  0.00     0.149 A 
HETATM   16  N2  UNL     1    -117.361 -17.864  86.281  1.00  0.00    -0.335 N 
HETATM   17  C7  UNL     1    -118.457 -17.545  86.889  1.00  0.00     0.089 A 
ATOM     18  H2  UNL     1    -116.976 -18.805  86.355  1.00  0.00     0.168 HD
HETATM   19  C10 UNL     1    -118.955 -16.288  86.792  1.00  0.00     0.084 A 
HETATM   20  S1  UNL     1    -117.804 -15.556  85.780  1.00  0.00    -0.064 SA
BRANCH  17  21
HETATM   21  C8  UNL     1    -119.263 -18.614  87.664  1.00  0.00     0.282 C 
HETATM   22  C9  UNL     1    -118.798 -19.966  87.259  1.00  0.00     0.097 C 
HETATM   23  F1  UNL     1    -118.925 -18.444  89.028  1.00  0.00    -0.200 F 
HETATM   24  F2  UNL     1    -120.610 -18.397  87.530  1.00  0.00    -0.200 F 
ENDBRANCH  17  21
ENDBRANCH  13  15
ENDBRANCH   2  13
BRANCH   1  25
HETATM   25  C3  UNL     1    -114.370 -16.702  87.632  1.00  0.00     0.297 C 
HETATM   26  O2  UNL     1    -114.570 -17.902  87.785  1.00  0.00    -0.259 OA
BRANCH  25  27
HETATM   27  O1  UNL     1    -114.640 -15.786  88.668  1.00  0.00    -0.318 OA
BRANCH  27  28
HETATM   28  C2  UNL     1    -115.889 -15.184  88.837  1.00  0.00     0.174 C 
HETATM   29  C1  UNL     1    -116.789 -15.884  89.819  1.00  0.00     0.034 C 
ENDBRANCH  27  28
ENDBRANCH  25  27
ENDBRANCH   1  25
BRANCH   9  30
HETATM   30  C17 UNL     1    -109.591 -13.887  84.899  1.00  0.00     0.013 C 
HETATM   31  C18 UNL     1    -108.786 -15.014  84.189  1.00  0.00     0.015 C 
HETATM   32  C19 UNL     1    -108.459 -13.338  85.861  1.00  0.00     0.015 C 
ENDBRANCH   9  30
TORSDOF 7
ENDMDL
MODEL 2
REMARK VINA RESULT: -7.859277921      1.014      1.085
REMARK  7 active torsions:
REMARK  status: ('A' for Active; 'I' for Inactive)
REMARK    1  A    between atoms: C2_2  and  O1_3 
REMARK    2  A    between atoms: O1_3  and  C3_4 
REMARK    3  A    between atoms: C3_4  and  C4_6 
REMARK    4  A    between atoms: C5_7  and  N1_8 
REMARK    5  A    between atoms: N1_8  and  C6_10 
REMARK    6  A    between atoms: C7_13  and  C8_14 
REMARK    7  A    between atoms: C16_26  and  C17_27 
ROOT
HETATM    1  C4  UNL     1    -113.043 -16.364  86.647  1.00  0.00     0.087 A 
HETATM    2  C5  UNL     1    -113.823 -16.493  85.546  1.00  0.00     0.079 A 
HETATM    3  C11 UNL     1    -113.295 -15.905  84.354  1.00  0.00     0.067 A 
HETATM    4  C12 UNL     1    -113.923 -15.916  83.136  1.00  0.00     0.034 A 
HETATM    5  C13 UNL     1    -113.110 -15.252  82.262  1.00  0.00     0.020 A 
HETATM    6  C14 UNL     1    -111.983 -14.861  83.000  1.00  0.00     0.098 A 
HETATM    7  N3  UNL     1    -112.110 -15.267  84.286  1.00  0.00    -0.318 N 
HETATM    8  C15 UNL     1    -111.311 -15.141  85.400  1.00  0.00     0.064 A 
HETATM    9  C16 UNL     1    -110.051 -14.627  85.490  1.00  0.00    -0.019 A 
HETATM   10  C20 UNL     1    -109.447 -14.710  86.757  1.00  0.00     0.060 A 
HETATM   11  S2  UNL     1    -110.610 -15.489  87.713  1.00  0.00    -0.098 SA
HETATM   12  C21 UNL     1    -111.813 -15.693  86.540  1.00  0.00     0.051 A 
ENDROOT
BRANCH   2  13
HETATM   13  N1  UNL     1    -114.978 -17.250  85.486  1.00  0.00    -0.334 N 
ATOM     14  H1  UNL     1    -114.868 -18.155  85.029  1.00  0.00     0.168 HD
BRANCH  13  15
HETATM   15  C6  UNL     1    -116.145 -17.011  85.902  1.00  0.00     0.149 A 
HETATM   16  N2  UNL     1    -116.830 -17.337  87.014  1.00  0.00    -0.335 N 
HETATM   17  C7  UNL     1    -118.017 -16.844  87.169  1.00  0.00     0.089 A 
ATOM     18  H2  UNL     1    -116.425 -17.956  87.716  1.00  0.00     0.168 HD
HETATM   19  C10 UNL     1    -118.542 -16.014  86.235  1.00  0.00     0.084 A 
HETATM   20  S1  UNL     1    -117.281 -15.959  85.098  1.00  0.00    -0.064 SA
BRANCH  17  21
HETATM   21  C8  UNL     1    -118.889 -17.263  88.377  1.00  0.00     0.282 C 
HETATM   22  C9  UNL     1    -119.414 -18.634  88.148  1.00  0.00     0.097 C 
HETATM   23  F1  UNL     1    -118.012 -17.327  89.486  1.00  0.00    -0.200 F 
HETATM   24  F2  UNL     1    -119.840 -16.312  88.641  1.00  0.00    -0.200 F 
ENDBRANCH  17  21
ENDBRANCH  13  15
ENDBRANCH   2  13
BRANCH   1  25
HETATM   25  C3  UNL     1    -113.309 -16.905  87.979  1.00  0.00     0.297 C 
HETATM   26  O2  UNL     1    -112.594 -17.758  88.493  1.00  0.00    -0.259 OA
BRANCH  25  27
HETATM   27  O1  UNL     1    -114.450 -16.418  88.648  1.00  0.00    -0.318 OA
BRANCH  27  28
HETATM   28  C2  UNL     1    -114.655 -15.060  88.900  1.00  0.00     0.174 C 
HETATM   29  C1  UNL     1    -115.961 -14.744  89.578  1.00  0.00     0.034 C 
ENDBRANCH  27  28
ENDBRANCH  25  27
ENDBRANCH   1  25
BRANCH   9  30
HETATM   30  C17 UNL     1    -109.199 -13.888  84.481  1.00  0.00     0.013 C 
HETATM   31  C18 UNL     1    -108.392 -14.982  83.722  1.00  0.00     0.015 C 
HETATM   32  C19 UNL     1    -108.006 -13.188  85.253  1.00  0.00     0.015 C 
ENDBRANCH   9  30
TORSDOF 7
ENDMDL
MODEL 3
REMARK VINA RESULT: -7.721383991      4.204      7.764
REMARK  7 active torsions:
REMARK  status: ('A' for Active; 'I' for Inactive)
REMARK    1  A    between atoms: C2_2  and  O1_3 
REMARK    2  A    between atoms: O1_3  and  C3_4 
REMARK    3  A    between atoms: C3_4  and  C4_6 
REMARK    4  A    between atoms: C5_7  and  N1_8 
REMARK    5  A    between atoms: N1_8  and  C6_10 
REMARK    6  A    between atoms: C7_13  and  C8_14 
REMARK    7  A    between atoms: C16_26  and  C17_27 
ROOT
HETATM    1  C4  UNL     1    -112.163 -15.719  85.987  1.00  0.00     0.087 A 
HETATM    2  C5  UNL     1    -112.034 -15.157  84.761  1.00  0.00     0.079 A 
HETATM    3  C11 UNL     1    -113.178 -15.280  83.911  1.00  0.00     0.067 A 
HETATM    4  C12 UNL     1    -113.255 -14.791  82.633  1.00  0.00     0.034 A 
HETATM    5  C13 UNL     1    -114.493 -15.114  82.156  1.00  0.00     0.020 A 
HETATM    6  C14 UNL     1    -115.144 -15.797  83.195  1.00  0.00     0.098 A 
HETATM    7  N3  UNL     1    -114.322 -15.895  84.268  1.00  0.00    -0.318 N 
HETATM    8  C15 UNL     1    -114.461 -16.460  85.516  1.00  0.00     0.064 A 
HETATM    9  C16 UNL     1    -115.570 -17.021  86.077  1.00  0.00    -0.019 A 
HETATM   10  C20 UNL     1    -115.432 -17.441  87.412  1.00  0.00     0.060 A 
HETATM   11  S2  UNL     1    -113.836 -17.027  87.806  1.00  0.00    -0.098 SA
HETATM   12  C21 UNL     1    -113.371 -16.352  86.326  1.00  0.00     0.051 A 
ENDROOT
BRANCH   2  13
HETATM   13  N1  UNL     1    -110.959 -14.386  84.360  1.00  0.00    -0.334 N 
ATOM     14  H1  UNL     1    -111.087 -13.382  84.488  1.00  0.00     0.168 HD
BRANCH  13  15
HETATM   15  C6  UNL     1    -109.847 -14.713  83.862  1.00  0.00     0.149 A 
HETATM   16  N2  UNL     1    -108.659 -15.081  84.380  1.00  0.00    -0.335 N 
HETATM   17  C7  UNL     1    -107.721 -15.442  83.565  1.00  0.00     0.089 A 
ATOM     18  H2  UNL     1    -108.502 -15.075  85.388  1.00  0.00     0.168 HD
HETATM   19  C10 UNL     1    -107.943 -15.456  82.227  1.00  0.00     0.084 A 
HETATM   20  S1  UNL     1    -109.553 -14.920  82.156  1.00  0.00    -0.064 SA
BRANCH  17  21
HETATM   21  C8  UNL     1    -106.307 -15.779  84.095  1.00  0.00     0.282 C 
HETATM   22  C9  UNL     1    -105.353 -14.736  83.635  1.00  0.00     0.097 C 
HETATM   23  F1  UNL     1    -106.387 -15.684  85.505  1.00  0.00    -0.200 F 
HETATM   24  F2  UNL     1    -105.962 -17.066  83.774  1.00  0.00    -0.200 F 
ENDBRANCH  17  21
ENDBRANCH  13  15
ENDBRANCH   2  13
BRANCH   1  25
HETATM   25  C3  UNL     1    -111.180 -15.703  87.068  1.00  0.00     0.297 C 
HETATM   26  O2  UNL     1    -110.663 -16.729  87.498  1.00  0.00    -0.259 OA
BRANCH  25  27
HETATM   27  O1  UNL     1    -110.862 -14.447  87.621  1.00  0.00    -0.318 OA
BRANCH  27  28
HETATM   28  C2  UNL     1    -111.440 -13.972  88.800  1.00  0.00     0.174 C 
HETATM   29  C1  UNL     1    -112.720 -13.206  88.601  1.00  0.00     0.034 C 
ENDBRANCH  27  28
ENDBRANCH  25  27
ENDBRANCH   1  25
BRANCH   9  30
HETATM   30  C17 UNL     1    -116.922 -17.365  85.490  1.00  0.00     0.013 C 
HETATM   31  C18 UNL     1    -117.852 -16.164  85.830  1.00  0.00     0.015 C 
HETATM   32  C19 UNL     1    -117.595 -18.470  86.403  1.00  0.00     0.015 C 
ENDBRANCH   9  30
TORSDOF 7
ENDMDL
MODEL 4
REMARK VINA RESULT: -7.673731415      2.454      3.338
REMARK  7 active torsions:
REMARK  status: ('A' for Active; 'I' for Inactive)
REMARK    1  A    between atoms: C2_2  and  O1_3 
REMARK    2  A    between atoms: O1_3  and  C3_4 
REMARK    3  A    between atoms: C3_4  and  C4_6 
REMARK    4  A    between atoms: C5_7  and  N1_8 
REMARK    5  A    between atoms: N1_8  and  C6_10 
REMARK    6  A    between atoms: C7_13  and  C8_14 
REMARK    7  A    between atoms: C16_26  and  C17_27 
ROOT
HETATM    1  C4  UNL     1    -111.532 -14.987  85.921  1.00  0.00     0.087 A 
HETATM    2  C5  UNL     1    -112.825 -15.087  85.528  1.00  0.00     0.079 A 
HETATM    3  C11 UNL     1    -113.025 -15.225  84.118  1.00  0.00     0.067 A 
HETATM    4  C12 UNL     1    -114.249 -15.333  83.513  1.00  0.00     0.034 A 
HETATM    5  C13 UNL     1    -114.022 -15.438  82.170  1.00  0.00     0.020 A 
HETATM    6  C14 UNL     1    -112.629 -15.400  82.007  1.00  0.00     0.098 A 
HETATM    7  N3  UNL     1    -112.027 -15.265  83.214  1.00  0.00    -0.318 N 
HETATM    8  C15 UNL     1    -110.712 -15.173  83.608  1.00  0.00     0.064 A 
HETATM    9  C16 UNL     1    -109.585 -15.300  82.851  1.00  0.00    -0.019 A 
HETATM   10  C20 UNL     1    -108.368 -15.242  83.553  1.00  0.00     0.060 A 
HETATM   11  S2  UNL     1    -108.839 -15.044  85.169  1.00  0.00    -0.098 SA
HETATM   12  C21 UNL     1    -110.517 -15.034  84.950  1.00  0.00     0.051 A 
ENDROOT
BRANCH   2  13
HETATM   13  N1  UNL     1    -113.900 -15.199  86.389  1.00  0.00    -0.334 N 
ATOM     14  H1  UNL     1    -114.225 -14.314  86.779  1.00  0.00     0.168 HD
BRANCH  13  15
HETATM   15  C6  UNL     1    -114.548 -16.211  86.775  1.00  0.00     0.149 A 
HETATM   16  N2  UNL     1    -115.455 -17.021  86.197  1.00  0.00    -0.335 N 
HETATM   17  C7  UNL     1    -115.873 -18.048  86.863  1.00  0.00     0.089 A 
ATOM     18  H2  UNL     1    -115.804 -16.830  85.257  1.00  0.00     0.168 HD
HETATM   19  C10 UNL     1    -115.395 -18.299  88.108  1.00  0.00     0.084 A 
HETATM   20  S1  UNL     1    -114.320 -17.000  88.314  1.00  0.00    -0.064 SA
BRANCH  17  21
HETATM   21  C8  UNL     1    -116.986 -18.956  86.291  1.00  0.00     0.282 C 
HETATM   22  C9  UNL     1    -118.021 -19.177  87.334  1.00  0.00     0.097 C 
HETATM   23  F1  UNL     1    -117.593 -18.218  85.247  1.00  0.00    -0.200 F 
HETATM   24  F2  UNL     1    -116.452 -20.097  85.749  1.00  0.00    -0.200 F 
ENDBRANCH  17  21
ENDBRANCH  13  15
ENDBRANCH   2  13
BRANCH   1  25
HETATM   25  C3  UNL     1    -111.036 -14.886  87.291  1.00  0.00     0.297 C 
HETATM   26  O2  UNL     1    -110.785 -15.875  87.971  1.00  0.00    -0.259 OA
BRANCH  25  27
HETATM   27  O1  UNL     1    -110.879 -13.588  87.818  1.00  0.00    -0.318 OA
BRANCH  27  28
HETATM   28  C2  UNL     1    -111.430 -13.197  89.039  1.00  0.00     0.174 C 
HETATM   29  C1  UNL     1    -112.934 -13.226  89.082  1.00  0.00     0.034 C 
ENDBRANCH  27  28
ENDBRANCH  25  27
ENDBRANCH   1  25
BRANCH   9  30
HETATM   30  C17 UNL     1    -109.395 -15.405  81.353  1.00  0.00     0.013 C 
HETATM   31  C18 UNL     1    -107.891 -15.744  81.137  1.00  0.00     0.015 C 
HETATM   32  C19 UNL     1    -109.411 -13.942  80.745  1.00  0.00     0.015 C 
ENDBRANCH   9  30
TORSDOF 7
ENDMDL
MODEL 5
REMARK VINA RESULT: -7.670940397      2.572      4.176
REMARK  7 active torsions:
REMARK  status: ('A' for Active; 'I' for Inactive)
REMARK    1  A    between atoms: C2_2  and  O1_3 
REMARK    2  A    between atoms: O1_3  and  C3_4 
REMARK    3  A    between atoms: C3_4  and  C4_6 
REMARK    4  A    between atoms: C5_7  and  N1_8 
REMARK    5  A    between atoms: N1_8  and  C6_10 
REMARK    6  A    between atoms: C7_13  and  C8_14 
REMARK    7  A    between atoms: C16_26  and  C17_27 
ROOT
HETATM    1  C4  UNL     1    -112.380 -15.177  85.601  1.00  0.00     0.087 A 
HETATM    2  C5  UNL     1    -112.917 -14.958  86.826  1.00  0.00     0.079 A 
HETATM    3  C11 UNL     1    -112.042 -14.338  87.772  1.00  0.00     0.067 A 
HETATM    4  C12 UNL     1    -112.382 -14.035  89.065  1.00  0.00     0.034 A 
HETATM    5  C13 UNL     1    -111.283 -13.465  89.643  1.00  0.00     0.020 A 
HETATM    6  C14 UNL     1    -110.293 -13.433  88.649  1.00  0.00     0.098 A 
HETATM    7  N3  UNL     1    -110.772 -13.975  87.503  1.00  0.00    -0.318 N 
HETATM    8  C15 UNL     1    -110.225 -14.188  86.258  1.00  0.00     0.064 A 
HETATM    9  C16 UNL     1    -109.009 -13.795  85.784  1.00  0.00    -0.019 A 
HETATM   10  C20 UNL     1    -108.758 -14.084  84.431  1.00  0.00     0.060 A 
HETATM   11  S2  UNL     1    -110.182 -14.838  83.905  1.00  0.00    -0.098 SA
HETATM   12  C21 UNL     1    -111.053 -14.786  85.355  1.00  0.00     0.051 A 
ENDROOT
BRANCH   2  13
HETATM   13  N1  UNL     1    -114.245 -15.163  87.149  1.00  0.00    -0.334 N 
ATOM     14  H1  UNL     1    -114.794 -14.309  87.246  1.00  0.00     0.168 HD
BRANCH  13  15
HETATM   15  C6  UNL     1    -114.894 -16.227  87.344  1.00  0.00     0.149 A 
HETATM   16  N2  UNL     1    -115.607 -17.050  86.551  1.00  0.00    -0.335 N 
HETATM   17  C7  UNL     1    -116.088 -18.134  87.069  1.00  0.00     0.089 A 
ATOM     18  H2  UNL     1    -115.764 -16.825  85.569  1.00  0.00     0.168 HD
HETATM   19  C10 UNL     1    -115.865 -18.429  88.374  1.00  0.00     0.084 A 
HETATM   20  S1  UNL     1    -114.941 -17.089  88.860  1.00  0.00    -0.064 SA
BRANCH  17  21
HETATM   21  C8  UNL     1    -116.998 -19.066  86.234  1.00  0.00     0.282 C 
HETATM   22  C9  UNL     1    -118.222 -19.381  87.015  1.00  0.00     0.097 C 
HETATM   23  F1  UNL     1    -117.401 -18.310  85.108  1.00  0.00    -0.200 F 
HETATM   24  F2  UNL     1    -116.297 -20.155  85.785  1.00  0.00    -0.200 F 
ENDBRANCH  17  21
ENDBRANCH  13  15
ENDBRANCH   2  13
BRANCH   1  25
HETATM   25  C3  UNL     1    -113.055 -15.747  84.436  1.00  0.00     0.297 C 
HETATM   26  O2  UNL     1    -113.354 -16.934  84.370  1.00  0.00    -0.259 OA
BRANCH  25  27
HETATM   27  O1  UNL     1    -113.329 -14.871  83.367  1.00  0.00    -0.318 OA
BRANCH  27  28
HETATM   28  C2  UNL     1    -114.131 -15.231  82.283  1.00  0.00     0.174 C 
HETATM   29  C1  UNL     1    -115.610 -15.135  82.544  1.00  0.00     0.034 C 
ENDBRANCH  27  28
ENDBRANCH  25  27
ENDBRANCH   1  25
BRANCH   9  30
HETATM   30  C17 UNL     1    -107.818 -13.172  86.482  1.00  0.00     0.013 C 
HETATM   31  C18 UNL     1    -107.150 -12.238  85.431  1.00  0.00     0.015 C 
HETATM   32  C19 UNL     1    -106.682 -14.268  86.602  1.00  0.00     0.015 C 
ENDBRANCH   9  30
TORSDOF 7
ENDMDL
