MODEL 1
REMARK VINA RESULT: -9.987546814      0.000      0.000
REMARK  5 active torsions:
REMARK  status: ('A' for Active; 'I' for Inactive)
REMARK    1  A    between atoms: C2_2  and  C4_4 
REMARK       I    between atoms: C4_4  and  N1_6 
REMARK    2  A    between atoms: N1_6  and  C5_8 
REMARK    3  A    between atoms: C7_10  and  C8_11 
REMARK    4  A    between atoms: C9_15  and  C10_16 
REMARK    5  A    between atoms: C15_21  and  C16_22 
ROOT
HETATM    1  C8  UNL     1    -113.307 -16.414  85.658  1.00  0.00     0.106 A 
HETATM    2  N2  UNL     1    -114.521 -16.907  85.755  1.00  0.00    -0.283 N 
ATOM      3  H2  UNL     1    -115.125 -16.925  84.933  1.00  0.00     0.188 HD
HETATM    4  N3  UNL     1    -114.953 -17.363  86.865  1.00  0.00    -0.217 N 
HETATM    5  C9  UNL     1    -116.103 -17.932  87.349  1.00  0.00     0.125 A 
HETATM    6  N4  UNL     1    -115.947 -18.214  88.654  1.00  0.00    -0.285 N 
ATOM      7  H4  UNL     1    -116.653 -18.643  89.252  1.00  0.00     0.188 HD
HETATM    8  N5  UNL     1    -114.763 -17.857  89.035  1.00  0.00    -0.277 N 
ATOM      9  H5  UNL     1    -114.366 -17.949  89.970  1.00  0.00     0.189 HD
HETATM   10  C19 UNL     1    -114.150 -17.331  87.929  1.00  0.00     0.188 A 
HETATM   11  S1  UNL     1    -112.734 -16.609  87.254  1.00  0.00    -0.031 SA
ENDROOT
BRANCH   1  12
HETATM   12  C7  UNL     1    -112.578 -15.840  84.536  1.00  0.00     0.040 A 
HETATM   13  C6  UNL     1    -111.228 -15.518  84.690  1.00  0.00     0.050 A 
HETATM   14  C5  UNL     1    -110.458 -14.974  83.687  1.00  0.00     0.074 A 
HETATM   15  C22 UNL     1    -111.054 -14.727  82.446  1.00  0.00     0.146 A 
HETATM   16  C21 UNL     1    -112.377 -15.036  82.279  1.00  0.00     0.088 A 
HETATM   17  F2  UNL     1    -110.346 -14.185  81.400  1.00  0.00    -0.204 F 
HETATM   18  C20 UNL     1    -113.140 -15.588  83.310  1.00  0.00     0.132 A 
HETATM   19  F1  UNL     1    -114.450 -15.895  83.145  1.00  0.00    -0.205 F 
BRANCH  14  20
HETATM   20  N1  UNL     1    -109.099 -14.642  83.820  1.00  0.00    -0.324 N 
HETATM   21  C4  UNL     1    -108.497 -13.699  84.674  1.00  0.00     0.225 C 
HETATM   22  O1  UNL     1    -109.095 -12.966  85.492  1.00  0.00    -0.273 OA
ATOM     23  H1  UNL     1    -108.460 -15.157  83.214  1.00  0.00     0.169 HD
BRANCH  21  24
HETATM   24  C2  UNL     1    -106.995 -13.498  84.658  1.00  0.00     0.070 C 
HETATM   25  C1  UNL     1    -106.776 -12.041  84.226  1.00  0.00     0.019 C 
HETATM   26  C3  UNL     1    -106.443 -13.603  86.058  1.00  0.00     0.019 C 
ENDBRANCH  21  24
ENDBRANCH  14  20
ENDBRANCH   1  12
BRANCH   5  27
HETATM   27  C10 UNL     1    -117.354 -18.215  86.601  1.00  0.00     0.061 C 
HETATM   28  C11 UNL     1    -117.626 -19.701  86.506  1.00  0.00     0.013 C 
HETATM   29  C12 UNL     1    -119.064 -20.049  86.807  1.00  0.00     0.001 C 
HETATM   30  C13 UNL     1    -119.478 -19.621  88.191  1.00  0.00     0.000 C 
HETATM   31  C14 UNL     1    -119.106 -18.192  88.408  1.00  0.00     0.006 C 
HETATM   32  C15 UNL     1    -118.549 -17.536  87.171  1.00  0.00     0.000 C 
BRANCH  32  33
HETATM   33  C16 UNL     1    -118.321 -16.071  87.411  1.00  0.00    -0.018 C 
HETATM   34  C17 UNL     1    -118.108 -15.411  86.064  1.00  0.00     0.010 C 
HETATM   35  C18 UNL     1    -119.486 -15.404  88.067  1.00  0.00     0.010 C 
ENDBRANCH  32  33
ENDBRANCH   5  27
TORSDOF 5
ENDMDL
MODEL 2
REMARK VINA RESULT: -9.851450371      0.854      2.275
REMARK  5 active torsions:
REMARK  status: ('A' for Active; 'I' for Inactive)
REMARK    1  A    between atoms: C2_2  and  C4_4 
REMARK       I    between atoms: C4_4  and  N1_6 
REMARK    2  A    between atoms: N1_6  and  C5_8 
REMARK    3  A    between atoms: C7_10  and  C8_11 
REMARK    4  A    between atoms: C9_15  and  C10_16 
REMARK    5  A    between atoms: C15_21  and  C16_22 
ROOT
HETATM    1  C8  UNL     1    -113.163 -16.390  86.204  1.00  0.00     0.106 A 
HETATM    2  N2  UNL     1    -114.414 -16.470  86.596  1.00  0.00    -0.283 N 
ATOM      3  H2  UNL     1    -115.156 -16.124  85.988  1.00  0.00     0.188 HD
HETATM    4  N3  UNL     1    -114.711 -16.976  87.729  1.00  0.00    -0.217 N 
HETATM    5  C9  UNL     1    -115.843 -17.225  88.462  1.00  0.00     0.125 A 
HETATM    6  N4  UNL     1    -115.502 -17.800  89.629  1.00  0.00    -0.285 N 
ATOM      7  H4  UNL     1    -116.156 -18.087  90.356  1.00  0.00     0.188 HD
HETATM    8  N5  UNL     1    -114.216 -17.933  89.685  1.00  0.00    -0.277 N 
ATOM      9  H5  UNL     1    -113.674 -18.336  90.450  1.00  0.00     0.189 HD
HETATM   10  C19 UNL     1    -113.728 -17.422  88.511  1.00  0.00     0.188 A 
HETATM   11  S1  UNL     1    -112.346 -17.080  87.535  1.00  0.00    -0.031 SA
ENDROOT
BRANCH   1  12
HETATM   12  C7  UNL     1    -112.557 -15.870  84.986  1.00  0.00     0.040 A 
HETATM   13  C6  UNL     1    -111.200 -15.541  84.984  1.00  0.00     0.050 A 
HETATM   14  C5  UNL     1    -110.541 -15.044  83.882  1.00  0.00     0.074 A 
HETATM   15  C22 UNL     1    -111.264 -14.857  82.699  1.00  0.00     0.146 A 
HETATM   16  C21 UNL     1    -112.594 -15.175  82.686  1.00  0.00     0.088 A 
HETATM   17  F2  UNL     1    -110.671 -14.366  81.561  1.00  0.00    -0.204 F 
HETATM   18  C20 UNL     1    -113.244 -15.677  83.815  1.00  0.00     0.132 A 
HETATM   19  F1  UNL     1    -114.562 -15.993  83.802  1.00  0.00    -0.205 F 
BRANCH  14  20
HETATM   20  N1  UNL     1    -109.177 -14.706  83.858  1.00  0.00    -0.324 N 
HETATM   21  C4  UNL     1    -108.500 -13.707  84.583  1.00  0.00     0.225 C 
HETATM   22  O1  UNL     1    -109.018 -12.920  85.405  1.00  0.00    -0.273 OA
ATOM     23  H1  UNL     1    -108.598 -15.260  83.228  1.00  0.00     0.169 HD
BRANCH  21  24
HETATM   24  C2  UNL     1    -107.007 -13.509  84.405  1.00  0.00     0.070 C 
HETATM   25  C1  UNL     1    -106.798 -11.990  84.321  1.00  0.00     0.019 C 
HETATM   26  C3  UNL     1    -106.273 -13.962  85.643  1.00  0.00     0.019 C 
ENDBRANCH  21  24
ENDBRANCH  14  20
ENDBRANCH   1  12
BRANCH   5  27
HETATM   27  C10 UNL     1    -117.248 -16.928  88.083  1.00  0.00     0.061 C 
HETATM   28  C11 UNL     1    -117.455 -15.452  87.816  1.00  0.00     0.013 C 
HETATM   29  C12 UNL     1    -118.253 -15.195  86.560  1.00  0.00     0.001 C 
HETATM   30  C13 UNL     1    -117.589 -15.768  85.335  1.00  0.00     0.000 C 
HETATM   31  C14 UNL     1    -117.223 -17.195  85.581  1.00  0.00     0.006 C 
HETATM   32  C15 UNL     1    -117.720 -17.707  86.908  1.00  0.00     0.000 C 
BRANCH  32  33
HETATM   33  C16 UNL     1    -117.441 -19.177  87.040  1.00  0.00    -0.018 C 
HETATM   34  C17 UNL     1    -118.771 -19.889  87.175  1.00  0.00     0.010 C 
HETATM   35  C18 UNL     1    -116.740 -19.743  85.848  1.00  0.00     0.010 C 
ENDBRANCH  32  33
ENDBRANCH   5  27
TORSDOF 5
ENDMDL
MODEL 3
REMARK VINA RESULT: -9.521552005      0.882      1.066
REMARK  5 active torsions:
REMARK  status: ('A' for Active; 'I' for Inactive)
REMARK    1  A    between atoms: C2_2  and  C4_4 
REMARK       I    between atoms: C4_4  and  N1_6 
REMARK    2  A    between atoms: N1_6  and  C5_8 
REMARK    3  A    between atoms: C7_10  and  C8_11 
REMARK    4  A    between atoms: C9_15  and  C10_16 
REMARK    5  A    between atoms: C15_21  and  C16_22 
ROOT
HETATM    1  C8  UNL     1    -113.108 -16.404  85.782  1.00  0.00     0.106 A 
HETATM    2  N2  UNL     1    -114.300 -16.953  85.845  1.00  0.00    -0.283 N 
ATOM      3  H2  UNL     1    -114.863 -17.034  84.998  1.00  0.00     0.188 HD
HETATM    4  N3  UNL     1    -114.761 -17.386  86.953  1.00  0.00    -0.217 N 
HETATM    5  C9  UNL     1    -115.904 -17.993  87.407  1.00  0.00     0.125 A 
HETATM    6  N4  UNL     1    -115.797 -18.214  88.729  1.00  0.00    -0.285 N 
ATOM      7  H4  UNL     1    -116.509 -18.654  89.311  1.00  0.00     0.188 HD
HETATM    8  N5  UNL     1    -114.650 -17.784  89.147  1.00  0.00    -0.277 N 
ATOM      9  H5  UNL     1    -114.294 -17.819  90.103  1.00  0.00     0.189 HD
HETATM   10  C19 UNL     1    -114.011 -17.272  88.049  1.00  0.00     0.188 A 
HETATM   11  S1  UNL     1    -112.602 -16.508  87.409  1.00  0.00    -0.031 SA
ENDROOT
BRANCH   1  12
HETATM   12  C7  UNL     1    -112.355 -15.839  84.671  1.00  0.00     0.040 A 
HETATM   13  C6  UNL     1    -110.960 -15.884  84.697  1.00  0.00     0.050 A 
HETATM   14  C5  UNL     1    -110.165 -15.378  83.694  1.00  0.00     0.074 A 
HETATM   15  C22 UNL     1    -110.782 -14.785  82.587  1.00  0.00     0.146 A 
HETATM   16  C21 UNL     1    -112.148 -14.734  82.547  1.00  0.00     0.088 A 
HETATM   17  F2  UNL     1    -110.051 -14.259  81.549  1.00  0.00    -0.204 F 
HETATM   18  C20 UNL     1    -112.936 -15.253  83.576  1.00  0.00     0.132 A 
HETATM   19  F1  UNL     1    -114.290 -15.203  83.536  1.00  0.00    -0.205 F 
BRANCH  14  20
HETATM   20  N1  UNL     1    -108.760 -15.411  83.701  1.00  0.00    -0.324 N 
HETATM   21  C4  UNL     1    -107.864 -14.809  84.604  1.00  0.00     0.225 C 
HETATM   22  O1  UNL     1    -108.180 -14.114  85.594  1.00  0.00    -0.273 OA
ATOM     23  H1  UNL     1    -108.330 -15.946  82.946  1.00  0.00     0.169 HD
BRANCH  21  24
HETATM   24  C2  UNL     1    -106.367 -14.974  84.426  1.00  0.00     0.070 C 
HETATM   25  C1  UNL     1    -105.754 -14.716  85.809  1.00  0.00     0.019 C 
HETATM   26  C3  UNL     1    -106.041 -16.408  84.088  1.00  0.00     0.019 C 
ENDBRANCH  21  24
ENDBRANCH  14  20
ENDBRANCH   1  12
BRANCH   5  27
HETATM   27  C10 UNL     1    -117.104 -18.367  86.616  1.00  0.00     0.061 C 
HETATM   28  C11 UNL     1    -117.503 -19.808  86.852  1.00  0.00     0.013 C 
HETATM   29  C12 UNL     1    -118.989 -19.972  87.067  1.00  0.00     0.001 C 
HETATM   30  C13 UNL     1    -119.484 -19.185  88.253  1.00  0.00     0.000 C 
HETATM   31  C14 UNL     1    -119.001 -17.775  88.159  1.00  0.00     0.006 C 
HETATM   32  C15 UNL     1    -118.276 -17.488  86.870  1.00  0.00     0.000 C 
BRANCH  32  33
HETATM   33  C16 UNL     1    -117.935 -16.028  86.773  1.00  0.00    -0.018 C 
HETATM   34  C17 UNL     1    -117.655 -15.715  85.318  1.00  0.00     0.010 C 
HETATM   35  C18 UNL     1    -119.051 -15.142  87.224  1.00  0.00     0.010 C 
ENDBRANCH  32  33
ENDBRANCH   5  27
TORSDOF 5
ENDMDL
MODEL 4
REMARK VINA RESULT: -9.274520246      3.270      4.591
REMARK  5 active torsions:
REMARK  status: ('A' for Active; 'I' for Inactive)
REMARK    1  A    between atoms: C2_2  and  C4_4 
REMARK       I    between atoms: C4_4  and  N1_6 
REMARK    2  A    between atoms: N1_6  and  C5_8 
REMARK    3  A    between atoms: C7_10  and  C8_11 
REMARK    4  A    between atoms: C9_15  and  C10_16 
REMARK    5  A    between atoms: C15_21  and  C16_22 
ROOT
HETATM    1  C8  UNL     1    -111.850 -13.923  88.243  1.00  0.00     0.106 A 
HETATM    2  N2  UNL     1    -112.546 -14.952  87.816  1.00  0.00    -0.283 N 
ATOM      3  H2  UNL     1    -112.068 -15.729  87.359  1.00  0.00     0.188 HD
HETATM    4  N3  UNL     1    -113.812 -14.990  87.966  1.00  0.00    -0.217 N 
HETATM    5  C9  UNL     1    -114.843 -15.846  87.670  1.00  0.00     0.125 A 
HETATM    6  N4  UNL     1    -116.002 -15.314  88.095  1.00  0.00    -0.285 N 
ATOM      7  H4  UNL     1    -116.919 -15.748  88.000  1.00  0.00     0.188 HD
HETATM    8  N5  UNL     1    -115.773 -14.165  88.646  1.00  0.00    -0.277 N 
ATOM      9  H5  UNL     1    -116.461 -13.534  89.058  1.00  0.00     0.189 HD
HETATM   10  C19 UNL     1    -114.420 -13.966  88.565  1.00  0.00     0.188 A 
HETATM   11  S1  UNL     1    -113.076 -12.937  88.905  1.00  0.00    -0.031 SA
ENDROOT
BRANCH   1  12
HETATM   12  C7  UNL     1    -110.425 -13.629  88.201  1.00  0.00     0.040 A 
HETATM   13  C6  UNL     1    -109.758 -13.651  86.975  1.00  0.00     0.050 A 
HETATM   14  C5  UNL     1    -108.415 -13.385  86.836  1.00  0.00     0.074 A 
HETATM   15  C22 UNL     1    -107.672 -13.078  87.981  1.00  0.00     0.146 A 
HETATM   16  C21 UNL     1    -108.311 -13.053  89.191  1.00  0.00     0.088 A 
HETATM   17  F2  UNL     1    -106.327 -12.802  87.918  1.00  0.00    -0.204 F 
HETATM   18  C20 UNL     1    -109.675 -13.326  89.309  1.00  0.00     0.132 A 
HETATM   19  F1  UNL     1    -110.309 -13.301  90.507  1.00  0.00    -0.205 F 
BRANCH  14  20
HETATM   20  N1  UNL     1    -107.724 -13.402  85.612  1.00  0.00    -0.324 N 
HETATM   21  C4  UNL     1    -107.208 -12.321  84.872  1.00  0.00     0.225 C 
HETATM   22  O1  UNL     1    -107.281 -11.114  85.191  1.00  0.00    -0.273 OA
ATOM     23  H1  UNL     1    -107.575 -14.325  85.204  1.00  0.00     0.169 HD
BRANCH  21  24
HETATM   24  C2  UNL     1    -106.486 -12.564  83.561  1.00  0.00     0.070 C 
HETATM   25  C1  UNL     1    -107.365 -13.553  82.782  1.00  0.00     0.019 C 
HETATM   26  C3  UNL     1    -106.460 -11.298  82.741  1.00  0.00     0.019 C 
ENDBRANCH  21  24
ENDBRANCH  14  20
ENDBRANCH   1  12
BRANCH   5  27
HETATM   27  C10 UNL     1    -114.756 -17.163  86.989  1.00  0.00     0.061 C 
HETATM   28  C11 UNL     1    -115.651 -18.193  87.646  1.00  0.00     0.013 C 
HETATM   29  C12 UNL     1    -116.444 -18.998  86.643  1.00  0.00     0.001 C 
HETATM   30  C13 UNL     1    -117.334 -18.130  85.793  1.00  0.00     0.000 C 
HETATM   31  C14 UNL     1    -116.542 -17.000  85.224  1.00  0.00     0.006 C 
HETATM   32  C15 UNL     1    -115.072 -17.098  85.537  1.00  0.00     0.000 C 
BRANCH  32  33
HETATM   33  C16 UNL     1    -114.311 -16.014  84.829  1.00  0.00    -0.018 C 
HETATM   34  C17 UNL     1    -112.881 -16.486  84.663  1.00  0.00     0.010 C 
HETATM   35  C18 UNL     1    -114.855 -15.719  83.468  1.00  0.00     0.010 C 
ENDBRANCH  32  33
ENDBRANCH   5  27
TORSDOF 5
ENDMDL
MODEL 5
REMARK VINA RESULT: -9.260352432      2.970      9.856
REMARK  5 active torsions:
REMARK  status: ('A' for Active; 'I' for Inactive)
REMARK    1  A    between atoms: C2_2  and  C4_4 
REMARK       I    between atoms: C4_4  and  N1_6 
REMARK    2  A    between atoms: N1_6  and  C5_8 
REMARK    3  A    between atoms: C7_10  and  C8_11 
REMARK    4  A    between atoms: C9_15  and  C10_16 
REMARK    5  A    between atoms: C15_21  and  C16_22 
ROOT
HETATM    1  C8  UNL     1    -111.710 -15.238  84.232  1.00  0.00     0.106 A 
HETATM    2  N2  UNL     1    -110.418 -15.328  84.014  1.00  0.00    -0.283 N 
ATOM      3  H2  UNL     1    -109.795 -15.598  84.776  1.00  0.00     0.188 HD
HETATM    4  N3  UNL     1    -109.934 -15.083  82.860  1.00  0.00    -0.217 N 
HETATM    5  C9  UNL     1    -108.700 -15.067  82.260  1.00  0.00     0.125 A 
HETATM    6  N4  UNL     1    -108.834 -14.716  80.970  1.00  0.00    -0.285 N 
ATOM      7  H4  UNL     1    -108.070 -14.630  80.301  1.00  0.00     0.188 HD
HETATM    8  N5  UNL     1    -110.084 -14.506  80.707  1.00  0.00    -0.277 N 
ATOM      9  H5  UNL     1    -110.484 -14.228  79.811  1.00  0.00     0.189 HD
HETATM   10  C19 UNL     1    -110.762 -14.732  81.876  1.00  0.00     0.188 A 
HETATM   11  S1  UNL     1    -112.283 -14.772  82.693  1.00  0.00    -0.031 SA
ENDROOT
BRANCH   1  12
HETATM   12  C7  UNL     1    -112.511 -15.459  85.428  1.00  0.00     0.040 A 
HETATM   13  C6  UNL     1    -113.546 -16.395  85.396  1.00  0.00     0.050 A 
HETATM   14  C5  UNL     1    -114.354 -16.672  86.475  1.00  0.00     0.074 A 
HETATM   15  C22 UNL     1    -114.132 -15.981  87.671  1.00  0.00     0.146 A 
HETATM   16  C21 UNL     1    -113.122 -15.060  87.719  1.00  0.00     0.088 A 
HETATM   17  F2  UNL     1    -114.900 -16.206  88.788  1.00  0.00    -0.204 F 
HETATM   18  C20 UNL     1    -112.314 -14.794  86.612  1.00  0.00     0.132 A 
HETATM   19  F1  UNL     1    -111.312 -13.882  86.659  1.00  0.00    -0.205 F 
BRANCH  14  20
HETATM   20  N1  UNL     1    -115.401 -17.609  86.464  1.00  0.00    -0.324 N 
HETATM   21  C4  UNL     1    -116.632 -17.554  85.782  1.00  0.00     0.225 C 
HETATM   22  O1  UNL     1    -117.017 -16.624  85.041  1.00  0.00    -0.273 OA
ATOM     23  H1  UNL     1    -115.249 -18.445  87.028  1.00  0.00     0.169 HD
BRANCH  21  24
HETATM   24  C2  UNL     1    -117.630 -18.688  85.909  1.00  0.00     0.070 C 
HETATM   25  C1  UNL     1    -116.920 -19.929  85.350  1.00  0.00     0.019 C 
HETATM   26  C3  UNL     1    -117.898 -18.983  87.364  1.00  0.00     0.019 C 
ENDBRANCH  21  24
ENDBRANCH  14  20
ENDBRANCH   1  12
BRANCH   5  27
HETATM   27  C10 UNL     1    -107.388 -15.375  82.885  1.00  0.00     0.061 C 
HETATM   28  C11 UNL     1    -106.517 -16.212  81.973  1.00  0.00     0.013 C 
HETATM   29  C12 UNL     1    -105.093 -15.712  81.910  1.00  0.00     0.001 C 
HETATM   30  C13 UNL     1    -105.008 -14.294  81.409  1.00  0.00     0.000 C 
HETATM   31  C14 UNL     1    -105.957 -13.432  82.174  1.00  0.00     0.006 C 
HETATM   32  C15 UNL     1    -106.634 -14.163  83.303  1.00  0.00     0.000 C 
BRANCH  32  33
HETATM   33  C16 UNL     1    -107.469 -13.216  84.117  1.00  0.00    -0.018 C 
HETATM   34  C17 UNL     1    -107.520 -13.746  85.535  1.00  0.00     0.010 C 
HETATM   35  C18 UNL     1    -106.897 -11.836  84.165  1.00  0.00     0.010 C 
ENDBRANCH  32  33
ENDBRANCH   5  27
TORSDOF 5
ENDMDL
