MODEL 1
REMARK VINA RESULT: -9.506385124      0.000      0.000
REMARK  14 active torsions:
REMARK  status: ('A' for Active; 'I' for Inactive)
REMARK    1  A    between atoms: C2_2  and  C4_4 
REMARK    2  A    between atoms: C4_4  and  N1_5 
REMARK       I    between atoms: N1_5  and  C5_7 
REMARK    3  A    between atoms: C5_7  and  C6_9 
REMARK    4  A    between atoms: C6_9  and  C7_10 
REMARK    5  A    between atoms: C6_9  and  N2_14 
REMARK    6  A    between atoms: C7_10  and  C8_11 
REMARK       I    between atoms: N2_14  and  C9_16 
REMARK    7  A    between atoms: C9_16  and  C10_18 
REMARK    8  A    between atoms: N3_21  and  C13_22 
REMARK    9  A    between atoms: C13_22  and  C14_23 
REMARK   10  A    between atoms: C14_23  and  C15_25 
REMARK   11  A    between atoms: C20_31  and  C21_32 
REMARK   12  A    between atoms: C26_38  and  O6_39 
REMARK   13  A    between atoms: C26_38  and  O7_41 
REMARK   14  A    between atoms: O7_41  and  C27_42 
ROOT
HETATM    1  N2  UNL     1      18.866  -7.072 104.200  1.00  0.00    -0.322 N 
ATOM      2  H2  UNL     1      19.836  -6.757 104.206  1.00  0.00     0.169 HD
HETATM    3  C9  UNL     1      18.584  -8.059 105.160  1.00  0.00     0.248 C 
HETATM    4  O4  UNL     1      17.468  -8.652 105.081  1.00  0.00    -0.268 OA
ENDROOT
BRANCH   1   5
HETATM    5  C6  UNL     1      18.089  -6.452 103.261  1.00  0.00     0.090 C 
BRANCH   5   6
HETATM    6  C5  UNL     1      17.326  -5.846 102.341  1.00  0.00     0.269 C 
HETATM    7  N1  UNL     1      16.052  -4.978 102.738  1.00  0.00    -0.321 N 
ATOM      8  H1  UNL     1      15.787  -4.675 103.675  1.00  0.00     0.169 HD
HETATM    9  O1  UNL     1      17.386  -5.819 101.114  1.00  0.00    -0.266 OA
BRANCH   7  10
HETATM   10  C4  UNL     1      15.366  -4.712 101.540  1.00  0.00     0.074 C 
HETATM   11  C26 UNL     1      15.090  -3.819 100.606  1.00  0.00     0.202 C 
BRANCH  10  12
HETATM   12  C2  UNL     1      13.899  -5.268 102.113  1.00  0.00     0.032 C 
HETATM   13  C1  UNL     1      13.975  -5.380 103.538  1.00  0.00     0.016 C 
HETATM   14  C3  UNL     1      13.805  -6.555 101.326  1.00  0.00     0.016 C 
ENDBRANCH  10  12
BRANCH  11  15
HETATM   15  O6  UNL     1      15.656  -2.464 100.858  1.00  0.00    -0.339 OA
ATOM     16  H6  UNL     1      16.119  -2.085 100.120  1.00  0.00     0.220 HD
ENDBRANCH  11  15
BRANCH  11  17
HETATM   17  O7  UNL     1      14.492  -3.619  99.505  1.00  0.00    -0.319 OA
BRANCH  17  18
HETATM   18  C27 UNL     1      13.569  -3.468  98.604  1.00  0.00     0.059 C 
HETATM   19  C28 UNL     1      13.296  -1.978  98.253  1.00  0.00     0.045 C 
HETATM   20  C29 UNL     1      13.892  -4.072  97.199  1.00  0.00     0.045 C 
HETATM   21  C30 UNL     1      12.181  -4.019  99.050  1.00  0.00     0.045 C 
ENDBRANCH  17  18
ENDBRANCH  11  17
ENDBRANCH   7  10
ENDBRANCH   5   6
BRANCH   5  22
HETATM   22  C7  UNL     1      19.248  -5.060 103.281  1.00  0.00     0.176 C 
BRANCH  22  23
HETATM   23  C8  UNL     1      19.080  -4.431 104.523  1.00  0.00     0.178 C 
HETATM   24  O2  UNL     1      19.011  -4.544 105.707  1.00  0.00    -0.648 OA
HETATM   25  O3  UNL     1      18.924  -2.900 104.283  1.00  0.00    -0.648 OA
ENDBRANCH  22  23
ENDBRANCH   5  22
ENDBRANCH   1   5
BRANCH   3  26
HETATM   26  C10 UNL     1      19.532  -8.327 106.199  1.00  0.00    -0.009 C 
HETATM   27  C11 UNL     1      19.041  -8.630 107.584  1.00  0.00     0.070 C 
HETATM   28  C12 UNL     1      20.151  -9.539 108.164  1.00  0.00     0.277 C 
HETATM   29  N3  UNL     1      21.433  -8.924 108.208  1.00  0.00     0.096 N 
HETATM   30  C24 UNL     1      21.814  -8.412 106.933  1.00  0.00     0.277 C 
HETATM   31  C25 UNL     1      20.759  -7.493 106.291  1.00  0.00     0.070 C 
BRANCH  29  32
HETATM   32  C13 UNL     1      21.432  -8.022 109.302  1.00  0.00     0.356 C 
BRANCH  32  33
HETATM   33  C14 UNL     1      22.107  -8.506 110.539  1.00  0.00     0.188 C 
HETATM   34  O5  UNL     1      22.600  -9.556 110.694  1.00  0.00    -0.290 OA
BRANCH  33  35
HETATM   35  C15 UNL     1      22.060  -7.444 111.608  1.00  0.00     0.020 A 
HETATM   36  C16 UNL     1      20.768  -6.924 111.829  1.00  0.00     0.017 A 
HETATM   37  C17 UNL     1      20.656  -5.999 112.861  1.00  0.00     0.025 A 
HETATM   38  C18 UNL     1      21.695  -5.609 113.630  1.00  0.00     0.034 A 
HETATM   39 CL1  UNL     1      21.546  -4.503 114.968  1.00  0.00    -0.084 Cl
HETATM   40  C19 UNL     1      22.921  -6.163 113.354  1.00  0.00     0.033 A 
HETATM   41  C20 UNL     1      23.082  -7.051 112.361  1.00  0.00    -0.020 A 
BRANCH  41  42
HETATM   42  C21 UNL     1      24.454  -7.587 112.055  1.00  0.00     0.058 C 
HETATM   43  C22 UNL     1      25.455  -6.478 112.448  1.00  0.00     0.037 C 
HETATM   44  C23 UNL     1      24.823  -8.815 112.795  1.00  0.00     0.037 C 
HETATM   45 CL2  UNL     1      24.730  -7.716 110.263  1.00  0.00    -0.115 Cl
ENDBRANCH  41  42
ENDBRANCH  33  35
ENDBRANCH  32  33
ENDBRANCH  29  32
ENDBRANCH   3  26
TORSDOF 14
ENDMDL
MODEL 2
REMARK VINA RESULT: -9.092430865      1.281      1.742
REMARK  14 active torsions:
REMARK  status: ('A' for Active; 'I' for Inactive)
REMARK    1  A    between atoms: C2_2  and  C4_4 
REMARK    2  A    between atoms: C4_4  and  N1_5 
REMARK       I    between atoms: N1_5  and  C5_7 
REMARK    3  A    between atoms: C5_7  and  C6_9 
REMARK    4  A    between atoms: C6_9  and  C7_10 
REMARK    5  A    between atoms: C6_9  and  N2_14 
REMARK    6  A    between atoms: C7_10  and  C8_11 
REMARK       I    between atoms: N2_14  and  C9_16 
REMARK    7  A    between atoms: C9_16  and  C10_18 
REMARK    8  A    between atoms: N3_21  and  C13_22 
REMARK    9  A    between atoms: C13_22  and  C14_23 
REMARK   10  A    between atoms: C14_23  and  C15_25 
REMARK   11  A    between atoms: C20_31  and  C21_32 
REMARK   12  A    between atoms: C26_38  and  O6_39 
REMARK   13  A    between atoms: C26_38  and  O7_41 
REMARK   14  A    between atoms: O7_41  and  C27_42 
ROOT
HETATM    1  N2  UNL     1      19.005  -7.401 104.086  1.00  0.00    -0.322 N 
ATOM      2  H2  UNL     1      19.961  -7.045 104.106  1.00  0.00     0.169 HD
HETATM    3  C9  UNL     1      18.740  -8.372 105.067  1.00  0.00     0.248 C 
HETATM    4  O4  UNL     1      17.653  -9.014 104.978  1.00  0.00    -0.268 OA
ENDROOT
BRANCH   1   5
HETATM    5  C6  UNL     1      18.228  -6.842 103.109  1.00  0.00     0.090 C 
BRANCH   5   6
HETATM    6  C5  UNL     1      17.467  -6.298 102.151  1.00  0.00     0.269 C 
HETATM    7  N1  UNL     1      18.095  -5.501 100.924  1.00  0.00    -0.321 N 
ATOM      8  H1  UNL     1      19.080  -5.457 100.663  1.00  0.00     0.169 HD
HETATM    9  O1  UNL     1      16.249  -6.255 101.995  1.00  0.00    -0.266 OA
BRANCH   7  10
HETATM   10  C4  UNL     1      17.022  -4.870 100.271  1.00  0.00     0.074 C 
HETATM   11  C26 UNL     1      16.379  -4.692  99.131  1.00  0.00     0.202 C 
BRANCH  10  12
HETATM   12  C2  UNL     1      17.411  -3.347 100.838  1.00  0.00     0.032 C 
HETATM   13  C1  UNL     1      16.207  -2.685 101.240  1.00  0.00     0.016 C 
HETATM   14  C3  UNL     1      18.118  -2.809  99.616  1.00  0.00     0.016 C 
ENDBRANCH  10  12
BRANCH  11  15
HETATM   15  O6  UNL     1      17.007  -5.360  97.956  1.00  0.00    -0.339 OA
ATOM     16  H6  UNL     1      17.183  -4.784  97.221  1.00  0.00     0.220 HD
ENDBRANCH  11  15
BRANCH  11  17
HETATM   17  O7  UNL     1      15.380  -4.140  98.576  1.00  0.00    -0.319 OA
BRANCH  17  18
HETATM   18  C27 UNL     1      14.183  -3.702  98.331  1.00  0.00     0.059 C 
HETATM   19  C28 UNL     1      14.102  -2.150  98.267  1.00  0.00     0.045 C 
HETATM   20  C29 UNL     1      13.585  -4.109  96.945  1.00  0.00     0.045 C 
HETATM   21  C30 UNL     1      13.148  -4.096  99.428  1.00  0.00     0.045 C 
ENDBRANCH  17  18
ENDBRANCH  11  17
ENDBRANCH   7  10
ENDBRANCH   5   6
BRANCH   5  22
HETATM   22  C7  UNL     1      17.846  -5.486 104.247  1.00  0.00     0.176 C 
BRANCH  22  23
HETATM   23  C8  UNL     1      18.939  -4.609 104.190  1.00  0.00     0.178 C 
HETATM   24  O2  UNL     1      19.621  -3.894 103.524  1.00  0.00    -0.648 OA
HETATM   25  O3  UNL     1      19.546  -4.485 105.618  1.00  0.00    -0.648 OA
ENDBRANCH  22  23
ENDBRANCH   5  22
ENDBRANCH   1   5
BRANCH   3  26
HETATM   26  C10 UNL     1      19.671  -8.568 106.138  1.00  0.00    -0.009 C 
HETATM   27  C11 UNL     1      19.161  -8.944 107.498  1.00  0.00     0.070 C 
HETATM   28  C12 UNL     1      20.331  -9.754 108.105  1.00  0.00     0.277 C 
HETATM   29  N3  UNL     1      21.546  -9.021 108.208  1.00  0.00     0.096 N 
HETATM   30  C24 UNL     1      21.922  -8.450 106.957  1.00  0.00     0.277 C 
HETATM   31  C25 UNL     1      20.808  -7.624 106.290  1.00  0.00     0.070 C 
BRANCH  29  32
HETATM   32  C13 UNL     1      21.418  -8.144 109.315  1.00  0.00     0.356 C 
BRANCH  32  33
HETATM   33  C14 UNL     1      22.121  -8.568 110.559  1.00  0.00     0.188 C 
HETATM   34  O5  UNL     1      22.651  -9.596 110.739  1.00  0.00    -0.290 OA
BRANCH  33  35
HETATM   35  C15 UNL     1      22.047  -7.478 111.597  1.00  0.00     0.020 A 
HETATM   36  C16 UNL     1      20.746  -6.971 111.790  1.00  0.00     0.017 A 
HETATM   37  C17 UNL     1      20.610  -6.019 112.795  1.00  0.00     0.025 A 
HETATM   38  C18 UNL     1      21.635  -5.592 113.563  1.00  0.00     0.034 A 
HETATM   39 CL1  UNL     1      21.456  -4.451 114.867  1.00  0.00    -0.084 Cl
HETATM   40  C19 UNL     1      22.871  -6.136 113.315  1.00  0.00     0.033 A 
HETATM   41  C20 UNL     1      23.055  -7.050 112.350  1.00  0.00    -0.020 A 
BRANCH  41  42
HETATM   42  C21 UNL     1      24.438  -7.575 112.073  1.00  0.00     0.058 C 
HETATM   43  C22 UNL     1      25.421  -6.456 112.486  1.00  0.00     0.037 C 
HETATM   44  C23 UNL     1      24.801  -8.798 112.823  1.00  0.00     0.037 C 
HETATM   45 CL2  UNL     1      24.753  -7.703 110.287  1.00  0.00    -0.115 Cl
ENDBRANCH  41  42
ENDBRANCH  33  35
ENDBRANCH  32  33
ENDBRANCH  29  32
ENDBRANCH   3  26
TORSDOF 14
ENDMDL
MODEL 3
REMARK VINA RESULT: -8.776544100      1.241      1.918
REMARK  14 active torsions:
REMARK  status: ('A' for Active; 'I' for Inactive)
REMARK    1  A    between atoms: C2_2  and  C4_4 
REMARK    2  A    between atoms: C4_4  and  N1_5 
REMARK       I    between atoms: N1_5  and  C5_7 
REMARK    3  A    between atoms: C5_7  and  C6_9 
REMARK    4  A    between atoms: C6_9  and  C7_10 
REMARK    5  A    between atoms: C6_9  and  N2_14 
REMARK    6  A    between atoms: C7_10  and  C8_11 
REMARK       I    between atoms: N2_14  and  C9_16 
REMARK    7  A    between atoms: C9_16  and  C10_18 
REMARK    8  A    between atoms: N3_21  and  C13_22 
REMARK    9  A    between atoms: C13_22  and  C14_23 
REMARK   10  A    between atoms: C14_23  and  C15_25 
REMARK   11  A    between atoms: C20_31  and  C21_32 
REMARK   12  A    between atoms: C26_38  and  O6_39 
REMARK   13  A    between atoms: C26_38  and  O7_41 
REMARK   14  A    between atoms: O7_41  and  C27_42 
ROOT
HETATM    1  N2  UNL     1      19.098  -7.085 104.511  1.00  0.00    -0.322 N 
ATOM      2  H2  UNL     1      19.870  -6.485 104.802  1.00  0.00     0.169 HD
HETATM    3  C9  UNL     1      19.102  -8.351 105.120  1.00  0.00     0.248 C 
HETATM    4  O4  UNL     1      18.310  -9.226 104.660  1.00  0.00    -0.268 OA
ENDROOT
BRANCH   1   5
HETATM    5  C6  UNL     1      18.258  -6.502 103.601  1.00  0.00     0.090 C 
BRANCH   5   6
HETATM    6  C5  UNL     1      17.434  -5.934 102.711  1.00  0.00     0.269 C 
HETATM    7  N1  UNL     1      17.779  -5.875 101.158  1.00  0.00    -0.321 N 
ATOM      8  H1  UNL     1      18.533  -6.368 100.680  1.00  0.00     0.169 HD
HETATM    9  O1  UNL     1      16.352  -5.367 102.840  1.00  0.00    -0.266 OA
BRANCH   7  10
HETATM   10  C4  UNL     1      16.837  -5.008 100.577  1.00  0.00     0.074 C 
HETATM   11  C26 UNL     1      15.584  -4.843 100.195  1.00  0.00     0.202 C 
BRANCH  10  12
HETATM   12  C2  UNL     1      17.787  -4.670  99.245  1.00  0.00     0.032 C 
HETATM   13  C1  UNL     1      17.449  -5.584  98.196  1.00  0.00     0.016 C 
HETATM   14  C3  UNL     1      19.151  -4.824  99.877  1.00  0.00     0.016 C 
ENDBRANCH  10  12
BRANCH  11  15
HETATM   15  O6  UNL     1      14.723  -6.049 100.356  1.00  0.00    -0.339 OA
ATOM     16  H6  UNL     1      13.832  -5.865 100.631  1.00  0.00     0.220 HD
ENDBRANCH  11  15
BRANCH  11  17
HETATM   17  O7  UNL     1      14.746  -4.026  99.703  1.00  0.00    -0.319 OA
BRANCH  17  18
HETATM   18  C27 UNL     1      13.894  -3.450  98.910  1.00  0.00     0.059 C 
HETATM   19  C28 UNL     1      13.907  -4.035  97.470  1.00  0.00     0.045 C 
HETATM   20  C29 UNL     1      12.390  -3.609  99.305  1.00  0.00     0.045 C 
HETATM   21  C30 UNL     1      14.174  -1.930  98.710  1.00  0.00     0.045 C 
ENDBRANCH  17  18
ENDBRANCH  11  17
ENDBRANCH   7  10
ENDBRANCH   5   6
BRANCH   5  22
HETATM   22  C7  UNL     1      19.183  -4.957 103.800  1.00  0.00     0.176 C 
BRANCH  22  23
HETATM   23  C8  UNL     1      19.065  -4.603 105.151  1.00  0.00     0.178 C 
HETATM   24  O2  UNL     1      18.943  -4.966 106.280  1.00  0.00    -0.648 OA
HETATM   25  O3  UNL     1      19.129  -3.051 105.261  1.00  0.00    -0.648 OA
ENDBRANCH  22  23
ENDBRANCH   5  22
ENDBRANCH   1   5
BRANCH   3  26
HETATM   26  C10 UNL     1      19.955  -8.592 106.245  1.00  0.00    -0.009 C 
HETATM   27  C11 UNL     1      19.345  -8.793 107.601  1.00  0.00     0.070 C 
HETATM   28  C12 UNL     1      20.367  -9.707 108.318  1.00  0.00     0.277 C 
HETATM   29  N3  UNL     1      21.666  -9.140 108.430  1.00  0.00     0.096 N 
HETATM   30  C24 UNL     1      22.167  -8.720 107.163  1.00  0.00     0.277 C 
HETATM   31  C25 UNL     1      21.205  -7.802 106.388  1.00  0.00     0.070 C 
BRANCH  29  32
HETATM   32  C13 UNL     1      21.619  -8.174 109.468  1.00  0.00     0.356 C 
BRANCH  32  33
HETATM   33  C14 UNL     1      22.298  -8.557 110.738  1.00  0.00     0.188 C 
HETATM   34  O5  UNL     1      22.831  -9.575 110.959  1.00  0.00    -0.290 OA
BRANCH  33  35
HETATM   35  C15 UNL     1      22.195  -7.438 111.742  1.00  0.00     0.020 A 
HETATM   36  C16 UNL     1      20.877  -6.973 111.935  1.00  0.00     0.017 A 
HETATM   37  C17 UNL     1      20.717  -5.996 112.910  1.00  0.00     0.025 A 
HETATM   38  C18 UNL     1      21.734  -5.507 113.652  1.00  0.00     0.034 A 
HETATM   39 CL1  UNL     1      21.526  -4.332 114.922  1.00  0.00    -0.084 Cl
HETATM   40  C19 UNL     1      22.987  -6.012 113.407  1.00  0.00     0.033 A 
HETATM   41  C20 UNL     1      23.194  -6.949 112.468  1.00  0.00    -0.020 A 
BRANCH  41  42
HETATM   42  C21 UNL     1      24.593  -7.430 112.191  1.00  0.00     0.058 C 
HETATM   43  C22 UNL     1      25.543  -6.312 112.674  1.00  0.00     0.037 C 
HETATM   44  C23 UNL     1      24.971  -8.680 112.887  1.00  0.00     0.037 C 
HETATM   45 CL2  UNL     1      24.939  -7.465 110.407  1.00  0.00    -0.115 Cl
ENDBRANCH  41  42
ENDBRANCH  33  35
ENDBRANCH  32  33
ENDBRANCH  29  32
ENDBRANCH   3  26
TORSDOF 14
ENDMDL
MODEL 4
REMARK VINA RESULT: -8.508344622      1.483      2.648
REMARK  14 active torsions:
REMARK  status: ('A' for Active; 'I' for Inactive)
REMARK    1  A    between atoms: C2_2  and  C4_4 
REMARK    2  A    between atoms: C4_4  and  N1_5 
REMARK       I    between atoms: N1_5  and  C5_7 
REMARK    3  A    between atoms: C5_7  and  C6_9 
REMARK    4  A    between atoms: C6_9  and  C7_10 
REMARK    5  A    between atoms: C6_9  and  N2_14 
REMARK    6  A    between atoms: C7_10  and  C8_11 
REMARK       I    between atoms: N2_14  and  C9_16 
REMARK    7  A    between atoms: C9_16  and  C10_18 
REMARK    8  A    between atoms: N3_21  and  C13_22 
REMARK    9  A    between atoms: C13_22  and  C14_23 
REMARK   10  A    between atoms: C14_23  and  C15_25 
REMARK   11  A    between atoms: C20_31  and  C21_32 
REMARK   12  A    between atoms: C26_38  and  O6_39 
REMARK   13  A    between atoms: C26_38  and  O7_41 
REMARK   14  A    between atoms: O7_41  and  C27_42 
ROOT
HETATM    1  N2  UNL     1      18.167  -6.778 105.243  1.00  0.00    -0.322 N 
ATOM      2  H2  UNL     1      17.892  -7.726 105.502  1.00  0.00     0.169 HD
HETATM    3  C9  UNL     1      19.168  -6.233 106.066  1.00  0.00     0.248 C 
HETATM    4  O4  UNL     1      19.415  -4.997 105.948  1.00  0.00    -0.268 OA
ENDROOT
BRANCH   1   5
HETATM    5  C6  UNL     1      17.492  -6.282 104.162  1.00  0.00     0.090 C 
BRANCH   5   6
HETATM    6  C5  UNL     1      16.832  -5.794 103.104  1.00  0.00     0.269 C 
HETATM    7  N1  UNL     1      17.487  -5.732 101.654  1.00  0.00    -0.321 N 
ATOM      8  H1  UNL     1      18.358  -6.171 101.357  1.00  0.00     0.169 HD
HETATM    9  O1  UNL     1      15.707  -5.312 102.988  1.00  0.00    -0.266 OA
BRANCH   7  10
HETATM   10  C4  UNL     1      16.625  -4.951 100.864  1.00  0.00     0.074 C 
HETATM   11  C26 UNL     1      15.431  -4.852 100.308  1.00  0.00     0.202 C 
BRANCH  10  12
HETATM   12  C2  UNL     1      17.739  -4.743  99.636  1.00  0.00     0.032 C 
HETATM   13  C1  UNL     1      17.426  -5.651  98.574  1.00  0.00     0.016 C 
HETATM   14  C3  UNL     1      19.007  -5.007 100.415  1.00  0.00     0.016 C 
ENDBRANCH  10  12
BRANCH  11  15
HETATM   15  O6  UNL     1      14.562  -6.049 100.489  1.00  0.00    -0.339 OA
ATOM     16  H6  UNL     1      14.518  -6.623  99.734  1.00  0.00     0.220 HD
ENDBRANCH  11  15
BRANCH  11  17
HETATM   17  O7  UNL     1      14.662  -4.109  99.625  1.00  0.00    -0.319 OA
BRANCH  17  18
HETATM   18  C27 UNL     1      14.178  -3.356  98.684  1.00  0.00     0.059 C 
HETATM   19  C28 UNL     1      14.395  -3.943  97.260  1.00  0.00     0.045 C 
HETATM   20  C29 UNL     1      12.628  -3.154  98.711  1.00  0.00     0.045 C 
HETATM   21  C30 UNL     1      14.839  -1.946  98.624  1.00  0.00     0.045 C 
ENDBRANCH  17  18
ENDBRANCH  11  17
ENDBRANCH   7  10
ENDBRANCH   5   6
BRANCH   5  22
HETATM   22  C7  UNL     1      16.866  -7.951 103.840  1.00  0.00     0.176 C 
BRANCH  22  23
HETATM   23  C8  UNL     1      17.989  -8.738 103.547  1.00  0.00     0.178 C 
HETATM   24  O2  UNL     1      19.114  -8.781 103.157  1.00  0.00    -0.648 OA
HETATM   25  O3  UNL     1      17.650 -10.222 103.877  1.00  0.00    -0.648 OA
ENDBRANCH  22  23
ENDBRANCH   5  22
ENDBRANCH   1   5
BRANCH   3  26
HETATM   26  C10 UNL     1      19.889  -7.087 106.962  1.00  0.00    -0.009 C 
HETATM   27  C11 UNL     1      19.927  -6.754 108.425  1.00  0.00     0.070 C 
HETATM   28  C12 UNL     1      20.083  -8.138 109.100  1.00  0.00     0.277 C 
HETATM   29  N3  UNL     1      21.260  -8.837 108.712  1.00  0.00     0.096 N 
HETATM   30  C24 UNL     1      21.359  -8.952 107.294  1.00  0.00     0.277 C 
HETATM   31  C25 UNL     1      21.216  -7.613 106.550  1.00  0.00     0.070 C 
BRANCH  29  32
HETATM   32  C13 UNL     1      22.350  -8.244 109.398  1.00  0.00     0.356 C 
BRANCH  32  33
HETATM   33  C14 UNL     1      22.544  -8.686 110.807  1.00  0.00     0.188 C 
HETATM   34  O5  UNL     1      22.749  -9.780 111.169  1.00  0.00    -0.290 OA
BRANCH  33  35
HETATM   35  C15 UNL     1      22.423  -7.511 111.744  1.00  0.00     0.020 A 
HETATM   36  C16 UNL     1      21.100  -7.051 111.903  1.00  0.00     0.017 A 
HETATM   37  C17 UNL     1      20.924  -6.019 112.819  1.00  0.00     0.025 A 
HETATM   38  C18 UNL     1      21.931  -5.476 113.535  1.00  0.00     0.034 A 
HETATM   39 CL1  UNL     1      21.705  -4.231 114.733  1.00  0.00    -0.084 Cl
HETATM   40  C19 UNL     1      23.192  -5.980 113.324  1.00  0.00     0.033 A 
HETATM   41  C20 UNL     1      23.414  -6.968 112.443  1.00  0.00    -0.020 A 
BRANCH  41  42
HETATM   42  C21 UNL     1      24.819  -7.448 112.201  1.00  0.00     0.058 C 
HETATM   43  C22 UNL     1      25.757  -6.330 112.708  1.00  0.00     0.037 C 
HETATM   44  C23 UNL     1      25.180  -8.699 112.905  1.00  0.00     0.037 C 
HETATM   45 CL2  UNL     1      25.210  -7.482 110.426  1.00  0.00    -0.115 Cl
ENDBRANCH  41  42
ENDBRANCH  33  35
ENDBRANCH  32  33
ENDBRANCH  29  32
ENDBRANCH   3  26
TORSDOF 14
ENDMDL
MODEL 5
REMARK VINA RESULT: -8.484828358      1.944      3.058
REMARK  14 active torsions:
REMARK  status: ('A' for Active; 'I' for Inactive)
REMARK    1  A    between atoms: C2_2  and  C4_4 
REMARK    2  A    between atoms: C4_4  and  N1_5 
REMARK       I    between atoms: N1_5  and  C5_7 
REMARK    3  A    between atoms: C5_7  and  C6_9 
REMARK    4  A    between atoms: C6_9  and  C7_10 
REMARK    5  A    between atoms: C6_9  and  N2_14 
REMARK    6  A    between atoms: C7_10  and  C8_11 
REMARK       I    between atoms: N2_14  and  C9_16 
REMARK    7  A    between atoms: C9_16  and  C10_18 
REMARK    8  A    between atoms: N3_21  and  C13_22 
REMARK    9  A    between atoms: C13_22  and  C14_23 
REMARK   10  A    between atoms: C14_23  and  C15_25 
REMARK   11  A    between atoms: C20_31  and  C21_32 
REMARK   12  A    between atoms: C26_38  and  O6_39 
REMARK   13  A    between atoms: C26_38  and  O7_41 
REMARK   14  A    between atoms: O7_41  and  C27_42 
ROOT
HETATM    1  N2  UNL     1      18.764  -6.465 104.617  1.00  0.00    -0.322 N 
ATOM      2  H2  UNL     1      18.583  -7.467 104.677  1.00  0.00     0.169 HD
HETATM    3  C9  UNL     1      19.377  -5.929 105.762  1.00  0.00     0.248 C 
HETATM    4  O4  UNL     1      19.444  -4.668 105.856  1.00  0.00    -0.268 OA
ENDROOT
BRANCH   1   5
HETATM    5  C6  UNL     1      18.365  -5.901 103.436  1.00  0.00     0.090 C 
BRANCH   5   6
HETATM    6  C5  UNL     1      17.975  -5.347 102.281  1.00  0.00     0.269 C 
HETATM    7  N1  UNL     1      18.863  -5.429 100.962  1.00  0.00    -0.321 N 
ATOM      8  H1  UNL     1      19.691  -6.006 100.818  1.00  0.00     0.169 HD
HETATM    9  O1  UNL     1      16.975  -4.701 101.976  1.00  0.00    -0.266 OA
BRANCH   7  10
HETATM   10  C4  UNL     1      18.279  -4.547 100.037  1.00  0.00     0.074 C 
HETATM   11  C26 UNL     1      17.565  -4.426  98.932  1.00  0.00     0.202 C 
BRANCH  10  12
HETATM   12  C2  UNL     1      19.685  -3.679  99.790  1.00  0.00     0.032 C 
HETATM   13  C1  UNL     1      20.788  -4.437 100.298  1.00  0.00     0.016 C 
HETATM   14  C3  UNL     1      19.320  -2.414 100.532  1.00  0.00     0.016 C 
ENDBRANCH  10  12
BRANCH  11  15
HETATM   15  O6  UNL     1      17.223  -5.718  98.272  1.00  0.00    -0.339 OA
ATOM     16  H6  UNL     1      16.413  -5.706  97.775  1.00  0.00     0.220 HD
ENDBRANCH  11  15
BRANCH  11  17
HETATM   17  O7  UNL     1      17.016  -3.607  98.134  1.00  0.00    -0.319 OA
BRANCH  17  18
HETATM   18  C27 UNL     1      16.588  -2.514  97.577  1.00  0.00     0.059 C 
HETATM   19  C28 UNL     1      16.250  -1.398  98.606  1.00  0.00     0.045 C 
HETATM   20  C29 UNL     1      17.609  -1.787  96.644  1.00  0.00     0.045 C 
HETATM   21  C30 UNL     1      15.267  -2.711  96.774  1.00  0.00     0.045 C 
ENDBRANCH  17  18
ENDBRANCH  11  17
ENDBRANCH   7  10
ENDBRANCH   5   6
BRANCH   5  22
HETATM   22  C7  UNL     1      17.424  -7.409 103.083  1.00  0.00     0.176 C 
BRANCH  22  23
HETATM   23  C8  UNL     1      16.618  -7.638 104.207  1.00  0.00     0.178 C 
HETATM   24  O2  UNL     1      15.670  -7.307 104.850  1.00  0.00    -0.648 OA
HETATM   25  O3  UNL     1      17.176  -8.876 104.969  1.00  0.00    -0.648 OA
ENDBRANCH  22  23
ENDBRANCH   5  22
ENDBRANCH   1   5
BRANCH   3  26
HETATM   26  C10 UNL     1      19.932  -6.810 106.746  1.00  0.00    -0.009 C 
HETATM   27  C11 UNL     1      20.004  -6.365 108.177  1.00  0.00     0.070 C 
HETATM   28  C12 UNL     1      19.917  -7.693 108.967  1.00  0.00     0.277 C 
HETATM   29  N3  UNL     1      20.965  -8.608 108.671  1.00  0.00     0.096 N 
HETATM   30  C24 UNL     1      21.064  -8.859 107.271  1.00  0.00     0.277 C 
HETATM   31  C25 UNL     1      21.158  -7.583 106.416  1.00  0.00     0.070 C 
BRANCH  29  32
HETATM   32  C13 UNL     1      22.129  -8.147 109.337  1.00  0.00     0.356 C 
BRANCH  32  33
HETATM   33  C14 UNL     1      22.326  -8.658 110.722  1.00  0.00     0.188 C 
HETATM   34  O5  UNL     1      22.506  -9.773 111.031  1.00  0.00    -0.290 OA
BRANCH  33  35
HETATM   35  C15 UNL     1      22.245  -7.524 111.713  1.00  0.00     0.020 A 
HETATM   36  C16 UNL     1      20.936  -7.038 111.907  1.00  0.00     0.017 A 
HETATM   37  C17 UNL     1      20.796  -6.046 112.871  1.00  0.00     0.025 A 
HETATM   38  C18 UNL     1      21.824  -5.561 113.600  1.00  0.00     0.034 A 
HETATM   39 CL1  UNL     1      21.642  -4.367 114.855  1.00  0.00    -0.084 Cl
HETATM   40  C19 UNL     1      23.068  -6.087 113.353  1.00  0.00     0.033 A 
HETATM   41  C20 UNL     1      23.256  -7.039 112.425  1.00  0.00    -0.020 A 
BRANCH  41  42
HETATM   42  C21 UNL     1      24.646  -7.544 112.146  1.00  0.00     0.058 C 
HETATM   43  C22 UNL     1      25.616  -6.438 112.619  1.00  0.00     0.037 C 
HETATM   44  C23 UNL     1      25.007  -8.796 112.848  1.00  0.00     0.037 C 
HETATM   45 CL2  UNL     1      24.985  -7.595 110.360  1.00  0.00    -0.115 Cl
ENDBRANCH  41  42
ENDBRANCH  33  35
ENDBRANCH  32  33
ENDBRANCH  29  32
ENDBRANCH   3  26
TORSDOF 14
ENDMDL
