MODEL 1
REMARK VINA RESULT: -8.716921712      0.000      0.000
REMARK  15 active torsions:
REMARK  status: ('A' for Active; 'I' for Inactive)
REMARK    1  A    between atoms: C2_2  and  C4_4 
REMARK    2  A    between atoms: C4_4  and  C5_5 
REMARK    3  A    between atoms: C5_5  and  N1_6 
REMARK    4  A    between atoms: C5_5  and  C12_17 
REMARK       I    between atoms: N1_6  and  C6_8 
REMARK    5  A    between atoms: C6_8  and  C7_10 
REMARK    6  A    between atoms: C7_10  and  O3_12 
REMARK    7  A    between atoms: O3_12  and  C8_13 
REMARK    8  A    between atoms: C12_17  and  N2_18 
REMARK    9  A    between atoms: C12_17  and  S1_34 
REMARK   10  A    between atoms: N2_18  and  C13_20 
REMARK   11  A    between atoms: C13_20  and  C14_21 
REMARK   12  A    between atoms: C13_20  and  C19_26 
REMARK   13  A    between atoms: C14_21  and  C15_22 
REMARK       I    between atoms: C19_26  and  N3_28 
REMARK   14  A    between atoms: N3_28  and  C20_30 
REMARK   15  A    between atoms: S1_34  and  C24_37 
ROOT
HETATM    1  C12 UNL     1      18.607  -6.216 104.529  1.00  0.00     0.229 C 
ENDROOT
BRANCH   1   2
HETATM    2  C5  UNL     1      17.248  -6.807 104.571  1.00  0.00     0.122 C 
BRANCH   2   3
HETATM    3  C4  UNL     1      17.242  -8.307 104.669  1.00  0.00     0.032 C 
BRANCH   3   4
HETATM    4  C2  UNL     1      17.700  -9.120 103.525  1.00  0.00    -0.021 C 
HETATM    5  C1  UNL     1      19.063  -8.852 103.017  1.00  0.00     0.009 C 
HETATM    6  C3  UNL     1      17.675 -10.587 104.014  1.00  0.00     0.009 C 
ENDBRANCH   3   4
ENDBRANCH   2   3
BRANCH   2   7
HETATM    7  N1  UNL     1      16.316  -6.319 103.644  1.00  0.00    -0.345 N 
HETATM    8  C6  UNL     1      14.900  -6.273 103.949  1.00  0.00     0.317 C 
HETATM    9  O1  UNL     1      14.530  -6.685 105.064  1.00  0.00    -0.262 OA
ATOM     10  H1  UNL     1      16.642  -5.988 102.736  1.00  0.00     0.163 HD
BRANCH   8  11
HETATM   11  C7  UNL     1      13.915  -5.767 103.008  1.00  0.00     0.352 C 
HETATM   12  O2  UNL     1      12.803  -6.379 102.891  1.00  0.00    -0.254 OA
BRANCH  11  13
HETATM   13  O3  UNL     1      14.101  -4.662 102.231  1.00  0.00    -0.304 OA
BRANCH  13  14
HETATM   14  C8  UNL     1      14.414  -4.606 100.874  1.00  0.00     0.060 C 
HETATM   15  C9  UNL     1      15.266  -3.347 100.664  1.00  0.00     0.046 C 
HETATM   16  C10 UNL     1      13.171  -4.390 100.008  1.00  0.00     0.046 C 
HETATM   17  C11 UNL     1      15.216  -5.767 100.384  1.00  0.00     0.046 C 
ENDBRANCH  13  14
ENDBRANCH  11  13
ENDBRANCH   8  11
ENDBRANCH   2   7
ENDBRANCH   1   2
BRANCH   1  18
HETATM   18  N2  UNL     1      18.625  -4.879 104.007  1.00  0.00    -0.391 N 
ATOM     19  H2  UNL     1      18.001  -4.185 104.421  1.00  0.00     0.155 HD
BRANCH  18  20
HETATM   20  C13 UNL     1      19.449  -4.493 102.971  1.00  0.00     0.171 C 
BRANCH  20  21
HETATM   21  C14 UNL     1      18.498  -4.458 101.707  1.00  0.00     0.039 C 
BRANCH  21  22
HETATM   22  C15 UNL     1      19.030  -5.434 100.684  1.00  0.00    -0.012 C 
HETATM   23  C16 UNL     1      20.449  -5.085 100.216  1.00  0.00     0.005 C 
HETATM   24  C17 UNL     1      19.974  -5.416  98.818  1.00  0.00     0.001 C 
HETATM   25  C18 UNL     1      18.563  -5.049  99.297  1.00  0.00     0.005 C 
ENDBRANCH  21  22
ENDBRANCH  20  21
BRANCH  20  26
HETATM   26  C19 UNL     1      19.931  -3.085 103.005  1.00  0.00     0.240 C 
HETATM   27  O4  UNL     1      19.519  -2.262 103.858  1.00  0.00    -0.271 OA
HETATM   28  N3  UNL     1      20.879  -2.665 102.054  1.00  0.00    -0.351 N 
ATOM     29  H3  UNL     1      21.205  -3.352 101.375  1.00  0.00     0.163 HD
BRANCH  28  30
HETATM   30  C20 UNL     1      21.421  -1.330 101.971  1.00  0.00     0.022 C 
HETATM   31  C21 UNL     1      22.254  -1.066 103.195  1.00  0.00     0.037 C 
HETATM   32  C22 UNL     1      22.379  -1.214 100.776  1.00  0.00     0.037 C 
HETATM   33  C23 UNL     1      20.394  -0.265 101.796  1.00  0.00     0.037 C 
ENDBRANCH  28  30
ENDBRANCH  20  26
ENDBRANCH  18  20
ENDBRANCH   1  18
BRANCH   1  34
HETATM   34  S1  UNL     1      19.214  -5.900 106.211  1.00  0.00     0.198 S 
HETATM   35  O5  UNL     1      20.040  -4.618 106.183  1.00  0.00    -0.220 OA
HETATM   36  O6  UNL     1      17.999  -5.539 107.068  1.00  0.00    -0.220 OA
BRANCH  34  37
HETATM   37  C24 UNL     1      20.111  -7.114 106.969  1.00  0.00     0.063 A 
HETATM   38  C25 UNL     1      20.468  -8.240 106.243  1.00  0.00     0.025 A 
HETATM   39  C26 UNL     1      21.172  -9.275 106.793  1.00  0.00     0.027 A 
HETATM   40  C27 UNL     1      21.565  -9.254 108.106  1.00  0.00     0.055 A 
HETATM   41 CL1  UNL     1      22.475 -10.577 108.836  1.00  0.00    -0.083 Cl
HETATM   42  C28 UNL     1      21.214  -8.136 108.835  1.00  0.00     0.057 A 
HETATM   43 CL2  UNL     1      21.703  -8.074 110.535  1.00  0.00    -0.083 Cl
HETATM   44  C29 UNL     1      20.510  -7.089 108.306  1.00  0.00     0.049 A 
ENDBRANCH  34  37
ENDBRANCH   1  34
TORSDOF 15
ENDMDL
MODEL 2
REMARK VINA RESULT: -8.573251019      4.768      8.639
REMARK  15 active torsions:
REMARK  status: ('A' for Active; 'I' for Inactive)
REMARK    1  A    between atoms: C2_2  and  C4_4 
REMARK    2  A    between atoms: C4_4  and  C5_5 
REMARK    3  A    between atoms: C5_5  and  N1_6 
REMARK    4  A    between atoms: C5_5  and  C12_17 
REMARK       I    between atoms: N1_6  and  C6_8 
REMARK    5  A    between atoms: C6_8  and  C7_10 
REMARK    6  A    between atoms: C7_10  and  O3_12 
REMARK    7  A    between atoms: O3_12  and  C8_13 
REMARK    8  A    between atoms: C12_17  and  N2_18 
REMARK    9  A    between atoms: C12_17  and  S1_34 
REMARK   10  A    between atoms: N2_18  and  C13_20 
REMARK   11  A    between atoms: C13_20  and  C14_21 
REMARK   12  A    between atoms: C13_20  and  C19_26 
REMARK   13  A    between atoms: C14_21  and  C15_22 
REMARK       I    between atoms: C19_26  and  N3_28 
REMARK   14  A    between atoms: N3_28  and  C20_30 
REMARK   15  A    between atoms: S1_34  and  C24_37 
ROOT
HETATM    1  C12 UNL     1      18.461  -3.576 100.839  1.00  0.00     0.229 C 
ENDROOT
BRANCH   1   2
HETATM    2  C5  UNL     1      19.611  -3.800 101.748  1.00  0.00     0.122 C 
BRANCH   2   3
HETATM    3  C4  UNL     1      20.923  -3.971 101.036  1.00  0.00     0.032 C 
BRANCH   3   4
HETATM    4  C2  UNL     1      21.817  -2.810 100.856  1.00  0.00    -0.021 C 
HETATM    5  C1  UNL     1      22.356  -2.183 102.082  1.00  0.00     0.009 C 
HETATM    6  C3  UNL     1      23.025  -3.331 100.042  1.00  0.00     0.009 C 
ENDBRANCH   3   4
ENDBRANCH   2   3
BRANCH   2   7
HETATM    7  N1  UNL     1      19.427  -4.728 102.783  1.00  0.00    -0.345 N 
HETATM    8  C6  UNL     1      19.293  -4.305 104.162  1.00  0.00     0.317 C 
HETATM    9  O1  UNL     1      19.348  -3.086 104.406  1.00  0.00    -0.262 OA
ATOM     10  H1  UNL     1      19.388  -5.723 102.560  1.00  0.00     0.163 HD
BRANCH   8  11
HETATM   11  C7  UNL     1      19.097  -5.247 105.252  1.00  0.00     0.352 C 
HETATM   12  O2  UNL     1      19.782  -5.107 106.318  1.00  0.00    -0.254 OA
BRANCH  11  13
HETATM   13  O3  UNL     1      18.216  -6.287 105.211  1.00  0.00    -0.304 OA
BRANCH  13  14
HETATM   14  C8  UNL     1      18.427  -7.577 104.730  1.00  0.00     0.060 C 
HETATM   15  C9  UNL     1      17.197  -8.407 105.123  1.00  0.00     0.046 C 
HETATM   16  C10 UNL     1      19.604  -8.263 105.426  1.00  0.00     0.046 C 
HETATM   17  C11 UNL     1      18.558  -7.661 103.244  1.00  0.00     0.046 C 
ENDBRANCH  13  14
ENDBRANCH  11  13
ENDBRANCH   8  11
ENDBRANCH   2   7
ENDBRANCH   1   2
BRANCH   1  18
HETATM   18  N2  UNL     1      17.233  -4.127 101.336  1.00  0.00    -0.391 N 
ATOM     19  H2  UNL     1      16.928  -3.873 102.276  1.00  0.00     0.155 HD
BRANCH  18  20
HETATM   20  C13 UNL     1      16.446  -4.984 100.596  1.00  0.00     0.171 C 
BRANCH  20  21
HETATM   21  C14 UNL     1      15.014  -4.873 101.258  1.00  0.00     0.039 C 
BRANCH  21  22
HETATM   22  C15 UNL     1      14.778  -6.110 102.093  1.00  0.00    -0.012 C 
HETATM   23  C16 UNL     1      13.324  -6.234 102.567  1.00  0.00     0.005 C 
HETATM   24  C17 UNL     1      13.891  -6.651 103.908  1.00  0.00     0.001 C 
HETATM   25  C18 UNL     1      15.144  -5.847 103.537  1.00  0.00     0.005 C 
ENDBRANCH  21  22
ENDBRANCH  20  21
BRANCH  20  26
HETATM   26  C19 UNL     1      16.148  -4.561  99.200  1.00  0.00     0.240 C 
HETATM   27  O4  UNL     1      16.630  -5.159  98.207  1.00  0.00    -0.271 OA
HETATM   28  N3  UNL     1      15.298  -3.461  98.986  1.00  0.00    -0.351 N 
ATOM     29  H3  UNL     1      14.911  -2.994  99.807  1.00  0.00     0.163 HD
BRANCH  28  30
HETATM   30  C20 UNL     1      14.935  -2.945  97.689  1.00  0.00     0.022 C 
HETATM   31  C21 UNL     1      13.962  -3.892  97.042  1.00  0.00     0.037 C 
HETATM   32  C22 UNL     1      14.190  -1.609  97.832  1.00  0.00     0.037 C 
HETATM   33  C23 UNL     1      16.094  -2.688  96.788  1.00  0.00     0.037 C 
ENDBRANCH  28  30
ENDBRANCH  20  26
ENDBRANCH  18  20
ENDBRANCH   1  18
BRANCH   1  34
HETATM   34  S1  UNL     1      18.018  -1.816 100.799  1.00  0.00     0.198 S 
HETATM   35  O5  UNL     1      16.578  -1.680 101.282  1.00  0.00    -0.220 OA
HETATM   36  O6  UNL     1      18.839  -1.118 101.886  1.00  0.00    -0.220 OA
BRANCH  34  37
HETATM   37  C24 UNL     1      18.185  -0.990  99.335  1.00  0.00     0.063 A 
HETATM   38  C25 UNL     1      17.262  -0.011  99.005  1.00  0.00     0.025 A 
HETATM   39  C26 UNL     1      17.316   0.683  97.827  1.00  0.00     0.027 A 
HETATM   40  C27 UNL     1      18.296   0.442  96.901  1.00  0.00     0.055 A 
HETATM   41 CL1  UNL     1      18.386   1.325  95.377  1.00  0.00    -0.083 Cl
HETATM   42  C28 UNL     1      19.220  -0.533  97.222  1.00  0.00     0.057 A 
HETATM   43 CL2  UNL     1      20.500  -0.873  96.048  1.00  0.00    -0.083 Cl
HETATM   44  C29 UNL     1      19.185  -1.238  98.393  1.00  0.00     0.049 A 
ENDBRANCH  34  37
ENDBRANCH   1  34
TORSDOF 15
ENDMDL
MODEL 3
REMARK VINA RESULT: -8.557457082      3.807      7.857
REMARK  15 active torsions:
REMARK  status: ('A' for Active; 'I' for Inactive)
REMARK    1  A    between atoms: C2_2  and  C4_4 
REMARK    2  A    between atoms: C4_4  and  C5_5 
REMARK    3  A    between atoms: C5_5  and  N1_6 
REMARK    4  A    between atoms: C5_5  and  C12_17 
REMARK       I    between atoms: N1_6  and  C6_8 
REMARK    5  A    between atoms: C6_8  and  C7_10 
REMARK    6  A    between atoms: C7_10  and  O3_12 
REMARK    7  A    between atoms: O3_12  and  C8_13 
REMARK    8  A    between atoms: C12_17  and  N2_18 
REMARK    9  A    between atoms: C12_17  and  S1_34 
REMARK   10  A    between atoms: N2_18  and  C13_20 
REMARK   11  A    between atoms: C13_20  and  C14_21 
REMARK   12  A    between atoms: C13_20  and  C19_26 
REMARK   13  A    between atoms: C14_21  and  C15_22 
REMARK       I    between atoms: C19_26  and  N3_28 
REMARK   14  A    between atoms: N3_28  and  C20_30 
REMARK   15  A    between atoms: S1_34  and  C24_37 
ROOT
HETATM    1  C12 UNL     1      18.431  -3.569 100.514  1.00  0.00     0.229 C 
ENDROOT
BRANCH   1   2
HETATM    2  C5  UNL     1      19.567  -4.036 101.345  1.00  0.00     0.122 C 
BRANCH   2   3
HETATM    3  C4  UNL     1      20.728  -4.560 100.547  1.00  0.00     0.032 C 
BRANCH   3   4
HETATM    4  C2  UNL     1      21.522  -3.635  99.713  1.00  0.00    -0.021 C 
HETATM    5  C1  UNL     1      22.800  -3.154 100.279  1.00  0.00     0.009 C 
HETATM    6  C3  UNL     1      21.861  -4.418  98.423  1.00  0.00     0.009 C 
ENDBRANCH   3   4
ENDBRANCH   2   3
BRANCH   2   7
HETATM    7  N1  UNL     1      19.255  -4.845 102.447  1.00  0.00    -0.345 N 
HETATM    8  C6  UNL     1      19.287  -4.325 103.799  1.00  0.00     0.317 C 
HETATM    9  O1  UNL     1      19.605  -3.133 103.958  1.00  0.00    -0.262 OA
ATOM     10  H1  UNL     1      19.000  -5.821 102.293  1.00  0.00     0.163 HD
BRANCH   8  11
HETATM   11  C7  UNL     1      18.962  -5.142 104.958  1.00  0.00     0.352 C 
HETATM   12  O2  UNL     1      19.551  -4.904 106.063  1.00  0.00    -0.254 OA
BRANCH  11  13
HETATM   13  O3  UNL     1      18.056  -6.160 104.941  1.00  0.00    -0.304 OA
BRANCH  13  14
HETATM   14  C8  UNL     1      18.275  -7.504 104.644  1.00  0.00     0.060 C 
HETATM   15  C9  UNL     1      16.999  -8.261 105.036  1.00  0.00     0.046 C 
HETATM   16  C10 UNL     1      19.377  -8.111 105.514  1.00  0.00     0.046 C 
HETATM   17  C11 UNL     1      18.522  -7.777 103.196  1.00  0.00     0.046 C 
ENDBRANCH  13  14
ENDBRANCH  11  13
ENDBRANCH   8  11
ENDBRANCH   2   7
ENDBRANCH   1   2
BRANCH   1  18
HETATM   18  N2  UNL     1      17.158  -4.030 100.989  1.00  0.00    -0.391 N 
ATOM     19  H2  UNL     1      16.845  -3.734 101.913  1.00  0.00     0.155 HD
BRANCH  18  20
HETATM   20  C13 UNL     1      16.340  -4.856 100.247  1.00  0.00     0.171 C 
BRANCH  20  21
HETATM   21  C14 UNL     1      14.928  -4.744 100.951  1.00  0.00     0.039 C 
BRANCH  21  22
HETATM   22  C15 UNL     1      14.741  -5.952 101.839  1.00  0.00    -0.012 C 
HETATM   23  C16 UNL     1      13.293  -6.114 102.320  1.00  0.00     0.005 C 
HETATM   24  C17 UNL     1      13.874  -6.449 103.676  1.00  0.00     0.001 C 
HETATM   25  C18 UNL     1      15.094  -5.612 103.270  1.00  0.00     0.005 C 
ENDBRANCH  21  22
ENDBRANCH  20  21
BRANCH  20  26
HETATM   26  C19 UNL     1      16.010  -4.392  98.872  1.00  0.00     0.240 C 
HETATM   27  O4  UNL     1      16.533  -4.906  97.853  1.00  0.00    -0.271 OA
HETATM   28  N3  UNL     1      15.083  -3.347  98.708  1.00  0.00    -0.351 N 
ATOM     29  H3  UNL     1      14.664  -2.948  99.549  1.00  0.00     0.163 HD
BRANCH  28  30
HETATM   30  C20 UNL     1      14.682  -2.798  97.435  1.00  0.00     0.022 C 
HETATM   31  C21 UNL     1      13.843  -3.813  96.710  1.00  0.00     0.037 C 
HETATM   32  C22 UNL     1      13.778  -1.573  97.641  1.00  0.00     0.037 C 
HETATM   33  C23 UNL     1      15.817  -2.349  96.581  1.00  0.00     0.037 C 
ENDBRANCH  28  30
ENDBRANCH  20  26
ENDBRANCH  18  20
ENDBRANCH   1  18
BRANCH   1  34
HETATM   34  S1  UNL     1      18.202  -1.778 100.702  1.00  0.00     0.198 S 
HETATM   35  O5  UNL     1      17.296  -1.296  99.574  1.00  0.00    -0.220 OA
HETATM   36  O6  UNL     1      17.366  -1.560 101.965  1.00  0.00    -0.220 OA
BRANCH  34  37
HETATM   37  C24 UNL     1      19.581  -0.805 100.751  1.00  0.00     0.063 A 
HETATM   38  C25 UNL     1      19.887  -0.015  99.653  1.00  0.00     0.025 A 
HETATM   39  C26 UNL     1      20.999   0.780  99.607  1.00  0.00     0.027 A 
HETATM   40  C27 UNL     1      21.879   0.838 100.656  1.00  0.00     0.055 A 
HETATM   41 CL1  UNL     1      23.318   1.857 100.619  1.00  0.00    -0.083 Cl
HETATM   42  C28 UNL     1      21.582   0.054 101.752  1.00  0.00     0.057 A 
HETATM   43 CL2  UNL     1      22.699   0.101 103.125  1.00  0.00    -0.083 Cl
HETATM   44  C29 UNL     1      20.476  -0.749 101.820  1.00  0.00     0.049 A 
ENDBRANCH  34  37
ENDBRANCH   1  34
TORSDOF 15
ENDMDL
MODEL 4
REMARK VINA RESULT: -8.519610434      4.445      7.800
REMARK  15 active torsions:
REMARK  status: ('A' for Active; 'I' for Inactive)
REMARK    1  A    between atoms: C2_2  and  C4_4 
REMARK    2  A    between atoms: C4_4  and  C5_5 
REMARK    3  A    between atoms: C5_5  and  N1_6 
REMARK    4  A    between atoms: C5_5  and  C12_17 
REMARK       I    between atoms: N1_6  and  C6_8 
REMARK    5  A    between atoms: C6_8  and  C7_10 
REMARK    6  A    between atoms: C7_10  and  O3_12 
REMARK    7  A    between atoms: O3_12  and  C8_13 
REMARK    8  A    between atoms: C12_17  and  N2_18 
REMARK    9  A    between atoms: C12_17  and  S1_34 
REMARK   10  A    between atoms: N2_18  and  C13_20 
REMARK   11  A    between atoms: C13_20  and  C14_21 
REMARK   12  A    between atoms: C13_20  and  C19_26 
REMARK   13  A    between atoms: C14_21  and  C15_22 
REMARK       I    between atoms: C19_26  and  N3_28 
REMARK   14  A    between atoms: N3_28  and  C20_30 
REMARK   15  A    between atoms: S1_34  and  C24_37 
ROOT
HETATM    1  C12 UNL     1      17.368  -4.426 101.847  1.00  0.00     0.229 C 
ENDROOT
BRANCH   1   2
HETATM    2  C5  UNL     1      18.083  -4.810 103.089  1.00  0.00     0.122 C 
BRANCH   2   3
HETATM    3  C4  UNL     1      19.349  -4.034 103.325  1.00  0.00     0.032 C 
BRANCH   3   4
HETATM    4  C2  UNL     1      19.277  -2.647 103.824  1.00  0.00    -0.021 C 
HETATM    5  C1  UNL     1      20.024  -2.342 105.063  1.00  0.00     0.009 C 
HETATM    6  C3  UNL     1      19.876  -1.766 102.702  1.00  0.00     0.009 C 
ENDBRANCH   3   4
ENDBRANCH   2   3
BRANCH   2   7
HETATM    7  N1  UNL     1      18.230  -6.182 103.337  1.00  0.00    -0.345 N 
HETATM    8  C6  UNL     1      18.326  -6.700 104.686  1.00  0.00     0.317 C 
HETATM    9  O1  UNL     1      18.277  -5.887 105.628  1.00  0.00    -0.262 OA
ATOM     10  H1  UNL     1      18.271  -6.829 102.549  1.00  0.00     0.163 HD
BRANCH   8  11
HETATM   11  C7  UNL     1      18.475  -8.118 104.970  1.00  0.00     0.352 C 
HETATM   12  O2  UNL     1      17.451  -8.872 104.895  1.00  0.00    -0.254 OA
BRANCH  11  13
HETATM   13  O3  UNL     1      19.657  -8.705 105.315  1.00  0.00    -0.304 OA
BRANCH  13  14
HETATM   14  C8  UNL     1      20.201  -8.863 106.588  1.00  0.00     0.060 C 
HETATM   15  C9  UNL     1      21.462  -7.991 106.645  1.00  0.00     0.046 C 
HETATM   16  C10 UNL     1      20.698 -10.291 106.825  1.00  0.00     0.046 C 
HETATM   17  C11 UNL     1      19.304  -8.415 107.695  1.00  0.00     0.046 C 
ENDBRANCH  13  14
ENDBRANCH  11  13
ENDBRANCH   8  11
ENDBRANCH   2   7
ENDBRANCH   1   2
BRANCH   1  18
HETATM   18  N2  UNL     1      18.019  -4.892 100.656  1.00  0.00    -0.391 N 
ATOM     19  H2  UNL     1      17.789  -5.822 100.305  1.00  0.00     0.155 HD
BRANCH  18  20
HETATM   20  C13 UNL     1      18.942  -4.135  99.965  1.00  0.00     0.171 C 
BRANCH  20  21
HETATM   21  C14 UNL     1      19.638  -5.163  98.985  1.00  0.00     0.039 C 
BRANCH  21  22
HETATM   22  C15 UNL     1      21.114  -5.202  99.306  1.00  0.00    -0.012 C 
HETATM   23  C16 UNL     1      21.512  -4.184 100.383  1.00  0.00     0.005 C 
HETATM   24  C17 UNL     1      22.723  -3.884  99.526  1.00  0.00     0.001 C 
HETATM   25  C18 UNL     1      21.887  -4.348  98.325  1.00  0.00     0.005 C 
ENDBRANCH  21  22
ENDBRANCH  20  21
BRANCH  20  26
HETATM   26  C19 UNL     1      18.389  -3.148  98.997  1.00  0.00     0.240 C 
HETATM   27  O4  UNL     1      18.029  -3.481  97.842  1.00  0.00    -0.271 OA
HETATM   28  N3  UNL     1      18.264  -1.803  99.389  1.00  0.00    -0.351 N 
ATOM     29  H3  UNL     1      18.556  -1.556 100.335  1.00  0.00     0.163 HD
BRANCH  28  30
HETATM   30  C20 UNL     1      17.753  -0.748  98.549  1.00  0.00     0.022 C 
HETATM   31  C21 UNL     1      16.262  -0.666  98.722  1.00  0.00     0.037 C 
HETATM   32  C22 UNL     1      18.305   0.613  99.001  1.00  0.00     0.037 C 
HETATM   33  C23 UNL     1      18.106  -0.891  97.108  1.00  0.00     0.037 C 
ENDBRANCH  28  30
ENDBRANCH  20  26
ENDBRANCH  18  20
ENDBRANCH   1  18
BRANCH   1  34
HETATM   34  S1  UNL     1      15.798  -5.327 101.715  1.00  0.00     0.198 S 
HETATM   35  O5  UNL     1      16.116  -6.803 101.500  1.00  0.00    -0.220 OA
HETATM   36  O6  UNL     1      15.138  -5.289 103.095  1.00  0.00    -0.220 OA
BRANCH  34  37
HETATM   37  C24 UNL     1      14.696  -4.827 100.537  1.00  0.00     0.063 A 
HETATM   38  C25 UNL     1      13.339  -4.974 100.779  1.00  0.00     0.025 A 
HETATM   39  C26 UNL     1      12.387  -4.616  99.865  1.00  0.00     0.027 A 
HETATM   40  C27 UNL     1      12.729  -4.089  98.647  1.00  0.00     0.055 A 
HETATM   41 CL1  UNL     1      11.518  -3.619  97.453  1.00  0.00    -0.083 Cl
HETATM   42  C28 UNL     1      14.078  -3.940  98.398  1.00  0.00     0.057 A 
HETATM   43 CL2  UNL     1      14.557  -3.264  96.834  1.00  0.00    -0.083 Cl
HETATM   44  C29 UNL     1      15.047  -4.291  99.297  1.00  0.00     0.049 A 
ENDBRANCH  34  37
ENDBRANCH   1  34
TORSDOF 15
ENDMDL
MODEL 5
REMARK VINA RESULT: -8.517164588      4.808      9.179
REMARK  15 active torsions:
REMARK  status: ('A' for Active; 'I' for Inactive)
REMARK    1  A    between atoms: C2_2  and  C4_4 
REMARK    2  A    between atoms: C4_4  and  C5_5 
REMARK    3  A    between atoms: C5_5  and  N1_6 
REMARK    4  A    between atoms: C5_5  and  C12_17 
REMARK       I    between atoms: N1_6  and  C6_8 
REMARK    5  A    between atoms: C6_8  and  C7_10 
REMARK    6  A    between atoms: C7_10  and  O3_12 
REMARK    7  A    between atoms: O3_12  and  C8_13 
REMARK    8  A    between atoms: C12_17  and  N2_18 
REMARK    9  A    between atoms: C12_17  and  S1_34 
REMARK   10  A    between atoms: N2_18  and  C13_20 
REMARK   11  A    between atoms: C13_20  and  C14_21 
REMARK   12  A    between atoms: C13_20  and  C19_26 
REMARK   13  A    between atoms: C14_21  and  C15_22 
REMARK       I    between atoms: C19_26  and  N3_28 
REMARK   14  A    between atoms: N3_28  and  C20_30 
REMARK   15  A    between atoms: S1_34  and  C24_37 
ROOT
HETATM    1  C12 UNL     1      17.145  -4.337  99.761  1.00  0.00     0.229 C 
ENDROOT
BRANCH   1   2
HETATM    2  C5  UNL     1      18.087  -3.471  99.012  1.00  0.00     0.122 C 
BRANCH   2   3
HETATM    3  C4  UNL     1      19.059  -4.231  98.155  1.00  0.00     0.032 C 
BRANCH   3   4
HETATM    4  C2  UNL     1      20.509  -4.119  98.413  1.00  0.00    -0.021 C 
HETATM    5  C1  UNL     1      21.148  -5.238  99.138  1.00  0.00     0.009 C 
HETATM    6  C3  UNL     1      21.178  -4.036  97.021  1.00  0.00     0.009 C 
ENDBRANCH   3   4
ENDBRANCH   2   3
BRANCH   2   7
HETATM    7  N1  UNL     1      18.692  -2.427  99.728  1.00  0.00    -0.345 N 
HETATM    8  C6  UNL     1      18.858  -1.111  99.147  1.00  0.00     0.317 C 
HETATM    9  O1  UNL     1      18.450  -0.930  97.985  1.00  0.00    -0.262 OA
ATOM     10  H1  UNL     1      19.021  -2.599 100.678  1.00  0.00     0.163 HD
BRANCH   8  11
HETATM   11  C7  UNL     1      19.477  -0.011  99.869  1.00  0.00     0.352 C 
HETATM   12  O2  UNL     1      19.224   1.184  99.506  1.00  0.00    -0.254 OA
BRANCH  11  13
HETATM   13  O3  UNL     1      20.323  -0.175 100.926  1.00  0.00    -0.304 OA
BRANCH  13  14
HETATM   14  C8  UNL     1      21.700  -0.390 100.903  1.00  0.00     0.060 C 
HETATM   15  C9  UNL     1      22.261   0.174 102.215  1.00  0.00     0.046 C 
HETATM   16  C10 UNL     1      22.387   0.417  99.800  1.00  0.00     0.046 C 
HETATM   17  C11 UNL     1      22.091  -1.830 100.838  1.00  0.00     0.046 C 
ENDBRANCH  13  14
ENDBRANCH  11  13
ENDBRANCH   8  11
ENDBRANCH   2   7
ENDBRANCH   1   2
BRANCH   1  18
HETATM   18  N2  UNL     1      17.539  -4.554 101.124  1.00  0.00    -0.391 N 
ATOM     19  H2  UNL     1      17.179  -3.926 101.842  1.00  0.00     0.155 HD
BRANCH  18  20
HETATM   20  C13 UNL     1      18.383  -5.576 101.503  1.00  0.00     0.171 C 
BRANCH  20  21
HETATM   21  C14 UNL     1      19.472  -4.870 102.407  1.00  0.00     0.039 C 
BRANCH  21  22
HETATM   22  C15 UNL     1      18.778  -3.851 103.281  1.00  0.00    -0.012 C 
HETATM   23  C16 UNL     1      19.535  -2.519 103.349  1.00  0.00     0.005 C 
HETATM   24  C17 UNL     1      19.231  -2.524 104.832  1.00  0.00     0.001 C 
HETATM   25  C18 UNL     1      19.163  -4.054 104.730  1.00  0.00     0.005 C 
ENDBRANCH  21  22
ENDBRANCH  20  21
BRANCH  20  26
HETATM   26  C19 UNL     1      17.821  -6.571 102.458  1.00  0.00     0.240 C 
HETATM   27  O4  UNL     1      16.585  -6.700 102.634  1.00  0.00    -0.271 OA
HETATM   28  N3  UNL     1      18.703  -7.395 103.182  1.00  0.00    -0.351 N 
ATOM     29  H3  UNL     1      19.703  -7.279 103.018  1.00  0.00     0.163 HD
BRANCH  28  30
HETATM   30  C20 UNL     1      18.292  -8.391 104.141  1.00  0.00     0.022 C 
HETATM   31  C21 UNL     1      17.826  -9.616 103.403  1.00  0.00     0.037 C 
HETATM   32  C22 UNL     1      19.489  -8.843 104.991  1.00  0.00     0.037 C 
HETATM   33  C23 UNL     1      17.247  -7.925 105.095  1.00  0.00     0.037 C 
ENDBRANCH  28  30
ENDBRANCH  20  26
ENDBRANCH  18  20
ENDBRANCH   1  18
BRANCH   1  34
HETATM   34  S1  UNL     1      15.567  -3.478 100.027  1.00  0.00     0.198 S 
HETATM   35  O5  UNL     1      15.062  -3.839 101.420  1.00  0.00    -0.220 OA
HETATM   36  O6  UNL     1      15.878  -1.983 100.123  1.00  0.00    -0.220 OA
BRANCH  34  37
HETATM   37  C24 UNL     1      14.327  -3.737  98.910  1.00  0.00     0.063 A 
HETATM   38  C25 UNL     1      13.066  -4.079  99.371  1.00  0.00     0.025 A 
HETATM   39  C26 UNL     1      12.018  -4.328  98.529  1.00  0.00     0.027 A 
HETATM   40  C27 UNL     1      12.162  -4.253  97.168  1.00  0.00     0.055 A 
HETATM   41 CL1  UNL     1      10.825  -4.569  96.062  1.00  0.00    -0.083 Cl
HETATM   42  C28 UNL     1      13.416  -3.913  96.700  1.00  0.00     0.057 A 
HETATM   43 CL2  UNL     1      13.640  -3.809  94.947  1.00  0.00    -0.083 Cl
HETATM   44  C29 UNL     1      14.478  -3.660  97.524  1.00  0.00     0.049 A 
ENDBRANCH  34  37
ENDBRANCH   1  34
TORSDOF 15
ENDMDL
