MODEL 1
REMARK VINA RESULT: -8.972158901      0.000      0.000
REMARK  13 active torsions:
REMARK  status: ('A' for Active; 'I' for Inactive)
REMARK    1  A    between atoms: S1_2  and  C2_3 
REMARK    2  A    between atoms: C2_3  and  C3_4 
REMARK    3  A    between atoms: C3_4  and  C4_5 
REMARK    4  A    between atoms: C4_5  and  C30_43 
REMARK    5  A    between atoms: N1_6  and  C5_8 
REMARK    6  A    between atoms: C5_8  and  C7_10 
REMARK    7  A    between atoms: C8_13  and  O1_14 
REMARK    8  A    between atoms: C9_16  and  C10_17 
REMARK    9  A    between atoms: C10_17  and  C11_18 
REMARK   10  A    between atoms: N3_21  and  C14_22 
REMARK   11  A    between atoms: C14_22  and  C15_23 
REMARK   12  A    between atoms: C29_40  and  O3_41 
REMARK   13  A    between atoms: C30_43  and  C31_45 
ROOT
HETATM    1  C7  UNL     1      16.433  -1.811  99.189  1.00  0.00     0.084 C 
HETATM    2  N2  UNL     1      16.505  -2.142 100.565  1.00  0.00    -0.337 N 
ATOM      3  H2  UNL     1      15.855  -1.513 101.036  1.00  0.00     0.167 HD
HETATM    4  C8  UNL     1      17.041  -2.912 101.543  1.00  0.00     0.154 C 
HETATM    5  C9  UNL     1      16.911  -4.326 102.096  1.00  0.00     0.320 C 
HETATM    6  N3  UNL     1      18.255  -4.835 102.269  1.00  0.00     0.105 N 
HETATM    7  C21 UNL     1      18.904  -5.474 101.172  1.00  0.00     0.278 C 
HETATM    8  C22 UNL     1      19.658  -4.649 100.195  1.00  0.00     0.017 C 
HETATM    9  C23 UNL     1      21.147  -4.815 100.106  1.00  0.00     0.035 C 
HETATM   10  C24 UNL     1      21.893  -3.687  99.523  1.00  0.00    -0.002 C 
HETATM   11  C25 UNL     1      21.309  -2.425  99.135  1.00  0.00     0.133 C 
HETATM   12  O2  UNL     1      20.646  -2.308  97.875  1.00  0.00    -0.338 OA
HETATM   13  C26 UNL     1      19.475  -2.925  98.016  1.00  0.00     0.227 C 
HETATM   14  C27 UNL     1      19.731  -4.374  97.707  1.00  0.00     0.054 C 
HETATM   15  C28 UNL     1      19.136  -5.082  98.862  1.00  0.00     0.011 C 
HETATM   16  N4  UNL     1      18.242  -2.504  97.423  1.00  0.00    -0.343 N 
ATOM     17  H4  UNL     1      18.282  -2.187  96.455  1.00  0.00     0.164 HD
HETATM   18  C29 UNL     1      16.962  -2.484  98.052  1.00  0.00     0.163 C 
ENDROOT
BRANCH   1  19
HETATM   19  C5  UNL     1      16.222  -0.275  98.935  1.00  0.00     0.132 C 
HETATM   20  C6  UNL     1      17.550   0.414  98.923  1.00  0.00     0.039 C 
BRANCH  19  21
HETATM   21  N1  UNL     1      15.305  -0.006  97.974  1.00  0.00    -0.377 N 
HETATM   22  C4  UNL     1      13.962  -0.151  97.826  1.00  0.00     0.078 C 
ATOM     23  H1  UNL     1      15.733   0.416  97.150  1.00  0.00     0.160 HD
BRANCH  22  24
HETATM   24  C3  UNL     1      13.177  -1.365  97.744  1.00  0.00     0.016 C 
BRANCH  24  25
HETATM   25  C2  UNL     1      11.788  -1.592  98.132  1.00  0.00     0.103 C 
BRANCH  25  26
HETATM   26  S1  UNL     1      11.658  -3.455  98.299  1.00  0.00    -0.170 SA
HETATM   27  C1  UNL     1      12.613  -4.255  97.022  1.00  0.00     0.090 C 
ENDBRANCH  25  26
ENDBRANCH  24  25
ENDBRANCH  22  24
BRANCH  22  28
HETATM   28  C30 UNL     1      13.282   0.991  97.188  1.00  0.00     0.246 C 
HETATM   29  O4  UNL     1      13.023   0.838  95.932  1.00  0.00    -0.284 OA
BRANCH  28  30
HETATM   30  C31 UNL     1      12.785   2.262  97.674  1.00  0.00     0.305 C 
HETATM   31  C32 UNL     1      11.217   2.207  97.654  1.00  0.00     0.099 C 
HETATM   32  F1  UNL     1      13.146   2.605  98.992  1.00  0.00    -0.198 F 
HETATM   33  F2  UNL     1      13.133   3.320  96.908  1.00  0.00    -0.198 F 
ENDBRANCH  28  30
ENDBRANCH  22  28
ENDBRANCH  19  21
ENDBRANCH   1  19
BRANCH  18  34
HETATM   34  O3  UNL     1      16.133  -3.288  97.386  1.00  0.00    -0.345 OA
ATOM     35  H3  UNL     1      16.511  -4.067  96.995  1.00  0.00     0.219 HD
ENDBRANCH  18  34
BRANCH   4  36
HETATM   36  O1  UNL     1      17.966  -2.321 102.285  1.00  0.00    -0.347 OA
ATOM     37  H1  UNL     1      17.877  -2.448 103.222  1.00  0.00     0.219 HD
ENDBRANCH   4  36
BRANCH   5  38
HETATM   38  C10 UNL     1      15.882  -5.108 101.415  1.00  0.00     0.019 C 
BRANCH  38  39
HETATM   39  C11 UNL     1      14.683  -5.658 102.025  1.00  0.00    -0.089 C 
HETATM   40  C12 UNL     1      14.263  -5.587 103.418  1.00  0.00     0.042 C 
HETATM   41  C13 UNL     1      13.442  -5.378 101.096  1.00  0.00     0.042 C 
ENDBRANCH  38  39
ENDBRANCH   5  38
BRANCH   6  42
HETATM   42  C14 UNL     1      18.479  -5.630 103.428  1.00  0.00     0.278 C 
BRANCH  42  43
HETATM   43  C15 UNL     1      17.761  -6.979 103.440  1.00  0.00     0.014 C 
HETATM   44  C16 UNL     1      18.666  -8.092 103.019  1.00  0.00     0.006 C 
HETATM   45  C17 UNL     1      18.520  -9.339 103.862  1.00  0.00     0.000 C 
HETATM   46  C18 UNL     1      18.879  -9.070 105.283  1.00  0.00     0.000 C 
HETATM   47  C19 UNL     1      18.445  -7.685 105.720  1.00  0.00     0.000 C 
HETATM   48  C20 UNL     1      17.312  -7.229 104.861  1.00  0.00     0.006 C 
ENDBRANCH  42  43
ENDBRANCH   6  42
TORSDOF 13
ENDMDL
MODEL 2
REMARK VINA RESULT: -8.918191087      0.844      1.129
REMARK  13 active torsions:
REMARK  status: ('A' for Active; 'I' for Inactive)
REMARK    1  A    between atoms: S1_2  and  C2_3 
REMARK    2  A    between atoms: C2_3  and  C3_4 
REMARK    3  A    between atoms: C3_4  and  C4_5 
REMARK    4  A    between atoms: C4_5  and  C30_43 
REMARK    5  A    between atoms: N1_6  and  C5_8 
REMARK    6  A    between atoms: C5_8  and  C7_10 
REMARK    7  A    between atoms: C8_13  and  O1_14 
REMARK    8  A    between atoms: C9_16  and  C10_17 
REMARK    9  A    between atoms: C10_17  and  C11_18 
REMARK   10  A    between atoms: N3_21  and  C14_22 
REMARK   11  A    between atoms: C14_22  and  C15_23 
REMARK   12  A    between atoms: C29_40  and  O3_41 
REMARK   13  A    between atoms: C30_43  and  C31_45 
ROOT
HETATM    1  C7  UNL     1      16.444  -1.477  98.714  1.00  0.00     0.084 C 
HETATM    2  N2  UNL     1      16.190  -1.908 100.040  1.00  0.00    -0.337 N 
ATOM      3  H2  UNL     1      15.520  -1.242 100.423  1.00  0.00     0.167 HD
HETATM    4  C8  UNL     1      16.429  -2.799 101.032  1.00  0.00     0.154 C 
HETATM    5  C9  UNL     1      16.046  -4.223 101.416  1.00  0.00     0.320 C 
HETATM    6  N3  UNL     1      17.267  -4.894 101.812  1.00  0.00     0.105 N 
HETATM    7  C21 UNL     1      18.068  -5.527 100.816  1.00  0.00     0.278 C 
HETATM    8  C22 UNL     1      19.088  -4.729 100.091  1.00  0.00     0.017 C 
HETATM    9  C23 UNL     1      20.539  -5.059 100.293  1.00  0.00     0.035 C 
HETATM   10  C24 UNL     1      21.499  -3.987  99.978  1.00  0.00    -0.002 C 
HETATM   11  C25 UNL     1      21.137  -2.643  99.596  1.00  0.00     0.133 C 
HETATM   12  O2  UNL     1      20.770  -2.365  98.243  1.00  0.00    -0.338 OA
HETATM   13  C26 UNL     1      19.541  -2.851  98.087  1.00  0.00     0.227 C 
HETATM   14  C27 UNL     1      19.713  -4.295  97.706  1.00  0.00     0.054 C 
HETATM   15  C28 UNL     1      18.821  -5.007  98.647  1.00  0.00     0.011 C 
HETATM   16  N4  UNL     1      18.509  -2.252  97.297  1.00  0.00    -0.343 N 
ATOM     17  H4  UNL     1      18.785  -1.876  96.389  1.00  0.00     0.164 HD
HETATM   18  C29 UNL     1      17.134  -2.127  97.651  1.00  0.00     0.163 C 
ENDROOT
BRANCH   1  19
HETATM   19  C5  UNL     1      16.444   0.086  98.562  1.00  0.00     0.132 C 
HETATM   20  C6  UNL     1      17.855   0.581  98.509  1.00  0.00     0.039 C 
BRANCH  19  21
HETATM   21  N1  UNL     1      15.526   0.545  97.677  1.00  0.00    -0.377 N 
HETATM   22  C4  UNL     1      14.184   0.428  97.499  1.00  0.00     0.078 C 
ATOM     23  H1  UNL     1      15.953   1.129  96.958  1.00  0.00     0.160 HD
BRANCH  22  24
HETATM   24  C3  UNL     1      13.404  -0.746  97.168  1.00  0.00     0.016 C 
BRANCH  24  25
HETATM   25  C2  UNL     1      12.303  -1.358  97.905  1.00  0.00     0.103 C 
BRANCH  25  26
HETATM   26  S1  UNL     1      11.680  -2.705  96.759  1.00  0.00    -0.170 SA
HETATM   27  C1  UNL     1      12.994  -3.851  96.383  1.00  0.00     0.090 C 
ENDBRANCH  25  26
ENDBRANCH  24  25
ENDBRANCH  22  24
BRANCH  22  28
HETATM   28  C30 UNL     1      13.500   1.675  97.110  1.00  0.00     0.246 C 
HETATM   29  O4  UNL     1      13.530   1.941  95.847  1.00  0.00    -0.284 OA
BRANCH  28  30
HETATM   30  C31 UNL     1      12.743   2.674  97.837  1.00  0.00     0.305 C 
HETATM   31  C32 UNL     1      11.225   2.285  97.753  1.00  0.00     0.099 C 
HETATM   32  F1  UNL     1      13.038   2.796  99.210  1.00  0.00    -0.198 F 
HETATM   33  F2  UNL     1      12.840   3.920  97.325  1.00  0.00    -0.198 F 
ENDBRANCH  28  30
ENDBRANCH  22  28
ENDBRANCH  19  21
ENDBRANCH   1  19
BRANCH  18  34
HETATM   34  O3  UNL     1      16.389  -2.784  96.761  1.00  0.00    -0.345 OA
ATOM     35  H3  UNL     1      16.594  -3.700  96.621  1.00  0.00     0.219 HD
ENDBRANCH  18  34
BRANCH   4  36
HETATM   36  O1  UNL     1      17.229  -2.371 101.997  1.00  0.00    -0.347 OA
ATOM     37  H1  UNL     1      16.810  -1.851 102.671  1.00  0.00     0.219 HD
ENDBRANCH   4  36
BRANCH   5  38
HETATM   38  C10 UNL     1      15.113  -4.833 100.473  1.00  0.00     0.019 C 
BRANCH  38  39
HETATM   39  C11 UNL     1      13.824  -5.415 100.801  1.00  0.00    -0.089 C 
HETATM   40  C12 UNL     1      13.327  -5.835 102.105  1.00  0.00     0.042 C 
HETATM   41  C13 UNL     1      12.684  -4.640 100.040  1.00  0.00     0.042 C 
ENDBRANCH  38  39
ENDBRANCH   5  38
BRANCH   6  42
HETATM   42  C14 UNL     1      17.161  -5.787 102.915  1.00  0.00     0.278 C 
BRANCH  42  43
HETATM   43  C15 UNL     1      18.490  -6.298 103.469  1.00  0.00     0.014 C 
HETATM   44  C16 UNL     1      18.653  -5.963 104.916  1.00  0.00     0.006 C 
HETATM   45  C17 UNL     1      19.228  -7.097 105.736  1.00  0.00     0.000 C 
HETATM   46  C18 UNL     1      18.326  -8.282 105.717  1.00  0.00     0.000 C 
HETATM   47  C19 UNL     1      17.653  -8.455 104.369  1.00  0.00     0.000 C 
HETATM   48  C20 UNL     1      18.485  -7.802 103.316  1.00  0.00     0.006 C 
ENDBRANCH  42  43
ENDBRANCH   6  42
TORSDOF 13
ENDMDL
MODEL 3
REMARK VINA RESULT: -8.864258573      1.224      1.552
REMARK  13 active torsions:
REMARK  status: ('A' for Active; 'I' for Inactive)
REMARK    1  A    between atoms: S1_2  and  C2_3 
REMARK    2  A    between atoms: C2_3  and  C3_4 
REMARK    3  A    between atoms: C3_4  and  C4_5 
REMARK    4  A    between atoms: C4_5  and  C30_43 
REMARK    5  A    between atoms: N1_6  and  C5_8 
REMARK    6  A    between atoms: C5_8  and  C7_10 
REMARK    7  A    between atoms: C8_13  and  O1_14 
REMARK    8  A    between atoms: C9_16  and  C10_17 
REMARK    9  A    between atoms: C10_17  and  C11_18 
REMARK   10  A    between atoms: N3_21  and  C14_22 
REMARK   11  A    between atoms: C14_22  and  C15_23 
REMARK   12  A    between atoms: C29_40  and  O3_41 
REMARK   13  A    between atoms: C30_43  and  C31_45 
ROOT
HETATM    1  C7  UNL     1      16.588  -1.393  98.745  1.00  0.00     0.084 C 
HETATM    2  N2  UNL     1      16.327  -1.835 100.066  1.00  0.00    -0.337 N 
ATOM      3  H2  UNL     1      15.680  -1.154 100.463  1.00  0.00     0.167 HD
HETATM    4  C8  UNL     1      16.543  -2.747 101.044  1.00  0.00     0.154 C 
HETATM    5  C9  UNL     1      16.118  -4.164 101.410  1.00  0.00     0.320 C 
HETATM    6  N3  UNL     1      17.319  -4.878 101.789  1.00  0.00     0.105 N 
HETATM    7  C21 UNL     1      18.095  -5.521 100.780  1.00  0.00     0.278 C 
HETATM    8  C22 UNL     1      19.136  -4.745 100.062  1.00  0.00     0.017 C 
HETATM    9  C23 UNL     1      20.577  -5.122 100.250  1.00  0.00     0.035 C 
HETATM   10  C24 UNL     1      21.568  -4.076  99.946  1.00  0.00    -0.002 C 
HETATM   11  C25 UNL     1      21.246  -2.716  99.585  1.00  0.00     0.133 C 
HETATM   12  O2  UNL     1      20.882  -2.407  98.238  1.00  0.00    -0.338 OA
HETATM   13  C26 UNL     1      19.637  -2.853  98.082  1.00  0.00     0.227 C 
HETATM   14  C27 UNL     1      19.763  -4.296  97.679  1.00  0.00     0.054 C 
HETATM   15  C28 UNL     1      18.853  -4.993  98.614  1.00  0.00     0.011 C 
HETATM   16  N4  UNL     1      18.620  -2.210  97.306  1.00  0.00    -0.343 N 
ATOM     17  H4  UNL     1      18.903  -1.830  96.402  1.00  0.00     0.164 HD
HETATM   18  C29 UNL     1      17.252  -2.049  97.670  1.00  0.00     0.163 C 
ENDROOT
BRANCH   1  19
HETATM   19  C5  UNL     1      16.635   0.172  98.616  1.00  0.00     0.132 C 
HETATM   20  C6  UNL     1      18.024   0.652  98.895  1.00  0.00     0.039 C 
BRANCH  19  21
HETATM   21  N1  UNL     1      15.950   0.649  97.548  1.00  0.00    -0.377 N 
HETATM   22  C4  UNL     1      14.651   0.701  97.155  1.00  0.00     0.078 C 
ATOM     23  H1  UNL     1      16.570   1.081  96.863  1.00  0.00     0.160 HD
BRANCH  22  24
HETATM   24  C3  UNL     1      13.757  -0.383  96.803  1.00  0.00     0.016 C 
BRANCH  24  25
HETATM   25  C2  UNL     1      13.116  -1.367  97.670  1.00  0.00     0.103 C 
BRANCH  25  26
HETATM   26  S1  UNL     1      11.328  -0.809  97.750  1.00  0.00    -0.170 SA
HETATM   27  C1  UNL     1      10.666  -0.626  96.103  1.00  0.00     0.090 C 
ENDBRANCH  25  26
ENDBRANCH  24  25
ENDBRANCH  22  24
BRANCH  22  28
HETATM   28  C30 UNL     1      14.240   1.977  96.543  1.00  0.00     0.246 C 
HETATM   29  O4  UNL     1      15.050   2.438  95.649  1.00  0.00    -0.284 OA
BRANCH  28  30
HETATM   30  C31 UNL     1      13.079   2.834  96.688  1.00  0.00     0.305 C 
HETATM   31  C32 UNL     1      12.658   2.823  98.199  1.00  0.00     0.099 C 
HETATM   32  F1  UNL     1      13.264   4.188  96.346  1.00  0.00    -0.198 F 
HETATM   33  F2  UNL     1      11.997   2.419  95.994  1.00  0.00    -0.198 F 
ENDBRANCH  28  30
ENDBRANCH  22  28
ENDBRANCH  19  21
ENDBRANCH   1  19
BRANCH  18  34
HETATM   34  O3  UNL     1      16.483  -2.669  96.774  1.00  0.00    -0.345 OA
ATOM     35  H3  UNL     1      16.401  -2.259  95.920  1.00  0.00     0.219 HD
ENDBRANCH  18  34
BRANCH   4  36
HETATM   36  O1  UNL     1      17.361  -2.358 102.011  1.00  0.00    -0.347 OA
ATOM     37  H1  UNL     1      17.072  -2.559 102.893  1.00  0.00     0.219 HD
ENDBRANCH   4  36
BRANCH   5  38
HETATM   38  C10 UNL     1      15.162  -4.731 100.463  1.00  0.00     0.019 C 
BRANCH  38  39
HETATM   39  C11 UNL     1      13.895  -5.358 100.799  1.00  0.00    -0.089 C 
HETATM   40  C12 UNL     1      13.406  -5.761 102.110  1.00  0.00     0.042 C 
HETATM   41  C13 UNL     1      12.730  -4.653 100.008  1.00  0.00     0.042 C 
ENDBRANCH  38  39
ENDBRANCH   5  38
BRANCH   6  42
HETATM   42  C14 UNL     1      17.191  -5.783 102.880  1.00  0.00     0.278 C 
BRANCH  42  43
HETATM   43  C15 UNL     1      18.509  -6.304 103.452  1.00  0.00     0.014 C 
HETATM   44  C16 UNL     1      18.653  -5.974 104.903  1.00  0.00     0.006 C 
HETATM   45  C17 UNL     1      19.208  -7.113 105.727  1.00  0.00     0.000 C 
HETATM   46  C18 UNL     1      18.300  -8.292 105.692  1.00  0.00     0.000 C 
HETATM   47  C19 UNL     1      17.645  -8.458 104.335  1.00  0.00     0.000 C 
HETATM   48  C20 UNL     1      18.496  -7.807 103.295  1.00  0.00     0.006 C 
ENDBRANCH  42  43
ENDBRANCH   6  42
TORSDOF 13
ENDMDL
MODEL 4
REMARK VINA RESULT: -8.617984751      1.840      2.563
REMARK  13 active torsions:
REMARK  status: ('A' for Active; 'I' for Inactive)
REMARK    1  A    between atoms: S1_2  and  C2_3 
REMARK    2  A    between atoms: C2_3  and  C3_4 
REMARK    3  A    between atoms: C3_4  and  C4_5 
REMARK    4  A    between atoms: C4_5  and  C30_43 
REMARK    5  A    between atoms: N1_6  and  C5_8 
REMARK    6  A    between atoms: C5_8  and  C7_10 
REMARK    7  A    between atoms: C8_13  and  O1_14 
REMARK    8  A    between atoms: C9_16  and  C10_17 
REMARK    9  A    between atoms: C10_17  and  C11_18 
REMARK   10  A    between atoms: N3_21  and  C14_22 
REMARK   11  A    between atoms: C14_22  and  C15_23 
REMARK   12  A    between atoms: C29_40  and  O3_41 
REMARK   13  A    between atoms: C30_43  and  C31_45 
ROOT
HETATM    1  C7  UNL     1      16.324  -2.203  99.101  1.00  0.00     0.084 C 
HETATM    2  N2  UNL     1      16.416  -2.474 100.490  1.00  0.00    -0.337 N 
ATOM      3  H2  UNL     1      15.660  -1.945 100.925  1.00  0.00     0.167 HD
HETATM    4  C8  UNL     1      17.047  -3.113 101.504  1.00  0.00     0.154 C 
HETATM    5  C9  UNL     1      17.135  -4.511 102.104  1.00  0.00     0.320 C 
HETATM    6  N3  UNL     1      18.540  -4.787 102.320  1.00  0.00     0.105 N 
HETATM    7  C21 UNL     1      19.312  -5.345 101.259  1.00  0.00     0.278 C 
HETATM    8  C22 UNL     1      19.944  -4.439 100.268  1.00  0.00     0.017 C 
HETATM    9  C23 UNL     1      21.442  -4.361 100.213  1.00  0.00     0.035 C 
HETATM   10  C24 UNL     1      22.008  -3.145  99.605  1.00  0.00    -0.002 C 
HETATM   11  C25 UNL     1      21.234  -2.010  99.161  1.00  0.00     0.133 C 
HETATM   12  O2  UNL     1      20.592  -2.043  97.885  1.00  0.00    -0.338 OA
HETATM   13  C26 UNL     1      19.535  -2.840  98.026  1.00  0.00     0.227 C 
HETATM   14  C27 UNL     1      20.031  -4.236  97.774  1.00  0.00     0.054 C 
HETATM   15  C28 UNL     1      19.533  -4.994  98.941  1.00  0.00     0.011 C 
HETATM   16  N4  UNL     1      18.264  -2.646  97.396  1.00  0.00    -0.343 N 
ATOM     17  H4  UNL     1      18.276  -2.357  96.417  1.00  0.00     0.164 HD
HETATM   18  C29 UNL     1      16.984  -2.816  97.999  1.00  0.00     0.163 C 
ENDROOT
BRANCH   1  19
HETATM   19  C5  UNL     1      15.871  -0.732  98.789  1.00  0.00     0.132 C 
HETATM   20  C6  UNL     1      16.904  -0.064  97.938  1.00  0.00     0.039 C 
BRANCH  19  21
HETATM   21  N1  UNL     1      14.556  -0.624  98.477  1.00  0.00    -0.377 N 
HETATM   22  C4  UNL     1      13.750  -1.021  97.459  1.00  0.00     0.078 C 
ATOM     23  H1  UNL     1      14.039  -0.113  99.192  1.00  0.00     0.160 HD
BRANCH  22  24
HETATM   24  C3  UNL     1      13.755  -0.604  96.072  1.00  0.00     0.016 C 
BRANCH  24  25
HETATM   25  C2  UNL     1      14.182   0.667  95.494  1.00  0.00     0.103 C 
BRANCH  25  26
HETATM   26  S1  UNL     1      12.718   1.806  95.760  1.00  0.00    -0.170 SA
HETATM   27  C1  UNL     1      12.890   2.679  97.307  1.00  0.00     0.090 C 
ENDBRANCH  25  26
ENDBRANCH  24  25
ENDBRANCH  22  24
BRANCH  22  28
HETATM   28  C30 UNL     1      12.433  -1.537  97.876  1.00  0.00     0.246 C 
HETATM   29  O4  UNL     1      11.532  -0.634  98.073  1.00  0.00    -0.284 OA
BRANCH  28  30
HETATM   30  C31 UNL     1      11.894  -2.867  98.079  1.00  0.00     0.305 C 
HETATM   31  C32 UNL     1      12.950  -3.901  97.553  1.00  0.00     0.099 C 
HETATM   32  F1  UNL     1      11.627  -3.229  99.415  1.00  0.00    -0.198 F 
HETATM   33  F2  UNL     1      10.756  -3.111  97.394  1.00  0.00    -0.198 F 
ENDBRANCH  28  30
ENDBRANCH  22  28
ENDBRANCH  19  21
ENDBRANCH   1  19
BRANCH  18  34
HETATM   34  O3  UNL     1      16.313  -3.766  97.347  1.00  0.00    -0.345 OA
ATOM     35  H3  UNL     1      15.849  -3.503  96.561  1.00  0.00     0.219 HD
ENDBRANCH  18  34
BRANCH   4  36
HETATM   36  O1  UNL     1      17.844  -2.356 102.242  1.00  0.00    -0.347 OA
ATOM     37  H1  UNL     1      18.702  -2.188 101.871  1.00  0.00     0.219 HD
ENDBRANCH   4  36
BRANCH   5  38
HETATM   38  C10 UNL     1      16.265  -5.473 101.432  1.00  0.00     0.019 C 
BRANCH  38  39
HETATM   39  C11 UNL     1      14.928  -5.855 101.853  1.00  0.00    -0.089 C 
HETATM   40  C12 UNL     1      14.410  -5.988 103.208  1.00  0.00     0.042 C 
HETATM   41  C13 UNL     1      13.861  -5.114 100.963  1.00  0.00     0.042 C 
ENDBRANCH  38  39
ENDBRANCH   5  38
BRANCH   6  42
HETATM   42  C14 UNL     1      18.862  -5.497 103.511  1.00  0.00     0.278 C 
BRANCH  42  43
HETATM   43  C15 UNL     1      17.979  -6.709 103.805  1.00  0.00     0.014 C 
HETATM   44  C16 UNL     1      18.509  -7.950 103.161  1.00  0.00     0.006 C 
HETATM   45  C17 UNL     1      18.442  -9.167 104.055  1.00  0.00     0.000 C 
HETATM   46  C18 UNL     1      19.278  -8.983 105.274  1.00  0.00     0.000 C 
HETATM   47  C19 UNL     1      19.238  -7.552 105.772  1.00  0.00     0.000 C 
HETATM   48  C20 UNL     1      17.977  -6.902 105.304  1.00  0.00     0.006 C 
ENDBRANCH  42  43
ENDBRANCH   6  42
TORSDOF 13
ENDMDL
MODEL 5
REMARK VINA RESULT: -8.565288878      1.976      2.382
REMARK  13 active torsions:
REMARK  status: ('A' for Active; 'I' for Inactive)
REMARK    1  A    between atoms: S1_2  and  C2_3 
REMARK    2  A    between atoms: C2_3  and  C3_4 
REMARK    3  A    between atoms: C3_4  and  C4_5 
REMARK    4  A    between atoms: C4_5  and  C30_43 
REMARK    5  A    between atoms: N1_6  and  C5_8 
REMARK    6  A    between atoms: C5_8  and  C7_10 
REMARK    7  A    between atoms: C8_13  and  O1_14 
REMARK    8  A    between atoms: C9_16  and  C10_17 
REMARK    9  A    between atoms: C10_17  and  C11_18 
REMARK   10  A    between atoms: N3_21  and  C14_22 
REMARK   11  A    between atoms: C14_22  and  C15_23 
REMARK   12  A    between atoms: C29_40  and  O3_41 
REMARK   13  A    between atoms: C30_43  and  C31_45 
ROOT
HETATM    1  C7  UNL     1      16.262  -2.308  99.086  1.00  0.00     0.084 C 
HETATM    2  N2  UNL     1      16.356  -2.565 100.476  1.00  0.00    -0.337 N 
ATOM      3  H2  UNL     1      15.591  -2.045 100.906  1.00  0.00     0.167 HD
HETATM    4  C8  UNL     1      16.996  -3.186 101.497  1.00  0.00     0.154 C 
HETATM    5  C9  UNL     1      17.107  -4.576 102.110  1.00  0.00     0.320 C 
HETATM    6  N3  UNL     1      18.515  -4.827 102.330  1.00  0.00     0.105 N 
HETATM    7  C21 UNL     1      19.297  -5.383 101.274  1.00  0.00     0.278 C 
HETATM    8  C22 UNL     1      19.915  -4.476 100.275  1.00  0.00     0.017 C 
HETATM    9  C23 UNL     1      21.413  -4.374 100.222  1.00  0.00     0.035 C 
HETATM   10  C24 UNL     1      21.959  -3.154  99.603  1.00  0.00    -0.002 C 
HETATM   11  C25 UNL     1      21.168  -2.035  99.149  1.00  0.00     0.133 C 
HETATM   12  O2  UNL     1      20.528  -2.091  97.872  1.00  0.00    -0.338 OA
HETATM   13  C26 UNL     1      19.483  -2.902  98.019  1.00  0.00     0.227 C 
HETATM   14  C27 UNL     1      20.003  -4.293  97.780  1.00  0.00     0.054 C 
HETATM   15  C28 UNL     1      19.515  -5.049  98.954  1.00  0.00     0.011 C 
HETATM   16  N4  UNL     1      18.211  -2.735  97.386  1.00  0.00    -0.343 N 
ATOM     17  H4  UNL     1      18.219  -2.455  96.405  1.00  0.00     0.164 HD
HETATM   18  C29 UNL     1      16.933  -2.920  97.989  1.00  0.00     0.163 C 
ENDROOT
BRANCH   1  19
HETATM   19  C5  UNL     1      15.785  -0.847  98.760  1.00  0.00     0.132 C 
HETATM   20  C6  UNL     1      16.839  -0.148  97.961  1.00  0.00     0.039 C 
BRANCH  19  21
HETATM   21  N1  UNL     1      14.484  -0.771  98.388  1.00  0.00    -0.377 N 
HETATM   22  C4  UNL     1      13.705  -1.309  97.414  1.00  0.00     0.078 C 
ATOM     23  H1  UNL     1      13.952  -0.150  98.997  1.00  0.00     0.160 HD
BRANCH  22  24
HETATM   24  C3  UNL     1      13.764  -1.110  95.981  1.00  0.00     0.016 C 
BRANCH  24  25
HETATM   25  C2  UNL     1      14.707  -1.662  95.012  1.00  0.00     0.103 C 
BRANCH  25  26
HETATM   26  S1  UNL     1      13.698  -2.922  94.059  1.00  0.00    -0.170 SA
HETATM   27  C1  UNL     1      11.957  -2.575  94.233  1.00  0.00     0.090 C 
ENDBRANCH  25  26
ENDBRANCH  24  25
ENDBRANCH  22  24
BRANCH  22  28
HETATM   28  C30 UNL     1      12.366  -1.738  97.858  1.00  0.00     0.246 C 
HETATM   29  O4  UNL     1      11.506  -0.785  97.991  1.00  0.00    -0.284 OA
BRANCH  28  30
HETATM   30  C31 UNL     1      11.768  -3.027  98.144  1.00  0.00     0.305 C 
HETATM   31  C32 UNL     1      12.730  -4.138  97.595  1.00  0.00     0.099 C 
HETATM   32  F1  UNL     1      11.564  -3.326  99.506  1.00  0.00    -0.198 F 
HETATM   33  F2  UNL     1      10.577  -3.229  97.538  1.00  0.00    -0.198 F 
ENDBRANCH  28  30
ENDBRANCH  22  28
ENDBRANCH  19  21
ENDBRANCH   1  19
BRANCH  18  34
HETATM   34  O3  UNL     1      16.278  -3.887  97.345  1.00  0.00    -0.345 OA
ATOM     35  H3  UNL     1      15.626  -3.615  96.710  1.00  0.00     0.219 HD
ENDBRANCH  18  34
BRANCH   4  36
HETATM   36  O1  UNL     1      17.780  -2.409 102.229  1.00  0.00    -0.347 OA
ATOM     37  H1  UNL     1      17.522  -2.312 103.138  1.00  0.00     0.219 HD
ENDBRANCH   4  36
BRANCH   5  38
HETATM   38  C10 UNL     1      16.252  -5.558 101.446  1.00  0.00     0.019 C 
BRANCH  38  39
HETATM   39  C11 UNL     1      14.932  -5.975 101.882  1.00  0.00    -0.089 C 
HETATM   40  C12 UNL     1      14.425  -6.096 103.242  1.00  0.00     0.042 C 
HETATM   41  C13 UNL     1      13.836  -5.289 100.982  1.00  0.00     0.042 C 
ENDBRANCH  38  39
ENDBRANCH   5  38
BRANCH   6  42
HETATM   42  C14 UNL     1      18.848  -5.522 103.527  1.00  0.00     0.278 C 
BRANCH  42  43
HETATM   43  C15 UNL     1      17.981  -6.743 103.833  1.00  0.00     0.014 C 
HETATM   44  C16 UNL     1      18.526  -7.982 103.200  1.00  0.00     0.006 C 
HETATM   45  C17 UNL     1      18.476  -9.192 104.106  1.00  0.00     0.000 C 
HETATM   46  C18 UNL     1      19.311  -8.985 105.322  1.00  0.00     0.000 C 
HETATM   47  C19 UNL     1      19.252  -7.550 105.807  1.00  0.00     0.000 C 
HETATM   48  C20 UNL     1      17.983  -6.922 105.334  1.00  0.00     0.006 C 
ENDBRANCH  42  43
ENDBRANCH   6  42
TORSDOF 13
ENDMDL
