MODEL 1
REMARK VINA RESULT: -7.638309088      0.000      0.000
REMARK  8 active torsions:
REMARK  status: ('A' for Active; 'I' for Inactive)
REMARK    1  A    between atoms: C2_2  and  C3_3 
REMARK    2  A    between atoms: C3_3  and  C5_5 
REMARK    3  A    between atoms: C5_5  and  C6_6 
REMARK    4  A    between atoms: C6_6  and  C8_8 
REMARK    5  A    between atoms: C9_9  and  C11_11 
REMARK    6  A    between atoms: C11_11  and  O1_12 
REMARK    7  A    between atoms: C11_11  and  C12_14 
REMARK    8  A    between atoms: C12_14  and  O2_15 
ROOT
HETATM    1  C12 UNL     1      67.907  48.507   7.800  1.00  0.00     0.105 C 
HETATM    2  C13 UNL     1      68.880  49.492   8.233  1.00  0.00     0.017 C 
HETATM    3  C14 UNL     1      68.892  49.948   9.474  1.00  0.00    -0.076 C 
HETATM    4  C15 UNL     1      69.939  50.963   9.820  1.00  0.00     0.035 C 
HETATM    5  C16 UNL     1      69.388  52.120  10.625  1.00  0.00     0.017 C 
HETATM    6  C17 UNL     1      67.909  52.046  10.533  1.00  0.00     0.064 C 
HETATM    7  C18 UNL     1      67.186  53.057  11.335  1.00  0.00     0.131 C 
HETATM    8  O3  UNL     1      67.512  54.160  11.688  1.00  0.00    -0.298 OA
HETATM    9  C19 UNL     1      65.872  52.431  11.661  1.00  0.00     0.079 C 
HETATM   10  C20 UNL     1      66.000  50.969  11.286  1.00  0.00     0.018 C 
HETATM   11  C21 UNL     1      67.477  50.773  11.255  1.00  0.00    -0.026 C 
HETATM   12  C22 UNL     1      67.961  50.829  12.710  1.00  0.00     0.016 C 
HETATM   13  C23 UNL     1      67.958  49.546  10.555  1.00  0.00     0.023 C 
HETATM   14  C24 UNL     1      66.869  48.634  10.078  1.00  0.00     0.013 C 
HETATM   15  C25 UNL     1      66.633  48.715   8.597  1.00  0.00     0.046 C 
ENDROOT
BRANCH   1  16
HETATM   16  C11 UNL     1      68.401  47.111   7.879  1.00  0.00     0.184 C 
BRANCH  16  17
HETATM   17  C9  UNL     1      69.867  46.996   8.113  1.00  0.00    -0.056 C 
HETATM   18  C8  UNL     1      70.710  47.288   7.131  1.00  0.00    -0.018 C 
HETATM   19  C10 UNL     1      70.388  46.568   9.411  1.00  0.00     0.046 C 
BRANCH  18  20
HETATM   20  C6  UNL     1      72.180  47.229   7.209  1.00  0.00     0.005 C 
HETATM   21  C7  UNL     1      72.688  46.420   5.992  1.00  0.00     0.014 C 
BRANCH  20  22
HETATM   22  C5  UNL     1      72.806  48.599   7.000  1.00  0.00     0.016 C 
BRANCH  22  23
HETATM   23  C3  UNL     1      72.568  49.565   8.120  1.00  0.00     0.004 C 
HETATM   24  C4  UNL     1      72.848  50.955   7.576  1.00  0.00     0.014 C 
BRANCH  23  25
HETATM   25  C2  UNL     1      73.502  49.292   9.237  1.00  0.00    -0.033 C 
HETATM   26  C1  UNL     1      73.061  48.943  10.418  1.00  0.00     0.007 C 
ENDBRANCH  23  25
ENDBRANCH  22  23
ENDBRANCH  20  22
ENDBRANCH  18  20
ENDBRANCH  16  17
BRANCH  16  27
HETATM   27  O1  UNL     1      68.074  46.478   6.659  1.00  0.00    -0.388 OA
ATOM     28  H1  UNL     1      67.183  46.703   6.420  1.00  0.00     0.210 HD
ENDBRANCH  16  27
ENDBRANCH   1  16
BRANCH   1  29
HETATM   29  O2  UNL     1      67.525  48.760   6.463  1.00  0.00    -0.383 OA
ATOM     30  H2  UNL     1      66.766  49.330   6.477  1.00  0.00     0.211 HD
ENDBRANCH   1  29
TORSDOF 8
ENDMDL
MODEL 2
REMARK VINA RESULT: -7.573843927      0.971      1.226
REMARK  8 active torsions:
REMARK  status: ('A' for Active; 'I' for Inactive)
REMARK    1  A    between atoms: C2_2  and  C3_3 
REMARK    2  A    between atoms: C3_3  and  C5_5 
REMARK    3  A    between atoms: C5_5  and  C6_6 
REMARK    4  A    between atoms: C6_6  and  C8_8 
REMARK    5  A    between atoms: C9_9  and  C11_11 
REMARK    6  A    between atoms: C11_11  and  O1_12 
REMARK    7  A    between atoms: C11_11  and  C12_14 
REMARK    8  A    between atoms: C12_14  and  O2_15 
ROOT
HETATM    1  C12 UNL     1      66.920  48.427   7.726  1.00  0.00     0.105 C 
HETATM    2  C13 UNL     1      68.011  49.343   8.002  1.00  0.00     0.017 C 
HETATM    3  C14 UNL     1      68.248  49.780   9.227  1.00  0.00    -0.076 C 
HETATM    4  C15 UNL     1      69.400  50.722   9.407  1.00  0.00     0.035 C 
HETATM    5  C16 UNL     1      69.059  51.900  10.293  1.00  0.00     0.017 C 
HETATM    6  C17 UNL     1      67.582  51.921  10.437  1.00  0.00     0.064 C 
HETATM    7  C18 UNL     1      67.061  52.964  11.347  1.00  0.00     0.131 C 
HETATM    8  O3  UNL     1      67.509  54.040  11.648  1.00  0.00    -0.298 OA
HETATM    9  C19 UNL     1      65.778  52.418  11.875  1.00  0.00     0.079 C 
HETATM   10  C20 UNL     1      65.751  50.956  11.479  1.00  0.00     0.018 C 
HETATM   11  C21 UNL     1      67.189  50.667  11.213  1.00  0.00    -0.026 C 
HETATM   12  C22 UNL     1      67.899  50.673  12.574  1.00  0.00     0.016 C 
HETATM   13  C23 UNL     1      67.473  49.423  10.442  1.00  0.00     0.023 C 
HETATM   14  C24 UNL     1      66.266  48.587  10.140  1.00  0.00     0.013 C 
HETATM   15  C25 UNL     1      65.805  48.703   8.716  1.00  0.00     0.046 C 
ENDROOT
BRANCH   1  16
HETATM   16  C11 UNL     1      67.330  47.002   7.720  1.00  0.00     0.184 C 
BRANCH  16  17
HETATM   17  C9  UNL     1      68.762  46.778   8.063  1.00  0.00    -0.056 C 
HETATM   18  C8  UNL     1      69.697  47.036   7.159  1.00  0.00    -0.018 C 
HETATM   19  C10 UNL     1      69.148  46.280   9.382  1.00  0.00     0.046 C 
BRANCH  18  20
HETATM   20  C6  UNL     1      71.149  46.873   7.348  1.00  0.00     0.005 C 
HETATM   21  C7  UNL     1      71.579  45.574   6.626  1.00  0.00     0.014 C 
BRANCH  20  22
HETATM   22  C5  UNL     1      71.934  47.951   6.617  1.00  0.00     0.016 C 
BRANCH  22  23
HETATM   23  C3  UNL     1      71.367  49.331   6.758  1.00  0.00     0.004 C 
HETATM   24  C4  UNL     1      70.928  49.775   5.374  1.00  0.00     0.014 C 
BRANCH  23  25
HETATM   25  C2  UNL     1      72.408  50.262   7.251  1.00  0.00    -0.033 C 
HETATM   26  C1  UNL     1      73.027  50.048   8.383  1.00  0.00     0.007 C 
ENDBRANCH  23  25
ENDBRANCH  22  23
ENDBRANCH  20  22
ENDBRANCH  18  20
ENDBRANCH  16  17
BRANCH  16  27
HETATM   27  O1  UNL     1      67.078  46.495   6.426  1.00  0.00    -0.388 OA
ATOM     28  H1  UNL     1      66.284  45.974   6.444  1.00  0.00     0.210 HD
ENDBRANCH  16  27
ENDBRANCH   1  16
BRANCH   1  29
HETATM   29  O2  UNL     1      66.349  48.722   6.467  1.00  0.00    -0.383 OA
ATOM     30  H2  UNL     1      67.018  48.593   5.805  1.00  0.00     0.211 HD
ENDBRANCH   1  29
TORSDOF 8
ENDMDL
MODEL 3
REMARK VINA RESULT: -7.554062364      1.905      2.601
REMARK  8 active torsions:
REMARK  status: ('A' for Active; 'I' for Inactive)
REMARK    1  A    between atoms: C2_2  and  C3_3 
REMARK    2  A    between atoms: C3_3  and  C5_5 
REMARK    3  A    between atoms: C5_5  and  C6_6 
REMARK    4  A    between atoms: C6_6  and  C8_8 
REMARK    5  A    between atoms: C9_9  and  C11_11 
REMARK    6  A    between atoms: C11_11  and  O1_12 
REMARK    7  A    between atoms: C11_11  and  C12_14 
REMARK    8  A    between atoms: C12_14  and  O2_15 
ROOT
HETATM    1  C12 UNL     1      66.229  48.307   7.661  1.00  0.00     0.105 C 
HETATM    2  C13 UNL     1      66.739  49.415   8.447  1.00  0.00     0.017 C 
HETATM    3  C14 UNL     1      66.340  49.617   9.690  1.00  0.00    -0.076 C 
HETATM    4  C15 UNL     1      66.928  50.789  10.417  1.00  0.00     0.035 C 
HETATM    5  C16 UNL     1      65.891  51.588  11.175  1.00  0.00     0.017 C 
HETATM    6  C17 UNL     1      64.561  51.146  10.686  1.00  0.00     0.064 C 
HETATM    7  C18 UNL     1      63.409  51.762  11.379  1.00  0.00     0.131 C 
HETATM    8  O3  UNL     1      63.300  52.826  11.930  1.00  0.00    -0.298 OA
HETATM    9  C19 UNL     1      62.306  50.763  11.270  1.00  0.00     0.079 C 
HETATM   10  C20 UNL     1      62.949  49.483  10.777  1.00  0.00     0.018 C 
HETATM   11  C21 UNL     1      64.386  49.692  11.116  1.00  0.00    -0.026 C 
HETATM   12  C22 UNL     1      64.497  49.601  12.644  1.00  0.00     0.016 C 
HETATM   13  C23 UNL     1      65.356  48.788  10.432  1.00  0.00     0.023 C 
HETATM   14  C24 UNL     1      64.727  47.728   9.581  1.00  0.00     0.013 C 
HETATM   15  C25 UNL     1      64.810  48.019   8.111  1.00  0.00     0.046 C 
ENDROOT
BRANCH   1  16
HETATM   16  C11 UNL     1      67.092  47.101   7.707  1.00  0.00     0.184 C 
BRANCH  16  17
HETATM   17  C9  UNL     1      68.491  47.368   8.142  1.00  0.00    -0.056 C 
HETATM   18  C8  UNL     1      69.357  47.878   7.277  1.00  0.00    -0.018 C 
HETATM   19  C10 UNL     1      68.919  47.078   9.509  1.00  0.00     0.046 C 
BRANCH  18  20
HETATM   20  C6  UNL     1      70.767  48.203   7.556  1.00  0.00     0.005 C 
HETATM   21  C7  UNL     1      71.644  47.386   6.578  1.00  0.00     0.014 C 
BRANCH  20  22
HETATM   22  C5  UNL     1      71.092  49.644   7.193  1.00  0.00     0.016 C 
BRANCH  22  23
HETATM   23  C3  UNL     1      71.692  50.441   8.309  1.00  0.00     0.004 C 
HETATM   24  C4  UNL     1      73.199  50.405   8.121  1.00  0.00     0.014 C 
BRANCH  23  25
HETATM   25  C2  UNL     1      71.358  49.826   9.614  1.00  0.00    -0.033 C 
HETATM   26  C1  UNL     1      70.572  50.432  10.466  1.00  0.00     0.007 C 
ENDBRANCH  23  25
ENDBRANCH  22  23
ENDBRANCH  20  22
ENDBRANCH  18  20
ENDBRANCH  16  17
BRANCH  16  27
HETATM   27  O1  UNL     1      67.107  46.544   6.409  1.00  0.00    -0.388 OA
ATOM     28  H1  UNL     1      66.555  45.772   6.393  1.00  0.00     0.210 HD
ENDBRANCH  16  27
ENDBRANCH   1  16
BRANCH   1  29
HETATM   29  O2  UNL     1      66.095  48.695   6.309  1.00  0.00    -0.383 OA
ATOM     30  H2  UNL     1      66.402  49.590   6.229  1.00  0.00     0.211 HD
ENDBRANCH   1  29
TORSDOF 8
ENDMDL
MODEL 4
REMARK VINA RESULT: -7.549257976      1.481      1.880
REMARK  8 active torsions:
REMARK  status: ('A' for Active; 'I' for Inactive)
REMARK    1  A    between atoms: C2_2  and  C3_3 
REMARK    2  A    between atoms: C3_3  and  C5_5 
REMARK    3  A    between atoms: C5_5  and  C6_6 
REMARK    4  A    between atoms: C6_6  and  C8_8 
REMARK    5  A    between atoms: C9_9  and  C11_11 
REMARK    6  A    between atoms: C11_11  and  O1_12 
REMARK    7  A    between atoms: C11_11  and  C12_14 
REMARK    8  A    between atoms: C12_14  and  O2_15 
ROOT
HETATM    1  C12 UNL     1      66.663  48.582   7.640  1.00  0.00     0.105 C 
HETATM    2  C13 UNL     1      67.352  49.786   8.063  1.00  0.00     0.017 C 
HETATM    3  C14 UNL     1      67.478  50.092   9.342  1.00  0.00    -0.076 C 
HETATM    4  C15 UNL     1      68.209  51.358   9.675  1.00  0.00     0.035 C 
HETATM    5  C16 UNL     1      67.506  52.178  10.734  1.00  0.00     0.017 C 
HETATM    6  C17 UNL     1      66.136  51.626  10.871  1.00  0.00     0.064 C 
HETATM    7  C18 UNL     1      65.317  52.253  11.932  1.00  0.00     0.131 C 
HETATM    8  O3  UNL     1      65.353  53.360  12.401  1.00  0.00    -0.298 OA
HETATM    9  C19 UNL     1      64.355  51.196  12.360  1.00  0.00     0.079 C 
HETATM   10  C20 UNL     1      64.848  49.906  11.738  1.00  0.00     0.018 C 
HETATM   11  C21 UNL     1      66.275  50.216  11.438  1.00  0.00    -0.026 C 
HETATM   12  C22 UNL     1      67.005  50.284  12.786  1.00  0.00     0.016 C 
HETATM   13  C23 UNL     1      66.955  49.296  10.481  1.00  0.00     0.023 C 
HETATM   14  C24 UNL     1      66.127  48.126  10.045  1.00  0.00     0.013 C 
HETATM   15  C25 UNL     1      65.579  48.272   8.655  1.00  0.00     0.046 C 
ENDROOT
BRANCH   1  16
HETATM   16  C11 UNL     1      67.568  47.429   7.411  1.00  0.00     0.184 C 
BRANCH  16  17
HETATM   17  C9  UNL     1      68.990  47.807   7.180  1.00  0.00    -0.056 C 
HETATM   18  C8  UNL     1      69.274  48.799   6.347  1.00  0.00    -0.018 C 
HETATM   19  C10 UNL     1      70.074  47.101   7.860  1.00  0.00     0.046 C 
BRANCH  18  20
HETATM   20  C6  UNL     1      70.623  49.293   6.020  1.00  0.00     0.005 C 
HETATM   21  C7  UNL     1      70.514  50.161   4.744  1.00  0.00     0.014 C 
BRANCH  20  22
HETATM   22  C5  UNL     1      71.128  50.275   7.066  1.00  0.00     0.016 C 
BRANCH  22  23
HETATM   23  C3  UNL     1      72.556  50.069   7.467  1.00  0.00     0.004 C 
HETATM   24  C4  UNL     1      73.053  48.838   6.729  1.00  0.00     0.014 C 
BRANCH  23  25
HETATM   25  C2  UNL     1      72.646  49.822   8.925  1.00  0.00    -0.033 C 
HETATM   26  C1  UNL     1      71.578  49.829   9.680  1.00  0.00     0.007 C 
ENDBRANCH  23  25
ENDBRANCH  22  23
ENDBRANCH  20  22
ENDBRANCH  18  20
ENDBRANCH  16  17
BRANCH  16  27
HETATM   27  O1  UNL     1      67.084  46.729   6.283  1.00  0.00    -0.388 OA
ATOM     28  H1  UNL     1      66.591  45.971   6.574  1.00  0.00     0.210 HD
ENDBRANCH  16  27
ENDBRANCH   1  16
BRANCH   1  29
HETATM   29  O2  UNL     1      65.957  48.826   6.439  1.00  0.00    -0.383 OA
ATOM     30  H2  UNL     1      65.323  49.512   6.607  1.00  0.00     0.211 HD
ENDBRANCH   1  29
TORSDOF 8
ENDMDL
MODEL 5
REMARK VINA RESULT: -7.397869724      2.017      3.037
REMARK  8 active torsions:
REMARK  status: ('A' for Active; 'I' for Inactive)
REMARK    1  A    between atoms: C2_2  and  C3_3 
REMARK    2  A    between atoms: C3_3  and  C5_5 
REMARK    3  A    between atoms: C5_5  and  C6_6 
REMARK    4  A    between atoms: C6_6  and  C8_8 
REMARK    5  A    between atoms: C9_9  and  C11_11 
REMARK    6  A    between atoms: C11_11  and  O1_12 
REMARK    7  A    between atoms: C11_11  and  C12_14 
REMARK    8  A    between atoms: C12_14  and  O2_15 
ROOT
HETATM    1  C12 UNL     1      66.174  48.373   7.671  1.00  0.00     0.105 C 
HETATM    2  C13 UNL     1      66.650  49.505   8.442  1.00  0.00     0.017 C 
HETATM    3  C14 UNL     1      66.281  49.685   9.698  1.00  0.00    -0.076 C 
HETATM    4  C15 UNL     1      66.829  50.885  10.408  1.00  0.00     0.035 C 
HETATM    5  C16 UNL     1      65.776  51.627  11.202  1.00  0.00     0.017 C 
HETATM    6  C17 UNL     1      64.456  51.115  10.756  1.00  0.00     0.064 C 
HETATM    7  C18 UNL     1      63.296  51.669  11.487  1.00  0.00     0.131 C 
HETATM    8  O3  UNL     1      63.149  52.724  12.045  1.00  0.00    -0.298 OA
HETATM    9  C19 UNL     1      62.246  50.612  11.412  1.00  0.00     0.079 C 
HETATM   10  C20 UNL     1      62.940  49.369  10.894  1.00  0.00     0.018 C 
HETATM   11  C21 UNL     1      64.373  49.654  11.187  1.00  0.00    -0.026 C 
HETATM   12  C22 UNL     1      64.538  49.567  12.710  1.00  0.00     0.016 C 
HETATM   13  C23 UNL     1      65.367  48.804  10.469  1.00  0.00     0.023 C 
HETATM   14  C24 UNL     1      64.768  47.712   9.636  1.00  0.00     0.013 C 
HETATM   15  C25 UNL     1      64.787  48.009   8.165  1.00  0.00     0.046 C 
ENDROOT
BRANCH   1  16
HETATM   16  C11 UNL     1      67.101  47.214   7.684  1.00  0.00     0.184 C 
BRANCH  16  17
HETATM   17  C9  UNL     1      68.443  47.514   8.256  1.00  0.00    -0.056 C 
HETATM   18  C8  UNL     1      69.182  48.474   7.717  1.00  0.00    -0.018 C 
HETATM   19  C10 UNL     1      68.952  46.766   9.404  1.00  0.00     0.046 C 
BRANCH  18  20
HETATM   20  C6  UNL     1      70.520  48.891   8.171  1.00  0.00     0.005 C 
HETATM   21  C7  UNL     1      71.287  49.440   6.945  1.00  0.00     0.014 C 
BRANCH  20  22
HETATM   22  C5  UNL     1      70.447  50.092   9.101  1.00  0.00     0.016 C 
BRANCH  22  23
HETATM   23  C3  UNL     1      71.047  49.864  10.454  1.00  0.00     0.004 C 
HETATM   24  C4  UNL     1      72.050  48.733  10.310  1.00  0.00     0.014 C 
BRANCH  23  25
HETATM   25  C2  UNL     1      69.998  49.453  11.415  1.00  0.00    -0.033 C 
HETATM   26  C1  UNL     1      69.757  50.151  12.494  1.00  0.00     0.007 C 
ENDBRANCH  23  25
ENDBRANCH  22  23
ENDBRANCH  20  22
ENDBRANCH  18  20
ENDBRANCH  16  17
BRANCH  16  27
HETATM   27  O1  UNL     1      67.251  46.778   6.349  1.00  0.00    -0.388 OA
ATOM     28  H1  UNL     1      68.155  46.523   6.204  1.00  0.00     0.210 HD
ENDBRANCH  16  27
ENDBRANCH   1  16
BRANCH   1  29
HETATM   29  O2  UNL     1      65.975  48.755   6.324  1.00  0.00    -0.383 OA
ATOM     30  H2  UNL     1      65.080  49.061   6.236  1.00  0.00     0.211 HD
ENDBRANCH   1  29
TORSDOF 8
ENDMDL
