MODEL 1
REMARK VINA RESULT: -8.175351241      0.000      0.000
REMARK  8 active torsions:
REMARK  status: ('A' for Active; 'I' for Inactive)
REMARK    1  A    between atoms: C2_2  and  C3_3 
REMARK    2  A    between atoms: C2_2  and  C5_5 
REMARK    3  A    between atoms: C5_5  and  C6_7 
REMARK    4  A    between atoms: C6_7  and  C7_8 
REMARK    5  A    between atoms: C7_8  and  C8_9 
REMARK    6  A    between atoms: C8_9  and  C10_11 
REMARK    7  A    between atoms: C11_12  and  O2_13 
REMARK    8  A    between atoms: C21_24  and  O3_25 
ROOT
HETATM    1  C10 UNL     1      68.882  49.523  11.988  1.00  0.00     0.027 C 
HETATM    2  C11 UNL     1      70.377  49.397  12.238  1.00  0.00     0.129 C 
HETATM    3  C12 UNL     1      70.372  48.520  11.009  1.00  0.00     0.032 C 
HETATM    4  C13 UNL     1      69.214  49.344  10.519  1.00  0.00    -0.031 C 
HETATM    5  C14 UNL     1      68.097  48.510   9.888  1.00  0.00     0.016 C 
HETATM    6  C15 UNL     1      69.549  50.548   9.744  1.00  0.00     0.010 C 
HETATM    7  C16 UNL     1      70.816  50.513   8.961  1.00  0.00     0.007 C 
HETATM    8  C17 UNL     1      71.280  49.073   8.818  1.00  0.00     0.004 C 
HETATM    9  C18 UNL     1      72.321  48.906   7.773  1.00  0.00    -0.017 C 
HETATM   10  C19 UNL     1      71.669  49.316   6.439  1.00  0.00     0.018 C 
HETATM   11  C20 UNL     1      73.538  49.753   7.931  1.00  0.00     0.018 C 
HETATM   12  C21 UNL     1      72.644  47.440   7.634  1.00  0.00     0.126 C 
HETATM   13  C22 UNL     1      71.725  46.593   8.468  1.00  0.00     0.033 C 
HETATM   14  C23 UNL     1      71.904  46.981   9.902  1.00  0.00     0.012 C 
HETATM   15  C24 UNL     1      71.558  48.452  10.149  1.00  0.00    -0.033 C 
HETATM   16  C25 UNL     1      72.744  49.045  10.857  1.00  0.00     0.016 C 
ENDROOT
BRANCH   1  17
HETATM   17  C8  UNL     1      68.205  50.741  12.433  1.00  0.00    -0.011 C 
HETATM   18  C9  UNL     1      68.400  50.844  13.954  1.00  0.00     0.010 C 
BRANCH  17  19
HETATM   19  C7  UNL     1      66.704  50.562  12.227  1.00  0.00     0.012 C 
BRANCH  19  20
HETATM   20  C6  UNL     1      66.170  51.477  11.172  1.00  0.00     0.084 C 
BRANCH  20  21
HETATM   21  C5  UNL     1      65.932  52.831  11.719  1.00  0.00     0.154 C 
HETATM   22  O1  UNL     1      64.987  52.992  12.524  1.00  0.00    -0.293 OA
BRANCH  21  23
HETATM   23  C2  UNL     1      66.750  53.974  11.357  1.00  0.00    -0.022 C 
HETATM   24  C1  UNL     1      66.543  55.163  11.895  1.00  0.00     0.022 C 
BRANCH  23  25
HETATM   25  C3  UNL     1      67.859  53.862  10.360  1.00  0.00     0.037 C 
HETATM   26  C4  UNL     1      68.020  55.206   9.652  1.00  0.00     0.010 C 
ENDBRANCH  23  25
ENDBRANCH  21  23
ENDBRANCH  20  21
ENDBRANCH  19  20
ENDBRANCH  17  19
ENDBRANCH   1  17
BRANCH   2  27
HETATM   27  O2  UNL     1      70.977  50.613  12.141  1.00  0.00    -0.395 OA
ATOM     28  H2  UNL     1      70.568  51.232  12.733  1.00  0.00     0.210 HD
ENDBRANCH   2  27
BRANCH  12  29
HETATM   29  O3  UNL     1      72.549  46.987   6.319  1.00  0.00    -0.395 OA
ATOM     30  H3  UNL     1      73.256  46.398   6.079  1.00  0.00     0.210 HD
ENDBRANCH  12  29
TORSDOF 8
ENDMDL
MODEL 2
REMARK VINA RESULT: -7.738240610      1.628      2.398
REMARK  8 active torsions:
REMARK  status: ('A' for Active; 'I' for Inactive)
REMARK    1  A    between atoms: C2_2  and  C3_3 
REMARK    2  A    between atoms: C2_2  and  C5_5 
REMARK    3  A    between atoms: C5_5  and  C6_7 
REMARK    4  A    between atoms: C6_7  and  C7_8 
REMARK    5  A    between atoms: C7_8  and  C8_9 
REMARK    6  A    between atoms: C8_9  and  C10_11 
REMARK    7  A    between atoms: C11_12  and  O2_13 
REMARK    8  A    between atoms: C21_24  and  O3_25 
ROOT
HETATM    1  C10 UNL     1      71.293  48.740  12.120  1.00  0.00     0.027 C 
HETATM    2  C11 UNL     1      72.672  48.173  11.820  1.00  0.00     0.129 C 
HETATM    3  C12 UNL     1      72.001  47.522  10.637  1.00  0.00     0.032 C 
HETATM    4  C13 UNL     1      71.059  48.694  10.622  1.00  0.00    -0.031 C 
HETATM    5  C14 UNL     1      69.598  48.301  10.392  1.00  0.00     0.016 C 
HETATM    6  C15 UNL     1      71.478  49.860   9.831  1.00  0.00     0.010 C 
HETATM    7  C16 UNL     1      72.348  49.594   8.650  1.00  0.00     0.007 C 
HETATM    8  C17 UNL     1      72.273  48.119   8.292  1.00  0.00     0.004 C 
HETATM    9  C18 UNL     1      72.814  47.828   6.940  1.00  0.00    -0.017 C 
HETATM   10  C19 UNL     1      71.925  48.591   5.941  1.00  0.00     0.018 C 
HETATM   11  C20 UNL     1      74.215  48.276   6.694  1.00  0.00     0.018 C 
HETATM   12  C21 UNL     1      72.607  46.366   6.634  1.00  0.00     0.126 C 
HETATM   13  C22 UNL     1      71.793  45.691   7.703  1.00  0.00     0.033 C 
HETATM   14  C23 UNL     1      72.537  45.801   8.996  1.00  0.00     0.012 C 
HETATM   15  C24 UNL     1      72.761  47.258   9.412  1.00  0.00    -0.033 C 
HETATM   16  C25 UNL     1      74.235  47.393   9.679  1.00  0.00     0.016 C 
ENDROOT
BRANCH   1  17
HETATM   17  C8  UNL     1      71.207  50.018  12.826  1.00  0.00    -0.011 C 
HETATM   18  C9  UNL     1      71.893  49.836  14.189  1.00  0.00     0.010 C 
BRANCH  17  19
HETATM   19  C7  UNL     1      69.741  50.297  13.143  1.00  0.00     0.012 C 
BRANCH  19  20
HETATM   20  C6  UNL     1      69.334  51.679  12.743  1.00  0.00     0.084 C 
BRANCH  20  21
HETATM   21  C5  UNL     1      68.272  51.640  11.714  1.00  0.00     0.154 C 
HETATM   22  O1  UNL     1      67.149  51.186  12.032  1.00  0.00    -0.293 OA
BRANCH  21  23
HETATM   23  C2  UNL     1      68.483  52.107  10.357  1.00  0.00    -0.022 C 
HETATM   24  C1  UNL     1      68.037  51.422   9.319  1.00  0.00     0.022 C 
BRANCH  23  25
HETATM   25  C3  UNL     1      69.213  53.380  10.069  1.00  0.00     0.037 C 
HETATM   26  C4  UNL     1      68.206  54.529  10.044  1.00  0.00     0.010 C 
ENDBRANCH  23  25
ENDBRANCH  21  23
ENDBRANCH  20  21
ENDBRANCH  19  20
ENDBRANCH  17  19
ENDBRANCH   1  17
BRANCH   2  27
HETATM   27  O2  UNL     1      73.553  49.179  11.569  1.00  0.00    -0.395 OA
ATOM     28  H2  UNL     1      74.092  48.966  10.817  1.00  0.00     0.210 HD
ENDBRANCH   2  27
BRANCH  12  29
HETATM   29  O3  UNL     1      71.956  46.154   5.420  1.00  0.00    -0.395 OA
ATOM     30  H3  UNL     1      72.513  45.743   4.769  1.00  0.00     0.210 HD
ENDBRANCH  12  29
TORSDOF 8
ENDMDL
MODEL 3
REMARK VINA RESULT: -7.668350656      2.431      4.914
REMARK  8 active torsions:
REMARK  status: ('A' for Active; 'I' for Inactive)
REMARK    1  A    between atoms: C2_2  and  C3_3 
REMARK    2  A    between atoms: C2_2  and  C5_5 
REMARK    3  A    between atoms: C5_5  and  C6_7 
REMARK    4  A    between atoms: C6_7  and  C7_8 
REMARK    5  A    between atoms: C7_8  and  C8_9 
REMARK    6  A    between atoms: C8_9  and  C10_11 
REMARK    7  A    between atoms: C11_12  and  O2_13 
REMARK    8  A    between atoms: C21_24  and  O3_25 
ROOT
HETATM    1  C10 UNL     1      66.048  52.791  11.815  1.00  0.00     0.027 C 
HETATM    2  C11 UNL     1      67.357  53.305  11.235  1.00  0.00     0.129 C 
HETATM    3  C12 UNL     1      67.974  52.108  11.917  1.00  0.00     0.032 C 
HETATM    4  C13 UNL     1      66.660  51.407  11.708  1.00  0.00    -0.031 C 
HETATM    5  C14 UNL     1      66.199  50.600  12.924  1.00  0.00     0.016 C 
HETATM    6  C15 UNL     1      66.498  50.686  10.437  1.00  0.00     0.010 C 
HETATM    7  C16 UNL     1      67.736  50.142   9.810  1.00  0.00     0.007 C 
HETATM    8  C17 UNL     1      68.849  50.105  10.844  1.00  0.00     0.004 C 
HETATM    9  C18 UNL     1      69.998  49.264  10.422  1.00  0.00    -0.017 C 
HETATM   10  C19 UNL     1      69.457  47.830  10.275  1.00  0.00     0.018 C 
HETATM   11  C20 UNL     1      70.615  49.623   9.113  1.00  0.00     0.018 C 
HETATM   12  C21 UNL     1      71.002  49.207  11.545  1.00  0.00     0.126 C 
HETATM   13  C22 UNL     1      70.479  49.877  12.785  1.00  0.00     0.033 C 
HETATM   14  C23 UNL     1      70.213  51.314  12.463  1.00  0.00     0.012 C 
HETATM   15  C24 UNL     1      69.169  51.474  11.353  1.00  0.00    -0.033 C 
HETATM   16  C25 UNL     1      69.793  52.372  10.321  1.00  0.00     0.016 C 
ENDROOT
BRANCH   1  17
HETATM   17  C8  UNL     1      64.808  53.090  11.099  1.00  0.00    -0.011 C 
HETATM   18  C9  UNL     1      64.568  54.603  11.210  1.00  0.00     0.010 C 
BRANCH  17  19
HETATM   19  C7  UNL     1      63.650  52.438  11.847  1.00  0.00     0.012 C 
BRANCH  19  20
HETATM   20  C6  UNL     1      62.814  51.582  10.950  1.00  0.00     0.084 C 
BRANCH  20  21
HETATM   21  C5  UNL     1      62.369  50.358  11.652  1.00  0.00     0.154 C 
HETATM   22  O1  UNL     1      61.375  50.432  12.410  1.00  0.00    -0.293 OA
BRANCH  21  23
HETATM   23  C2  UNL     1      63.040  49.081  11.496  1.00  0.00    -0.022 C 
HETATM   24  C1  UNL     1      63.337  48.329  12.542  1.00  0.00     0.022 C 
BRANCH  23  25
HETATM   25  C3  UNL     1      63.429  48.557  10.150  1.00  0.00     0.037 C 
HETATM   26  C4  UNL     1      64.563  47.549  10.324  1.00  0.00     0.010 C 
ENDBRANCH  23  25
ENDBRANCH  21  23
ENDBRANCH  20  21
ENDBRANCH  19  20
ENDBRANCH  17  19
ENDBRANCH   1  17
BRANCH   2  27
HETATM   27  O2  UNL     1      67.308  53.297   9.876  1.00  0.00    -0.395 OA
ATOM     28  H2  UNL     1      67.590  54.135   9.530  1.00  0.00     0.210 HD
ENDBRANCH   2  27
BRANCH  12  29
HETATM   29  O3  UNL     1      71.352  47.904  11.893  1.00  0.00    -0.395 OA
ATOM     30  H3  UNL     1      72.197  47.643  11.545  1.00  0.00     0.210 HD
ENDBRANCH  12  29
TORSDOF 8
ENDMDL
MODEL 4
REMARK VINA RESULT: -7.572547233      1.655      2.831
REMARK  8 active torsions:
REMARK  status: ('A' for Active; 'I' for Inactive)
REMARK    1  A    between atoms: C2_2  and  C3_3 
REMARK    2  A    between atoms: C2_2  and  C5_5 
REMARK    3  A    between atoms: C5_5  and  C6_7 
REMARK    4  A    between atoms: C6_7  and  C7_8 
REMARK    5  A    between atoms: C7_8  and  C8_9 
REMARK    6  A    between atoms: C8_9  and  C10_11 
REMARK    7  A    between atoms: C11_12  and  O2_13 
REMARK    8  A    between atoms: C21_24  and  O3_25 
ROOT
HETATM    1  C10 UNL     1      68.411  50.179  10.057  1.00  0.00     0.027 C 
HETATM    2  C11 UNL     1      68.678  50.392   8.575  1.00  0.00     0.129 C 
HETATM    3  C12 UNL     1      70.134  50.290   8.959  1.00  0.00     0.032 C 
HETATM    4  C13 UNL     1      69.698  49.377  10.071  1.00  0.00    -0.031 C 
HETATM    5  C14 UNL     1      70.404  49.653  11.400  1.00  0.00     0.016 C 
HETATM    6  C15 UNL     1      69.613  47.945   9.746  1.00  0.00     0.010 C 
HETATM    7  C16 UNL     1      70.534  47.439   8.689  1.00  0.00     0.007 C 
HETATM    8  C17 UNL     1      71.648  48.448   8.468  1.00  0.00     0.004 C 
HETATM    9  C18 UNL     1      72.791  47.884   7.705  1.00  0.00    -0.017 C 
HETATM   10  C19 UNL     1      73.366  46.741   8.561  1.00  0.00     0.018 C 
HETATM   11  C20 UNL     1      72.453  47.295   6.378  1.00  0.00     0.018 C 
HETATM   12  C21 UNL     1      73.883  48.920   7.622  1.00  0.00     0.126 C 
HETATM   13  C22 UNL     1      73.558  50.130   8.453  1.00  0.00     0.033 C 
HETATM   14  C23 UNL     1      72.295  50.734   7.923  1.00  0.00     0.012 C 
HETATM   15  C24 UNL     1      71.113  49.764   8.003  1.00  0.00    -0.033 C 
HETATM   16  C25 UNL     1      70.516  49.720   6.624  1.00  0.00     0.016 C 
ENDROOT
BRANCH   1  17
HETATM   17  C8  UNL     1      67.156  49.539  10.451  1.00  0.00    -0.011 C 
HETATM   18  C9  UNL     1      66.078  49.993   9.455  1.00  0.00     0.010 C 
BRANCH  17  19
HETATM   19  C7  UNL     1      66.728  50.107  11.800  1.00  0.00     0.012 C 
BRANCH  19  20
HETATM   20  C6  UNL     1      67.412  51.400  12.107  1.00  0.00     0.084 C 
BRANCH  20  21
HETATM   21  C5  UNL     1      66.499  52.545  11.899  1.00  0.00     0.154 C 
HETATM   22  O1  UNL     1      65.301  52.423  12.245  1.00  0.00    -0.293 OA
BRANCH  21  23
HETATM   23  C2  UNL     1      66.937  53.796  11.311  1.00  0.00    -0.022 C 
HETATM   24  C1  UNL     1      66.451  54.955  11.721  1.00  0.00     0.022 C 
BRANCH  23  25
HETATM   25  C3  UNL     1      67.956  53.835  10.216  1.00  0.00     0.037 C 
HETATM   26  C4  UNL     1      68.084  55.273   9.717  1.00  0.00     0.010 C 
ENDBRANCH  23  25
ENDBRANCH  21  23
ENDBRANCH  20  21
ENDBRANCH  19  20
ENDBRANCH  17  19
ENDBRANCH   1  17
BRANCH   2  27
HETATM   27  O2  UNL     1      68.147  49.373   7.848  1.00  0.00    -0.395 OA
ATOM     28  H2  UNL     1      68.690  49.189   7.091  1.00  0.00     0.210 HD
ENDBRANCH   2  27
BRANCH  12  29
HETATM   29  O3  UNL     1      75.118  48.439   8.055  1.00  0.00    -0.395 OA
ATOM     30  H3  UNL     1      75.040  47.719   8.669  1.00  0.00     0.210 HD
ENDBRANCH  12  29
TORSDOF 8
ENDMDL
MODEL 5
REMARK VINA RESULT: -7.549123166      1.983      2.817
REMARK  8 active torsions:
REMARK  status: ('A' for Active; 'I' for Inactive)
REMARK    1  A    between atoms: C2_2  and  C3_3 
REMARK    2  A    between atoms: C2_2  and  C5_5 
REMARK    3  A    between atoms: C5_5  and  C6_7 
REMARK    4  A    between atoms: C6_7  and  C7_8 
REMARK    5  A    between atoms: C7_8  and  C8_9 
REMARK    6  A    between atoms: C8_9  and  C10_11 
REMARK    7  A    between atoms: C11_12  and  O2_13 
REMARK    8  A    between atoms: C21_24  and  O3_25 
ROOT
HETATM    1  C10 UNL     1      71.207  48.693  11.935  1.00  0.00     0.027 C 
HETATM    2  C11 UNL     1      72.611  48.178  11.655  1.00  0.00     0.129 C 
HETATM    3  C12 UNL     1      71.979  47.494  10.468  1.00  0.00     0.032 C 
HETATM    4  C13 UNL     1      70.993  48.629  10.435  1.00  0.00    -0.031 C 
HETATM    5  C14 UNL     1      69.551  48.177  10.191  1.00  0.00     0.016 C 
HETATM    6  C15 UNL     1      71.376  49.805   9.641  1.00  0.00     0.010 C 
HETATM    7  C16 UNL     1      72.269  49.567   8.472  1.00  0.00     0.007 C 
HETATM    8  C17 UNL     1      72.255  48.088   8.122  1.00  0.00     0.004 C 
HETATM    9  C18 UNL     1      72.822  47.810   6.778  1.00  0.00    -0.017 C 
HETATM   10  C19 UNL     1      71.916  48.532   5.765  1.00  0.00     0.018 C 
HETATM   11  C20 UNL     1      74.207  48.311   6.546  1.00  0.00     0.018 C 
HETATM   12  C21 UNL     1      72.676  46.340   6.480  1.00  0.00     0.126 C 
HETATM   13  C22 UNL     1      71.877  45.639   7.543  1.00  0.00     0.033 C 
HETATM   14  C23 UNL     1      72.601  45.786   8.844  1.00  0.00     0.012 C 
HETATM   15  C24 UNL     1      72.764  47.253   9.253  1.00  0.00    -0.033 C 
HETATM   16  C25 UNL     1      74.227  47.447   9.536  1.00  0.00     0.016 C 
ENDROOT
BRANCH   1  17
HETATM   17  C8  UNL     1      71.064  49.971  12.632  1.00  0.00    -0.011 C 
HETATM   18  C9  UNL     1      71.708  49.812  14.018  1.00  0.00     0.010 C 
BRANCH  17  19
HETATM   19  C7  UNL     1      69.581  50.211  12.898  1.00  0.00     0.012 C 
BRANCH  19  20
HETATM   20  C6  UNL     1      69.220  51.658  12.794  1.00  0.00     0.084 C 
BRANCH  20  21
HETATM   21  C5  UNL     1      68.934  52.032  11.392  1.00  0.00     0.154 C 
HETATM   22  O1  UNL     1      69.707  52.833  10.818  1.00  0.00    -0.293 OA
BRANCH  21  23
HETATM   23  C2  UNL     1      67.795  51.508  10.662  1.00  0.00    -0.022 C 
HETATM   24  C1  UNL     1      67.851  51.305   9.357  1.00  0.00     0.022 C 
BRANCH  23  25
HETATM   25  C3  UNL     1      66.507  51.176  11.347  1.00  0.00     0.037 C 
HETATM   26  C4  UNL     1      66.240  49.680  11.191  1.00  0.00     0.010 C 
ENDBRANCH  23  25
ENDBRANCH  21  23
ENDBRANCH  20  21
ENDBRANCH  19  20
ENDBRANCH  17  19
ENDBRANCH   1  17
BRANCH   2  27
HETATM   27  O2  UNL     1      73.455  49.216  11.407  1.00  0.00    -0.395 OA
ATOM     28  H2  UNL     1      73.777  49.582  12.221  1.00  0.00     0.210 HD
ENDBRANCH   2  27
BRANCH  12  29
HETATM   29  O3  UNL     1      72.048  46.095   5.260  1.00  0.00    -0.395 OA
ATOM     30  H3  UNL     1      71.962  46.876   4.725  1.00  0.00     0.210 HD
ENDBRANCH  12  29
TORSDOF 8
ENDMDL
