MODEL 1
REMARK VINA RESULT: -8.443655921      0.000      0.000
REMARK  6 active torsions:
REMARK  status: ('A' for Active; 'I' for Inactive)
REMARK    1  A    between atoms: O1_2  and  C2_3 
REMARK    2  A    between atoms: C2_3  and  C3_4 
REMARK    3  A    between atoms: C3_4  and  C4_5 
REMARK    4  A    between atoms: C5_6  and  C6_7 
REMARK    5  A    between atoms: C6_7  and  C7_8 
REMARK    6  A    between atoms: C7_8  and  O2_9 
ROOT
HETATM    1  C7  UNL     1      68.699  51.473  11.635  1.00  0.00     0.069 C 
HETATM    2  C8  UNL     1      69.022  51.095  13.067  1.00  0.00     0.039 C 
HETATM    3  C9  UNL     1      70.293  50.263  12.822  1.00  0.00     0.009 C 
HETATM    4  C10 UNL     1      70.026  49.528  11.515  1.00  0.00     0.001 C 
HETATM    5  C11 UNL     1      71.250  49.637  10.647  1.00  0.00    -0.000 C 
HETATM    6  C12 UNL     1      72.348  48.858  11.352  1.00  0.00     0.033 C 
HETATM    7  C13 UNL     1      73.536  48.729  10.431  1.00  0.00    -0.016 C 
HETATM    8  C14 UNL     1      73.264  48.399   9.227  1.00  0.00    -0.027 C 
HETATM    9  C15 UNL     1      74.477  48.274   8.303  1.00  0.00     0.091 C 
HETATM   10  N1  UNL     1      74.364  48.873   7.061  1.00  0.00    -0.397 N 
ATOM     11  H1  UNL     1      74.644  49.851   6.987  1.00  0.00     0.158 HD
HETATM   12  C16 UNL     1      73.890  48.241   5.884  1.00  0.00     0.130 C 
HETATM   13  C17 UNL     1      72.336  48.005   5.928  1.00  0.00     0.100 C 
HETATM   14  C18 UNL     1      71.926  48.039   7.275  1.00  0.00    -0.167 C 
HETATM   15  C19 UNL     1      71.864  48.125   8.706  1.00  0.00     0.040 C 
HETATM   16  C20 UNL     1      71.351  46.845   9.391  1.00  0.00     0.034 C 
HETATM   17  C21 UNL     1      71.009  49.249   9.257  1.00  0.00     0.014 C 
HETATM   18  C22 UNL     1      69.542  49.057   8.915  1.00  0.00     0.008 C 
HETATM   19  C23 UNL     1      68.834  50.292   9.436  1.00  0.00     0.013 C 
HETATM   20  C24 UNL     1      68.783  50.177  10.944  1.00  0.00    -0.009 C 
HETATM   21  C25 UNL     1      67.654  49.231  11.259  1.00  0.00     0.019 C 
ENDROOT
BRANCH   1  22
HETATM   22  C6  UNL     1      67.545  52.363  11.455  1.00  0.00     0.065 C 
BRANCH  22  23
HETATM   23  C5  UNL     1      67.722  53.661  10.798  1.00  0.00    -0.028 C 
HETATM   24  C4  UNL     1      67.040  54.755  11.015  1.00  0.00    -0.028 C 
BRANCH  24  25
HETATM   25  C3  UNL     1      65.926  54.965  11.967  1.00  0.00     0.053 C 
BRANCH  25  26
HETATM   26  C2  UNL     1      64.669  54.427  11.289  1.00  0.00     0.170 C 
BRANCH  26  27
HETATM   27  O1  UNL     1      64.161  53.304  11.910  1.00  0.00    -0.396 OA
HETATM   28  C1  UNL     1      63.299  52.552  11.123  1.00  0.00     0.201 C 
ENDBRANCH  26  27
ENDBRANCH  25  26
ENDBRANCH  24  25
ENDBRANCH  22  23
ENDBRANCH   1  22
BRANCH   1  29
HETATM   29  O2  UNL     1      69.830  52.265  11.245  1.00  0.00    -0.389 OA
ATOM     30  H2  UNL     1      69.961  52.868  11.967  1.00  0.00     0.210 HD
ENDBRANCH   1  29
TORSDOF 6
ENDMDL
MODEL 2
REMARK VINA RESULT: -8.304045497      1.280      1.553
REMARK  6 active torsions:
REMARK  status: ('A' for Active; 'I' for Inactive)
REMARK    1  A    between atoms: O1_2  and  C2_3 
REMARK    2  A    between atoms: C2_3  and  C3_4 
REMARK    3  A    between atoms: C3_4  and  C4_5 
REMARK    4  A    between atoms: C5_6  and  C6_7 
REMARK    5  A    between atoms: C6_7  and  C7_8 
REMARK    6  A    between atoms: C7_8  and  O2_9 
ROOT
HETATM    1  C7  UNL     1      68.384  51.872  11.258  1.00  0.00     0.069 C 
HETATM    2  C8  UNL     1      68.314  51.602  12.749  1.00  0.00     0.039 C 
HETATM    3  C9  UNL     1      69.520  50.657  12.885  1.00  0.00     0.009 C 
HETATM    4  C10 UNL     1      69.508  49.829  11.608  1.00  0.00     0.001 C 
HETATM    5  C11 UNL     1      70.909  49.764  11.066  1.00  0.00    -0.000 C 
HETATM    6  C12 UNL     1      71.725  48.971  12.075  1.00  0.00     0.033 C 
HETATM    7  C13 UNL     1      73.082  48.669  11.489  1.00  0.00    -0.016 C 
HETATM    8  C14 UNL     1      73.078  48.253  10.281  1.00  0.00    -0.027 C 
HETATM    9  C15 UNL     1      74.461  47.952   9.699  1.00  0.00     0.091 C 
HETATM   10  N1  UNL     1      74.709  48.443   8.430  1.00  0.00    -0.397 N 
ATOM     11  H1  UNL     1      75.092  49.385   8.359  1.00  0.00     0.158 HD
HETATM   12  C16 UNL     1      74.476  47.744   7.219  1.00  0.00     0.130 C 
HETATM   13  C17 UNL     1      72.942  47.632   6.890  1.00  0.00     0.100 C 
HETATM   14  C18 UNL     1      72.224  47.819   8.088  1.00  0.00    -0.167 C 
HETATM   15  C19 UNL     1      71.827  48.040   9.448  1.00  0.00     0.040 C 
HETATM   16  C20 UNL     1      71.043  46.870  10.072  1.00  0.00     0.034 C 
HETATM   17  C21 UNL     1      70.975  49.271   9.691  1.00  0.00     0.014 C 
HETATM   18  C22 UNL     1      69.623  49.161   9.009  1.00  0.00     0.008 C 
HETATM   19  C23 UNL     1      68.932  50.488   9.250  1.00  0.00     0.013 C 
HETATM   20  C24 UNL     1      68.507  50.515  10.702  1.00  0.00    -0.009 C 
HETATM   21  C25 UNL     1      67.251  49.691  10.792  1.00  0.00     0.019 C 
ENDROOT
BRANCH   1  22
HETATM   22  C6  UNL     1      67.398  52.826  10.736  1.00  0.00     0.065 C 
BRANCH  22  23
HETATM   23  C5  UNL     1      66.643  53.674  11.664  1.00  0.00    -0.028 C 
HETATM   24  C4  UNL     1      65.372  53.589  11.954  1.00  0.00    -0.028 C 
BRANCH  24  25
HETATM   25  C3  UNL     1      64.376  52.628  11.428  1.00  0.00     0.053 C 
BRANCH  25  26
HETATM   26  C2  UNL     1      64.442  51.399  12.329  1.00  0.00     0.170 C 
BRANCH  26  27
HETATM   27  O1  UNL     1      64.831  51.696  13.619  1.00  0.00    -0.396 OA
HETATM   28  C1  UNL     1      65.240  50.598  14.365  1.00  0.00     0.201 C 
ENDBRANCH  26  27
ENDBRANCH  25  26
ENDBRANCH  24  25
ENDBRANCH  22  23
ENDBRANCH   1  22
BRANCH   1  29
HETATM   29  O2  UNL     1      69.646  52.536  11.108  1.00  0.00    -0.389 OA
ATOM     30  H2  UNL     1      70.224  51.874  10.748  1.00  0.00     0.210 HD
ENDBRANCH   1  29
TORSDOF 6
ENDMDL
MODEL 3
REMARK VINA RESULT: -8.108444497      1.208      1.689
REMARK  6 active torsions:
REMARK  status: ('A' for Active; 'I' for Inactive)
REMARK    1  A    between atoms: O1_2  and  C2_3 
REMARK    2  A    between atoms: C2_3  and  C3_4 
REMARK    3  A    between atoms: C3_4  and  C4_5 
REMARK    4  A    between atoms: C5_6  and  C6_7 
REMARK    5  A    between atoms: C6_7  and  C7_8 
REMARK    6  A    between atoms: C7_8  and  O2_9 
ROOT
HETATM    1  C7  UNL     1      67.799  50.978  11.012  1.00  0.00     0.069 C 
HETATM    2  C8  UNL     1      68.001  50.678  12.485  1.00  0.00     0.039 C 
HETATM    3  C9  UNL     1      69.384  50.008  12.413  1.00  0.00     0.009 C 
HETATM    4  C10 UNL     1      69.362  49.215  11.114  1.00  0.00     0.001 C 
HETATM    5  C11 UNL     1      70.654  49.457  10.384  1.00  0.00    -0.000 C 
HETATM    6  C12 UNL     1      71.752  48.841  11.235  1.00  0.00     0.033 C 
HETATM    7  C13 UNL     1      73.044  48.842  10.456  1.00  0.00    -0.016 C 
HETATM    8  C14 UNL     1      72.955  48.452   9.244  1.00  0.00    -0.027 C 
HETATM    9  C15 UNL     1      74.272  48.459   8.465  1.00  0.00     0.091 C 
HETATM   10  N1  UNL     1      74.228  49.009   7.196  1.00  0.00    -0.397 N 
ATOM     11  H1  UNL     1      74.393  50.013   7.116  1.00  0.00     0.158 HD
HETATM   12  C16 UNL     1      73.975  48.294   5.999  1.00  0.00     0.130 C 
HETATM   13  C17 UNL     1      72.467  47.864   5.879  1.00  0.00     0.100 C 
HETATM   14  C18 UNL     1      71.904  47.877   7.170  1.00  0.00    -0.167 C 
HETATM   15  C19 UNL     1      71.669  47.989   8.581  1.00  0.00     0.040 C 
HETATM   16  C20 UNL     1      71.243  46.671   9.254  1.00  0.00     0.034 C 
HETATM   17  C21 UNL     1      70.623  49.008   8.991  1.00  0.00     0.014 C 
HETATM   18  C22 UNL     1      69.241  48.623   8.497  1.00  0.00     0.008 C 
HETATM   19  C23 UNL     1      68.330  49.770   8.888  1.00  0.00     0.013 C 
HETATM   20  C24 UNL     1      68.122  49.686  10.385  1.00  0.00    -0.009 C 
HETATM   21  C25 UNL     1      67.090  48.613  10.609  1.00  0.00     0.019 C 
ENDROOT
BRANCH   1  22
HETATM   22  C6  UNL     1      66.572  51.709  10.672  1.00  0.00     0.065 C 
BRANCH  22  23
HETATM   23  C5  UNL     1      65.656  52.128  11.737  1.00  0.00    -0.028 C 
HETATM   24  C4  UNL     1      65.194  53.331  11.952  1.00  0.00    -0.028 C 
BRANCH  24  25
HETATM   25  C3  UNL     1      65.472  54.568  11.188  1.00  0.00     0.053 C 
BRANCH  25  26
HETATM   26  C2  UNL     1      66.758  55.153  11.764  1.00  0.00     0.170 C 
BRANCH  26  27
HETATM   27  O1  UNL     1      67.881  54.801  11.042  1.00  0.00    -0.396 OA
HETATM   28  C1  UNL     1      67.860  55.203   9.713  1.00  0.00     0.201 C 
ENDBRANCH  26  27
ENDBRANCH  25  26
ENDBRANCH  24  25
ENDBRANCH  22  23
ENDBRANCH   1  22
BRANCH   1  29
HETATM   29  O2  UNL     1      68.861  51.897  10.720  1.00  0.00    -0.389 OA
ATOM     30  H2  UNL     1      69.296  51.526   9.962  1.00  0.00     0.210 HD
ENDBRANCH   1  29
TORSDOF 6
ENDMDL
MODEL 4
REMARK VINA RESULT: -8.065814668      2.431      4.104
REMARK  6 active torsions:
REMARK  status: ('A' for Active; 'I' for Inactive)
REMARK    1  A    between atoms: O1_2  and  C2_3 
REMARK    2  A    between atoms: C2_3  and  C3_4 
REMARK    3  A    between atoms: C3_4  and  C4_5 
REMARK    4  A    between atoms: C5_6  and  C6_7 
REMARK    5  A    between atoms: C6_7  and  C7_8 
REMARK    6  A    between atoms: C7_8  and  O2_9 
ROOT
HETATM    1  C7  UNL     1      67.645  50.656  11.113  1.00  0.00     0.069 C 
HETATM    2  C8  UNL     1      67.611  50.862   9.611  1.00  0.00     0.039 C 
HETATM    3  C9  UNL     1      68.659  49.816   9.195  1.00  0.00     0.009 C 
HETATM    4  C10 UNL     1      69.709  49.862  10.296  1.00  0.00     0.001 C 
HETATM    5  C11 UNL     1      70.057  48.452  10.685  1.00  0.00    -0.000 C 
HETATM    6  C12 UNL     1      70.737  47.827   9.478  1.00  0.00     0.033 C 
HETATM    7  C13 UNL     1      71.319  46.491   9.873  1.00  0.00    -0.016 C 
HETATM    8  C14 UNL     1      71.957  46.475  10.979  1.00  0.00    -0.027 C 
HETATM    9  C15 UNL     1      72.539  45.114  11.367  1.00  0.00     0.091 C 
HETATM   10  N1  UNL     1      72.339  44.715  12.676  1.00  0.00    -0.397 N 
ATOM     11  H1  UNL     1      71.485  44.197  12.882  1.00  0.00     0.158 HD
HETATM   12  C16 UNL     1      73.223  44.966  13.756  1.00  0.00     0.130 C 
HETATM   13  C17 UNL     1      73.198  46.475  14.198  1.00  0.00     0.100 C 
HETATM   14  C18 UNL     1      72.693  47.236  13.126  1.00  0.00    -0.167 C 
HETATM   15  C19 UNL     1      72.164  47.686  11.870  1.00  0.00     0.040 C 
HETATM   16  C20 UNL     1      73.081  48.669  11.119  1.00  0.00     0.034 C 
HETATM   17  C21 UNL     1      70.811  48.367  11.936  1.00  0.00     0.014 C 
HETATM   18  C22 UNL     1      70.876  49.673  12.708  1.00  0.00     0.008 C 
HETATM   19  C23 UNL     1      69.450  50.181  12.777  1.00  0.00     0.013 C 
HETATM   20  C24 UNL     1      69.088  50.692  11.399  1.00  0.00    -0.009 C 
HETATM   21  C25 UNL     1      69.712  52.057  11.277  1.00  0.00     0.019 C 
ENDROOT
BRANCH   1  22
HETATM   22  C6  UNL     1      66.691  51.458  11.890  1.00  0.00     0.065 C 
BRANCH  22  23
HETATM   23  C5  UNL     1      65.426  51.876  11.279  1.00  0.00    -0.028 C 
HETATM   24  C4  UNL     1      64.896  53.070  11.300  1.00  0.00    -0.028 C 
BRANCH  24  25
HETATM   25  C3  UNL     1      65.428  54.296  11.938  1.00  0.00     0.053 C 
BRANCH  25  26
HETATM   26  C2  UNL     1      66.189  55.054  10.855  1.00  0.00     0.170 C 
BRANCH  26  27
HETATM   27  O1  UNL     1      67.552  54.843  10.905  1.00  0.00    -0.396 OA
HETATM   28  C1  UNL     1      68.209  55.027   9.695  1.00  0.00     0.201 C 
ENDBRANCH  26  27
ENDBRANCH  25  26
ENDBRANCH  24  25
ENDBRANCH  22  23
ENDBRANCH   1  22
BRANCH   1  29
HETATM   29  O2  UNL     1      67.190  49.304  11.266  1.00  0.00    -0.389 OA
ATOM     30  H2  UNL     1      67.795  48.917  11.887  1.00  0.00     0.210 HD
ENDBRANCH   1  29
TORSDOF 6
ENDMDL
MODEL 5
REMARK VINA RESULT: -8.007243958      2.773      4.668
REMARK  6 active torsions:
REMARK  status: ('A' for Active; 'I' for Inactive)
REMARK    1  A    between atoms: O1_2  and  C2_3 
REMARK    2  A    between atoms: C2_3  and  C3_4 
REMARK    3  A    between atoms: C3_4  and  C4_5 
REMARK    4  A    between atoms: C5_6  and  C6_7 
REMARK    5  A    between atoms: C6_7  and  C7_8 
REMARK    6  A    between atoms: C7_8  and  O2_9 
ROOT
HETATM    1  C7  UNL     1      69.063  50.385  11.670  1.00  0.00     0.069 C 
HETATM    2  C8  UNL     1      67.636  49.873  11.675  1.00  0.00     0.039 C 
HETATM    3  C9  UNL     1      67.757  48.796  10.583  1.00  0.00     0.009 C 
HETATM    4  C10 UNL     1      68.718  49.388   9.561  1.00  0.00     0.001 C 
HETATM    5  C11 UNL     1      69.717  48.332   9.177  1.00  0.00    -0.000 C 
HETATM    6  C12 UNL     1      68.940  47.249   8.446  1.00  0.00     0.033 C 
HETATM    7  C13 UNL     1      69.910  46.271   7.831  1.00  0.00    -0.016 C 
HETATM    8  C14 UNL     1      70.903  46.793   7.220  1.00  0.00    -0.027 C 
HETATM    9  C15 UNL     1      71.879  45.790   6.602  1.00  0.00     0.091 C 
HETATM   10  N1  UNL     1      73.224  46.033   6.820  1.00  0.00    -0.397 N 
ATOM     11  H1  UNL     1      73.640  45.634   7.661  1.00  0.00     0.158 HD
HETATM   12  C16 UNL     1      74.071  46.790   5.971  1.00  0.00     0.130 C 
HETATM   13  C17 UNL     1      73.765  48.330   6.057  1.00  0.00     0.100 C 
HETATM   14  C18 UNL     1      72.459  48.489   6.561  1.00  0.00    -0.167 C 
HETATM   15  C19 UNL     1      71.134  48.287   7.074  1.00  0.00     0.040 C 
HETATM   16  C20 UNL     1      70.019  48.848   6.172  1.00  0.00     0.034 C 
HETATM   17  C21 UNL     1      70.870  48.865   8.451  1.00  0.00     0.014 C 
HETATM   18  C22 UNL     1      70.951  50.381   8.448  1.00  0.00     0.008 C 
HETATM   19  C23 UNL     1      70.769  50.805   9.892  1.00  0.00     0.013 C 
HETATM   20  C24 UNL     1      69.309  50.608  10.236  1.00  0.00    -0.009 C 
HETATM   21  C25 UNL     1      68.573  51.786   9.656  1.00  0.00     0.019 C 
ENDROOT
BRANCH   1  22
HETATM   22  C6  UNL     1      69.375  51.415  12.669  1.00  0.00     0.065 C 
BRANCH  22  23
HETATM   23  C5  UNL     1      69.635  51.026  14.058  1.00  0.00    -0.028 C 
HETATM   24  C4  UNL     1      70.801  50.876  14.630  1.00  0.00    -0.028 C 
BRANCH  24  25
HETATM   25  C3  UNL     1      72.143  51.055  14.033  1.00  0.00     0.053 C 
BRANCH  25  26
HETATM   26  C2  UNL     1      72.886  49.736  14.231  1.00  0.00     0.170 C 
BRANCH  26  27
HETATM   27  O1  UNL     1      72.253  48.666  13.633  1.00  0.00    -0.396 OA
HETATM   28  C1  UNL     1      72.602  47.426  14.153  1.00  0.00     0.201 C 
ENDBRANCH  26  27
ENDBRANCH  25  26
ENDBRANCH  24  25
ENDBRANCH  22  23
ENDBRANCH   1  22
BRANCH   1  29
HETATM   29  O2  UNL     1      69.821  49.239  12.083  1.00  0.00    -0.389 OA
ATOM     30  H2  UNL     1      69.252  48.784  12.693  1.00  0.00     0.210 HD
ENDBRANCH   1  29
TORSDOF 6
ENDMDL
