MODEL 1
REMARK VINA RESULT: -8.248656717      0.000      0.000
REMARK  8 active torsions:
REMARK  status: ('A' for Active; 'I' for Inactive)
REMARK    1  A    between atoms: C2_2  and  C4_4 
REMARK    2  A    between atoms: C4_4  and  C5_5 
REMARK    3  A    between atoms: C5_5  and  C6_6 
REMARK    4  A    between atoms: C6_6  and  C7_7 
REMARK    5  A    between atoms: C13_13  and  O1_14 
REMARK    6  A    between atoms: C19_21  and  C21_23 
REMARK    7  A    between atoms: C21_23  and  C22_24 
REMARK    8  A    between atoms: C22_24  and  O2_26 
ROOT
HETATM    1  C7  UNL     1      68.311  49.934  11.268  1.00  0.00    -0.046 C 
HETATM    2  C8  UNL     1      69.310  49.815  12.205  1.00  0.00    -0.014 C 
HETATM    3  C9  UNL     1      70.578  49.102  12.147  1.00  0.00     0.009 C 
HETATM    4  C10 UNL     1      71.623  49.975  12.844  1.00  0.00     0.014 C 
HETATM    5  C11 UNL     1      71.017  48.788  10.725  1.00  0.00     0.001 C 
HETATM    6  C12 UNL     1      72.484  49.004  10.665  1.00  0.00     0.042 C 
HETATM    7  C13 UNL     1      73.160  48.432   9.436  1.00  0.00     0.146 C 
HETATM    8  C14 UNL     1      73.003  49.452   8.361  1.00  0.00    -0.061 C 
HETATM    9  C15 UNL     1      73.762  49.371   7.294  1.00  0.00     0.017 C 
HETATM   10  C16 UNL     1      72.050  50.587   8.368  1.00  0.00     0.036 C 
HETATM   11  C17 UNL     1      70.646  49.959   8.489  1.00  0.00     0.010 C 
HETATM   12  C18 UNL     1      70.209  49.671   9.848  1.00  0.00     0.003 C 
HETATM   13  C19 UNL     1      68.698  49.301   9.994  1.00  0.00    -0.010 C 
HETATM   14  C20 UNL     1      68.095  49.821   8.760  1.00  0.00     0.021 C 
ENDROOT
BRANCH   1  15
HETATM   15  C6  UNL     1      67.169  50.736  11.674  1.00  0.00    -0.049 C 
HETATM   16  C24 UNL     1      65.878  50.596  11.601  1.00  0.00    -0.081 C 
HETATM   17  C25 UNL     1      65.067  49.364  11.376  1.00  0.00     0.043 C 
HETATM   18  C26 UNL     1      64.899  51.785  11.671  1.00  0.00     0.043 C 
BRANCH  15  19
HETATM   19  C5  UNL     1      67.545  52.216  11.955  1.00  0.00     0.043 C 
BRANCH  19  20
HETATM   20  C4  UNL     1      67.973  52.982  10.783  1.00  0.00     0.037 C 
BRANCH  20  21
HETATM   21  C2  UNL     1      67.615  54.378  10.606  1.00  0.00    -0.093 C 
HETATM   22  C1  UNL     1      68.069  55.097   9.558  1.00  0.00     0.014 C 
HETATM   23  C3  UNL     1      66.690  55.085  11.533  1.00  0.00     0.042 C 
ENDBRANCH  20  21
ENDBRANCH  19  20
ENDBRANCH  15  19
ENDBRANCH   1  15
BRANCH  13  24
HETATM   24  C21 UNL     1      68.481  47.828  10.171  1.00  0.00     0.045 C 
BRANCH  24  25
HETATM   25  C22 UNL     1      68.231  46.975   9.011  1.00  0.00     0.115 C 
HETATM   26  C23 UNL     1      69.313  45.871   9.050  1.00  0.00     0.039 C 
BRANCH  25  27
HETATM   27  O2  UNL     1      67.044  46.247   9.069  1.00  0.00    -0.396 OA
ATOM     28  H2  UNL     1      67.061  45.421   8.600  1.00  0.00     0.210 HD
ENDBRANCH  25  27
ENDBRANCH  24  25
ENDBRANCH  13  24
BRANCH   7  29
HETATM   29  O1  UNL     1      72.704  47.185   9.087  1.00  0.00    -0.391 OA
ATOM     30  H1  UNL     1      73.377  46.621   8.727  1.00  0.00     0.210 HD
ENDBRANCH   7  29
TORSDOF 8
ENDMDL
MODEL 2
REMARK VINA RESULT: -8.169012256      0.908      2.411
REMARK  8 active torsions:
REMARK  status: ('A' for Active; 'I' for Inactive)
REMARK    1  A    between atoms: C2_2  and  C4_4 
REMARK    2  A    between atoms: C4_4  and  C5_5 
REMARK    3  A    between atoms: C5_5  and  C6_6 
REMARK    4  A    between atoms: C6_6  and  C7_7 
REMARK    5  A    between atoms: C13_13  and  O1_14 
REMARK    6  A    between atoms: C19_21  and  C21_23 
REMARK    7  A    between atoms: C21_23  and  C22_24 
REMARK    8  A    between atoms: C22_24  and  O2_26 
ROOT
HETATM    1  C7  UNL     1      68.855  50.430  11.218  1.00  0.00    -0.046 C 
HETATM    2  C8  UNL     1      69.705  50.241  12.283  1.00  0.00    -0.014 C 
HETATM    3  C9  UNL     1      70.808  49.306  12.456  1.00  0.00     0.009 C 
HETATM    4  C10 UNL     1      71.923  50.049  13.194  1.00  0.00     0.014 C 
HETATM    5  C11 UNL     1      71.327  48.751  11.138  1.00  0.00     0.001 C 
HETATM    6  C12 UNL     1      72.805  48.687  11.246  1.00  0.00     0.042 C 
HETATM    7  C13 UNL     1      73.484  47.859  10.173  1.00  0.00     0.146 C 
HETATM    8  C14 UNL     1      73.646  48.757   8.995  1.00  0.00    -0.061 C 
HETATM    9  C15 UNL     1      74.485  48.413   8.046  1.00  0.00     0.017 C 
HETATM   10  C16 UNL     1      72.939  50.040   8.772  1.00  0.00     0.036 C 
HETATM   11  C17 UNL     1      71.435  49.699   8.771  1.00  0.00     0.010 C 
HETATM   12  C18 UNL     1      70.806  49.658  10.085  1.00  0.00     0.003 C 
HETATM   13  C19 UNL     1      69.245  49.591  10.071  1.00  0.00    -0.010 C 
HETATM   14  C20 UNL     1      68.892  50.064   8.726  1.00  0.00     0.021 C 
ENDROOT
BRANCH   1  15
HETATM   15  C6  UNL     1      67.855  51.470  11.397  1.00  0.00    -0.049 C 
HETATM   16  C24 UNL     1      67.768  52.723  11.064  1.00  0.00    -0.081 C 
HETATM   17  C25 UNL     1      68.536  53.491  10.042  1.00  0.00     0.043 C 
HETATM   18  C26 UNL     1      66.828  53.718  11.775  1.00  0.00     0.043 C 
BRANCH  15  19
HETATM   19  C5  UNL     1      66.817  51.121  12.497  1.00  0.00     0.043 C 
BRANCH  19  20
HETATM   20  C4  UNL     1      65.815  50.125  12.113  1.00  0.00     0.037 C 
BRANCH  20  21
HETATM   21  C2  UNL     1      65.021  50.262  10.905  1.00  0.00    -0.093 C 
HETATM   22  C1  UNL     1      65.219  49.466   9.834  1.00  0.00     0.014 C 
HETATM   23  C3  UNL     1      63.910  51.248  10.791  1.00  0.00     0.042 C 
ENDBRANCH  20  21
ENDBRANCH  19  20
ENDBRANCH  15  19
ENDBRANCH   1  15
BRANCH  13  24
HETATM   24  C21 UNL     1      68.726  48.214  10.358  1.00  0.00     0.045 C 
BRANCH  24  25
HETATM   25  C22 UNL     1      68.407  47.303   9.261  1.00  0.00     0.115 C 
HETATM   26  C23 UNL     1      69.422  46.141   9.359  1.00  0.00     0.039 C 
BRANCH  25  27
HETATM   27  O2  UNL     1      67.180  46.652   9.383  1.00  0.00    -0.396 OA
ATOM     28  H2  UNL     1      67.235  45.755   9.690  1.00  0.00     0.210 HD
ENDBRANCH  25  27
ENDBRANCH  24  25
ENDBRANCH  13  24
BRANCH   7  29
HETATM   29  O1  UNL     1      72.833  46.685   9.889  1.00  0.00    -0.391 OA
ATOM     30  H1  UNL     1      73.249  46.175   9.204  1.00  0.00     0.210 HD
ENDBRANCH   7  29
TORSDOF 8
ENDMDL
MODEL 3
REMARK VINA RESULT: -8.165265993      1.272      3.013
REMARK  8 active torsions:
REMARK  status: ('A' for Active; 'I' for Inactive)
REMARK    1  A    between atoms: C2_2  and  C4_4 
REMARK    2  A    between atoms: C4_4  and  C5_5 
REMARK    3  A    between atoms: C5_5  and  C6_6 
REMARK    4  A    between atoms: C6_6  and  C7_7 
REMARK    5  A    between atoms: C13_13  and  O1_14 
REMARK    6  A    between atoms: C19_21  and  C21_23 
REMARK    7  A    between atoms: C21_23  and  C22_24 
REMARK    8  A    between atoms: C22_24  and  O2_26 
ROOT
HETATM    1  C7  UNL     1      67.949  51.447  11.293  1.00  0.00    -0.046 C 
HETATM    2  C8  UNL     1      68.716  51.266  12.421  1.00  0.00    -0.014 C 
HETATM    3  C9  UNL     1      69.643  50.199  12.770  1.00  0.00     0.009 C 
HETATM    4  C10 UNL     1      70.836  50.846  13.476  1.00  0.00     0.014 C 
HETATM    5  C11 UNL     1      70.113  49.403  11.562  1.00  0.00     0.001 C 
HETATM    6  C12 UNL     1      71.556  49.121  11.763  1.00  0.00     0.042 C 
HETATM    7  C13 UNL     1      72.130  48.065  10.840  1.00  0.00     0.146 C 
HETATM    8  C14 UNL     1      72.482  48.766   9.573  1.00  0.00    -0.061 C 
HETATM    9  C15 UNL     1      73.288  48.173   8.724  1.00  0.00     0.017 C 
HETATM   10  C16 UNL     1      72.003  50.104   9.155  1.00  0.00     0.036 C 
HETATM   11  C17 UNL     1      70.465  50.008   9.108  1.00  0.00     0.010 C 
HETATM   12  C18 UNL     1      69.788  50.237  10.377  1.00  0.00     0.003 C 
HETATM   13  C19 UNL     1      68.240  50.416  10.281  1.00  0.00    -0.010 C 
HETATM   14  C20 UNL     1      68.020  50.760   8.870  1.00  0.00     0.021 C 
ENDROOT
BRANCH   1  15
HETATM   15  C6  UNL     1      67.127  52.646  11.285  1.00  0.00    -0.049 C 
HETATM   16  C24 UNL     1      67.292  53.867  10.869  1.00  0.00    -0.081 C 
HETATM   17  C25 UNL     1      68.290  54.417   9.906  1.00  0.00     0.043 C 
HETATM   18  C26 UNL     1      66.462  55.054  11.399  1.00  0.00     0.043 C 
BRANCH  15  19
HETATM   19  C5  UNL     1      65.929  52.558  12.268  1.00  0.00     0.043 C 
BRANCH  19  20
HETATM   20  C4  UNL     1      64.997  51.457  12.015  1.00  0.00     0.037 C 
BRANCH  20  21
HETATM   21  C2  UNL     1      64.791  50.390  12.976  1.00  0.00    -0.093 C 
HETATM   22  C1  UNL     1      65.333  50.435  14.211  1.00  0.00     0.014 C 
HETATM   23  C3  UNL     1      63.931  49.210  12.683  1.00  0.00     0.042 C 
ENDBRANCH  20  21
ENDBRANCH  19  20
ENDBRANCH  15  19
ENDBRANCH   1  15
BRANCH  13  24
HETATM   24  C21 UNL     1      67.491  49.187  10.703  1.00  0.00     0.045 C 
BRANCH  24  25
HETATM   25  C22 UNL     1      66.911  48.297   9.700  1.00  0.00     0.115 C 
HETATM   26  C23 UNL     1      67.961  47.190   9.450  1.00  0.00     0.039 C 
BRANCH  25  27
HETATM   27  O2  UNL     1      65.799  47.576  10.134  1.00  0.00    -0.396 OA
ATOM     28  H2  UNL     1      65.913  46.633  10.135  1.00  0.00     0.210 HD
ENDBRANCH  25  27
ENDBRANCH  24  25
ENDBRANCH  13  24
BRANCH   7  29
HETATM   29  O1  UNL     1      71.307  46.981  10.664  1.00  0.00    -0.391 OA
ATOM     30  H1  UNL     1      71.503  46.477   9.884  1.00  0.00     0.210 HD
ENDBRANCH   7  29
TORSDOF 8
ENDMDL
MODEL 4
REMARK VINA RESULT: -7.919844039      1.801      3.566
REMARK  8 active torsions:
REMARK  status: ('A' for Active; 'I' for Inactive)
REMARK    1  A    between atoms: C2_2  and  C4_4 
REMARK    2  A    between atoms: C4_4  and  C5_5 
REMARK    3  A    between atoms: C5_5  and  C6_6 
REMARK    4  A    between atoms: C6_6  and  C7_7 
REMARK    5  A    between atoms: C13_13  and  O1_14 
REMARK    6  A    between atoms: C19_21  and  C21_23 
REMARK    7  A    between atoms: C21_23  and  C22_24 
REMARK    8  A    between atoms: C22_24  and  O2_26 
ROOT
HETATM    1  C7  UNL     1      70.722  49.262  11.142  1.00  0.00    -0.046 C 
HETATM    2  C8  UNL     1      71.044  47.935  11.313  1.00  0.00    -0.014 C 
HETATM    3  C9  UNL     1      71.238  46.877  10.333  1.00  0.00     0.009 C 
HETATM    4  C10 UNL     1      72.412  46.022  10.813  1.00  0.00     0.014 C 
HETATM    5  C11 UNL     1      71.510  47.408   8.933  1.00  0.00     0.001 C 
HETATM    6  C12 UNL     1      72.553  46.540   8.334  1.00  0.00     0.042 C 
HETATM    7  C13 UNL     1      72.725  46.696   6.837  1.00  0.00     0.146 C 
HETATM    8  C14 UNL     1      73.634  47.860   6.642  1.00  0.00    -0.061 C 
HETATM    9  C15 UNL     1      74.212  48.024   5.474  1.00  0.00     0.017 C 
HETATM   10  C16 UNL     1      73.967  48.887   7.656  1.00  0.00     0.036 C 
HETATM   11  C17 UNL     1      72.625  49.531   8.062  1.00  0.00     0.010 C 
HETATM   12  C18 UNL     1      71.891  48.831   9.108  1.00  0.00     0.003 C 
HETATM   13  C19 UNL     1      70.685  49.619   9.712  1.00  0.00    -0.010 C 
HETATM   14  C20 UNL     1      70.967  51.014   9.348  1.00  0.00     0.021 C 
ENDROOT
BRANCH   1  15
HETATM   15  C6  UNL     1      70.608  50.038  12.365  1.00  0.00    -0.049 C 
HETATM   16  C24 UNL     1      71.329  50.164  13.440  1.00  0.00    -0.081 C 
HETATM   17  C25 UNL     1      72.758  49.808  13.674  1.00  0.00     0.043 C 
HETATM   18  C26 UNL     1      70.758  50.679  14.777  1.00  0.00     0.043 C 
BRANCH  15  19
HETATM   19  C5  UNL     1      69.173  50.582  12.599  1.00  0.00     0.043 C 
BRANCH  19  20
HETATM   20  C4  UNL     1      68.943  51.949  12.129  1.00  0.00     0.037 C 
BRANCH  20  21
HETATM   21  C2  UNL     1      67.914  52.263  11.154  1.00  0.00    -0.093 C 
HETATM   22  C1  UNL     1      66.686  51.706  11.217  1.00  0.00     0.014 C 
HETATM   23  C3  UNL     1      68.128  53.251  10.061  1.00  0.00     0.042 C 
ENDBRANCH  20  21
ENDBRANCH  19  20
ENDBRANCH  15  19
ENDBRANCH   1  15
BRANCH  13  24
HETATM   24  C21 UNL     1      69.365  49.138   9.190  1.00  0.00     0.045 C 
BRANCH  24  25
HETATM   25  C22 UNL     1      68.737  49.799   8.048  1.00  0.00     0.115 C 
HETATM   26  C23 UNL     1      68.703  48.751   6.912  1.00  0.00     0.039 C 
BRANCH  25  27
HETATM   27  O2  UNL     1      67.390  50.111   8.223  1.00  0.00    -0.396 OA
ATOM     28  H2  UNL     1      66.968  50.489   7.461  1.00  0.00     0.210 HD
ENDBRANCH  25  27
ENDBRANCH  24  25
ENDBRANCH  13  24
BRANCH   7  29
HETATM   29  O1  UNL     1      71.539  46.798   6.154  1.00  0.00    -0.391 OA
ATOM     30  H1  UNL     1      71.302  47.691   5.934  1.00  0.00     0.210 HD
ENDBRANCH   7  29
TORSDOF 8
ENDMDL
MODEL 5
REMARK VINA RESULT: -7.725807384      2.267      6.426
REMARK  8 active torsions:
REMARK  status: ('A' for Active; 'I' for Inactive)
REMARK    1  A    between atoms: C2_2  and  C4_4 
REMARK    2  A    between atoms: C4_4  and  C5_5 
REMARK    3  A    between atoms: C5_5  and  C6_6 
REMARK    4  A    between atoms: C6_6  and  C7_7 
REMARK    5  A    between atoms: C13_13  and  O1_14 
REMARK    6  A    between atoms: C19_21  and  C21_23 
REMARK    7  A    between atoms: C21_23  and  C22_24 
REMARK    8  A    between atoms: C22_24  and  O2_26 
ROOT
HETATM    1  C7  UNL     1      71.288  47.514   9.142  1.00  0.00    -0.046 C 
HETATM    2  C8  UNL     1      70.031  46.959   9.217  1.00  0.00    -0.014 C 
HETATM    3  C9  UNL     1      68.910  47.278  10.089  1.00  0.00     0.009 C 
HETATM    4  C10 UNL     1      67.636  47.176   9.248  1.00  0.00     0.014 C 
HETATM    5  C11 UNL     1      69.019  48.660  10.715  1.00  0.00     0.001 C 
HETATM    6  C12 UNL     1      67.658  49.249  10.708  1.00  0.00     0.042 C 
HETATM    7  C13 UNL     1      67.493  50.477  11.581  1.00  0.00     0.146 C 
HETATM    8  C14 UNL     1      67.957  51.633  10.764  1.00  0.00    -0.061 C 
HETATM    9  C15 UNL     1      67.629  52.847  11.140  1.00  0.00     0.017 C 
HETATM   10  C16 UNL     1      68.777  51.558   9.533  1.00  0.00     0.036 C 
HETATM   11  C17 UNL     1      70.083  50.845   9.936  1.00  0.00     0.010 C 
HETATM   12  C18 UNL     1      70.031  49.389   9.910  1.00  0.00     0.003 C 
HETATM   13  C19 UNL     1      71.412  48.673  10.044  1.00  0.00    -0.010 C 
HETATM   14  C20 UNL     1      72.379  49.719   9.685  1.00  0.00     0.021 C 
ENDROOT
BRANCH   1  15
HETATM   15  C6  UNL     1      72.164  46.937   8.136  1.00  0.00    -0.049 C 
HETATM   16  C24 UNL     1      73.370  46.451   8.141  1.00  0.00    -0.081 C 
HETATM   17  C25 UNL     1      74.199  45.977   9.286  1.00  0.00     0.043 C 
HETATM   18  C26 UNL     1      74.236  46.343   6.869  1.00  0.00     0.043 C 
BRANCH  15  19
HETATM   19  C5  UNL     1      71.708  47.261   6.688  1.00  0.00     0.043 C 
BRANCH  19  20
HETATM   20  C4  UNL     1      71.650  48.687   6.359  1.00  0.00     0.037 C 
BRANCH  20  21
HETATM   21  C2  UNL     1      70.439  49.310   5.855  1.00  0.00    -0.093 C 
HETATM   22  C1  UNL     1      70.468  50.185   4.828  1.00  0.00     0.014 C 
HETATM   23  C3  UNL     1      69.092  48.986   6.401  1.00  0.00     0.042 C 
ENDBRANCH  20  21
ENDBRANCH  19  20
ENDBRANCH  15  19
ENDBRANCH   1  15
BRANCH  13  24
HETATM   24  C21 UNL     1      71.640  48.117  11.418  1.00  0.00     0.045 C 
BRANCH  24  25
HETATM   25  C22 UNL     1      72.518  48.811  12.358  1.00  0.00     0.115 C 
HETATM   26  C23 UNL     1      71.596  49.682  13.243  1.00  0.00     0.039 C 
BRANCH  25  27
HETATM   27  O2  UNL     1      73.148  47.984  13.286  1.00  0.00    -0.396 OA
ATOM     28  H2  UNL     1      74.084  47.883  13.157  1.00  0.00     0.210 HD
ENDBRANCH  25  27
ENDBRANCH  24  25
ENDBRANCH  13  24
BRANCH   7  29
HETATM   29  O1  UNL     1      68.116  50.374  12.799  1.00  0.00    -0.391 OA
ATOM     30  H1  UNL     1      67.929  49.562  13.255  1.00  0.00     0.210 HD
ENDBRANCH   7  29
TORSDOF 8
ENDMDL
