MODEL 1
REMARK VINA RESULT: -3.836343823      0.000      0.000
REMARK  0 active torsions:
REMARK  status: ('A' for Active; 'I' for Inactive)
ROOT
HETATM    1  C1  UNL     1     -11.946  -3.695  91.096  1.00  0.00     0.089 C 
HETATM    2  C2  UNL     1     -13.423  -3.519  91.338  1.00  0.00     0.082 A 
HETATM    3  N1  UNL     1     -14.496  -4.137  90.982  1.00  0.00    -0.318 N 
ATOM      4  H1  UNL     1     -14.641  -4.964  90.403  1.00  0.00     0.170 HD
HETATM    5  C3  UNL     1     -15.402  -3.298  91.654  1.00  0.00     0.179 A 
HETATM    6  N2  UNL     1     -16.659  -3.131  91.873  1.00  0.00    -0.371 N 
ATOM      7  H21 UNL     1     -17.316  -2.522  92.360  1.00  0.00     0.159 HD
ATOM      8  H22 UNL     1     -17.500  -3.631  91.583  1.00  0.00     0.159 HD
HETATM    9  N3  UNL     1     -14.234  -2.603  92.058  1.00  0.00    -0.318 N 
ATOM     10  H3  UNL     1     -14.051  -1.781  92.632  1.00  0.00     0.170 HD
ENDROOT
TORSDOF 0
ENDMDL
MODEL 2
REMARK VINA RESULT: -3.543551038      1.183      2.987
REMARK  0 active torsions:
REMARK  status: ('A' for Active; 'I' for Inactive)
ROOT
HETATM    1  C1  UNL     1     -16.695  -3.672  91.336  1.00  0.00     0.089 C 
HETATM    2  C2  UNL     1     -15.195  -3.525  91.377  1.00  0.00     0.082 A 
HETATM    3  N1  UNL     1     -14.193  -4.145  90.856  1.00  0.00    -0.318 N 
ATOM      4  H1  UNL     1     -14.145  -4.953  90.237  1.00  0.00     0.170 HD
HETATM    5  C3  UNL     1     -13.188  -3.340  91.421  1.00  0.00     0.179 A 
HETATM    6  N2  UNL     1     -11.910  -3.198  91.469  1.00  0.00    -0.371 N 
ATOM      7  H21 UNL     1     -11.182  -2.614  91.879  1.00  0.00     0.159 HD
ATOM      8  H22 UNL     1     -11.127  -3.699  91.049  1.00  0.00     0.159 HD
HETATM    9  N3  UNL     1     -14.277  -2.643  92.005  1.00  0.00    -0.318 N 
ATOM     10  H3  UNL     1     -14.364  -1.838  92.623  1.00  0.00     0.170 HD
ENDROOT
TORSDOF 0
ENDMDL
MODEL 3
REMARK VINA RESULT: -3.487771312      9.570     10.262
REMARK  0 active torsions:
REMARK  status: ('A' for Active; 'I' for Inactive)
ROOT
HETATM    1  C1  UNL     1     -21.746   3.065  95.135  1.00  0.00     0.089 C 
HETATM    2  C2  UNL     1     -20.762   3.791  94.255  1.00  0.00     0.082 A 
HETATM    3  N1  UNL     1     -20.129   4.913  94.308  1.00  0.00    -0.318 N 
ATOM      4  H1  UNL     1     -20.127   5.656  95.006  1.00  0.00     0.170 HD
HETATM    5  C3  UNL     1     -19.444   4.774  93.088  1.00  0.00     0.179 A 
HETATM    6  N2  UNL     1     -18.604   5.379  92.323  1.00  0.00    -0.371 N 
ATOM      7  H21 UNL     1     -18.108   5.279  91.439  1.00  0.00     0.159 HD
ATOM      8  H22 UNL     1     -18.111   6.270  92.379  1.00  0.00     0.159 HD
HETATM    9  N3  UNL     1     -20.130   3.536  93.010  1.00  0.00    -0.318 N 
ATOM     10  H3  UNL     1     -20.159   2.773  92.334  1.00  0.00     0.170 HD
ENDROOT
TORSDOF 0
ENDMDL
MODEL 4
REMARK VINA RESULT: -3.433304489      3.679      4.195
REMARK  0 active torsions:
REMARK  status: ('A' for Active; 'I' for Inactive)
ROOT
HETATM    1  C1  UNL     1     -17.508  -5.538  91.798  1.00  0.00     0.089 C 
HETATM    2  C2  UNL     1     -17.888  -4.121  91.452  1.00  0.00     0.082 A 
HETATM    3  N1  UNL     1     -18.961  -3.521  91.065  1.00  0.00    -0.318 N 
ATOM      4  H1  UNL     1     -19.901  -3.869  90.878  1.00  0.00     0.170 HD
HETATM    5  C3  UNL     1     -18.410  -2.230  90.986  1.00  0.00     0.179 A 
HETATM    6  N2  UNL     1     -18.714  -1.014  90.694  1.00  0.00    -0.371 N 
ATOM      7  H21 UNL     1     -18.314  -0.078  90.636  1.00  0.00     0.159 HD
ATOM      8  H22 UNL     1     -19.571  -0.554  90.388  1.00  0.00     0.159 HD
HETATM    9  N3  UNL     1     -17.218  -2.870  91.410  1.00  0.00    -0.318 N 
ATOM     10  H3  UNL     1     -16.267  -2.558  91.606  1.00  0.00     0.170 HD
ENDROOT
TORSDOF 0
ENDMDL
MODEL 5
REMARK VINA RESULT: -3.426458859      9.601     11.002
REMARK  0 active torsions:
REMARK  status: ('A' for Active; 'I' for Inactive)
ROOT
HETATM    1  C1  UNL     1     -25.107  -5.882  97.535  1.00  0.00     0.089 C 
HETATM    2  C2  UNL     1     -24.399  -5.857  96.205  1.00  0.00     0.082 A 
HETATM    3  N1  UNL     1     -23.173  -5.909  95.811  1.00  0.00    -0.318 N 
ATOM      4  H1  UNL     1     -22.298  -5.987  96.329  1.00  0.00     0.170 HD
HETATM    5  C3  UNL     1     -23.438  -5.826  94.433  1.00  0.00     0.179 A 
HETATM    6  N2  UNL     1     -22.852  -5.803  93.287  1.00  0.00    -0.371 N 
ATOM      7  H21 UNL     1     -23.044  -5.743  92.288  1.00  0.00     0.159 HD
ATOM      8  H22 UNL     1     -21.877  -5.846  92.991  1.00  0.00     0.159 HD
HETATM    9  N3  UNL     1     -24.793  -5.767  94.844  1.00  0.00    -0.318 N 
ATOM     10  H3  UNL     1     -25.687  -5.691  94.360  1.00  0.00     0.170 HD
ENDROOT
TORSDOF 0
ENDMDL
