MODEL 1
REMARK VINA RESULT: -3.510502587      0.000      0.000
REMARK  0 active torsions:
REMARK  status: ('A' for Active; 'I' for Inactive)
ROOT
HETATM    1  N1  UNL     1     -18.664  -1.185  90.705  1.00  0.00    -0.388 N 
ATOM      2  H11 UNL     1     -17.941  -0.506  90.466  1.00  0.00     0.157 HD
ATOM      3  H12 UNL     1     -19.545  -0.765  90.412  1.00  0.00     0.157 HD
HETATM    4  C1  UNL     1     -18.471  -2.331  91.263  1.00  0.00     0.098 C 
HETATM    5  C2  UNL     1     -19.519  -3.315  91.610  1.00  0.00     0.309 C 
HETATM    6  N2  UNL     1     -18.773  -4.571  91.600  1.00  0.00    -0.053 N 
ATOM      7  H21 UNL     1     -18.690  -4.998  90.678  1.00  0.00     0.279 HD
ATOM      8  H22 UNL     1     -19.263  -5.349  92.043  1.00  0.00     0.279 HD
HETATM    9  C3  UNL     1     -17.483  -4.240  92.227  1.00  0.00     0.356 C 
HETATM   10  N3  UNL     1     -17.246  -2.913  91.670  1.00  0.00    -0.356 N 
ATOM     11  H3  UNL     1     -16.332  -2.470  91.587  1.00  0.00     0.162 HD
ENDROOT
TORSDOF 0
ENDMDL
MODEL 2
REMARK VINA RESULT: -3.498396933      7.222      8.222
REMARK  0 active torsions:
REMARK  status: ('A' for Active; 'I' for Inactive)
ROOT
HETATM    1  N1  UNL     1     -24.076  -6.161  98.131  1.00  0.00    -0.388 N 
ATOM      2  H11 UNL     1     -23.227  -6.088  98.690  1.00  0.00     0.157 HD
ATOM      3  H12 UNL     1     -24.834  -6.310  98.796  1.00  0.00     0.157 HD
HETATM    4  C1  UNL     1     -24.146  -6.078  96.847  1.00  0.00     0.098 C 
HETATM    5  C2  UNL     1     -25.378  -6.182  96.035  1.00  0.00     0.309 C 
HETATM    6  N2  UNL     1     -25.019  -5.429  94.836  1.00  0.00    -0.053 N 
ATOM      7  H21 UNL     1     -25.169  -4.423  94.917  1.00  0.00     0.279 HD
ATOM      8  H22 UNL     1     -25.650  -5.576  94.048  1.00  0.00     0.279 HD
HETATM    9  C3  UNL     1     -23.623  -5.808  94.565  1.00  0.00     0.356 C 
HETATM   10  N3  UNL     1     -23.093  -5.871  95.922  1.00  0.00    -0.356 N 
ATOM     11  H3  UNL     1     -22.108  -5.781  96.169  1.00  0.00     0.162 HD
ENDROOT
TORSDOF 0
ENDMDL
MODEL 3
REMARK VINA RESULT: -3.446226035      6.896      7.800
REMARK  0 active torsions:
REMARK  status: ('A' for Active; 'I' for Inactive)
ROOT
HETATM    1  N1  UNL     1     -18.630   5.379  92.542  1.00  0.00    -0.388 N 
ATOM      2  H11 UNL     1     -18.210   6.223  92.933  1.00  0.00     0.157 HD
ATOM      3  H12 UNL     1     -18.194   5.251  91.629  1.00  0.00     0.157 HD
HETATM    4  C1  UNL     1     -19.526   4.648  93.109  1.00  0.00     0.098 C 
HETATM    5  C2  UNL     1     -20.135   3.424  92.543  1.00  0.00     0.309 C 
HETATM    6  N2  UNL     1     -20.544   2.702  93.745  1.00  0.00    -0.053 N 
ATOM      7  H21 UNL     1     -19.806   2.132  94.159  1.00  0.00     0.279 HD
ATOM      8  H22 UNL     1     -21.195   1.937  93.569  1.00  0.00     0.279 HD
HETATM    9  C3  UNL     1     -21.071   3.744  94.642  1.00  0.00     0.356 C 
HETATM   10  N3  UNL     1     -20.131   4.827  94.377  1.00  0.00    -0.356 N 
ATOM     11  H3  UNL     1     -19.939   5.601  95.012  1.00  0.00     0.162 HD
ENDROOT
TORSDOF 0
ENDMDL
MODEL 4
REMARK VINA RESULT: -3.346886080      6.386      7.066
REMARK  0 active torsions:
REMARK  status: ('A' for Active; 'I' for Inactive)
ROOT
HETATM    1  N1  UNL     1     -20.622   0.753  93.551  1.00  0.00    -0.388 N 
ATOM      2  H11 UNL     1     -19.613   0.702  93.406  1.00  0.00     0.157 HD
ATOM      3  H12 UNL     1     -21.038   0.227  92.783  1.00  0.00     0.157 HD
HETATM    4  C1  UNL     1     -21.218   1.365  94.515  1.00  0.00     0.098 C 
HETATM    5  C2  UNL     1     -22.680   1.439  94.725  1.00  0.00     0.309 C 
HETATM    6  N2  UNL     1     -22.771   1.654  96.167  1.00  0.00    -0.053 N 
ATOM      7  H21 UNL     1     -22.745   0.796  96.718  1.00  0.00     0.279 HD
ATOM      8  H22 UNL     1     -23.689   1.966  96.484  1.00  0.00     0.279 HD
HETATM    9  C3  UNL     1     -21.680   2.596  96.470  1.00  0.00     0.356 C 
HETATM   10  N3  UNL     1     -20.639   2.096  95.581  1.00  0.00    -0.356 N 
ATOM     11  H3  UNL     1     -19.639   2.251  95.708  1.00  0.00     0.162 HD
ENDROOT
TORSDOF 0
ENDMDL
MODEL 5
REMARK VINA RESULT: -3.310302171      6.277      7.589
REMARK  0 active torsions:
REMARK  status: ('A' for Active; 'I' for Inactive)
ROOT
HETATM    1  N1  UNL     1     -20.660   1.434  93.263  1.00  0.00    -0.388 N 
ATOM      2  H11 UNL     1     -20.394   0.824  92.490  1.00  0.00     0.157 HD
ATOM      3  H12 UNL     1     -21.036   0.819  93.985  1.00  0.00     0.157 HD
HETATM    4  C1  UNL     1     -20.535   2.716  93.293  1.00  0.00     0.098 C 
HETATM    5  C2  UNL     1     -20.920   3.601  94.414  1.00  0.00     0.309 C 
HETATM    6  N2  UNL     1     -20.041   4.749  94.212  1.00  0.00    -0.053 N 
ATOM      7  H21 UNL     1     -19.115   4.642  94.627  1.00  0.00     0.279 HD
ATOM      8  H22 UNL     1     -20.309   5.578  94.744  1.00  0.00     0.279 HD
HETATM    9  C3  UNL     1     -20.025   4.953  92.754  1.00  0.00     0.356 C 
HETATM   10  N3  UNL     1     -20.014   3.570  92.291  1.00  0.00    -0.356 N 
ATOM     11  H3  UNL     1     -19.679   3.263  91.377  1.00  0.00     0.162 HD
ENDROOT
TORSDOF 0
ENDMDL
