MODEL 1
REMARK VINA RESULT: -3.225167835      0.000      0.000
REMARK  1 active torsions:
REMARK  status: ('A' for Active; 'I' for Inactive)
REMARK    1  A    between atoms: C3_7  and  N3_8 
ROOT
HETATM    1  C1  UNL     1     -19.779  -3.731  92.063  1.00  0.00     0.317 C 
HETATM    2  N1  UNL     1     -18.515  -3.126  91.790  1.00  0.00     0.168 N 
HETATM    3  C2  UNL     1     -17.489  -4.034  91.262  1.00  0.00     0.512 C 
HETATM    4  N2  UNL     1     -16.998  -2.861  90.513  1.00  0.00     0.007 N 
ATOM      5  H21 UNL     1     -16.455  -2.951  89.654  1.00  0.00     0.283 HD
ATOM      6  H22 UNL     1     -16.250  -2.264  90.866  1.00  0.00     0.283 HD
HETATM    7  C3  UNL     1     -18.401  -2.439  90.511  1.00  0.00     0.617 C 
ENDROOT
BRANCH   7   8
HETATM    8  N3  UNL     1     -18.635  -1.045  90.576  1.00  0.00    -0.023 N 
ATOM      9  H33 UNL     1     -18.219  -0.652  91.420  1.00  0.00     0.279 HD
ATOM     10  H32 UNL     1     -18.086  -0.557  89.867  1.00  0.00     0.279 HD
ATOM     11  H31 UNL     1     -19.618  -0.780  90.508  1.00  0.00     0.279 HD
ENDBRANCH   7   8
TORSDOF 1
ENDMDL
MODEL 2
REMARK VINA RESULT: -3.134614506      7.388      8.215
REMARK  1 active torsions:
REMARK  status: ('A' for Active; 'I' for Inactive)
REMARK    1  A    between atoms: C3_7  and  N3_8 
ROOT
HETATM    1  C1  UNL     1     -21.232   3.335  94.484  1.00  0.00     0.317 C 
HETATM    2  N1  UNL     1     -22.400   2.630  94.902  1.00  0.00     0.168 N 
HETATM    3  C2  UNL     1     -22.502   1.247  94.418  1.00  0.00     0.512 C 
HETATM    4  N2  UNL     1     -23.193   0.971  95.693  1.00  0.00     0.007 N 
ATOM      5  H21 UNL     1     -23.223   0.038  96.106  1.00  0.00     0.283 HD
ATOM      6  H22 UNL     1     -24.209   0.989  95.777  1.00  0.00     0.283 HD
HETATM    7  C3  UNL     1     -22.344   2.038  96.232  1.00  0.00     0.617 C 
ENDROOT
BRANCH   7   8
HETATM    8  N3  UNL     1     -22.916   2.838  97.250  1.00  0.00    -0.023 N 
ATOM      9  H33 UNL     1     -22.339   2.811  98.091  1.00  0.00     0.279 HD
ATOM     10  H32 UNL     1     -22.833   3.827  97.014  1.00  0.00     0.279 HD
ATOM     11  H31 UNL     1     -23.882   2.604  97.475  1.00  0.00     0.279 HD
ENDBRANCH   7   8
TORSDOF 1
ENDMDL
MODEL 3
REMARK VINA RESULT: -3.122887133      0.916      2.027
REMARK  1 active torsions:
REMARK  status: ('A' for Active; 'I' for Inactive)
REMARK    1  A    between atoms: C3_7  and  N3_8 
ROOT
HETATM    1  C1  UNL     1     -16.933  -3.759  91.026  1.00  0.00     0.317 C 
HETATM    2  N1  UNL     1     -18.286  -3.323  90.901  1.00  0.00     0.168 N 
HETATM    3  C2  UNL     1     -19.190  -3.779  91.966  1.00  0.00     0.512 C 
HETATM    4  N2  UNL     1     -19.892  -2.497  91.762  1.00  0.00     0.007 N 
ATOM      5  H21 UNL     1     -20.461  -2.065  92.491  1.00  0.00     0.283 HD
ATOM      6  H22 UNL     1     -20.702  -2.411  91.147  1.00  0.00     0.283 HD
HETATM    7  C3  UNL     1     -18.571  -1.981  91.392  1.00  0.00     0.617 C 
ENDROOT
BRANCH   7   8
HETATM    8  N3  UNL     1     -18.547  -0.979  90.394  1.00  0.00    -0.023 N 
ATOM      9  H33 UNL     1     -18.818  -0.077  90.787  1.00  0.00     0.279 HD
ATOM     10  H32 UNL     1     -17.586  -0.769  90.123  1.00  0.00     0.279 HD
ATOM     11  H31 UNL     1     -19.111  -1.192  89.571  1.00  0.00     0.279 HD
ENDBRANCH   7   8
TORSDOF 1
ENDMDL
MODEL 4
REMARK VINA RESULT: -3.121525447      1.509      2.503
REMARK  1 active torsions:
REMARK  status: ('A' for Active; 'I' for Inactive)
REMARK    1  A    between atoms: C3_7  and  N3_8 
ROOT
HETATM    1  C1  UNL     1     -17.450  -5.713  91.567  1.00  0.00     0.317 C 
HETATM    2  N1  UNL     1     -17.430  -4.364  91.100  1.00  0.00     0.168 N 
HETATM    3  C2  UNL     1     -18.654  -3.595  91.362  1.00  0.00     0.512 C 
HETATM    4  N2  UNL     1     -17.758  -2.428  91.483  1.00  0.00     0.007 N 
ATOM      5  H21 UNL     1     -18.016  -1.597  92.017  1.00  0.00     0.283 HD
ATOM      6  H22 UNL     1     -17.566  -1.805  90.698  1.00  0.00     0.283 HD
HETATM    7  C3  UNL     1     -16.775  -3.398  91.972  1.00  0.00     0.617 C 
ENDROOT
BRANCH   7   8
HETATM    8  N3  UNL     1     -15.423  -3.139  91.642  1.00  0.00    -0.023 N 
ATOM      9  H33 UNL     1     -15.083  -3.825  90.967  1.00  0.00     0.279 HD
ATOM     10  H32 UNL     1     -15.350  -2.291  91.079  1.00  0.00     0.279 HD
ATOM     11  H31 UNL     1     -14.797  -3.089  92.445  1.00  0.00     0.279 HD
ENDBRANCH   7   8
TORSDOF 1
ENDMDL
MODEL 5
REMARK VINA RESULT: -3.114489256      1.016      1.016
REMARK  1 active torsions:
REMARK  status: ('A' for Active; 'I' for Inactive)
REMARK    1  A    between atoms: C3_7  and  N3_8 
ROOT
HETATM    1  C1  UNL     1     -18.348  -4.416  92.491  1.00  0.00     0.317 C 
HETATM    2  N1  UNL     1     -17.715  -3.316  91.839  1.00  0.00     0.168 N 
HETATM    3  C2  UNL     1     -16.939  -3.661  90.641  1.00  0.00     0.512 C 
HETATM    4  N2  UNL     1     -17.342  -2.334  90.136  1.00  0.00     0.007 N 
ATOM      5  H21 UNL     1     -17.376  -2.117  89.139  1.00  0.00     0.283 HD
ATOM      6  H22 UNL     1     -16.755  -1.507  90.247  1.00  0.00     0.283 HD
HETATM    7  C3  UNL     1     -18.555  -2.544  90.932  1.00  0.00     0.617 C 
ENDROOT
BRANCH   7   8
HETATM    8  N3  UNL     1     -19.131  -1.389  91.512  1.00  0.00    -0.023 N 
ATOM      9  H33 UNL     1     -20.143  -1.394  91.388  1.00  0.00     0.279 HD
ATOM     10  H32 UNL     1     -19.080  -1.439  92.530  1.00  0.00     0.279 HD
ATOM     11  H31 UNL     1     -18.736  -0.510  91.178  1.00  0.00     0.279 HD
ENDBRANCH   7   8
TORSDOF 1
ENDMDL
