MODEL 1
REMARK VINA RESULT: -3.551069158      0.000      0.000
REMARK  0 active torsions:
REMARK  status: ('A' for Active; 'I' for Inactive)
ROOT
HETATM    1  N1  UNL     1     -18.625   5.379  92.545  1.00  0.00    -0.387 N 
ATOM      2  H11 UNL     1     -18.165   6.210  92.918  1.00  0.00     0.157 HD
ATOM      3  H12 UNL     1     -18.194   5.225  91.633  1.00  0.00     0.157 HD
HETATM    4  C1  UNL     1     -19.533   4.678  93.083  1.00  0.00     0.097 C 
HETATM    5  C2  UNL     1     -20.199   3.477  92.543  1.00  0.00     0.106 C 
HETATM    6  C3  UNL     1     -20.720   2.871  93.858  1.00  0.00     0.209 C 
HETATM    7  O1  UNL     1     -21.191   4.024  94.487  1.00  0.00    -0.279 OA
HETATM    8  N2  UNL     1     -20.129   4.891  94.348  1.00  0.00    -0.255 N 
ATOM      9  H2  UNL     1     -19.824   5.574  95.041  1.00  0.00     0.195 HD
ENDROOT
TORSDOF 0
ENDMDL
MODEL 2
REMARK VINA RESULT: -3.540264748      7.413      7.661
REMARK  0 active torsions:
REMARK  status: ('A' for Active; 'I' for Inactive)
ROOT
HETATM    1  N1  UNL     1     -18.610  -1.097  90.545  1.00  0.00    -0.387 N 
ATOM      2  H11 UNL     1     -17.867  -0.473  90.227  1.00  0.00     0.157 HD
ATOM      3  H12 UNL     1     -19.473  -0.676  90.202  1.00  0.00     0.157 HD
HETATM    4  C1  UNL     1     -18.501  -2.164  91.218  1.00  0.00     0.097 C 
HETATM    5  C2  UNL     1     -19.575  -3.065  91.678  1.00  0.00     0.106 C 
HETATM    6  C3  UNL     1     -18.748  -4.343  91.904  1.00  0.00     0.209 C 
HETATM    7  O1  UNL     1     -17.624  -3.797  92.527  1.00  0.00    -0.279 OA
HETATM    8  N2  UNL     1     -17.304  -2.748  91.692  1.00  0.00    -0.255 N 
ATOM      9  H2  UNL     1     -16.360  -2.444  91.456  1.00  0.00     0.195 HD
ENDROOT
TORSDOF 0
ENDMDL
MODEL 3
REMARK VINA RESULT: -3.538469284      8.771      9.053
REMARK  0 active torsions:
REMARK  status: ('A' for Active; 'I' for Inactive)
ROOT
HETATM    1  N1  UNL     1     -19.399  -4.252  91.423  1.00  0.00    -0.387 N 
ATOM      2  H11 UNL     1     -20.163  -3.579  91.487  1.00  0.00     0.157 HD
ATOM      3  H12 UNL     1     -19.854  -5.158  91.304  1.00  0.00     0.157 HD
HETATM    4  C1  UNL     1     -18.153  -4.031  91.477  1.00  0.00     0.097 C 
HETATM    5  C2  UNL     1     -17.049  -5.005  91.385  1.00  0.00     0.106 C 
HETATM    6  C3  UNL     1     -15.912  -4.053  90.973  1.00  0.00     0.209 C 
HETATM    7  O1  UNL     1     -16.173  -2.980  91.827  1.00  0.00    -0.279 OA
HETATM    8  N2  UNL     1     -17.523  -2.775  91.641  1.00  0.00    -0.255 N 
ATOM      9  H2  UNL     1     -17.989  -1.869  91.624  1.00  0.00     0.195 HD
ENDROOT
TORSDOF 0
ENDMDL
MODEL 4
REMARK VINA RESULT: -3.503737140      1.587      2.292
REMARK  0 active torsions:
REMARK  status: ('A' for Active; 'I' for Inactive)
ROOT
HETATM    1  N1  UNL     1     -20.695   4.997  95.565  1.00  0.00    -0.387 N 
ATOM      2  H11 UNL     1     -20.557   5.883  96.052  1.00  0.00     0.157 HD
ATOM      3  H12 UNL     1     -21.315   4.457  96.169  1.00  0.00     0.157 HD
HETATM    4  C1  UNL     1     -20.210   4.630  94.454  1.00  0.00     0.097 C 
HETATM    5  C2  UNL     1     -20.409   3.348  93.751  1.00  0.00     0.106 C 
HETATM    6  C3  UNL     1     -20.036   3.788  92.324  1.00  0.00     0.209 C 
HETATM    7  O1  UNL     1     -18.909   4.565  92.596  1.00  0.00    -0.279 OA
HETATM    8  N2  UNL     1     -19.351   5.379  93.616  1.00  0.00    -0.255 N 
ATOM      9  H2  UNL     1     -19.099   6.358  93.746  1.00  0.00     0.195 HD
ENDROOT
TORSDOF 0
ENDMDL
MODEL 5
REMARK VINA RESULT: -3.475802381      7.734      7.902
REMARK  0 active torsions:
REMARK  status: ('A' for Active; 'I' for Inactive)
ROOT
HETATM    1  N1  UNL     1     -18.627  -1.084  90.701  1.00  0.00    -0.387 N 
ATOM      2  H11 UNL     1     -19.357  -0.380  90.816  1.00  0.00     0.157 HD
ATOM      3  H12 UNL     1     -17.818  -0.571  90.350  1.00  0.00     0.157 HD
HETATM    4  C1  UNL     1     -18.692  -2.327  90.938  1.00  0.00     0.097 C 
HETATM    5  C2  UNL     1     -17.637  -3.344  90.771  1.00  0.00     0.106 C 
HETATM    6  C3  UNL     1     -18.184  -4.426  91.719  1.00  0.00     0.209 C 
HETATM    7  O1  UNL     1     -19.536  -4.387  91.378  1.00  0.00    -0.279 OA
HETATM    8  N2  UNL     1     -19.814  -3.038  91.425  1.00  0.00    -0.255 N 
ATOM      9  H2  UNL     1     -20.683  -2.622  91.757  1.00  0.00     0.195 HD
ENDROOT
TORSDOF 0
ENDMDL
