MODEL 1
REMARK VINA RESULT: -2.940368728      0.000      0.000
REMARK  2 active torsions:
REMARK  status: ('A' for Active; 'I' for Inactive)
REMARK    1  A    between atoms: N1_1  and  C1_5 
REMARK    2  A    between atoms: C3_7  and  N2_8 
ROOT
HETATM    1  C1  UNL     1     -18.638  -2.294  90.211  1.00  0.00     0.215 A 
HETATM    2  C2  UNL     1     -19.183  -3.195  91.244  1.00  0.00     0.069 A 
HETATM    3  C3  UNL     1     -17.715  -3.268  90.801  1.00  0.00     0.215 A 
ENDROOT
BRANCH   1   4
HETATM    4  N1  UNL     1     -18.587  -0.886  90.506  1.00  0.00    -0.073 N 
ATOM      5  H13 UNL     1     -18.419  -0.368  89.643  1.00  0.00     0.274 HD
ATOM      6  H12 UNL     1     -19.523  -0.560  90.747  1.00  0.00     0.274 HD
ATOM      7  H11 UNL     1     -17.928  -0.573  91.218  1.00  0.00     0.274 HD
ENDBRANCH   1   4
BRANCH   3   8
HETATM    8  N2  UNL     1     -16.767  -2.931  91.829  1.00  0.00    -0.073 N 
ATOM      9  H23 UNL     1     -16.180  -3.751  91.983  1.00  0.00     0.274 HD
ATOM     10  H22 UNL     1     -16.108  -2.263  91.428  1.00  0.00     0.274 HD
ATOM     11  H21 UNL     1     -17.040  -2.576  92.745  1.00  0.00     0.274 HD
ENDBRANCH   3   8
TORSDOF 2
ENDMDL
MODEL 2
REMARK VINA RESULT: -2.889441497      0.828      2.262
REMARK  2 active torsions:
REMARK  status: ('A' for Active; 'I' for Inactive)
REMARK    1  A    between atoms: N1_1  and  C1_5 
REMARK    2  A    between atoms: C3_7  and  N2_8 
ROOT
HETATM    1  C1  UNL     1     -17.804  -2.980  91.660  1.00  0.00     0.215 A 
HETATM    2  C2  UNL     1     -19.052  -3.296  90.939  1.00  0.00     0.069 A 
HETATM    3  C3  UNL     1     -18.721  -1.867  91.394  1.00  0.00     0.215 A 
ENDROOT
BRANCH   1   4
HETATM    4  N1  UNL     1     -16.560  -3.157  90.958  1.00  0.00    -0.073 N 
ATOM      5  H13 UNL     1     -16.743  -3.199  89.956  1.00  0.00     0.274 HD
ATOM      6  H12 UNL     1     -16.016  -2.295  91.018  1.00  0.00     0.274 HD
ATOM      7  H11 UNL     1     -15.970  -3.945  91.225  1.00  0.00     0.274 HD
ENDBRANCH   1   4
BRANCH   3   8
HETATM    8  N2  UNL     1     -18.530  -0.931  90.319  1.00  0.00    -0.073 N 
ATOM      9  H23 UNL     1     -18.626  -1.447  89.445  1.00  0.00     0.274 HD
ATOM     10  H22 UNL     1     -19.345  -0.318  90.302  1.00  0.00     0.274 HD
ATOM     11  H21 UNL     1     -17.703  -0.340  90.234  1.00  0.00     0.274 HD
ENDBRANCH   3   8
TORSDOF 2
ENDMDL
MODEL 3
REMARK VINA RESULT: -2.864698004      1.622      2.879
REMARK  2 active torsions:
REMARK  status: ('A' for Active; 'I' for Inactive)
REMARK    1  A    between atoms: N1_1  and  C1_5 
REMARK    2  A    between atoms: C3_7  and  N2_8 
ROOT
HETATM    1  C1  UNL     1     -16.194  -3.596  91.895  1.00  0.00     0.215 A 
HETATM    2  C2  UNL     1     -16.693  -4.515  90.854  1.00  0.00     0.069 A 
HETATM    3  C3  UNL     1     -17.438  -3.221  91.215  1.00  0.00     0.215 A 
ENDROOT
BRANCH   1   4
HETATM    4  N1  UNL     1     -14.940  -2.931  91.660  1.00  0.00    -0.073 N 
ATOM      5  H13 UNL     1     -14.758  -2.278  92.422  1.00  0.00     0.274 HD
ATOM      6  H12 UNL     1     -14.177  -3.596  91.791  1.00  0.00     0.274 HD
ATOM      7  H11 UNL     1     -14.816  -2.449  90.769  1.00  0.00     0.274 HD
ENDBRANCH   1   4
BRANCH   3   8
HETATM    8  N2  UNL     1     -17.493  -2.251  90.155  1.00  0.00    -0.073 N 
ATOM      9  H23 UNL     1     -16.959  -1.437  90.459  1.00  0.00     0.274 HD
ATOM     10  H22 UNL     1     -16.927  -2.609  89.386  1.00  0.00     0.274 HD
ATOM     11  H21 UNL     1     -18.367  -1.910  89.757  1.00  0.00     0.274 HD
ENDBRANCH   3   8
TORSDOF 2
ENDMDL
MODEL 4
REMARK VINA RESULT: -2.856539774      1.975      2.349
REMARK  2 active torsions:
REMARK  status: ('A' for Active; 'I' for Inactive)
REMARK    1  A    between atoms: N1_1  and  C1_5 
REMARK    2  A    between atoms: C3_7  and  N2_8 
ROOT
HETATM    1  C1  UNL     1     -16.751  -3.678  90.701  1.00  0.00     0.215 A 
HETATM    2  C2  UNL     1     -16.728  -4.199  92.081  1.00  0.00     0.069 A 
HETATM    3  C3  UNL     1     -15.435  -3.885  91.315  1.00  0.00     0.215 A 
ENDROOT
BRANCH   1   4
HETATM    4  N1  UNL     1     -17.320  -2.374  90.485  1.00  0.00    -0.073 N 
ATOM      5  H13 UNL     1     -17.585  -2.282  89.504  1.00  0.00     0.274 HD
ATOM      6  H12 UNL     1     -18.233  -2.327  90.936  1.00  0.00     0.274 HD
ATOM      7  H11 UNL     1     -16.767  -1.562  90.760  1.00  0.00     0.274 HD
ENDBRANCH   1   4
BRANCH   3   8
HETATM    8  N2  UNL     1     -14.654  -2.817  91.879  1.00  0.00    -0.073 N 
ATOM      9  H23 UNL     1     -14.608  -2.073  91.183  1.00  0.00     0.274 HD
ATOM     10  H22 UNL     1     -15.212  -2.391  92.619  1.00  0.00     0.274 HD
ATOM     11  H21 UNL     1     -13.713  -2.950  92.247  1.00  0.00     0.274 HD
ENDBRANCH   3   8
TORSDOF 2
ENDMDL
MODEL 5
REMARK VINA RESULT: -2.814637607      8.467      8.939
REMARK  2 active torsions:
REMARK  status: ('A' for Active; 'I' for Inactive)
REMARK    1  A    between atoms: N1_1  and  C1_5 
REMARK    2  A    between atoms: C3_7  and  N2_8 
ROOT
HETATM    1  C1  UNL     1     -22.350   3.191  96.745  1.00  0.00     0.215 A 
HETATM    2  C2  UNL     1     -22.682   3.291  95.311  1.00  0.00     0.069 A 
HETATM    3  C3  UNL     1     -22.250   1.963  95.950  1.00  0.00     0.215 A 
ENDROOT
BRANCH   1   4
HETATM    4  N1  UNL     1     -23.404   3.426  97.697  1.00  0.00    -0.073 N 
ATOM      5  H13 UNL     1     -23.083   4.100  98.393  1.00  0.00     0.274 HD
ATOM      6  H12 UNL     1     -24.151   3.956  97.246  1.00  0.00     0.274 HD
ATOM      7  H11 UNL     1     -23.805   2.618  98.172  1.00  0.00     0.274 HD
ENDBRANCH   1   4
BRANCH   3   8
HETATM    8  N2  UNL     1     -23.265   0.944  95.946  1.00  0.00    -0.073 N 
ATOM      9  H23 UNL     1     -24.036   1.280  96.523  1.00  0.00     0.274 HD
ATOM     10  H22 UNL     1     -23.679   0.930  95.014  1.00  0.00     0.274 HD
ATOM     11  H21 UNL     1     -23.085  -0.024  96.213  1.00  0.00     0.274 HD
ENDBRANCH   3   8
TORSDOF 2
ENDMDL
