MODEL 1
REMARK VINA RESULT: -8.221413549      0.000      0.000
REMARK  6 active torsions:
REMARK  status: ('A' for Active; 'I' for Inactive)
REMARK    1  A    between atoms: N1_2  and  C2_5 
REMARK    2  A    between atoms: C2_5  and  O1_6 
REMARK    3  A    between atoms: C2_5  and  C3_8 
REMARK    4  A    between atoms: C3_8  and  C4_9 
REMARK    5  A    between atoms: C5_12  and  C6_13 
REMARK    6  A    between atoms: N3_15  and  C8_16 
ROOT
HETATM    1  C6  UNL     1       2.790  24.967  28.348  1.00  0.00     0.090 A 
HETATM    2  C7  UNL     1       2.836  24.564  29.691  1.00  0.00     0.141 A 
HETATM    3  N3  UNL     1       2.107  23.439  29.871  1.00  0.00    -0.279 N 
HETATM    4  N4  UNL     1       1.615  23.151  28.679  1.00  0.00    -0.020 NA
HETATM    5  N5  UNL     1       2.012  24.040  27.782  1.00  0.00    -0.281 N 
ATOM      6  H5  UNL     1       1.758  24.019  26.794  1.00  0.00     0.184 HD
ENDROOT
BRANCH   1   7
HETATM    7  C5  UNL     1       3.495  26.114  27.742  1.00  0.00     0.069 A 
HETATM    8  N2  UNL     1       3.798  27.183  28.417  1.00  0.00    -0.351 N 
HETATM    9  C4  UNL     1       4.403  28.190  27.839  1.00  0.00     0.064 A 
ATOM     10  H2  UNL     1       3.561  27.237  29.407  1.00  0.00     0.166 HD
HETATM   11  S1  UNL     1       4.581  27.624  26.227  1.00  0.00    -0.085 SA
HETATM   12  C18 UNL     1       3.841  26.086  26.407  1.00  0.00     0.083 A 
BRANCH   9  13
HETATM   13  C3  UNL     1       4.842  29.548  28.295  1.00  0.00     0.060 A 
HETATM   14  C19 UNL     1       5.481  30.420  27.288  1.00  0.00     0.022 A 
HETATM   15  C20 UNL     1       4.067  30.729  27.625  1.00  0.00     0.022 A 
BRANCH  13  16
HETATM   16  C2  UNL     1       5.112  29.762  29.752  1.00  0.00     0.333 C 
BRANCH  16  17
HETATM   17  N1  UNL     1       6.546  29.782  29.985  1.00  0.00    -0.052 N 
HETATM   18  C1  UNL     1       6.836  30.042  31.395  1.00  0.00     0.270 C 
ATOM     19  H12 UNL     1       7.019  30.445  29.372  1.00  0.00     0.279 HD
ATOM     20  H11 UNL     1       6.994  28.926  29.658  1.00  0.00     0.279 HD
ENDBRANCH  16  17
BRANCH  16  21
HETATM   21  O1  UNL     1       4.532  28.666  30.431  1.00  0.00    -0.369 OA
ATOM     22  H1  UNL     1       4.935  28.568  31.286  1.00  0.00     0.212 HD
ENDBRANCH  16  21
ENDBRANCH  13  16
ENDBRANCH   9  13
ENDBRANCH   1   7
BRANCH   3  23
HETATM   23  C8  UNL     1       1.966  22.717  31.130  1.00  0.00     0.118 C 
HETATM   24  C9  UNL     1       2.879  23.267  32.194  1.00  0.00     0.054 C 
HETATM   25  C10 UNL     1       4.246  22.679  32.215  1.00  0.00     0.169 C 
HETATM   26  O2  UNL     1       4.435  21.648  31.338  1.00  0.00    -0.390 OA
HETATM   27  C11 UNL     1       3.446  20.687  31.351  1.00  0.00     0.179 C 
HETATM   28  C12 UNL     1       2.077  21.233  31.007  1.00  0.00     0.004 C 
HETATM   29  C13 UNL     1       1.162  20.554  32.045  1.00  0.00     0.014 C 
HETATM   30  C17 UNL     1       1.544  20.662  29.730  1.00  0.00     0.018 C 
HETATM   31  C14 UNL     1       1.283  19.105  31.545  1.00  0.00     0.005 C 
HETATM   32  C15 UNL     1       0.903  19.324  30.101  1.00  0.00    -0.018 C 
HETATM   33  C16 UNL     1      -0.623  19.470  30.057  1.00  0.00     0.010 C 
ENDBRANCH   3  23
TORSDOF 6
ENDMDL
MODEL 2
REMARK VINA RESULT: -8.178567687      1.334      2.642
REMARK  6 active torsions:
REMARK  status: ('A' for Active; 'I' for Inactive)
REMARK    1  A    between atoms: N1_2  and  C2_5 
REMARK    2  A    between atoms: C2_5  and  O1_6 
REMARK    3  A    between atoms: C2_5  and  C3_8 
REMARK    4  A    between atoms: C3_8  and  C4_9 
REMARK    5  A    between atoms: C5_12  and  C6_13 
REMARK    6  A    between atoms: N3_15  and  C8_16 
ROOT
HETATM    1  C6  UNL     1       2.581  24.800  28.799  1.00  0.00     0.090 A 
HETATM    2  C7  UNL     1       3.142  23.707  29.476  1.00  0.00     0.141 A 
HETATM    3  N3  UNL     1       2.171  22.856  29.883  1.00  0.00    -0.279 N 
HETATM    4  N4  UNL     1       1.040  23.404  29.478  1.00  0.00    -0.020 NA
HETATM    5  N5  UNL     1       1.271  24.541  28.840  1.00  0.00    -0.281 N 
ATOM      6  H5  UNL     1       0.548  25.137  28.437  1.00  0.00     0.184 HD
ENDROOT
BRANCH   1   7
HETATM    7  C5  UNL     1       3.308  25.915  28.159  1.00  0.00     0.069 A 
HETATM    8  N2  UNL     1       3.637  26.995  28.805  1.00  0.00    -0.351 N 
HETATM    9  C4  UNL     1       4.261  27.973  28.200  1.00  0.00     0.064 A 
ATOM     10  H2  UNL     1       3.406  27.080  29.795  1.00  0.00     0.166 HD
HETATM   11  S1  UNL     1       4.418  27.363  26.602  1.00  0.00    -0.085 SA
HETATM   12  C18 UNL     1       3.646  25.846  26.825  1.00  0.00     0.083 A 
BRANCH   9  13
HETATM   13  C3  UNL     1       4.732  29.332  28.618  1.00  0.00     0.060 A 
HETATM   14  C19 UNL     1       5.343  30.182  27.576  1.00  0.00     0.022 A 
HETATM   15  C20 UNL     1       3.946  30.512  27.959  1.00  0.00     0.022 A 
BRANCH  13  16
HETATM   16  C2  UNL     1       5.056  29.565  30.061  1.00  0.00     0.333 C 
BRANCH  16  17
HETATM   17  N1  UNL     1       6.495  29.683  30.224  1.00  0.00    -0.052 N 
HETATM   18  C1  UNL     1       6.852  29.723  31.643  1.00  0.00     0.270 C 
ATOM     19  H12 UNL     1       6.868  30.486  29.718  1.00  0.00     0.279 HD
ATOM     20  H11 UNL     1       6.994  28.944  29.729  1.00  0.00     0.279 HD
ENDBRANCH  16  17
BRANCH  16  21
HETATM   21  O1  UNL     1       4.587  28.432  30.764  1.00  0.00    -0.369 OA
ATOM     22  H1  UNL     1       3.677  28.270  30.543  1.00  0.00     0.212 HD
ENDBRANCH  16  21
ENDBRANCH  13  16
ENDBRANCH   9  13
ENDBRANCH   1   7
BRANCH   3  23
HETATM   23  C8  UNL     1       2.393  21.594  30.579  1.00  0.00     0.118 C 
HETATM   24  C9  UNL     1       1.722  20.444  29.877  1.00  0.00     0.054 C 
HETATM   25  C10 UNL     1       0.306  20.207  30.270  1.00  0.00     0.169 C 
HETATM   26  O2  UNL     1      -0.141  20.999  31.290  1.00  0.00    -0.390 OA
HETATM   27  C11 UNL     1       0.704  21.075  32.378  1.00  0.00     0.179 C 
HETATM   28  C12 UNL     1       2.070  21.629  32.036  1.00  0.00     0.004 C 
HETATM   29  C13 UNL     1       3.025  20.695  32.805  1.00  0.00     0.014 C 
HETATM   30  C17 UNL     1       2.335  22.937  32.713  1.00  0.00     0.018 C 
HETATM   31  C14 UNL     1       2.643  21.102  34.237  1.00  0.00     0.005 C 
HETATM   32  C15 UNL     1       2.840  22.594  34.115  1.00  0.00    -0.018 C 
HETATM   33  C16 UNL     1       4.349  22.853  34.183  1.00  0.00     0.010 C 
ENDBRANCH   3  23
TORSDOF 6
ENDMDL
MODEL 3
REMARK VINA RESULT: -8.039944240      3.090      4.370
REMARK  6 active torsions:
REMARK  status: ('A' for Active; 'I' for Inactive)
REMARK    1  A    between atoms: N1_2  and  C2_5 
REMARK    2  A    between atoms: C2_5  and  O1_6 
REMARK    3  A    between atoms: C2_5  and  C3_8 
REMARK    4  A    between atoms: C3_8  and  C4_9 
REMARK    5  A    between atoms: C5_12  and  C6_13 
REMARK    6  A    between atoms: N3_15  and  C8_16 
ROOT
HETATM    1  C6  UNL     1       3.765  23.582  32.095  1.00  0.00     0.090 A 
HETATM    2  C7  UNL     1       3.260  22.395  32.645  1.00  0.00     0.141 A 
HETATM    3  N3  UNL     1       3.754  22.205  33.890  1.00  0.00    -0.279 N 
HETATM    4  N4  UNL     1       4.549  23.237  34.108  1.00  0.00    -0.020 NA
HETATM    5  N5  UNL     1       4.559  24.050  33.063  1.00  0.00    -0.281 N 
ATOM      6  H5  UNL     1       5.099  24.913  33.005  1.00  0.00     0.184 HD
ENDROOT
BRANCH   1   7
HETATM    7  C5  UNL     1       3.428  24.165  30.781  1.00  0.00     0.069 A 
HETATM    8  N2  UNL     1       3.980  25.256  30.338  1.00  0.00    -0.351 N 
HETATM    9  C4  UNL     1       3.638  25.757  29.178  1.00  0.00     0.064 A 
ATOM     10  H2  UNL     1       4.687  25.727  30.903  1.00  0.00     0.166 HD
HETATM   11  S1  UNL     1       2.458  24.632  28.637  1.00  0.00    -0.085 SA
HETATM   12  C18 UNL     1       2.481  23.564  29.980  1.00  0.00     0.083 A 
BRANCH   9  13
HETATM   13  C3  UNL     1       4.029  26.983  28.411  1.00  0.00     0.060 A 
HETATM   14  C19 UNL     1       4.962  26.799  27.281  1.00  0.00     0.022 A 
HETATM   15  C20 UNL     1       3.532  26.994  26.929  1.00  0.00     0.022 A 
BRANCH  13  16
HETATM   16  C2  UNL     1       3.921  28.315  29.086  1.00  0.00     0.333 C 
BRANCH  16  17
HETATM   17  N1  UNL     1       5.182  29.026  28.964  1.00  0.00    -0.052 N 
HETATM   18  C1  UNL     1       4.970  30.357  28.391  1.00  0.00     0.270 C 
ATOM     19  H12 UNL     1       5.868  28.491  28.432  1.00  0.00     0.279 HD
ATOM     20  H11 UNL     1       5.678  29.072  29.853  1.00  0.00     0.279 HD
ENDBRANCH  16  17
BRANCH  16  21
HETATM   21  O1  UNL     1       3.652  28.052  30.449  1.00  0.00    -0.369 OA
ATOM     22  H1  UNL     1       3.319  27.167  30.546  1.00  0.00     0.212 HD
ENDBRANCH  16  21
ENDBRANCH  13  16
ENDBRANCH   9  13
ENDBRANCH   1   7
BRANCH   3  23
HETATM   23  C8  UNL     1       3.411  21.096  34.774  1.00  0.00     0.118 C 
HETATM   24  C9  UNL     1       4.037  19.805  34.318  1.00  0.00     0.054 C 
HETATM   25  C10 UNL     1       3.237  19.033  33.329  1.00  0.00     0.169 C 
HETATM   26  O2  UNL     1       2.001  19.554  33.067  1.00  0.00    -0.390 OA
HETATM   27  C11 UNL     1       1.269  19.904  34.183  1.00  0.00     0.179 C 
HETATM   28  C12 UNL     1       1.950  20.949  35.040  1.00  0.00     0.004 C 
HETATM   29  C13 UNL     1       1.731  20.419  36.471  1.00  0.00     0.014 C 
HETATM   30  C17 UNL     1       1.181  22.232  35.084  1.00  0.00     0.018 C 
HETATM   31  C14 UNL     1       0.206  20.595  36.551  1.00  0.00     0.005 C 
HETATM   32  C15 UNL     1       0.119  22.052  36.169  1.00  0.00    -0.018 C 
HETATM   33  C16 UNL     1       0.522  22.864  37.405  1.00  0.00     0.010 C 
ENDBRANCH   3  23
TORSDOF 6
ENDMDL
MODEL 4
REMARK VINA RESULT: -7.973566468      1.473      1.808
REMARK  6 active torsions:
REMARK  status: ('A' for Active; 'I' for Inactive)
REMARK    1  A    between atoms: N1_2  and  C2_5 
REMARK    2  A    between atoms: C2_5  and  O1_6 
REMARK    3  A    between atoms: C2_5  and  C3_8 
REMARK    4  A    between atoms: C3_8  and  C4_9 
REMARK    5  A    between atoms: C5_12  and  C6_13 
REMARK    6  A    between atoms: N3_15  and  C8_16 
ROOT
HETATM    1  C6  UNL     1       3.439  25.231  29.699  1.00  0.00     0.090 A 
HETATM    2  C7  UNL     1       2.272  24.452  29.718  1.00  0.00     0.141 A 
HETATM    3  N3  UNL     1       2.269  23.636  30.798  1.00  0.00    -0.279 N 
HETATM    4  N4  UNL     1       3.401  23.892  31.429  1.00  0.00    -0.020 NA
HETATM    5  N5  UNL     1       4.090  24.827  30.793  1.00  0.00    -0.281 N 
ATOM      6  H5  UNL     1       4.995  25.187  31.097  1.00  0.00     0.184 HD
ENDROOT
BRANCH   1   7
HETATM    7  C5  UNL     1       3.791  26.276  28.716  1.00  0.00     0.069 A 
HETATM    8  N2  UNL     1       4.218  27.452  29.071  1.00  0.00    -0.351 N 
HETATM    9  C4  UNL     1       4.499  28.361  28.172  1.00  0.00     0.064 A 
ATOM     10  H2  UNL     1       4.336  27.667  30.061  1.00  0.00     0.166 HD
HETATM   11  S1  UNL     1       4.153  27.534  26.706  1.00  0.00    -0.085 SA
HETATM   12  C18 UNL     1       3.653  26.031  27.367  1.00  0.00     0.083 A 
BRANCH   9  13
HETATM   13  C3  UNL     1       4.954  29.787  28.232  1.00  0.00     0.060 A 
HETATM   14  C19 UNL     1       5.268  30.447  26.949  1.00  0.00     0.022 A 
HETATM   15  C20 UNL     1       3.965  30.802  27.570  1.00  0.00     0.022 A 
BRANCH  13  16
HETATM   16  C2  UNL     1       5.563  30.291  29.504  1.00  0.00     0.333 C 
BRANCH  16  17
HETATM   17  N1  UNL     1       6.377  31.461  29.223  1.00  0.00    -0.052 N 
HETATM   18  C1  UNL     1       6.930  32.014  30.460  1.00  0.00     0.270 C 
ATOM     19  H12 UNL     1       5.861  32.162  28.693  1.00  0.00     0.279 HD
ATOM     20  H11 UNL     1       7.107  31.259  28.540  1.00  0.00     0.279 HD
ENDBRANCH  16  17
BRANCH  16  21
HETATM   21  O1  UNL     1       6.380  29.248  29.997  1.00  0.00    -0.369 OA
ATOM     22  H1  UNL     1       7.157  29.613  30.403  1.00  0.00     0.212 HD
ENDBRANCH  16  21
ENDBRANCH  13  16
ENDBRANCH   9  13
ENDBRANCH   1   7
BRANCH   3  23
HETATM   23  C8  UNL     1       1.193  22.720  31.159  1.00  0.00     0.118 C 
HETATM   24  C9  UNL     1       0.993  22.655  32.650  1.00  0.00     0.054 C 
HETATM   25  C10 UNL     1       1.841  21.656  33.356  1.00  0.00     0.169 C 
HETATM   26  O2  UNL     1       2.596  20.869  32.533  1.00  0.00    -0.390 OA
HETATM   27  C11 UNL     1       1.914  20.322  31.466  1.00  0.00     0.179 C 
HETATM   28  C12 UNL     1       1.309  21.362  30.548  1.00  0.00     0.004 C 
HETATM   29  C13 UNL     1      -0.097  20.798  30.264  1.00  0.00     0.014 C 
HETATM   30  C17 UNL     1       1.917  21.333  29.181  1.00  0.00     0.018 C 
HETATM   31  C14 UNL     1       0.313  19.561  29.448  1.00  0.00     0.005 C 
HETATM   32  C15 UNL     1       1.174  20.240  28.411  1.00  0.00    -0.018 C 
HETATM   33  C16 UNL     1       0.226  20.895  27.401  1.00  0.00     0.010 C 
ENDBRANCH   3  23
TORSDOF 6
ENDMDL
MODEL 5
REMARK VINA RESULT: -7.942455667      1.517      1.811
REMARK  6 active torsions:
REMARK  status: ('A' for Active; 'I' for Inactive)
REMARK    1  A    between atoms: N1_2  and  C2_5 
REMARK    2  A    between atoms: C2_5  and  O1_6 
REMARK    3  A    between atoms: C2_5  and  C3_8 
REMARK    4  A    between atoms: C3_8  and  C4_9 
REMARK    5  A    between atoms: C5_12  and  C6_13 
REMARK    6  A    between atoms: N3_15  and  C8_16 
ROOT
HETATM    1  C6  UNL     1       3.494  25.084  28.972  1.00  0.00     0.090 A 
HETATM    2  C7  UNL     1       3.448  25.033  30.373  1.00  0.00     0.141 A 
HETATM    3  N3  UNL     1       3.069  23.801  30.787  1.00  0.00    -0.279 N 
HETATM    4  N4  UNL     1       2.878  23.107  29.680  1.00  0.00    -0.020 NA
HETATM    5  N5  UNL     1       3.127  23.850  28.612  1.00  0.00    -0.281 N 
ATOM      6  H5  UNL     1       3.050  23.525  27.649  1.00  0.00     0.184 HD
ENDROOT
BRANCH   1   7
HETATM    7  C5  UNL     1       3.911  26.230  28.140  1.00  0.00     0.069 A 
HETATM    8  N2  UNL     1       4.252  27.376  28.651  1.00  0.00    -0.351 N 
HETATM    9  C4  UNL     1       4.593  28.378  27.881  1.00  0.00     0.064 A 
ATOM     10  H2  UNL     1       4.253  27.496  29.664  1.00  0.00     0.166 HD
HETATM   11  S1  UNL     1       4.441  27.693  26.313  1.00  0.00    -0.085 SA
HETATM   12  C18 UNL     1       3.930  26.118  26.766  1.00  0.00     0.083 A 
BRANCH   9  13
HETATM   13  C3  UNL     1       4.984  29.803  28.129  1.00  0.00     0.060 A 
HETATM   14  C19 UNL     1       5.285  30.633  26.944  1.00  0.00     0.022 A 
HETATM   15  C20 UNL     1       3.960  30.851  27.581  1.00  0.00     0.022 A 
BRANCH  13  16
HETATM   16  C2  UNL     1       5.553  30.168  29.464  1.00  0.00     0.333 C 
BRANCH  16  17
HETATM   17  N1  UNL     1       6.388  31.349  29.332  1.00  0.00    -0.052 N 
HETATM   18  C1  UNL     1       6.886  31.779  30.640  1.00  0.00     0.270 C 
ATOM     19  H12 UNL     1       5.902  32.103  28.846  1.00  0.00     0.279 HD
ATOM     20  H11 UNL     1       7.148  31.203  28.667  1.00  0.00     0.279 HD
ENDBRANCH  16  17
BRANCH  16  21
HETATM   21  O1  UNL     1       6.342  29.069  29.876  1.00  0.00    -0.369 OA
ATOM     22  H1  UNL     1       6.466  28.472  29.148  1.00  0.00     0.212 HD
ENDBRANCH  16  21
ENDBRANCH  13  16
ENDBRANCH   9  13
ENDBRANCH   1   7
BRANCH   3  23
HETATM   23  C8  UNL     1       2.954  23.377  32.178  1.00  0.00     0.118 C 
HETATM   24  C9  UNL     1       4.298  23.052  32.774  1.00  0.00     0.054 C 
HETATM   25  C10 UNL     1       4.755  21.650  32.570  1.00  0.00     0.169 C 
HETATM   26  O2  UNL     1       3.837  20.836  31.967  1.00  0.00    -0.390 OA
HETATM   27  C11 UNL     1       2.564  20.906  32.495  1.00  0.00     0.179 C 
HETATM   28  C12 UNL     1       1.959  22.290  32.411  1.00  0.00     0.004 C 
HETATM   29  C13 UNL     1       1.308  22.468  33.797  1.00  0.00     0.014 C 
HETATM   30  C17 UNL     1       0.758  22.329  31.518  1.00  0.00     0.018 C 
HETATM   31  C14 UNL     1       0.201  21.408  33.669  1.00  0.00     0.005 C 
HETATM   32  C15 UNL     1      -0.424  21.878  32.378  1.00  0.00    -0.018 C 
HETATM   33  C16 UNL     1      -1.291  23.095  32.718  1.00  0.00     0.010 C 
ENDBRANCH   3  23
TORSDOF 6
ENDMDL
