MODEL 1
REMARK VINA RESULT: -7.333257192      0.000      0.000
REMARK  7 active torsions:
REMARK  status: ('A' for Active; 'I' for Inactive)
REMARK    1  A    between atoms: C3_5  and  O1_6 
REMARK    2  A    between atoms: O1_6  and  C4_7 
REMARK    3  A    between atoms: C7_10  and  O2_11 
REMARK    4  A    between atoms: C9_15  and  C10_16 
REMARK    5  A    between atoms: C10_16  and  N2_17 
REMARK    6  A    between atoms: C13_21  and  C14_22 
REMARK    7  A    between atoms: C16_26  and  N4_27 
ROOT
HETATM    1  N2  UNL     1       1.692  22.927  26.660  1.00  0.00     0.095 N 
HETATM    2  C11 UNL     1       1.612  21.462  26.556  1.00  0.00     0.299 C 
HETATM    3  C12 UNL     1       1.450  20.816  27.882  1.00  0.00     0.199 C 
HETATM    4  O3  UNL     1       2.160  21.278  28.929  1.00  0.00    -0.378 OA
HETATM    5  C13 UNL     1       2.457  22.601  29.013  1.00  0.00     0.174 C 
HETATM    6  C18 UNL     1       1.136  23.383  28.962  1.00  0.00     0.068 C 
HETATM    7  C19 UNL     1       0.620  23.380  27.546  1.00  0.00     0.276 C 
ENDROOT
BRANCH   1   8
HETATM    8  C10 UNL     1       1.553  23.502  25.333  1.00  0.00     0.320 C 
BRANCH   8   9
HETATM    9  C9  UNL     1       2.257  24.824  25.255  1.00  0.00     0.037 A 
HETATM   10  C2  UNL     1       2.292  25.683  24.181  1.00  0.00     0.022 A 
HETATM   11  C1  UNL     1       1.554  25.382  22.883  1.00  0.00     0.069 C 
HETATM   12  N1  UNL     1       2.982  26.771  24.318  1.00  0.00    -0.334 N 
HETATM   13  C3  UNL     1       3.616  27.021  25.449  1.00  0.00     0.187 A 
ATOM     14  H1  UNL     1       3.037  27.438  23.549  1.00  0.00     0.168 HD
HETATM   15  S1  UNL     1       3.228  25.652  26.388  1.00  0.00    -0.048 SA
BRANCH  13  16
HETATM   16  O1  UNL     1       4.410  28.142  25.781  1.00  0.00    -0.325 OA
BRANCH  16  17
HETATM   17  C4  UNL     1       4.122  28.809  26.972  1.00  0.00     0.133 C 
HETATM   18  C5  UNL     1       4.870  28.252  28.158  1.00  0.00     0.035 C 
HETATM   19  C6  UNL     1       4.604  29.309  29.215  1.00  0.00     0.034 C 
HETATM   20  C7  UNL     1       4.774  30.586  28.438  1.00  0.00     0.120 C 
HETATM   21  C8  UNL     1       4.525  30.255  26.982  1.00  0.00     0.064 C 
BRANCH  20  22
HETATM   22  O2  UNL     1       6.080  31.037  28.639  1.00  0.00    -0.395 OA
ATOM     23  H2  UNL     1       6.101  31.965  28.440  1.00  0.00     0.210 HD
ENDBRANCH  20  22
ENDBRANCH  16  17
ENDBRANCH  13  16
ENDBRANCH   8   9
ENDBRANCH   1   8
BRANCH   5  24
HETATM   24  C14 UNL     1       3.059  22.940  30.323  1.00  0.00     0.054 A 
HETATM   25  C15 UNL     1       4.042  23.895  30.473  1.00  0.00     0.117 A 
HETATM   26  N3  UNL     1       4.560  24.168  31.685  1.00  0.00    -0.350 N 
HETATM   27  C16 UNL     1       4.118  23.506  32.770  1.00  0.00     0.114 A 
ATOM     28  H3  UNL     1       5.287  24.877  31.781  1.00  0.00     0.166 HD
HETATM   29  C17 UNL     1       3.133  22.544  32.648  1.00  0.00     0.136 A 
HETATM   30  N5  UNL     1       2.645  22.305  31.418  1.00  0.00    -0.362 N 
ATOM     31  H5  UNL     1       1.918  21.598  31.318  1.00  0.00     0.165 HD
BRANCH  27  32
HETATM   32  N4  UNL     1       4.612  23.762  33.947  1.00  0.00    -0.384 N 
ATOM     33  H42 UNL     1       5.588  23.534  34.136  1.00  0.00     0.157 HD
ATOM     34  H41 UNL     1       4.032  24.185  34.671  1.00  0.00     0.157 HD
ENDBRANCH  27  32
ENDBRANCH   5  24
TORSDOF 7
ENDMDL
MODEL 2
REMARK VINA RESULT: -7.235188676      3.111      4.762
REMARK  7 active torsions:
REMARK  status: ('A' for Active; 'I' for Inactive)
REMARK    1  A    between atoms: C3_5  and  O1_6 
REMARK    2  A    between atoms: O1_6  and  C4_7 
REMARK    3  A    between atoms: C7_10  and  O2_11 
REMARK    4  A    between atoms: C9_15  and  C10_16 
REMARK    5  A    between atoms: C10_16  and  N2_17 
REMARK    6  A    between atoms: C13_21  and  C14_22 
REMARK    7  A    between atoms: C16_26  and  N4_27 
ROOT
HETATM    1  N2  UNL     1       1.979  21.615  30.710  1.00  0.00     0.095 N 
HETATM    2  C11 UNL     1       1.575  20.229  30.430  1.00  0.00     0.299 C 
HETATM    3  C12 UNL     1       0.415  19.808  31.253  1.00  0.00     0.199 C 
HETATM    4  O3  UNL     1       0.364  20.168  32.550  1.00  0.00    -0.378 OA
HETATM    5  C13 UNL     1       0.895  21.356  32.943  1.00  0.00     0.174 C 
HETATM    6  C18 UNL     1       0.219  22.465  32.123  1.00  0.00     0.068 C 
HETATM    7  C19 UNL     1       0.776  22.447  30.722  1.00  0.00     0.276 C 
ENDROOT
BRANCH   1   8
HETATM    8  C10 UNL     1       2.907  22.052  29.682  1.00  0.00     0.320 C 
BRANCH   8   9
HETATM    9  C9  UNL     1       3.159  23.526  29.791  1.00  0.00     0.037 A 
HETATM   10  C2  UNL     1       3.857  24.179  30.781  1.00  0.00     0.022 A 
HETATM   11  C1  UNL     1       4.511  23.429  31.934  1.00  0.00     0.069 C 
HETATM   12  N1  UNL     1       3.936  25.469  30.694  1.00  0.00    -0.334 N 
HETATM   13  C3  UNL     1       3.365  26.108  29.689  1.00  0.00     0.187 A 
ATOM     14  H1  UNL     1       4.443  25.995  31.405  1.00  0.00     0.168 HD
HETATM   15  S1  UNL     1       2.667  24.829  28.803  1.00  0.00    -0.048 SA
BRANCH  13  16
HETATM   16  O1  UNL     1       3.345  27.496  29.429  1.00  0.00    -0.325 OA
BRANCH  16  17
HETATM   17  C4  UNL     1       4.297  28.002  28.544  1.00  0.00     0.133 C 
HETATM   18  C5  UNL     1       3.885  27.877  27.097  1.00  0.00     0.035 C 
HETATM   19  C6  UNL     1       4.928  28.737  26.405  1.00  0.00     0.034 C 
HETATM   20  C7  UNL     1       5.015  29.929  27.318  1.00  0.00     0.120 C 
HETATM   21  C8  UNL     1       4.550  29.475  28.685  1.00  0.00     0.064 C 
BRANCH  20  22
HETATM   22  O2  UNL     1       4.180  30.923  26.803  1.00  0.00    -0.395 OA
ATOM     23  H2  UNL     1       4.710  31.697  26.651  1.00  0.00     0.210 HD
ENDBRANCH  20  22
ENDBRANCH  16  17
ENDBRANCH  13  16
ENDBRANCH   8   9
ENDBRANCH   1   8
BRANCH   5  24
HETATM   24  C14 UNL     1       0.562  21.659  34.354  1.00  0.00     0.054 A 
HETATM   25  C15 UNL     1       1.289  22.542  35.123  1.00  0.00     0.117 A 
HETATM   26  N3  UNL     1       0.949  22.784  36.403  1.00  0.00    -0.350 N 
HETATM   27  C16 UNL     1      -0.113  22.162  36.946  1.00  0.00     0.114 A 
ATOM     28  H3  UNL     1       1.497  23.440  36.961  1.00  0.00     0.166 HD
HETATM   29  C17 UNL     1      -0.860  21.272  36.198  1.00  0.00     0.136 A 
HETATM   30  N5  UNL     1      -0.483  21.061  34.924  1.00  0.00    -0.362 N 
ATOM     31  H5  UNL     1      -1.028  20.407  34.363  1.00  0.00     0.165 HD
BRANCH  27  32
HETATM   32  N4  UNL     1      -0.451  22.389  38.183  1.00  0.00    -0.384 N 
ATOM     33  H42 UNL     1       0.247  22.758  38.829  1.00  0.00     0.157 HD
ATOM     34  H41 UNL     1      -1.401  22.200  38.503  1.00  0.00     0.157 HD
ENDBRANCH  27  32
ENDBRANCH   5  24
TORSDOF 7
ENDMDL
MODEL 3
REMARK VINA RESULT: -7.153533553      2.729      3.741
REMARK  7 active torsions:
REMARK  status: ('A' for Active; 'I' for Inactive)
REMARK    1  A    between atoms: C3_5  and  O1_6 
REMARK    2  A    between atoms: O1_6  and  C4_7 
REMARK    3  A    between atoms: C7_10  and  O2_11 
REMARK    4  A    between atoms: C9_15  and  C10_16 
REMARK    5  A    between atoms: C10_16  and  N2_17 
REMARK    6  A    between atoms: C13_21  and  C14_22 
REMARK    7  A    between atoms: C16_26  and  N4_27 
ROOT
HETATM    1  N2  UNL     1       2.943  24.016  29.196  1.00  0.00     0.095 N 
HETATM    2  C11 UNL     1       4.345  23.573  29.206  1.00  0.00     0.299 C 
HETATM    3  C12 UNL     1       4.587  22.509  30.211  1.00  0.00     0.199 C 
HETATM    4  O3  UNL     1       4.009  22.607  31.424  1.00  0.00    -0.378 OA
HETATM    5  C13 UNL     1       2.786  23.187  31.545  1.00  0.00     0.174 C 
HETATM    6  C18 UNL     1       1.817  22.432  30.624  1.00  0.00     0.068 C 
HETATM    7  C19 UNL     1       2.089  22.828  29.195  1.00  0.00     0.276 C 
ENDROOT
BRANCH   1   8
HETATM    8  C10 UNL     1       2.713  24.827  28.013  1.00  0.00     0.320 C 
BRANCH   8   9
HETATM    9  C9  UNL     1       3.320  26.188  28.179  1.00  0.00     0.037 A 
HETATM   10  C2  UNL     1       3.952  26.939  27.215  1.00  0.00     0.022 A 
HETATM   11  C1  UNL     1       4.092  26.453  25.778  1.00  0.00     0.069 C 
HETATM   12  N1  UNL     1       4.427  28.088  27.580  1.00  0.00    -0.334 N 
HETATM   13  C3  UNL     1       4.299  28.498  28.829  1.00  0.00     0.187 A 
ATOM     14  H1  UNL     1       4.903  28.679  26.900  1.00  0.00     0.168 HD
HETATM   15  S1  UNL     1       3.460  27.199  29.548  1.00  0.00    -0.048 SA
BRANCH  13  16
HETATM   16  O1  UNL     1       4.748  29.707  29.406  1.00  0.00    -0.325 OA
BRANCH  16  17
HETATM   17  C4  UNL     1       5.949  29.678  30.116  1.00  0.00     0.133 C 
HETATM   18  C5  UNL     1       6.457  31.054  30.474  1.00  0.00     0.035 C 
HETATM   19  C6  UNL     1       7.569  30.726  31.454  1.00  0.00     0.034 C 
HETATM   20  C7  UNL     1       6.947  29.642  32.292  1.00  0.00     0.120 C 
HETATM   21  C8  UNL     1       5.859  29.005  31.454  1.00  0.00     0.064 C 
BRANCH  20  22
HETATM   22  O2  UNL     1       6.419  30.240  33.439  1.00  0.00    -0.395 OA
ATOM     23  H2  UNL     1       6.668  29.707  34.184  1.00  0.00     0.210 HD
ENDBRANCH  20  22
ENDBRANCH  16  17
ENDBRANCH  13  16
ENDBRANCH   8   9
ENDBRANCH   1   8
BRANCH   5  24
HETATM   24  C14 UNL     1       2.238  23.017  32.910  1.00  0.00     0.054 A 
HETATM   25  C15 UNL     1       2.997  23.181  34.049  1.00  0.00     0.117 A 
HETATM   26  N3  UNL     1       2.454  23.015  35.270  1.00  0.00    -0.350 N 
HETATM   27  C16 UNL     1       1.155  22.684  35.389  1.00  0.00     0.114 A 
ATOM     28  H3  UNL     1       3.028  23.139  36.104  1.00  0.00     0.166 HD
HETATM   29  C17 UNL     1       0.372  22.513  34.264  1.00  0.00     0.136 A 
HETATM   30  N5  UNL     1       0.957  22.690  33.066  1.00  0.00    -0.362 N 
ATOM     31  H5  UNL     1       0.386  22.568  32.229  1.00  0.00     0.165 HD
BRANCH  27  32
HETATM   32  N4  UNL     1       0.621  22.520  36.565  1.00  0.00    -0.384 N 
ATOM     33  H42 UNL     1      -0.283  22.950  36.763  1.00  0.00     0.157 HD
ATOM     34  H41 UNL     1       1.097  21.969  37.278  1.00  0.00     0.157 HD
ENDBRANCH  27  32
ENDBRANCH   5  24
TORSDOF 7
ENDMDL
MODEL 4
REMARK VINA RESULT: -7.140224983      3.064      7.185
REMARK  7 active torsions:
REMARK  status: ('A' for Active; 'I' for Inactive)
REMARK    1  A    between atoms: C3_5  and  O1_6 
REMARK    2  A    between atoms: O1_6  and  C4_7 
REMARK    3  A    between atoms: C7_10  and  O2_11 
REMARK    4  A    between atoms: C9_15  and  C10_16 
REMARK    5  A    between atoms: C10_16  and  N2_17 
REMARK    6  A    between atoms: C13_21  and  C14_22 
REMARK    7  A    between atoms: C16_26  and  N4_27 
ROOT
HETATM    1  N2  UNL     1       2.969  25.732  26.706  1.00  0.00     0.095 N 
HETATM    2  C11 UNL     1       2.621  26.207  25.358  1.00  0.00     0.299 C 
HETATM    3  C12 UNL     1       3.562  27.248  24.873  1.00  0.00     0.199 C 
HETATM    4  O3  UNL     1       3.982  28.202  25.726  1.00  0.00    -0.378 OA
HETATM    5  C13 UNL     1       4.145  27.908  27.043  1.00  0.00     0.174 C 
HETATM    6  C18 UNL     1       5.122  26.727  27.142  1.00  0.00     0.068 C 
HETATM    7  C19 UNL     1       4.406  25.464  26.738  1.00  0.00     0.276 C 
ENDROOT
BRANCH   1   8
HETATM    8  C10 UNL     1       2.205  24.531  26.994  1.00  0.00     0.320 C 
BRANCH   8   9
HETATM    9  C9  UNL     1       2.827  23.768  28.125  1.00  0.00     0.037 A 
HETATM   10  C2  UNL     1       2.746  22.414  28.358  1.00  0.00     0.022 A 
HETATM   11  C1  UNL     1       1.991  21.480  27.422  1.00  0.00     0.069 C 
HETATM   12  N1  UNL     1       3.344  21.961  29.414  1.00  0.00    -0.334 N 
HETATM   13  C3  UNL     1       3.995  22.782  30.217  1.00  0.00     0.187 A 
ATOM     14  H1  UNL     1       3.310  20.965  29.627  1.00  0.00     0.168 HD
HETATM   15  S1  UNL     1       3.764  24.289  29.454  1.00  0.00    -0.048 SA
BRANCH  13  16
HETATM   16  O1  UNL     1       4.700  22.474  31.403  1.00  0.00    -0.325 OA
BRANCH  16  17
HETATM   17  C4  UNL     1       3.952  22.153  32.536  1.00  0.00     0.133 C 
HETATM   18  C5  UNL     1       4.806  21.876  33.750  1.00  0.00     0.035 C 
HETATM   19  C6  UNL     1       3.768  21.848  34.857  1.00  0.00     0.034 C 
HETATM   20  C7  UNL     1       2.889  23.016  34.500  1.00  0.00     0.120 C 
HETATM   21  C8  UNL     1       3.053  23.256  33.015  1.00  0.00     0.064 C 
BRANCH  20  22
HETATM   22  O2  UNL     1       3.322  24.117  35.242  1.00  0.00    -0.395 OA
ATOM     23  H2  UNL     1       3.268  23.886  36.161  1.00  0.00     0.210 HD
ENDBRANCH  20  22
ENDBRANCH  16  17
ENDBRANCH  13  16
ENDBRANCH   8   9
ENDBRANCH   1   8
BRANCH   5  24
HETATM   24  C14 UNL     1       4.802  29.019  27.770  1.00  0.00     0.054 A 
HETATM   25  C15 UNL     1       5.239  30.167  27.146  1.00  0.00     0.117 A 
HETATM   26  N3  UNL     1       5.833  31.151  27.848  1.00  0.00    -0.350 N 
HETATM   27  C16 UNL     1       6.004  31.019  29.176  1.00  0.00     0.114 A 
ATOM     28  H3  UNL     1       6.152  31.996  27.373  1.00  0.00     0.166 HD
HETATM   29  C17 UNL     1       5.575  29.878  29.827  1.00  0.00     0.136 A 
HETATM   30  N5  UNL     1       4.987  28.923  29.084  1.00  0.00    -0.362 N 
ATOM     31  H5  UNL     1       4.666  28.077  29.555  1.00  0.00     0.165 HD
BRANCH  27  32
HETATM   32  N4  UNL     1       6.577  31.964  29.866  1.00  0.00    -0.384 N 
ATOM     33  H42 UNL     1       6.065  32.828  30.045  1.00  0.00     0.157 HD
ATOM     34  H41 UNL     1       7.524  31.842  30.222  1.00  0.00     0.157 HD
ENDBRANCH  27  32
ENDBRANCH   5  24
TORSDOF 7
ENDMDL
MODEL 5
REMARK VINA RESULT: -7.083222270      2.538      3.453
REMARK  7 active torsions:
REMARK  status: ('A' for Active; 'I' for Inactive)
REMARK    1  A    between atoms: C3_5  and  O1_6 
REMARK    2  A    between atoms: O1_6  and  C4_7 
REMARK    3  A    between atoms: C7_10  and  O2_11 
REMARK    4  A    between atoms: C9_15  and  C10_16 
REMARK    5  A    between atoms: C10_16  and  N2_17 
REMARK    6  A    between atoms: C13_21  and  C14_22 
REMARK    7  A    between atoms: C16_26  and  N4_27 
ROOT
HETATM    1  N2  UNL     1       2.718  22.684  29.529  1.00  0.00     0.095 N 
HETATM    2  C11 UNL     1       4.042  22.050  29.613  1.00  0.00     0.299 C 
HETATM    3  C12 UNL     1       4.127  21.082  30.735  1.00  0.00     0.199 C 
HETATM    4  O3  UNL     1       3.567  21.397  31.918  1.00  0.00    -0.378 OA
HETATM    5  C13 UNL     1       2.439  22.155  31.952  1.00  0.00     0.174 C 
HETATM    6  C18 UNL     1       1.373  21.447  31.103  1.00  0.00     0.068 C 
HETATM    7  C19 UNL     1       1.703  21.638  29.644  1.00  0.00     0.276 C 
ENDROOT
BRANCH   1   8
HETATM    8  C10 UNL     1       2.610  23.381  28.260  1.00  0.00     0.320 C 
BRANCH   8   9
HETATM    9  C9  UNL     1       2.983  24.825  28.416  1.00  0.00     0.037 A 
HETATM   10  C2  UNL     1       3.170  25.748  27.413  1.00  0.00     0.022 A 
HETATM   11  C1  UNL     1       2.983  25.391  25.944  1.00  0.00     0.069 C 
HETATM   12  N1  UNL     1       3.515  26.945  27.770  1.00  0.00    -0.334 N 
HETATM   13  C3  UNL     1       3.673  27.242  29.046  1.00  0.00     0.187 A 
ATOM     14  H1  UNL     1       3.664  27.662  27.061  1.00  0.00     0.168 HD
HETATM   15  S1  UNL     1       3.320  25.757  29.806  1.00  0.00    -0.048 SA
BRANCH  13  16
HETATM   16  O1  UNL     1       4.042  28.479  29.621  1.00  0.00    -0.325 OA
BRANCH  16  17
HETATM   17  C4  UNL     1       5.039  29.218  28.982  1.00  0.00     0.133 C 
HETATM   18  C5  UNL     1       4.490  30.301  28.086  1.00  0.00     0.035 C 
HETATM   19  C6  UNL     1       5.740  31.100  27.766  1.00  0.00     0.034 C 
HETATM   20  C7  UNL     1       6.428  31.164  29.104  1.00  0.00     0.120 C 
HETATM   21  C8  UNL     1       5.930  29.986  29.913  1.00  0.00     0.064 C 
BRANCH  20  22
HETATM   22  O2  UNL     1       6.079  32.375  29.705  1.00  0.00    -0.395 OA
ATOM     23  H2  UNL     1       5.486  32.183  30.421  1.00  0.00     0.210 HD
ENDBRANCH  20  22
ENDBRANCH  16  17
ENDBRANCH  13  16
ENDBRANCH   8   9
ENDBRANCH   1   8
BRANCH   5  24
HETATM   24  C14 UNL     1       1.869  22.219  33.318  1.00  0.00     0.054 A 
HETATM   25  C15 UNL     1       2.440  22.953  34.335  1.00  0.00     0.117 A 
HETATM   26  N3  UNL     1       1.886  22.980  35.562  1.00  0.00    -0.350 N 
HETATM   27  C16 UNL     1       0.760  22.285  35.806  1.00  0.00     0.114 A 
ATOM     28  H3  UNL     1       2.320  23.527  36.305  1.00  0.00     0.166 HD
HETATM   29  C17 UNL     1       0.167  21.541  34.804  1.00  0.00     0.136 A 
HETATM   30  N5  UNL     1       0.755  21.544  33.595  1.00  0.00    -0.362 N 
ATOM     31  H5  UNL     1       0.324  20.999  32.849  1.00  0.00     0.165 HD
BRANCH  27  32
HETATM   32  N4  UNL     1       0.216  22.304  36.989  1.00  0.00    -0.384 N 
ATOM     33  H42 UNL     1       0.632  21.748  37.736  1.00  0.00     0.157 HD
ATOM     34  H41 UNL     1      -0.616  22.866  37.167  1.00  0.00     0.157 HD
ENDBRANCH  27  32
ENDBRANCH   5  24
TORSDOF 7
ENDMDL
