MODEL 1
REMARK VINA RESULT: -7.471991518      0.000      0.000
REMARK  9 active torsions:
REMARK  status: ('A' for Active; 'I' for Inactive)
REMARK    1  A    between atoms: C2_2  and  C5_6 
REMARK    2  A    between atoms: C6_7  and  C7_8 
REMARK    3  A    between atoms: C11_17  and  C12_18 
REMARK    4  A    between atoms: N5_21  and  C15_22 
REMARK    5  A    between atoms: C15_22  and  C16_23 
REMARK    6  A    between atoms: C15_22  and  C17_26 
REMARK    7  A    between atoms: C16_23  and  O1_24 
REMARK    8  A    between atoms: C17_26  and  C18_27 
REMARK    9  A    between atoms: C18_27  and  O2_30 
ROOT
HETATM    1  C1  UNL     1       3.479  28.716  30.390  1.00  0.00     0.045 C 
HETATM    2  C2  UNL     1       4.258  28.627  29.095  1.00  0.00     0.105 C 
HETATM    3  C3  UNL     1       5.733  28.479  29.497  1.00  0.00     0.045 C 
HETATM    4  C4  UNL     1       4.047  29.822  28.306  1.00  0.00     0.081 C 
HETATM    5  N1  UNL     1       3.862  30.789  27.683  1.00  0.00    -0.195 NA
ENDROOT
BRANCH   2   6
HETATM    6  C5  UNL     1       3.816  27.454  28.338  1.00  0.00    -0.075 C 
HETATM    7  C6  UNL     1       3.433  26.484  27.692  1.00  0.00    -0.046 C 
BRANCH   7   8
HETATM    8  C7  UNL     1       2.946  25.332  26.962  1.00  0.00     0.101 A 
HETATM    9  N2  UNL     1       2.834  25.455  25.591  1.00  0.00    -0.326 N 
HETATM   10  C8  UNL     1       2.291  24.487  24.841  1.00  0.00     0.189 A 
ATOM     11  H2  UNL     1       3.173  26.304  25.138  1.00  0.00     0.169 HD
HETATM   12  C9  UNL     1       2.168  24.604  23.405  1.00  0.00     0.137 C 
HETATM   13  N4  UNL     1       1.863  23.398  25.490  1.00  0.00    -0.343 N 
HETATM   14  N3  UNL     1       2.056  24.684  22.256  1.00  0.00    -0.188 NA
HETATM   15  C10 UNL     1       1.937  23.201  26.812  1.00  0.00     0.105 A 
ATOM     16  H4  UNL     1       1.445  22.655  24.929  1.00  0.00     0.167 HD
HETATM   17  C11 UNL     1       2.509  24.217  27.594  1.00  0.00     0.021 A 
BRANCH  17  18
HETATM   18  C12 UNL     1       2.716  23.915  28.970  1.00  0.00    -0.046 C 
HETATM   19  C13 UNL     1       1.764  23.598  29.820  1.00  0.00     0.011 C 
HETATM   20  C14 UNL     1       1.814  23.245  31.295  1.00  0.00     0.301 C 
HETATM   21  N5  UNL     1       3.185  22.881  31.573  1.00  0.00     0.098 N 
HETATM   22  C21 UNL     1       3.533  21.885  30.571  1.00  0.00     0.273 C 
HETATM   23  C22 UNL     1       4.536  22.443  29.590  1.00  0.00     0.035 C 
HETATM   24  C23 UNL     1       4.179  23.924  29.413  1.00  0.00     0.041 C 
BRANCH  21  25
HETATM   25  C15 UNL     1       3.374  22.356  32.920  1.00  0.00     0.249 C 
BRANCH  25  26
HETATM   26  C16 UNL     1       4.183  23.360  33.711  1.00  0.00     0.200 C 
BRANCH  26  27
HETATM   27  O1  UNL     1       5.020  24.140  32.960  1.00  0.00    -0.399 OA
ATOM     28  H1  UNL     1       4.600  24.597  32.241  1.00  0.00     0.209 HD
ENDBRANCH  26  27
ENDBRANCH  25  26
BRANCH  25  29
HETATM   29  C17 UNL     1       4.222  21.113  32.710  1.00  0.00     0.075 C 
BRANCH  29  30
HETATM   30  C18 UNL     1       3.905  19.960  33.594  1.00  0.00     0.052 C 
HETATM   31  C19 UNL     1       2.510  19.468  33.131  1.00  0.00     0.045 C 
HETATM   32  C20 UNL     1       3.826  20.261  35.046  1.00  0.00     0.045 C 
BRANCH  30  33
HETATM   33  O2  UNL     1       4.770  18.898  33.324  1.00  0.00    -0.391 OA
ATOM     34  H2  UNL     1       4.577  18.528  32.470  1.00  0.00     0.210 HD
ENDBRANCH  30  33
ENDBRANCH  29  30
ENDBRANCH  25  29
ENDBRANCH  21  25
ENDBRANCH  17  18
ENDBRANCH   7   8
ENDBRANCH   2   6
TORSDOF 9
ENDMDL
MODEL 2
REMARK VINA RESULT: -7.456453427      1.849      2.708
REMARK  9 active torsions:
REMARK  status: ('A' for Active; 'I' for Inactive)
REMARK    1  A    between atoms: C2_2  and  C5_6 
REMARK    2  A    between atoms: C6_7  and  C7_8 
REMARK    3  A    between atoms: C11_17  and  C12_18 
REMARK    4  A    between atoms: N5_21  and  C15_22 
REMARK    5  A    between atoms: C15_22  and  C16_23 
REMARK    6  A    between atoms: C15_22  and  C17_26 
REMARK    7  A    between atoms: C16_23  and  O1_24 
REMARK    8  A    between atoms: C17_26  and  C18_27 
REMARK    9  A    between atoms: C18_27  and  O2_30 
ROOT
HETATM    1  C1  UNL     1       5.341  26.450  26.566  1.00  0.00     0.045 C 
HETATM    2  C2  UNL     1       3.878  26.729  26.836  1.00  0.00     0.105 C 
HETATM    3  C3  UNL     1       3.499  27.915  25.938  1.00  0.00     0.045 C 
HETATM    4  C4  UNL     1       3.684  27.048  28.235  1.00  0.00     0.081 C 
HETATM    5  N1  UNL     1       3.547  27.299  29.365  1.00  0.00    -0.195 NA
ENDROOT
BRANCH   2   6
HETATM    6  C5  UNL     1       3.083  25.551  26.488  1.00  0.00    -0.075 C 
HETATM    7  C6  UNL     1       2.434  24.551  26.196  1.00  0.00    -0.046 C 
BRANCH   7   8
HETATM    8  C7  UNL     1       1.674  23.381  25.804  1.00  0.00     0.101 A 
HETATM    9  N2  UNL     1       1.268  23.306  24.486  1.00  0.00    -0.326 N 
HETATM   10  C8  UNL     1       0.469  22.322  24.053  1.00  0.00     0.189 A 
ATOM     11  H2  UNL     1       1.584  24.017  23.826  1.00  0.00     0.169 HD
HETATM   12  C9  UNL     1       0.036  22.232  22.676  1.00  0.00     0.137 C 
HETATM   13  N4  UNL     1       0.086  21.419  24.963  1.00  0.00    -0.343 N 
HETATM   14  N3  UNL     1      -0.324  22.148  21.579  1.00  0.00    -0.188 NA
HETATM   15  C10 UNL     1       0.437  21.421  26.255  1.00  0.00     0.105 A 
ATOM     16  H4  UNL     1      -0.525  20.667  24.645  1.00  0.00     0.167 HD
HETATM   17  C11 UNL     1       1.276  22.452  26.705  1.00  0.00     0.021 A 
BRANCH  17  18
HETATM   18  C12 UNL     1       1.756  22.341  28.040  1.00  0.00    -0.046 C 
HETATM   19  C13 UNL     1       2.944  21.887  28.375  1.00  0.00     0.011 C 
HETATM   20  C14 UNL     1       3.606  21.714  29.729  1.00  0.00     0.301 C 
HETATM   21  N5  UNL     1       2.864  22.549  30.646  1.00  0.00     0.098 N 
HETATM   22  C21 UNL     1       2.812  23.862  30.021  1.00  0.00     0.273 C 
HETATM   23  C22 UNL     1       1.407  24.184  29.573  1.00  0.00     0.035 C 
HETATM   24  C23 UNL     1       0.794  22.856  29.111  1.00  0.00     0.041 C 
BRANCH  21  25
HETATM   25  C15 UNL     1       3.473  22.624  31.969  1.00  0.00     0.249 C 
BRANCH  25  26
HETATM   26  C16 UNL     1       4.540  23.695  31.939  1.00  0.00     0.200 C 
BRANCH  26  27
HETATM   27  O1  UNL     1       4.985  24.096  33.170  1.00  0.00    -0.399 OA
ATOM     28  H1  UNL     1       5.913  24.292  33.214  1.00  0.00     0.209 HD
ENDBRANCH  26  27
ENDBRANCH  25  26
BRANCH  25  29
HETATM   29  C17 UNL     1       4.151  21.274  32.135  1.00  0.00     0.075 C 
BRANCH  29  30
HETATM   30  C18 UNL     1       4.353  20.822  33.536  1.00  0.00     0.052 C 
HETATM   31  C19 UNL     1       4.348  19.273  33.465  1.00  0.00     0.045 C 
HETATM   32  C20 UNL     1       3.310  21.239  34.507  1.00  0.00     0.045 C 
BRANCH  30  33
HETATM   33  O2  UNL     1       5.638  21.158  33.968  1.00  0.00    -0.391 OA
ATOM     34  H2  UNL     1       5.755  20.901  34.875  1.00  0.00     0.210 HD
ENDBRANCH  30  33
ENDBRANCH  29  30
ENDBRANCH  25  29
ENDBRANCH  21  25
ENDBRANCH  17  18
ENDBRANCH   7   8
ENDBRANCH   2   6
TORSDOF 9
ENDMDL
MODEL 3
REMARK VINA RESULT: -7.448970358      2.376      5.200
REMARK  9 active torsions:
REMARK  status: ('A' for Active; 'I' for Inactive)
REMARK    1  A    between atoms: C2_2  and  C5_6 
REMARK    2  A    between atoms: C6_7  and  C7_8 
REMARK    3  A    between atoms: C11_17  and  C12_18 
REMARK    4  A    between atoms: N5_21  and  C15_22 
REMARK    5  A    between atoms: C15_22  and  C16_23 
REMARK    6  A    between atoms: C15_22  and  C17_26 
REMARK    7  A    between atoms: C16_23  and  O1_24 
REMARK    8  A    between atoms: C17_26  and  C18_27 
REMARK    9  A    between atoms: C18_27  and  O2_30 
ROOT
HETATM    1  C1  UNL     1       1.652  22.380  25.368  1.00  0.00     0.045 C 
HETATM    2  C2  UNL     1       1.971  23.641  24.595  1.00  0.00     0.105 C 
HETATM    3  C3  UNL     1       0.643  24.110  23.982  1.00  0.00     0.045 C 
HETATM    4  C4  UNL     1       2.952  23.360  23.569  1.00  0.00     0.081 C 
HETATM    5  N1  UNL     1       3.745  23.115  22.751  1.00  0.00    -0.195 NA
ENDROOT
BRANCH   2   6
HETATM    6  C5  UNL     1       2.495  24.656  25.511  1.00  0.00    -0.075 C 
HETATM    7  C6  UNL     1       2.931  25.494  26.294  1.00  0.00    -0.046 C 
BRANCH   7   8
HETATM    8  C7  UNL     1       3.401  26.503  27.221  1.00  0.00     0.101 A 
HETATM    9  N2  UNL     1       3.841  27.697  26.683  1.00  0.00    -0.326 N 
HETATM   10  C8  UNL     1       4.397  28.648  27.446  1.00  0.00     0.189 A 
ATOM     11  H2  UNL     1       3.741  27.859  25.681  1.00  0.00     0.169 HD
HETATM   12  C9  UNL     1       4.861  29.902  26.896  1.00  0.00     0.137 C 
HETATM   13  N4  UNL     1       4.502  28.380  28.753  1.00  0.00    -0.343 N 
HETATM   14  N3  UNL     1       5.244  30.908  26.471  1.00  0.00    -0.188 NA
HETATM   15  C10 UNL     1       4.099  27.251  29.350  1.00  0.00     0.105 A 
ATOM     16  H4  UNL     1       4.926  29.095  29.343  1.00  0.00     0.167 HD
HETATM   17  C11 UNL     1       3.516  26.258  28.548  1.00  0.00     0.021 A 
BRANCH  17  18
HETATM   18  C12 UNL     1       2.958  25.140  29.230  1.00  0.00    -0.046 C 
HETATM   19  C13 UNL     1       1.756  24.653  29.014  1.00  0.00     0.011 C 
HETATM   20  C14 UNL     1       1.023  23.480  29.638  1.00  0.00     0.301 C 
HETATM   21  N5  UNL     1       2.037  22.659  30.259  1.00  0.00     0.098 N 
HETATM   22  C21 UNL     1       3.037  22.430  29.227  1.00  0.00     0.273 C 
HETATM   23  C22 UNL     1       4.317  23.161  29.552  1.00  0.00     0.035 C 
HETATM   24  C23 UNL     1       3.897  24.469  30.233  1.00  0.00     0.041 C 
BRANCH  21  25
HETATM   25  C15 UNL     1       1.515  21.397  30.770  1.00  0.00     0.249 C 
BRANCH  25  26
HETATM   26  C16 UNL     1       2.418  20.930  31.891  1.00  0.00     0.200 C 
BRANCH  26  27
HETATM   27  O1  UNL     1       2.846  21.921  32.733  1.00  0.00    -0.399 OA
ATOM     28  H1  UNL     1       3.131  22.716  32.298  1.00  0.00     0.209 HD
ENDBRANCH  26  27
ENDBRANCH  25  26
BRANCH  25  29
HETATM   29  C17 UNL     1       1.667  20.439  29.600  1.00  0.00     0.075 C 
BRANCH  29  30
HETATM   30  C18 UNL     1       0.435  19.711  29.199  1.00  0.00     0.052 C 
HETATM   31  C19 UNL     1       0.494  18.365  29.967  1.00  0.00     0.045 C 
HETATM   32  C20 UNL     1       0.305  19.407  27.752  1.00  0.00     0.045 C 
BRANCH  30  33
HETATM   33  O2  UNL     1      -0.693  20.363  29.702  1.00  0.00    -0.391 OA
ATOM     34  H2  UNL     1      -0.889  20.050  30.577  1.00  0.00     0.210 HD
ENDBRANCH  30  33
ENDBRANCH  29  30
ENDBRANCH  25  29
ENDBRANCH  21  25
ENDBRANCH  17  18
ENDBRANCH   7   8
ENDBRANCH   2   6
TORSDOF 9
ENDMDL
MODEL 4
REMARK VINA RESULT: -7.409907499      2.421      5.216
REMARK  9 active torsions:
REMARK  status: ('A' for Active; 'I' for Inactive)
REMARK    1  A    between atoms: C2_2  and  C5_6 
REMARK    2  A    between atoms: C6_7  and  C7_8 
REMARK    3  A    between atoms: C11_17  and  C12_18 
REMARK    4  A    between atoms: N5_21  and  C15_22 
REMARK    5  A    between atoms: C15_22  and  C16_23 
REMARK    6  A    between atoms: C15_22  and  C17_26 
REMARK    7  A    between atoms: C16_23  and  O1_24 
REMARK    8  A    between atoms: C17_26  and  C18_27 
REMARK    9  A    between atoms: C18_27  and  O2_30 
ROOT
HETATM    1  C1  UNL     1       0.808  24.290  23.899  1.00  0.00     0.045 C 
HETATM    2  C2  UNL     1       2.039  23.749  24.594  1.00  0.00     0.105 C 
HETATM    3  C3  UNL     1       3.061  23.464  23.485  1.00  0.00     0.045 C 
HETATM    4  C4  UNL     1       1.707  22.544  25.325  1.00  0.00     0.081 C 
HETATM    5  N1  UNL     1       1.420  21.577  25.909  1.00  0.00    -0.195 NA
ENDROOT
BRANCH   2   6
HETATM    6  C5  UNL     1       2.560  24.755  25.521  1.00  0.00    -0.075 C 
HETATM    7  C6  UNL     1       2.991  25.587  26.314  1.00  0.00    -0.046 C 
BRANCH   7   8
HETATM    8  C7  UNL     1       3.457  26.589  27.250  1.00  0.00     0.101 A 
HETATM    9  N2  UNL     1       3.904  27.785  26.722  1.00  0.00    -0.326 N 
HETATM   10  C8  UNL     1       4.456  28.730  27.494  1.00  0.00     0.189 A 
ATOM     11  H2  UNL     1       3.812  27.953  25.720  1.00  0.00     0.169 HD
HETATM   12  C9  UNL     1       4.928  29.986  26.953  1.00  0.00     0.137 C 
HETATM   13  N4  UNL     1       4.552  28.455  28.799  1.00  0.00    -0.343 N 
HETATM   14  N3  UNL     1       5.316  30.993  26.536  1.00  0.00    -0.188 NA
HETATM   15  C10 UNL     1       4.141  27.325  29.387  1.00  0.00     0.105 A 
ATOM     16  H4  UNL     1       4.973  29.167  29.396  1.00  0.00     0.167 HD
HETATM   17  C11 UNL     1       3.562  26.337  28.576  1.00  0.00     0.021 A 
BRANCH  17  18
HETATM   18  C12 UNL     1       2.996  25.217  29.248  1.00  0.00    -0.046 C 
HETATM   19  C13 UNL     1       1.799  24.726  29.011  1.00  0.00     0.011 C 
HETATM   20  C14 UNL     1       1.059  23.551  29.622  1.00  0.00     0.301 C 
HETATM   21  N5  UNL     1       2.066  22.732  30.260  1.00  0.00     0.098 N 
HETATM   22  C21 UNL     1       3.084  22.507  29.245  1.00  0.00     0.273 C 
HETATM   23  C22 UNL     1       4.356  23.242  29.593  1.00  0.00     0.035 C 
HETATM   24  C23 UNL     1       3.919  24.549  30.267  1.00  0.00     0.041 C 
BRANCH  21  25
HETATM   25  C15 UNL     1       1.539  21.468  30.762  1.00  0.00     0.249 C 
BRANCH  25  26
HETATM   26  C16 UNL     1       2.489  20.944  31.816  1.00  0.00     0.200 C 
BRANCH  26  27
HETATM   27  O1  UNL     1       2.945  21.888  32.697  1.00  0.00    -0.399 OA
ATOM     28  H1  UNL     1       2.519  21.877  33.546  1.00  0.00     0.209 HD
ENDBRANCH  26  27
ENDBRANCH  25  26
BRANCH  25  29
HETATM   29  C17 UNL     1       1.600  20.545  29.557  1.00  0.00     0.075 C 
BRANCH  29  30
HETATM   30  C18 UNL     1       0.359  19.780  29.267  1.00  0.00     0.052 C 
HETATM   31  C19 UNL     1      -0.718  20.391  30.200  1.00  0.00     0.045 C 
HETATM   32  C20 UNL     1       0.421  18.320  29.535  1.00  0.00     0.045 C 
BRANCH  30  33
HETATM   33  O2  UNL     1      -0.085  20.058  27.973  1.00  0.00    -0.391 OA
ATOM     34  H2  UNL     1      -0.893  19.591  27.798  1.00  0.00     0.210 HD
ENDBRANCH  30  33
ENDBRANCH  29  30
ENDBRANCH  25  29
ENDBRANCH  21  25
ENDBRANCH  17  18
ENDBRANCH   7   8
ENDBRANCH   2   6
TORSDOF 9
ENDMDL
MODEL 5
REMARK VINA RESULT: -7.366136398      1.577      2.156
REMARK  9 active torsions:
REMARK  status: ('A' for Active; 'I' for Inactive)
REMARK    1  A    between atoms: C2_2  and  C5_6 
REMARK    2  A    between atoms: C6_7  and  C7_8 
REMARK    3  A    between atoms: C11_17  and  C12_18 
REMARK    4  A    between atoms: N5_21  and  C15_22 
REMARK    5  A    between atoms: C15_22  and  C16_23 
REMARK    6  A    between atoms: C15_22  and  C17_26 
REMARK    7  A    between atoms: C16_23  and  O1_24 
REMARK    8  A    between atoms: C17_26  and  C18_27 
REMARK    9  A    between atoms: C18_27  and  O2_30 
ROOT
HETATM    1  C1  UNL     1       3.414  28.615  30.328  1.00  0.00     0.045 C 
HETATM    2  C2  UNL     1       4.240  28.637  29.060  1.00  0.00     0.105 C 
HETATM    3  C3  UNL     1       5.701  28.472  29.502  1.00  0.00     0.045 C 
HETATM    4  C4  UNL     1       4.041  29.889  28.361  1.00  0.00     0.081 C 
HETATM    5  N1  UNL     1       3.867  30.901  27.810  1.00  0.00    -0.195 NA
ENDROOT
BRANCH   2   6
HETATM    6  C5  UNL     1       3.841  27.524  28.197  1.00  0.00    -0.075 C 
HETATM    7  C6  UNL     1       3.524  26.594  27.461  1.00  0.00    -0.046 C 
BRANCH   7   8
HETATM    8  C7  UNL     1       3.125  25.528  26.566  1.00  0.00     0.101 A 
HETATM    9  N2  UNL     1       3.355  25.719  25.216  1.00  0.00    -0.326 N 
HETATM   10  C8  UNL     1       2.923  24.843  24.300  1.00  0.00     0.189 A 
ATOM     11  H2  UNL     1       3.866  26.547  24.911  1.00  0.00     0.169 HD
HETATM   12  C9  UNL     1       3.158  25.031  22.886  1.00  0.00     0.137 C 
HETATM   13  N4  UNL     1       2.259  23.776  24.759  1.00  0.00    -0.343 N 
HETATM   14  N3  UNL     1       3.331  25.169  21.750  1.00  0.00    -0.188 NA
HETATM   15  C10 UNL     1       1.998  23.519  26.047  1.00  0.00     0.105 A 
ATOM     16  H4  UNL     1       1.923  23.104  24.070  1.00  0.00     0.167 HD
HETATM   17  C11 UNL     1       2.453  24.438  27.005  1.00  0.00     0.021 A 
BRANCH  17  18
HETATM   18  C12 UNL     1       2.298  24.060  28.369  1.00  0.00    -0.046 C 
HETATM   19  C13 UNL     1       1.149  23.782  28.944  1.00  0.00     0.011 C 
HETATM   20  C14 UNL     1       0.815  23.361  30.363  1.00  0.00     0.301 C 
HETATM   21  N5  UNL     1       2.050  22.878  30.938  1.00  0.00     0.098 N 
HETATM   22  C21 UNL     1       2.564  21.902  29.989  1.00  0.00     0.273 C 
HETATM   23  C22 UNL     1       3.811  22.421  29.314  1.00  0.00     0.035 C 
HETATM   24  C23 UNL     1       3.606  23.932  29.149  1.00  0.00     0.041 C 
BRANCH  21  25
HETATM   25  C15 UNL     1       1.869  22.280  32.256  1.00  0.00     0.249 C 
BRANCH  25  26
HETATM   26  C16 UNL     1       0.398  21.981  32.443  1.00  0.00     0.200 C 
BRANCH  26  27
HETATM   27  O1  UNL     1      -0.148  22.486  33.593  1.00  0.00    -0.399 OA
ATOM     28  H1  UNL     1      -0.978  22.098  33.843  1.00  0.00     0.209 HD
ENDBRANCH  26  27
ENDBRANCH  25  26
BRANCH  25  29
HETATM   29  C17 UNL     1       2.260  23.391  33.217  1.00  0.00     0.075 C 
BRANCH  29  30
HETATM   30  C18 UNL     1       3.516  23.170  33.980  1.00  0.00     0.052 C 
HETATM   31  C19 UNL     1       4.657  23.400  32.956  1.00  0.00     0.045 C 
HETATM   32  C20 UNL     1       3.690  21.814  34.561  1.00  0.00     0.045 C 
BRANCH  30  33
HETATM   33  O2  UNL     1       3.680  24.175  34.935  1.00  0.00    -0.391 OA
ATOM     34  H2  UNL     1       4.605  24.332  35.089  1.00  0.00     0.210 HD
ENDBRANCH  30  33
ENDBRANCH  29  30
ENDBRANCH  25  29
ENDBRANCH  21  25
ENDBRANCH  17  18
ENDBRANCH   7   8
ENDBRANCH   2   6
TORSDOF 9
ENDMDL
