MODEL 1
REMARK VINA RESULT: -7.393003656      0.000      0.000
REMARK  9 active torsions:
REMARK  status: ('A' for Active; 'I' for Inactive)
REMARK    1  A    between atoms: C4_4  and  O1_5 
REMARK    2  A    between atoms: O1_5  and  C5_6 
REMARK    3  A    between atoms: C5_6  and  C6_8 
REMARK    4  A    between atoms: C6_8  and  C7_9 
REMARK    5  A    between atoms: C7_9  and  C8_10 
REMARK    6  A    between atoms: C13_16  and  C14_17 
REMARK    7  A    between atoms: C14_17  and  O4_18 
REMARK    8  A    between atoms: C15_20  and  O5_21 
REMARK    9  A    between atoms: C17_24  and  O6_25 
ROOT
HETATM    1  C1  UNL     1      62.021  -2.166  22.084  1.00  0.00     0.015 C 
HETATM    2  C2  UNL     1      62.055  -3.023  23.117  1.00  0.00    -0.082 C 
HETATM    3  C3  UNL     1      60.902  -3.789  23.572  1.00  0.00     0.066 C 
HETATM    4  C4  UNL     1      60.802  -4.003  25.049  1.00  0.00     0.136 C 
HETATM    5  C10 UNL     1      62.095  -4.157  25.746  1.00  0.00     0.045 C 
HETATM    6  C11 UNL     1      63.322  -4.232  24.879  1.00  0.00     0.067 C 
HETATM    7  C12 UNL     1      64.498  -4.116  25.787  1.00  0.00     0.145 C 
HETATM    8  O3  UNL     1      64.282  -4.108  26.998  1.00  0.00    -0.296 OA
HETATM    9  C13 UNL     1      65.964  -4.001  25.461  1.00  0.00     0.075 C 
HETATM   10  C15 UNL     1      66.760  -3.928  26.717  1.00  0.00     0.139 C 
HETATM   11  C16 UNL     1      68.105  -3.302  26.606  1.00  0.00     0.069 C 
HETATM   12  C17 UNL     1      68.072  -1.953  25.917  1.00  0.00     0.149 C 
HETATM   13  C18 UNL     1      67.446  -2.193  24.587  1.00  0.00    -0.055 C 
HETATM   14  C19 UNL     1      68.104  -1.864  23.481  1.00  0.00     0.017 C 
HETATM   15  C20 UNL     1      66.087  -2.801  24.555  1.00  0.00     0.037 C 
HETATM   16  C21 UNL     1      65.091  -1.780  25.002  1.00  0.00     0.011 C 
HETATM   17  C22 UNL     1      63.778  -1.838  24.296  1.00  0.00     0.010 C 
HETATM   18  C23 UNL     1      63.366  -3.177  23.812  1.00  0.00     0.025 C 
ENDROOT
BRANCH   4  19
HETATM   19  O1  UNL     1      59.942  -3.044  25.662  1.00  0.00    -0.316 OA
BRANCH  19  20
HETATM   20  C5  UNL     1      58.623  -2.907  25.363  1.00  0.00     0.259 C 
HETATM   21  O2  UNL     1      58.233  -1.787  24.911  1.00  0.00    -0.265 OA
BRANCH  20  22
HETATM   22  C6  UNL     1      57.589  -3.951  25.516  1.00  0.00     0.111 C 
BRANCH  22  23
HETATM   23  C7  UNL     1      57.115  -4.515  24.220  1.00  0.00     0.009 C 
BRANCH  23  24
HETATM   24  C8  UNL     1      57.088  -6.027  24.360  1.00  0.00    -0.004 C 
HETATM   25  C9  UNL     1      58.118  -6.428  25.395  1.00  0.00     0.005 C 
ENDBRANCH  23  24
ENDBRANCH  22  23
ENDBRANCH  20  22
ENDBRANCH  19  20
ENDBRANCH   4  19
BRANCH   9  26
HETATM   26  C14 UNL     1      66.300  -5.281  24.715  1.00  0.00     0.184 C 
BRANCH  26  27
HETATM   27  O4  UNL     1      65.527  -6.343  25.133  1.00  0.00    -0.400 OA
ATOM     28  H4  UNL     1      65.191  -6.849  24.403  1.00  0.00     0.209 HD
ENDBRANCH  26  27
ENDBRANCH   9  26
BRANCH  10  29
HETATM   29  O5  UNL     1      66.965  -5.262  27.146  1.00  0.00    -0.394 OA
ATOM     30  H5  UNL     1      67.840  -5.507  26.867  1.00  0.00     0.210 HD
ENDBRANCH  10  29
BRANCH  12  31
HETATM   31  O6  UNL     1      67.388  -1.044  26.686  1.00  0.00    -0.391 OA
ATOM     32  H6  UNL     1      67.271  -0.231  26.208  1.00  0.00     0.210 HD
ENDBRANCH  12  31
TORSDOF 9
ENDMDL
MODEL 2
REMARK VINA RESULT: -7.299273434      1.171      1.729
REMARK  9 active torsions:
REMARK  status: ('A' for Active; 'I' for Inactive)
REMARK    1  A    between atoms: C4_4  and  O1_5 
REMARK    2  A    between atoms: O1_5  and  C5_6 
REMARK    3  A    between atoms: C5_6  and  C6_8 
REMARK    4  A    between atoms: C6_8  and  C7_9 
REMARK    5  A    between atoms: C7_9  and  C8_10 
REMARK    6  A    between atoms: C13_16  and  C14_17 
REMARK    7  A    between atoms: C14_17  and  O4_18 
REMARK    8  A    between atoms: C15_20  and  O5_21 
REMARK    9  A    between atoms: C17_24  and  O6_25 
ROOT
HETATM    1  C1  UNL     1      62.026  -2.161  22.119  1.00  0.00     0.015 C 
HETATM    2  C2  UNL     1      62.078  -3.024  23.145  1.00  0.00    -0.082 C 
HETATM    3  C3  UNL     1      60.933  -3.797  23.613  1.00  0.00     0.066 C 
HETATM    4  C4  UNL     1      60.856  -4.020  25.090  1.00  0.00     0.136 C 
HETATM    5  C10 UNL     1      62.160  -4.174  25.767  1.00  0.00     0.045 C 
HETATM    6  C11 UNL     1      63.375  -4.239  24.881  1.00  0.00     0.067 C 
HETATM    7  C12 UNL     1      64.563  -4.125  25.773  1.00  0.00     0.145 C 
HETATM    8  O3  UNL     1      64.366  -4.125  26.986  1.00  0.00    -0.296 OA
HETATM    9  C13 UNL     1      66.024  -4.004  25.426  1.00  0.00     0.075 C 
HETATM   10  C15 UNL     1      66.838  -3.936  26.670  1.00  0.00     0.139 C 
HETATM   11  C16 UNL     1      68.179  -3.304  26.543  1.00  0.00     0.069 C 
HETATM   12  C17 UNL     1      68.131  -1.952  25.863  1.00  0.00     0.149 C 
HETATM   13  C18 UNL     1      67.487  -2.185  24.541  1.00  0.00    -0.055 C 
HETATM   14  C19 UNL     1      68.127  -1.847  23.428  1.00  0.00     0.017 C 
HETATM   15  C20 UNL     1      66.130  -2.797  24.526  1.00  0.00     0.037 C 
HETATM   16  C21 UNL     1      65.137  -1.782  24.994  1.00  0.00     0.011 C 
HETATM   17  C22 UNL     1      63.814  -1.840  24.306  1.00  0.00     0.010 C 
HETATM   18  C23 UNL     1      63.399  -3.178  23.821  1.00  0.00     0.025 C 
ENDROOT
BRANCH   4  19
HETATM   19  O1  UNL     1      60.002  -3.067  25.721  1.00  0.00    -0.316 OA
BRANCH  19  20
HETATM   20  C5  UNL     1      58.648  -3.065  25.602  1.00  0.00     0.259 C 
HETATM   21  O2  UNL     1      58.076  -4.170  25.359  1.00  0.00    -0.265 OA
BRANCH  20  22
HETATM   22  C6  UNL     1      57.771  -1.883  25.731  1.00  0.00     0.111 C 
BRANCH  22  23
HETATM   23  C7  UNL     1      57.439  -1.240  24.428  1.00  0.00     0.009 C 
BRANCH  23  24
HETATM   24  C8  UNL     1      56.023  -1.647  24.062  1.00  0.00    -0.004 C 
HETATM   25  C9  UNL     1      55.541  -0.741  22.948  1.00  0.00     0.005 C 
ENDBRANCH  23  24
ENDBRANCH  22  23
ENDBRANCH  20  22
ENDBRANCH  19  20
ENDBRANCH   4  19
BRANCH   9  26
HETATM   26  C14 UNL     1      66.353  -5.277  24.667  1.00  0.00     0.184 C 
BRANCH  26  27
HETATM   27  O4  UNL     1      65.588  -6.344  25.089  1.00  0.00    -0.400 OA
ATOM     28  H4  UNL     1      66.049  -7.170  25.003  1.00  0.00     0.209 HD
ENDBRANCH  26  27
ENDBRANCH   9  26
BRANCH  10  29
HETATM   29  O5  UNL     1      67.054  -5.272  27.088  1.00  0.00    -0.394 OA
ATOM     30  H5  UNL     1      67.382  -5.229  27.979  1.00  0.00     0.210 HD
ENDBRANCH  10  29
BRANCH  12  31
HETATM   31  O6  UNL     1      67.457  -1.050  26.648  1.00  0.00    -0.391 OA
ATOM     32  H6  UNL     1      66.865  -0.529  26.116  1.00  0.00     0.210 HD
ENDBRANCH  12  31
TORSDOF 9
ENDMDL
MODEL 3
REMARK VINA RESULT: -7.276923881      1.580      2.081
REMARK  9 active torsions:
REMARK  status: ('A' for Active; 'I' for Inactive)
REMARK    1  A    between atoms: C4_4  and  O1_5 
REMARK    2  A    between atoms: O1_5  and  C5_6 
REMARK    3  A    between atoms: C5_6  and  C6_8 
REMARK    4  A    between atoms: C6_8  and  C7_9 
REMARK    5  A    between atoms: C7_9  and  C8_10 
REMARK    6  A    between atoms: C13_16  and  C14_17 
REMARK    7  A    between atoms: C14_17  and  O4_18 
REMARK    8  A    between atoms: C15_20  and  O5_21 
REMARK    9  A    between atoms: C17_24  and  O6_25 
ROOT
HETATM    1  C1  UNL     1      62.458  -2.048  22.329  1.00  0.00     0.015 C 
HETATM    2  C2  UNL     1      62.170  -3.016  23.213  1.00  0.00    -0.082 C 
HETATM    3  C3  UNL     1      60.899  -3.729  23.248  1.00  0.00     0.066 C 
HETATM    4  C4  UNL     1      60.397  -4.100  24.608  1.00  0.00     0.136 C 
HETATM    5  C10 UNL     1      61.447  -4.442  25.590  1.00  0.00     0.045 C 
HETATM    6  C11 UNL     1      62.856  -4.521  25.067  1.00  0.00     0.067 C 
HETATM    7  C12 UNL     1      63.750  -4.609  26.256  1.00  0.00     0.145 C 
HETATM    8  O3  UNL     1      63.219  -4.720  27.359  1.00  0.00    -0.296 OA
HETATM    9  C13 UNL     1      65.254  -4.583  26.339  1.00  0.00     0.075 C 
HETATM   10  C15 UNL     1      65.688  -4.721  27.756  1.00  0.00     0.139 C 
HETATM   11  C16 UNL     1      67.044  -4.202  28.081  1.00  0.00     0.069 C 
HETATM   12  C17 UNL     1      67.266  -2.786  27.591  1.00  0.00     0.149 C 
HETATM   13  C18 UNL     1      67.007  -2.819  26.124  1.00  0.00    -0.055 C 
HETATM   14  C19 UNL     1      67.952  -2.423  25.280  1.00  0.00     0.017 C 
HETATM   15  C20 UNL     1      65.676  -3.301  25.662  1.00  0.00     0.037 C 
HETATM   16  C21 UNL     1      64.651  -2.258  25.967  1.00  0.00     0.011 C 
HETATM   17  C22 UNL     1      63.574  -2.123  24.944  1.00  0.00     0.010 C 
HETATM   18  C23 UNL     1      63.237  -3.359  24.197  1.00  0.00     0.025 C 
ENDROOT
BRANCH   4  19
HETATM   19  O1  UNL     1      59.455  -3.147  25.099  1.00  0.00    -0.316 OA
BRANCH  19  20
HETATM   20  C5  UNL     1      58.164  -3.444  25.405  1.00  0.00     0.259 C 
HETATM   21  O2  UNL     1      57.848  -4.669  25.501  1.00  0.00    -0.265 OA
BRANCH  20  22
HETATM   22  C6  UNL     1      57.085  -2.465  25.643  1.00  0.00     0.111 C 
BRANCH  22  23
HETATM   23  C7  UNL     1      56.919  -1.478  24.538  1.00  0.00     0.009 C 
BRANCH  23  24
HETATM   24  C8  UNL     1      55.717  -1.907  23.716  1.00  0.00    -0.004 C 
HETATM   25  C9  UNL     1      55.269  -0.727  22.877  1.00  0.00     0.005 C 
ENDBRANCH  23  24
ENDBRANCH  22  23
ENDBRANCH  20  22
ENDBRANCH  19  20
ENDBRANCH   4  19
BRANCH   9  26
HETATM   26  C14 UNL     1      65.711  -5.792  25.542  1.00  0.00     0.184 C 
BRANCH  26  27
HETATM   27  O4  UNL     1      66.099  -5.453  24.263  1.00  0.00    -0.400 OA
ATOM     28  H4  UNL     1      67.044  -5.446  24.167  1.00  0.00     0.209 HD
ENDBRANCH  26  27
ENDBRANCH   9  26
BRANCH  10  29
HETATM   29  O5  UNL     1      65.701  -6.107  28.043  1.00  0.00    -0.394 OA
ATOM     30  H5  UNL     1      66.552  -6.434  27.772  1.00  0.00     0.210 HD
ENDBRANCH  10  29
BRANCH  12  31
HETATM   31  O6  UNL     1      66.449  -1.916  28.270  1.00  0.00    -0.391 OA
ATOM     32  H6  UNL     1      65.695  -1.690  27.738  1.00  0.00     0.210 HD
ENDBRANCH  12  31
TORSDOF 9
ENDMDL
MODEL 4
REMARK VINA RESULT: -7.275355703      1.171      1.429
REMARK  9 active torsions:
REMARK  status: ('A' for Active; 'I' for Inactive)
REMARK    1  A    between atoms: C4_4  and  O1_5 
REMARK    2  A    between atoms: O1_5  and  C5_6 
REMARK    3  A    between atoms: C5_6  and  C6_8 
REMARK    4  A    between atoms: C6_8  and  C7_9 
REMARK    5  A    between atoms: C7_9  and  C8_10 
REMARK    6  A    between atoms: C13_16  and  C14_17 
REMARK    7  A    between atoms: C14_17  and  O4_18 
REMARK    8  A    between atoms: C15_20  and  O5_21 
REMARK    9  A    between atoms: C17_24  and  O6_25 
ROOT
HETATM    1  C1  UNL     1      62.997  -1.852  22.481  1.00  0.00     0.015 C 
HETATM    2  C2  UNL     1      62.537  -2.818  23.292  1.00  0.00    -0.082 C 
HETATM    3  C3  UNL     1      61.170  -3.322  23.255  1.00  0.00     0.066 C 
HETATM    4  C4  UNL     1      60.577  -3.697  24.576  1.00  0.00     0.136 C 
HETATM    5  C10 UNL     1      61.532  -4.261  25.552  1.00  0.00     0.045 C 
HETATM    6  C11 UNL     1      62.926  -4.527  25.052  1.00  0.00     0.067 C 
HETATM    7  C12 UNL     1      63.760  -4.830  26.248  1.00  0.00     0.145 C 
HETATM    8  O3  UNL     1      63.187  -4.927  27.332  1.00  0.00    -0.296 OA
HETATM    9  C13 UNL     1      65.247  -5.046  26.361  1.00  0.00     0.075 C 
HETATM   10  C15 UNL     1      65.613  -5.341  27.773  1.00  0.00     0.139 C 
HETATM   11  C16 UNL     1      67.023  -5.063  28.158  1.00  0.00     0.069 C 
HETATM   12  C17 UNL     1      67.476  -3.671  27.770  1.00  0.00     0.149 C 
HETATM   13  C18 UNL     1      67.259  -3.569  26.300  1.00  0.00    -0.055 C 
HETATM   14  C19 UNL     1      68.278  -3.273  25.503  1.00  0.00     0.017 C 
HETATM   15  C20 UNL     1      65.883  -3.806  25.782  1.00  0.00     0.037 C 
HETATM   16  C21 UNL     1      65.025  -2.636  26.137  1.00  0.00     0.011 C 
HETATM   17  C22 UNL     1      64.011  -2.269  25.105  1.00  0.00     0.010 C 
HETATM   18  C23 UNL     1      63.508  -3.386  24.271  1.00  0.00     0.025 C 
ENDROOT
BRANCH   4  19
HETATM   19  O1  UNL     1      59.780  -2.641  25.113  1.00  0.00    -0.316 OA
BRANCH  19  20
HETATM   20  C5  UNL     1      58.422  -2.661  25.155  1.00  0.00     0.259 C 
HETATM   21  O2  UNL     1      57.808  -1.580  24.901  1.00  0.00    -0.265 OA
BRANCH  20  22
HETATM   22  C6  UNL     1      57.584  -3.836  25.469  1.00  0.00     0.111 C 
BRANCH  22  23
HETATM   23  C7  UNL     1      56.856  -4.384  24.290  1.00  0.00     0.009 C 
BRANCH  23  24
HETATM   24  C8  UNL     1      57.107  -5.881  24.249  1.00  0.00    -0.004 C 
HETATM   25  C9  UNL     1      58.065  -6.233  25.369  1.00  0.00     0.005 C 
ENDBRANCH  23  24
ENDBRANCH  22  23
ENDBRANCH  20  22
ENDBRANCH  19  20
ENDBRANCH   4  19
BRANCH   9  26
HETATM   26  C14 UNL     1      65.534  -6.259  25.493  1.00  0.00     0.184 C 
BRANCH  26  27
HETATM   27  O4  UNL     1      65.999  -5.903  24.244  1.00  0.00    -0.400 OA
ATOM     28  H4  UNL     1      66.262  -6.659  23.734  1.00  0.00     0.209 HD
ENDBRANCH  26  27
ENDBRANCH   9  26
BRANCH  10  29
HETATM   29  O5  UNL     1      65.402  -6.728  27.966  1.00  0.00    -0.394 OA
ATOM     30  H5  UNL     1      64.573  -6.817  28.422  1.00  0.00     0.210 HD
ENDBRANCH  10  29
BRANCH  12  31
HETATM   31  O6  UNL     1      66.786  -2.729  28.491  1.00  0.00    -0.391 OA
ATOM     32  H6  UNL     1      66.336  -2.131  27.905  1.00  0.00     0.210 HD
ENDBRANCH  12  31
TORSDOF 9
ENDMDL
MODEL 5
REMARK VINA RESULT: -6.807297582      2.165      3.805
REMARK  9 active torsions:
REMARK  status: ('A' for Active; 'I' for Inactive)
REMARK    1  A    between atoms: C4_4  and  O1_5 
REMARK    2  A    between atoms: O1_5  and  C5_6 
REMARK    3  A    between atoms: C5_6  and  C6_8 
REMARK    4  A    between atoms: C6_8  and  C7_9 
REMARK    5  A    between atoms: C7_9  and  C8_10 
REMARK    6  A    between atoms: C13_16  and  C14_17 
REMARK    7  A    between atoms: C14_17  and  O4_18 
REMARK    8  A    between atoms: C15_20  and  O5_21 
REMARK    9  A    between atoms: C17_24  and  O6_25 
ROOT
HETATM    1  C1  UNL     1      64.758  -6.096  26.169  1.00  0.00     0.015 C 
HETATM    2  C2  UNL     1      64.143  -4.914  25.999  1.00  0.00    -0.082 C 
HETATM    3  C3  UNL     1      62.775  -4.645  26.423  1.00  0.00     0.066 C 
HETATM    4  C4  UNL     1      61.981  -3.742  25.533  1.00  0.00     0.136 C 
HETATM    5  C10 UNL     1      62.760  -2.673  24.875  1.00  0.00     0.045 C 
HETATM    6  C11 UNL     1      64.198  -2.533  25.294  1.00  0.00     0.067 C 
HETATM    7  C12 UNL     1      64.837  -1.595  24.329  1.00  0.00     0.145 C 
HETATM    8  O3  UNL     1      64.110  -1.046  23.503  1.00  0.00    -0.296 OA
HETATM    9  C13 UNL     1      66.281  -1.190  24.185  1.00  0.00     0.075 C 
HETATM   10  C15 UNL     1      66.426  -0.206  23.078  1.00  0.00     0.139 C 
HETATM   11  C16 UNL     1      67.777  -0.104  22.463  1.00  0.00     0.069 C 
HETATM   12  C17 UNL     1      68.343  -1.449  22.058  1.00  0.00     0.149 C 
HETATM   13  C18 UNL     1      68.344  -2.278  23.295  1.00  0.00    -0.055 C 
HETATM   14  C19 UNL     1      69.480  -2.811  23.729  1.00  0.00     0.017 C 
HETATM   15  C20 UNL     1      67.049  -2.477  24.002  1.00  0.00     0.037 C 
HETATM   16  C21 UNL     1      66.201  -3.411  23.202  1.00  0.00     0.011 C 
HETATM   17  C22 UNL     1      65.364  -4.344  24.012  1.00  0.00     0.010 C 
HETATM   18  C23 UNL     1      64.937  -3.838  25.339  1.00  0.00     0.025 C 
ENDROOT
BRANCH   4  19
HETATM   19  O1  UNL     1      61.164  -4.483  24.628  1.00  0.00    -0.316 OA
BRANCH  19  20
HETATM   20  C5  UNL     1      59.812  -4.577  24.730  1.00  0.00     0.259 C 
HETATM   21  O2  UNL     1      59.268  -5.668  24.380  1.00  0.00    -0.265 OA
BRANCH  20  22
HETATM   22  C6  UNL     1      58.906  -3.517  25.218  1.00  0.00     0.111 C 
BRANCH  22  23
HETATM   23  C7  UNL     1      57.471  -3.921  25.239  1.00  0.00     0.009 C 
BRANCH  23  24
HETATM   24  C8  UNL     1      56.657  -2.705  25.644  1.00  0.00    -0.004 C 
HETATM   25  C9  UNL     1      57.586  -1.509  25.702  1.00  0.00     0.005 C 
ENDBRANCH  23  24
ENDBRANCH  22  23
ENDBRANCH  20  22
ENDBRANCH  19  20
ENDBRANCH   4  19
BRANCH   9  26
HETATM   26  C14 UNL     1      66.636  -0.531  25.507  1.00  0.00     0.184 C 
BRANCH  26  27
HETATM   27  O4  UNL     1      67.291  -1.397  26.358  1.00  0.00    -0.400 OA
ATOM     28  H4  UNL     1      68.088  -1.740  25.973  1.00  0.00     0.209 HD
ENDBRANCH  26  27
ENDBRANCH   9  26
BRANCH  10  29
HETATM   29  O5  UNL     1      66.129   1.066  23.625  1.00  0.00    -0.394 OA
ATOM     30  H5  UNL     1      66.833   1.648  23.362  1.00  0.00     0.210 HD
ENDBRANCH  10  29
BRANCH  12  31
HETATM   31  O6  UNL     1      67.598  -1.990  21.039  1.00  0.00    -0.391 OA
ATOM     32  H6  UNL     1      66.720  -1.626  21.046  1.00  0.00     0.210 HD
ENDBRANCH  12  31
TORSDOF 9
ENDMDL
