MODEL 1
REMARK VINA RESULT: -8.196937291      0.000      0.000
REMARK  8 active torsions:
REMARK  status: ('A' for Active; 'I' for Inactive)
REMARK    1  A    between atoms: C1_2  and  O2_3 
REMARK    2  A    between atoms: C1_2  and  C19_28 
REMARK    3  A    between atoms: O2_3  and  C2_4 
REMARK    4  A    between atoms: C2_4  and  C3_5 
REMARK    5  A    between atoms: C4_6  and  O3_7 
REMARK    6  A    between atoms: C5_9  and  O4_10 
REMARK    7  A    between atoms: C6_12  and  O5_13 
REMARK    8  A    between atoms: C7_15  and  C8_16 
ROOT
HETATM    1  C3  UNL     1      63.634  -1.906  24.088  1.00  0.00     0.140 C 
HETATM    2  C4  UNL     1      63.161  -2.291  22.720  1.00  0.00     0.174 C 
HETATM    3  C5  UNL     1      64.058  -2.011  21.579  1.00  0.00     0.180 C 
HETATM    4  C6  UNL     1      65.386  -1.390  21.863  1.00  0.00     0.176 C 
HETATM    5  C7  UNL     1      65.489  -0.856  23.272  1.00  0.00     0.149 C 
HETATM    6  N1  UNL     1      65.019  -1.875  24.174  1.00  0.00    -0.367 N 
HETATM    7  C14 UNL     1      65.875  -2.797  24.694  1.00  0.00    -0.014 C 
HETATM    8  C15 UNL     1      65.954  -4.173  24.121  1.00  0.00     0.052 C 
HETATM    9  C16 UNL     1      65.732  -5.195  25.179  1.00  0.00     0.006 C 
HETATM   10  C17 UNL     1      65.801  -4.462  26.463  1.00  0.00     0.006 C 
HETATM   11  C18 UNL     1      65.919  -3.005  26.185  1.00  0.00     0.052 C 
ENDROOT
BRANCH   1  12
HETATM   12  C2  UNL     1      62.851  -2.585  25.144  1.00  0.00     0.207 C 
BRANCH  12  13
HETATM   13  O2  UNL     1      62.261  -3.773  24.561  1.00  0.00    -0.315 OA
BRANCH  13  14
HETATM   14  C1  UNL     1      61.630  -4.633  25.480  1.00  0.00     0.293 C 
HETATM   15  O1  UNL     1      62.304  -5.224  26.369  1.00  0.00    -0.259 OA
BRANCH  14  16
HETATM   16  C19 UNL     1      60.205  -4.819  25.380  1.00  0.00     0.039 A 
HETATM   17  C20 UNL     1      59.662  -6.076  25.403  1.00  0.00     0.017 A 
HETATM   18  C21 UNL     1      58.296  -6.276  25.310  1.00  0.00     0.001 A 
HETATM   19  C22 UNL     1      57.476  -5.178  25.194  1.00  0.00     0.000 A 
HETATM   20  C23 UNL     1      57.995  -3.897  25.168  1.00  0.00     0.001 A 
HETATM   21  C24 UNL     1      59.373  -3.724  25.263  1.00  0.00     0.017 A 
ENDBRANCH  14  16
ENDBRANCH  13  14
ENDBRANCH  12  13
ENDBRANCH   1  12
BRANCH   2  22
HETATM   22  O3  UNL     1      61.952  -1.585  22.492  1.00  0.00    -0.391 OA
ATOM     23  H3  UNL     1      61.304  -2.228  22.231  1.00  0.00     0.210 HD
ENDBRANCH   2  22
BRANCH   3  24
HETATM   24  O4  UNL     1      63.394  -1.305  20.548  1.00  0.00    -0.390 OA
ATOM     25  H4  UNL     1      63.380  -1.797  19.735  1.00  0.00     0.210 HD
ENDBRANCH   3  24
BRANCH   5  26
HETATM   26  C8  UNL     1      66.719  -0.182  23.596  1.00  0.00    -0.033 A 
HETATM   27  C9  UNL     1      66.928   0.283  24.879  1.00  0.00     0.009 A 
HETATM   28  C10 UNL     1      68.073   0.941  25.260  1.00  0.00     0.001 A 
HETATM   29  C11 UNL     1      69.078   1.167  24.345  1.00  0.00     0.000 A 
HETATM   30  C12 UNL     1      68.887   0.711  23.057  1.00  0.00     0.001 A 
HETATM   31  C13 UNL     1      67.722   0.044  22.684  1.00  0.00     0.009 A 
ENDBRANCH   5  26
BRANCH   4  32
HETATM   32  O5  UNL     1      66.434  -2.289  21.675  1.00  0.00    -0.390 OA
ATOM     33  H5  UNL     1      67.281  -1.885  21.822  1.00  0.00     0.210 HD
ENDBRANCH   4  32
TORSDOF 8
ENDMDL
MODEL 2
REMARK VINA RESULT: -8.154530472      1.126      1.606
REMARK  8 active torsions:
REMARK  status: ('A' for Active; 'I' for Inactive)
REMARK    1  A    between atoms: C1_2  and  O2_3 
REMARK    2  A    between atoms: C1_2  and  C19_28 
REMARK    3  A    between atoms: O2_3  and  C2_4 
REMARK    4  A    between atoms: C2_4  and  C3_5 
REMARK    5  A    between atoms: C4_6  and  O3_7 
REMARK    6  A    between atoms: C5_9  and  O4_10 
REMARK    7  A    between atoms: C6_12  and  O5_13 
REMARK    8  A    between atoms: C7_15  and  C8_16 
ROOT
HETATM    1  C3  UNL     1      63.216  -2.629  24.475  1.00  0.00     0.140 C 
HETATM    2  C4  UNL     1      62.749  -2.823  23.067  1.00  0.00     0.174 C 
HETATM    3  C5  UNL     1      63.589  -2.273  21.982  1.00  0.00     0.180 C 
HETATM    4  C6  UNL     1      64.861  -1.585  22.357  1.00  0.00     0.176 C 
HETATM    5  C7  UNL     1      64.947  -1.286  23.834  1.00  0.00     0.149 C 
HETATM    6  N1  UNL     1      64.595  -2.481  24.555  1.00  0.00    -0.367 N 
HETATM    7  C14 UNL     1      65.543  -3.392  24.907  1.00  0.00    -0.014 C 
HETATM    8  C15 UNL     1      65.735  -4.639  24.110  1.00  0.00     0.052 C 
HETATM    9  C16 UNL     1      65.633  -5.840  24.982  1.00  0.00     0.006 C 
HETATM   10  C17 UNL     1      65.665  -5.328  26.371  1.00  0.00     0.006 C 
HETATM   11  C18 UNL     1      65.641  -3.840  26.341  1.00  0.00     0.052 C 
ENDROOT
BRANCH   1  12
HETATM   12  C2  UNL     1      62.524  -3.545  25.409  1.00  0.00     0.207 C 
BRANCH  12  13
HETATM   13  O2  UNL     1      61.169  -3.060  25.577  1.00  0.00    -0.315 OA
BRANCH  13  14
HETATM   14  C1  UNL     1      60.168  -4.041  25.441  1.00  0.00     0.293 C 
HETATM   15  O1  UNL     1      60.462  -5.268  25.507  1.00  0.00    -0.259 OA
BRANCH  14  16
HETATM   16  C19 UNL     1      58.810  -3.612  25.225  1.00  0.00     0.039 A 
HETATM   17  C20 UNL     1      57.887  -4.465  24.680  1.00  0.00     0.017 A 
HETATM   18  C21 UNL     1      56.577  -4.072  24.466  1.00  0.00     0.001 A 
HETATM   19  C22 UNL     1      56.207  -2.794  24.814  1.00  0.00     0.000 A 
HETATM   20  C23 UNL     1      57.117  -1.911  25.366  1.00  0.00     0.001 A 
HETATM   21  C24 UNL     1      58.428  -2.331  25.571  1.00  0.00     0.017 A 
ENDBRANCH  14  16
ENDBRANCH  13  14
ENDBRANCH  12  13
ENDBRANCH   1  12
BRANCH   2  22
HETATM   22  O3  UNL     1      61.475  -2.206  22.969  1.00  0.00    -0.391 OA
ATOM     23  H3  UNL     1      60.842  -2.831  23.302  1.00  0.00     0.210 HD
ENDBRANCH   2  22
BRANCH   3  24
HETATM   24  O4  UNL     1      62.840  -1.471  21.089  1.00  0.00    -0.390 OA
ATOM     25  H4  UNL     1      62.447  -1.987  20.394  1.00  0.00     0.210 HD
ENDBRANCH   3  24
BRANCH   5  26
HETATM   26  C8  UNL     1      66.117  -0.561  24.258  1.00  0.00    -0.033 A 
HETATM   27  C9  UNL     1      66.684   0.375  23.417  1.00  0.00     0.009 A 
HETATM   28  C10 UNL     1      67.804   1.099  23.751  1.00  0.00     0.001 A 
HETATM   29  C11 UNL     1      68.415   0.906  24.970  1.00  0.00     0.000 A 
HETATM   30  C12 UNL     1      67.862  -0.027  25.824  1.00  0.00     0.001 A 
HETATM   31  C13 UNL     1      66.727  -0.753  25.475  1.00  0.00     0.009 A 
ENDBRANCH   5  26
BRANCH   4  32
HETATM   32  O5  UNL     1      65.983  -2.337  22.012  1.00  0.00    -0.390 OA
ATOM     33  H5  UNL     1      66.706  -1.789  21.733  1.00  0.00     0.210 HD
ENDBRANCH   4  32
TORSDOF 8
ENDMDL
MODEL 3
REMARK VINA RESULT: -7.993251671      0.922      1.517
REMARK  8 active torsions:
REMARK  status: ('A' for Active; 'I' for Inactive)
REMARK    1  A    between atoms: C1_2  and  O2_3 
REMARK    2  A    between atoms: C1_2  and  C19_28 
REMARK    3  A    between atoms: O2_3  and  C2_4 
REMARK    4  A    between atoms: C2_4  and  C3_5 
REMARK    5  A    between atoms: C4_6  and  O3_7 
REMARK    6  A    between atoms: C5_9  and  O4_10 
REMARK    7  A    between atoms: C6_12  and  O5_13 
REMARK    8  A    between atoms: C7_15  and  C8_16 
ROOT
HETATM    1  C3  UNL     1      63.222  -2.136  24.144  1.00  0.00     0.140 C 
HETATM    2  C4  UNL     1      62.903  -2.432  22.712  1.00  0.00     0.174 C 
HETATM    3  C5  UNL     1      63.924  -2.099  21.697  1.00  0.00     0.180 C 
HETATM    4  C6  UNL     1      65.217  -1.514  22.165  1.00  0.00     0.176 C 
HETATM    5  C7  UNL     1      65.165  -1.066  23.605  1.00  0.00     0.149 C 
HETATM    6  N1  UNL     1      64.589  -2.129  24.386  1.00  0.00    -0.367 N 
HETATM    7  C14 UNL     1      65.374  -3.092  24.943  1.00  0.00    -0.014 C 
HETATM    8  C15 UNL     1      65.506  -4.433  24.300  1.00  0.00     0.052 C 
HETATM    9  C16 UNL     1      65.159  -5.512  25.264  1.00  0.00     0.006 C 
HETATM   10  C17 UNL     1      65.089  -4.857  26.589  1.00  0.00     0.006 C 
HETATM   11  C18 UNL     1      65.248  -3.388  26.415  1.00  0.00     0.052 C 
ENDROOT
BRANCH   1  12
HETATM   12  C2  UNL     1      62.320  -2.864  25.064  1.00  0.00     0.207 C 
BRANCH  12  13
HETATM   13  O2  UNL     1      61.347  -3.572  24.257  1.00  0.00    -0.315 OA
BRANCH  13  14
HETATM   14  C1  UNL     1      60.049  -3.617  24.799  1.00  0.00     0.293 C 
HETATM   15  O1  UNL     1      59.433  -2.548  25.072  1.00  0.00    -0.259 OA
BRANCH  14  16
HETATM   16  C19 UNL     1      59.444  -4.903  25.033  1.00  0.00     0.039 A 
HETATM   17  C20 UNL     1      60.208  -5.974  25.415  1.00  0.00     0.017 A 
HETATM   18  C21 UNL     1      59.646  -7.218  25.645  1.00  0.00     0.001 A 
HETATM   19  C22 UNL     1      58.289  -7.368  25.484  1.00  0.00     0.000 A 
HETATM   20  C23 UNL     1      57.492  -6.305  25.100  1.00  0.00     0.001 A 
HETATM   21  C24 UNL     1      58.082  -5.064  24.874  1.00  0.00     0.017 A 
ENDBRANCH  14  16
ENDBRANCH  13  14
ENDBRANCH  12  13
ENDBRANCH   1  12
BRANCH   2  22
HETATM   22  O3  UNL     1      61.733  -1.697  22.393  1.00  0.00    -0.391 OA
ATOM     23  H3  UNL     1      61.975  -1.077  21.714  1.00  0.00     0.210 HD
ENDBRANCH   2  22
BRANCH   3  24
HETATM   24  O4  UNL     1      63.386  -1.324  20.643  1.00  0.00    -0.390 OA
ATOM     25  H4  UNL     1      64.025  -0.714  20.290  1.00  0.00     0.210 HD
ENDBRANCH   3  24
BRANCH   5  26
HETATM   26  C8  UNL     1      66.356  -0.429  24.105  1.00  0.00    -0.033 A 
HETATM   27  C9  UNL     1      67.117   0.357  23.263  1.00  0.00     0.009 A 
HETATM   28  C10 UNL     1      68.268   0.989  23.667  1.00  0.00     0.001 A 
HETATM   29  C11 UNL     1      68.713   0.854  24.964  1.00  0.00     0.000 A 
HETATM   30  C12 UNL     1      67.965   0.073  25.821  1.00  0.00     0.001 A 
HETATM   31  C13 UNL     1      66.800  -0.562  25.399  1.00  0.00     0.009 A 
ENDBRANCH   5  26
BRANCH   4  32
HETATM   32  O5  UNL     1      66.273  -2.415  22.041  1.00  0.00    -0.390 OA
ATOM     33  H5  UNL     1      66.985  -2.061  21.523  1.00  0.00     0.210 HD
ENDBRANCH   4  32
TORSDOF 8
ENDMDL
MODEL 4
REMARK VINA RESULT: -7.622706224      2.138      3.252
REMARK  8 active torsions:
REMARK  status: ('A' for Active; 'I' for Inactive)
REMARK    1  A    between atoms: C1_2  and  O2_3 
REMARK    2  A    between atoms: C1_2  and  C19_28 
REMARK    3  A    between atoms: O2_3  and  C2_4 
REMARK    4  A    between atoms: C2_4  and  C3_5 
REMARK    5  A    between atoms: C4_6  and  O3_7 
REMARK    6  A    between atoms: C5_9  and  O4_10 
REMARK    7  A    between atoms: C6_12  and  O5_13 
REMARK    8  A    between atoms: C7_15  and  C8_16 
ROOT
HETATM    1  C3  UNL     1      64.370  -2.818  25.293  1.00  0.00     0.140 C 
HETATM    2  C4  UNL     1      64.650  -2.007  24.066  1.00  0.00     0.174 C 
HETATM    3  C5  UNL     1      65.918  -1.249  24.018  1.00  0.00     0.180 C 
HETATM    4  C6  UNL     1      66.849  -1.360  25.180  1.00  0.00     0.176 C 
HETATM    5  C7  UNL     1      66.204  -2.007  26.382  1.00  0.00     0.149 C 
HETATM    6  N1  UNL     1      65.535  -3.203  25.944  1.00  0.00    -0.367 N 
HETATM    7  C14 UNL     1      66.183  -4.400  25.922  1.00  0.00    -0.014 C 
HETATM    8  C15 UNL     1      66.730  -4.947  24.645  1.00  0.00     0.052 C 
HETATM    9  C16 UNL     1      66.205  -6.316  24.394  1.00  0.00     0.006 C 
HETATM   10  C17 UNL     1      65.557  -6.733  25.658  1.00  0.00     0.006 C 
HETATM   11  C18 UNL     1      65.563  -5.589  26.608  1.00  0.00     0.052 C 
ENDROOT
BRANCH   1  12
HETATM   12  C2  UNL     1      63.302  -3.815  25.054  1.00  0.00     0.207 C 
BRANCH  12  13
HETATM   13  O2  UNL     1      62.033  -3.174  25.330  1.00  0.00    -0.315 OA
BRANCH  13  14
HETATM   14  C1  UNL     1      61.060  -3.330  24.325  1.00  0.00     0.293 C 
HETATM   15  O1  UNL     1      61.293  -2.945  23.144  1.00  0.00    -0.259 OA
BRANCH  14  16
HETATM   16  C19 UNL     1      59.800  -3.935  24.674  1.00  0.00     0.039 A 
HETATM   17  C20 UNL     1      59.630  -5.291  24.589  1.00  0.00     0.017 A 
HETATM   18  C21 UNL     1      58.428  -5.891  24.921  1.00  0.00     0.001 A 
HETATM   19  C22 UNL     1      57.390  -5.096  25.346  1.00  0.00     0.000 A 
HETATM   20  C23 UNL     1      57.532  -3.725  25.443  1.00  0.00     0.001 A 
HETATM   21  C24 UNL     1      58.752  -3.146  25.102  1.00  0.00     0.017 A 
ENDBRANCH  14  16
ENDBRANCH  13  14
ENDBRANCH  12  13
ENDBRANCH   1  12
BRANCH   2  22
HETATM   22  O3  UNL     1      63.591  -1.071  23.944  1.00  0.00    -0.391 OA
ATOM     23  H3  UNL     1      63.218  -0.964  24.811  1.00  0.00     0.210 HD
ENDBRANCH   2  22
BRANCH   3  24
HETATM   24  O4  UNL     1      65.707   0.110  23.685  1.00  0.00    -0.390 OA
ATOM     25  H4  UNL     1      66.362   0.431  23.075  1.00  0.00     0.210 HD
ENDBRANCH   3  24
BRANCH   5  26
HETATM   26  C8  UNL     1      67.023  -2.085  27.564  1.00  0.00    -0.033 A 
HETATM   27  C9  UNL     1      66.489  -2.583  28.736  1.00  0.00     0.009 A 
HETATM   28  C10 UNL     1      67.207  -2.682  29.903  1.00  0.00     0.001 A 
HETATM   29  C11 UNL     1      68.522  -2.272  29.944  1.00  0.00     0.000 A 
HETATM   30  C12 UNL     1      69.074  -1.771  28.782  1.00  0.00     0.001 A 
HETATM   31  C13 UNL     1      68.335  -1.678  27.605  1.00  0.00     0.009 A 
ENDBRANCH   5  26
BRANCH   4  32
HETATM   32  O5  UNL     1      67.990  -2.096  24.867  1.00  0.00    -0.390 OA
ATOM     33  H5  UNL     1      68.623  -2.091  25.575  1.00  0.00     0.210 HD
ENDBRANCH   4  32
TORSDOF 8
ENDMDL
MODEL 5
REMARK VINA RESULT: -7.533128829      1.972      3.131
REMARK  8 active torsions:
REMARK  status: ('A' for Active; 'I' for Inactive)
REMARK    1  A    between atoms: C1_2  and  O2_3 
REMARK    2  A    between atoms: C1_2  and  C19_28 
REMARK    3  A    between atoms: O2_3  and  C2_4 
REMARK    4  A    between atoms: C2_4  and  C3_5 
REMARK    5  A    between atoms: C4_6  and  O3_7 
REMARK    6  A    between atoms: C5_9  and  O4_10 
REMARK    7  A    between atoms: C6_12  and  O5_13 
REMARK    8  A    between atoms: C7_15  and  C8_16 
ROOT
HETATM    1  C3  UNL     1      64.535  -2.621  24.709  1.00  0.00     0.140 C 
HETATM    2  C4  UNL     1      64.805  -1.636  23.616  1.00  0.00     0.174 C 
HETATM    3  C5  UNL     1      65.990  -0.763  23.754  1.00  0.00     0.180 C 
HETATM    4  C6  UNL     1      66.856  -0.938  24.959  1.00  0.00     0.176 C 
HETATM    5  C7  UNL     1      66.208  -1.792  26.022  1.00  0.00     0.149 C 
HETATM    6  N1  UNL     1      65.691  -2.978  25.391  1.00  0.00    -0.367 N 
HETATM    7  C14 UNL     1      66.457  -4.096  25.269  1.00  0.00    -0.014 C 
HETATM    8  C15 UNL     1      67.134  -4.420  23.979  1.00  0.00     0.052 C 
HETATM    9  C16 UNL     1      66.766  -5.788  23.522  1.00  0.00     0.006 C 
HETATM   10  C17 UNL     1      66.088  -6.424  24.674  1.00  0.00     0.006 C 
HETATM   11  C18 UNL     1      65.920  -5.417  25.756  1.00  0.00     0.052 C 
ENDROOT
BRANCH   1  12
HETATM   12  C2  UNL     1      63.590  -3.673  24.271  1.00  0.00     0.207 C 
BRANCH  12  13
HETATM   13  O2  UNL     1      62.275  -3.315  24.763  1.00  0.00    -0.315 OA
BRANCH  13  14
HETATM   14  C1  UNL     1      61.646  -4.304  25.544  1.00  0.00     0.293 C 
HETATM   15  O1  UNL     1      62.322  -5.018  26.336  1.00  0.00    -0.259 OA
BRANCH  14  16
HETATM   16  C19 UNL     1      60.222  -4.478  25.416  1.00  0.00     0.039 A 
HETATM   17  C20 UNL     1      59.391  -3.393  25.335  1.00  0.00     0.017 A 
HETATM   18  C21 UNL     1      58.020  -3.539  25.212  1.00  0.00     0.001 A 
HETATM   19  C22 UNL     1      57.494  -4.809  25.169  1.00  0.00     0.000 A 
HETATM   20  C23 UNL     1      58.309  -5.924  25.248  1.00  0.00     0.001 A 
HETATM   21  C24 UNL     1      59.684  -5.749  25.372  1.00  0.00     0.017 A 
ENDBRANCH  14  16
ENDBRANCH  13  14
ENDBRANCH  12  13
ENDBRANCH   1  12
BRANCH   2  22
HETATM   22  O3  UNL     1      63.667  -0.793  23.533  1.00  0.00    -0.391 OA
ATOM     23  H3  UNL     1      62.961  -1.320  23.178  1.00  0.00     0.210 HD
ENDBRANCH   2  22
BRANCH   3  24
HETATM   24  O4  UNL     1      65.664   0.602  23.576  1.00  0.00    -0.390 OA
ATOM     25  H4  UNL     1      66.138   1.162  24.181  1.00  0.00     0.210 HD
ENDBRANCH   3  24
BRANCH   5  26
HETATM   26  C8  UNL     1      66.957  -1.947  27.242  1.00  0.00    -0.033 A 
HETATM   27  C9  UNL     1      66.370  -2.555  28.334  1.00  0.00     0.009 A 
HETATM   28  C10 UNL     1      67.020  -2.731  29.531  1.00  0.00     0.001 A 
HETATM   29  C11 UNL     1      68.317  -2.292  29.686  1.00  0.00     0.000 A 
HETATM   30  C12 UNL     1      68.921  -1.682  28.605  1.00  0.00     0.001 A 
HETATM   31  C13 UNL     1      68.251  -1.510  27.397  1.00  0.00     0.009 A 
ENDBRANCH   5  26
BRANCH   4  32
HETATM   32  O5  UNL     1      68.083  -1.518  24.641  1.00  0.00    -0.390 OA
ATOM     33  H5  UNL     1      68.178  -2.381  25.025  1.00  0.00     0.210 HD
ENDBRANCH   4  32
TORSDOF 8
ENDMDL
