MODEL 1
REMARK VINA RESULT: -8.919240657      0.000      0.000
REMARK  5 active torsions:
REMARK  status: ('A' for Active; 'I' for Inactive)
REMARK    1  A    between atoms: C4_6  and  N2_7 
REMARK    2  A    between atoms: N2_7  and  C5_9 
REMARK    3  A    between atoms: N3_12  and  C8_13 
REMARK    4  A    between atoms: C8_13  and  C9_14 
REMARK    5  A    between atoms: N5_21  and  C13_22 
ROOT
HETATM    1  C5  UNL     1      58.142  -3.225  25.618  1.00  0.00     0.097 C 
HETATM    2  C6  UNL     1      58.083  -4.558  24.950  1.00  0.00     0.041 C 
HETATM    3  C7  UNL     1      59.556  -4.907  24.859  1.00  0.00     0.097 C 
HETATM    4  N3  UNL     1      60.135  -3.634  24.359  1.00  0.00    -0.289 NA
HETATM    5  C21 UNL     1      59.441  -2.624  25.072  1.00  0.00     0.120 C 
ENDROOT
BRANCH   4   6
HETATM    6  C8  UNL     1      61.553  -3.694  24.428  1.00  0.00     0.086 C 
BRANCH   6   7
HETATM    7  C9  UNL     1      62.427  -2.869  23.628  1.00  0.00     0.044 C 
HETATM    8  C10 UNL     1      61.932  -2.835  22.186  1.00  0.00     0.289 C 
HETATM    9  N4  UNL     1      62.514  -1.731  21.434  1.00  0.00    -0.068 N 
HETATM   10  C11 UNL     1      63.918  -1.597  21.603  1.00  0.00     0.252 C 
ATOM     11  H42 UNL     1      62.278  -1.807  20.444  1.00  0.00     0.277 HD
ATOM     12  H41 UNL     1      62.041  -0.856  21.656  1.00  0.00     0.277 HD
HETATM   13  C12 UNL     1      64.253  -1.566  23.053  1.00  0.00     0.150 C 
HETATM   14  N5  UNL     1      63.801  -2.857  23.634  1.00  0.00    -0.376 N 
BRANCH  14  15
HETATM   15  C13 UNL     1      64.679  -3.221  24.653  1.00  0.00     0.084 C 
HETATM   16  C14 UNL     1      64.692  -4.655  24.965  1.00  0.00     0.025 C 
HETATM   17  C15 UNL     1      64.340  -5.082  26.358  1.00  0.00     0.002 C 
HETATM   18  C16 UNL     1      65.557  -5.107  27.264  1.00  0.00     0.000 C 
HETATM   19  C17 UNL     1      65.842  -3.815  27.948  1.00  0.00     0.000 C 
HETATM   20  C18 UNL     1      66.715  -2.982  27.036  1.00  0.00     0.000 C 
HETATM   21  C19 UNL     1      65.939  -1.879  26.393  1.00  0.00     0.002 C 
HETATM   22  C20 UNL     1      64.592  -2.312  25.872  1.00  0.00     0.025 C 
ENDBRANCH  14  15
ENDBRANCH   6   7
ENDBRANCH   4   6
BRANCH   1  23
HETATM   23  N2  UNL     1      57.041  -2.356  25.379  1.00  0.00    -0.370 N 
ATOM     24  H2  UNL     1      56.266  -2.408  26.041  1.00  0.00     0.161 HD
BRANCH  23  25
HETATM   25  C4  UNL     1      56.911  -1.436  24.330  1.00  0.00     0.105 A 
HETATM   26  C3  UNL     1      55.705  -1.390  23.624  1.00  0.00     0.096 A 
HETATM   27  C2  UNL     1      55.525  -0.518  22.577  1.00  0.00     0.104 A 
HETATM   28  N1  UNL     1      54.417  -0.497  21.957  1.00  0.00    -0.381 N 
HETATM   29  N7  UNL     1      56.531   0.295  22.238  1.00  0.00    -0.339 N 
HETATM   30  C1  UNL     1      54.163   0.393  20.850  1.00  0.00     0.147 C 
ATOM     31  H1  UNL     1      53.678  -1.135  22.252  1.00  0.00     0.160 HD
HETATM   32  C22 UNL     1      57.704   0.276  22.896  1.00  0.00     0.183 A 
ATOM     33  H7  UNL     1      56.406   0.945  21.462  1.00  0.00     0.168 HD
HETATM   34  N6  UNL     1      57.864  -0.593  23.928  1.00  0.00    -0.339 N 
ATOM     35  H6  UNL     1      58.757  -0.602  24.421  1.00  0.00     0.168 HD
ENDBRANCH  23  25
ENDBRANCH   1  23
TORSDOF 5
ENDMDL
MODEL 2
REMARK VINA RESULT: -8.915959397      0.443      1.383
REMARK  5 active torsions:
REMARK  status: ('A' for Active; 'I' for Inactive)
REMARK    1  A    between atoms: C4_6  and  N2_7 
REMARK    2  A    between atoms: N2_7  and  C5_9 
REMARK    3  A    between atoms: N3_12  and  C8_13 
REMARK    4  A    between atoms: C8_13  and  C9_14 
REMARK    5  A    between atoms: N5_21  and  C13_22 
ROOT
HETATM    1  C5  UNL     1      58.112  -2.936  25.698  1.00  0.00     0.097 C 
HETATM    2  C6  UNL     1      57.844  -4.362  25.353  1.00  0.00     0.041 C 
HETATM    3  C7  UNL     1      59.252  -4.881  25.129  1.00  0.00     0.097 C 
HETATM    4  N3  UNL     1      59.835  -3.807  24.286  1.00  0.00    -0.289 NA
HETATM    5  C21 UNL     1      59.346  -2.604  24.854  1.00  0.00     0.120 C 
ENDROOT
BRANCH   4   6
HETATM    6  C8  UNL     1      61.237  -4.005  24.163  1.00  0.00     0.086 C 
BRANCH   6   7
HETATM    7  C9  UNL     1      62.139  -3.014  23.625  1.00  0.00     0.044 C 
HETATM    8  C10 UNL     1      62.039  -2.990  22.104  1.00  0.00     0.289 C 
HETATM    9  N4  UNL     1      62.604  -1.773  21.536  1.00  0.00    -0.068 N 
HETATM   10  C11 UNL     1      63.873  -1.424  22.072  1.00  0.00     0.252 C 
ATOM     11  H42 UNL     1      62.650  -1.838  20.520  1.00  0.00     0.277 HD
ATOM     12  H41 UNL     1      61.950  -0.996  21.629  1.00  0.00     0.277 HD
HETATM   13  C12 UNL     1      63.809  -1.409  23.560  1.00  0.00     0.150 C 
HETATM   14  N5  UNL     1      63.442  -2.783  23.995  1.00  0.00    -0.376 N 
BRANCH  14  15
HETATM   15  C13 UNL     1      64.073  -3.049  25.209  1.00  0.00     0.084 C 
HETATM   16  C14 UNL     1      64.779  -1.902  25.794  1.00  0.00     0.025 C 
HETATM   17  C15 UNL     1      66.252  -2.028  26.044  1.00  0.00     0.002 C 
HETATM   18  C16 UNL     1      66.543  -2.615  27.413  1.00  0.00     0.000 C 
HETATM   19  C17 UNL     1      66.614  -4.103  27.444  1.00  0.00     0.000 C 
HETATM   20  C18 UNL     1      65.218  -4.636  27.669  1.00  0.00     0.000 C 
HETATM   21  C19 UNL     1      64.639  -5.204  26.412  1.00  0.00     0.002 C 
HETATM   22  C20 UNL     1      64.874  -4.343  25.197  1.00  0.00     0.025 C 
ENDBRANCH  14  15
ENDBRANCH   6   7
ENDBRANCH   4   6
BRANCH   1  23
HETATM   23  N2  UNL     1      57.055  -2.019  25.437  1.00  0.00    -0.370 N 
ATOM     24  H2  UNL     1      56.318  -1.960  26.139  1.00  0.00     0.161 HD
BRANCH  23  25
HETATM   25  C4  UNL     1      56.924  -1.190  24.314  1.00  0.00     0.105 A 
HETATM   26  C3  UNL     1      55.718  -1.206  23.607  1.00  0.00     0.096 A 
HETATM   27  C2  UNL     1      55.536  -0.424  22.491  1.00  0.00     0.104 A 
HETATM   28  N1  UNL     1      54.429  -0.458  21.871  1.00  0.00    -0.381 N 
HETATM   29  N7  UNL     1      56.540   0.360  22.086  1.00  0.00    -0.339 N 
HETATM   30  C1  UNL     1      54.173   0.336  20.694  1.00  0.00     0.147 C 
ATOM     31  H1  UNL     1      53.692  -1.071  22.218  1.00  0.00     0.160 HD
HETATM   32  C22 UNL     1      57.713   0.400  22.743  1.00  0.00     0.183 A 
ATOM     33  H7  UNL     1      56.414   0.943  21.259  1.00  0.00     0.168 HD
HETATM   34  N6  UNL     1      57.875  -0.381  23.845  1.00  0.00    -0.339 N 
ATOM     35  H6  UNL     1      58.767  -0.346  24.337  1.00  0.00     0.168 HD
ENDBRANCH  23  25
ENDBRANCH   1  23
TORSDOF 5
ENDMDL
MODEL 3
REMARK VINA RESULT: -8.776404807      0.880      1.439
REMARK  5 active torsions:
REMARK  status: ('A' for Active; 'I' for Inactive)
REMARK    1  A    between atoms: C4_6  and  N2_7 
REMARK    2  A    between atoms: N2_7  and  C5_9 
REMARK    3  A    between atoms: N3_12  and  C8_13 
REMARK    4  A    between atoms: C8_13  and  C9_14 
REMARK    5  A    between atoms: N5_21  and  C13_22 
ROOT
HETATM    1  C5  UNL     1      58.012  -3.115  25.704  1.00  0.00     0.097 C 
HETATM    2  C6  UNL     1      57.706  -4.436  25.080  1.00  0.00     0.041 C 
HETATM    3  C7  UNL     1      59.099  -5.014  24.918  1.00  0.00     0.097 C 
HETATM    4  N3  UNL     1      59.838  -3.858  24.349  1.00  0.00    -0.289 NA
HETATM    5  C21 UNL     1      59.354  -2.738  25.069  1.00  0.00     0.120 C 
ENDROOT
BRANCH   4   6
HETATM    6  C8  UNL     1      61.231  -4.139  24.342  1.00  0.00     0.086 C 
BRANCH   6   7
HETATM    7  C9  UNL     1      62.230  -3.212  23.863  1.00  0.00     0.044 C 
HETATM    8  C10 UNL     1      61.809  -2.651  22.509  1.00  0.00     0.289 C 
HETATM    9  N4  UNL     1      62.547  -1.442  22.164  1.00  0.00    -0.068 N 
HETATM   10  C11 UNL     1      63.948  -1.544  22.378  1.00  0.00     0.252 C 
ATOM     11  H42 UNL     1      62.350  -1.163  21.203  1.00  0.00     0.277 HD
ATOM     12  H41 UNL     1      62.166  -0.636  22.659  1.00  0.00     0.277 HD
HETATM   13  C12 UNL     1      64.217  -2.027  23.760  1.00  0.00     0.150 C 
HETATM   14  N5  UNL     1      63.594  -3.372  23.881  1.00  0.00    -0.376 N 
BRANCH  14  15
HETATM   15  C13 UNL     1      64.377  -4.152  24.730  1.00  0.00     0.084 C 
HETATM   16  C14 UNL     1      64.319  -3.761  26.144  1.00  0.00     0.025 C 
HETATM   17  C15 UNL     1      65.594  -3.363  26.824  1.00  0.00     0.002 C 
HETATM   18  C16 UNL     1      66.312  -4.559  27.420  1.00  0.00     0.000 C 
HETATM   19  C17 UNL     1      67.256  -5.238  26.489  1.00  0.00     0.000 C 
HETATM   20  C18 UNL     1      66.481  -6.274  25.705  1.00  0.00     0.000 C 
HETATM   21  C19 UNL     1      66.230  -5.823  24.301  1.00  0.00     0.002 C 
HETATM   22  C20 UNL     1      65.784  -4.387  24.199  1.00  0.00     0.025 C 
ENDBRANCH  14  15
ENDBRANCH   6   7
ENDBRANCH   4   6
BRANCH   1  23
HETATM   23  N2  UNL     1      57.047  -2.089  25.501  1.00  0.00    -0.370 N 
ATOM     24  H2  UNL     1      56.371  -1.943  26.251  1.00  0.00     0.161 HD
BRANCH  23  25
HETATM   25  C4  UNL     1      56.930  -1.259  24.378  1.00  0.00     0.105 A 
HETATM   26  C3  UNL     1      55.715  -1.236  23.685  1.00  0.00     0.096 A 
HETATM   27  C2  UNL     1      55.547  -0.451  22.570  1.00  0.00     0.104 A 
HETATM   28  N1  UNL     1      54.432  -0.449  21.963  1.00  0.00    -0.381 N 
HETATM   29  N7  UNL     1      56.572   0.298  22.150  1.00  0.00    -0.339 N 
HETATM   30  C1  UNL     1      54.188   0.351  20.787  1.00  0.00     0.147 C 
ATOM     31  H1  UNL     1      53.678  -1.036  22.320  1.00  0.00     0.160 HD
HETATM   32  C22 UNL     1      57.754   0.299  22.793  1.00  0.00     0.183 A 
ATOM     33  H7  UNL     1      56.455   0.882  21.323  1.00  0.00     0.168 HD
HETATM   34  N6  UNL     1      57.902  -0.484  23.895  1.00  0.00    -0.339 N 
ATOM     35  H6  UNL     1      58.801  -0.478  24.376  1.00  0.00     0.168 HD
ENDBRANCH  23  25
ENDBRANCH   1  23
TORSDOF 5
ENDMDL
MODEL 4
REMARK VINA RESULT: -8.621804898      0.994      1.930
REMARK  5 active torsions:
REMARK  status: ('A' for Active; 'I' for Inactive)
REMARK    1  A    between atoms: C4_6  and  N2_7 
REMARK    2  A    between atoms: N2_7  and  C5_9 
REMARK    3  A    between atoms: N3_12  and  C8_13 
REMARK    4  A    between atoms: C8_13  and  C9_14 
REMARK    5  A    between atoms: N5_21  and  C13_22 
ROOT
HETATM    1  C5  UNL     1      59.122  -3.089  25.695  1.00  0.00     0.097 C 
HETATM    2  C6  UNL     1      58.935  -4.556  25.500  1.00  0.00     0.041 C 
HETATM    3  C7  UNL     1      60.247  -4.935  24.838  1.00  0.00     0.097 C 
HETATM    4  N3  UNL     1      60.386  -3.865  23.818  1.00  0.00    -0.289 NA
HETATM    5  C21 UNL     1      59.964  -2.685  24.480  1.00  0.00     0.120 C 
ENDROOT
BRANCH   4   6
HETATM    6  C8  UNL     1      61.685  -3.920  23.243  1.00  0.00     0.086 C 
BRANCH   6   7
HETATM    7  C9  UNL     1      62.528  -2.762  23.064  1.00  0.00     0.044 C 
HETATM    8  C10 UNL     1      62.706  -2.475  21.576  1.00  0.00     0.289 C 
HETATM    9  N4  UNL     1      63.197  -1.124  21.334  1.00  0.00    -0.068 N 
HETATM   10  C11 UNL     1      64.286  -0.750  22.166  1.00  0.00     0.252 C 
ATOM     11  H42 UNL     1      63.437  -1.000  20.351  1.00  0.00     0.277 HD
ATOM     12  H41 UNL     1      62.438  -0.448  21.412  1.00  0.00     0.277 HD
HETATM   13  C12 UNL     1      63.948  -1.010  23.592  1.00  0.00     0.150 C 
HETATM   14  N5  UNL     1      63.697  -2.470  23.723  1.00  0.00    -0.376 N 
BRANCH  14  15
HETATM   15  C13 UNL     1      64.124  -2.885  24.983  1.00  0.00     0.084 C 
HETATM   16  C14 UNL     1      64.741  -1.829  25.796  1.00  0.00     0.025 C 
HETATM   17  C15 UNL     1      66.153  -2.024  26.258  1.00  0.00     0.002 C 
HETATM   18  C16 UNL     1      66.217  -2.764  27.581  1.00  0.00     0.000 C 
HETATM   19  C17 UNL     1      66.267  -4.248  27.455  1.00  0.00     0.000 C 
HETATM   20  C18 UNL     1      64.846  -4.763  27.398  1.00  0.00     0.000 C 
HETATM   21  C19 UNL     1      64.469  -5.173  26.010  1.00  0.00     0.002 C 
HETATM   22  C20 UNL     1      64.903  -4.192  24.951  1.00  0.00     0.025 C 
ENDBRANCH  14  15
ENDBRANCH   6   7
ENDBRANCH   4   6
BRANCH   1  23
HETATM   23  N2  UNL     1      57.933  -2.311  25.771  1.00  0.00    -0.370 N 
ATOM     24  H2  UNL     1      57.826  -1.721  26.596  1.00  0.00     0.161 HD
BRANCH  23  25
HETATM   25  C4  UNL     1      56.896  -2.272  24.830  1.00  0.00     0.105 A 
HETATM   26  C3  UNL     1      56.726  -1.113  24.066  1.00  0.00     0.096 A 
HETATM   27  C2  UNL     1      55.718  -1.013  23.137  1.00  0.00     0.104 A 
HETATM   28  N1  UNL     1      55.591   0.051  22.457  1.00  0.00    -0.381 N 
HETATM   29  N7  UNL     1      54.892  -2.050  22.973  1.00  0.00    -0.339 N 
HETATM   30  C1  UNL     1      54.555   0.221  21.467  1.00  0.00     0.147 C 
ATOM     31  H1  UNL     1      56.246   0.816  22.617  1.00  0.00     0.160 HD
HETATM   32  C22 UNL     1      55.026  -3.180  23.691  1.00  0.00     0.183 A 
ATOM     33  H7  UNL     1      54.141  -1.984  22.286  1.00  0.00     0.168 HD
HETATM   34  N6  UNL     1      56.029  -3.261  24.605  1.00  0.00    -0.339 N 
ATOM     35  H6  UNL     1      56.124  -4.120  25.146  1.00  0.00     0.168 HD
ENDBRANCH  23  25
ENDBRANCH   1  23
TORSDOF 5
ENDMDL
MODEL 5
REMARK VINA RESULT: -8.449219842      5.974      9.218
REMARK  5 active torsions:
REMARK  status: ('A' for Active; 'I' for Inactive)
REMARK    1  A    between atoms: C4_6  and  N2_7 
REMARK    2  A    between atoms: N2_7  and  C5_9 
REMARK    3  A    between atoms: N3_12  and  C8_13 
REMARK    4  A    between atoms: C8_13  and  C9_14 
REMARK    5  A    between atoms: N5_21  and  C13_22 
ROOT
HETATM    1  C5  UNL     1      58.164  -6.206  25.109  1.00  0.00     0.097 C 
HETATM    2  C6  UNL     1      59.583  -6.110  25.559  1.00  0.00     0.041 C 
HETATM    3  C7  UNL     1      60.044  -7.545  25.388  1.00  0.00     0.097 C 
HETATM    4  N3  UNL     1      58.917  -8.295  25.998  1.00  0.00    -0.289 NA
HETATM    5  C21 UNL     1      57.756  -7.613  25.557  1.00  0.00     0.120 C 
ENDROOT
BRANCH   4   6
HETATM    6  C8  UNL     1      59.063  -9.682  25.723  1.00  0.00     0.086 C 
BRANCH   6   7
HETATM    7  C9  UNL     1      59.084 -10.701  26.746  1.00  0.00     0.044 C 
HETATM    8  C10 UNL     1      60.414 -11.447  26.707  1.00  0.00     0.289 C 
HETATM    9  N4  UNL     1      60.658 -12.194  27.934  1.00  0.00    -0.068 N 
HETATM   10  C11 UNL     1      59.542 -12.952  28.379  1.00  0.00     0.252 C 
ATOM     11  H42 UNL     1      61.480 -12.791  27.834  1.00  0.00     0.277 HD
ATOM     12  H41 UNL     1      60.987 -11.573  28.673  1.00  0.00     0.277 HD
HETATM   13  C12 UNL     1      58.334 -12.085  28.445  1.00  0.00     0.150 C 
HETATM   14  N5  UNL     1      58.081 -11.582  27.069  1.00  0.00    -0.376 N 
BRANCH  14  15
HETATM   15  C13 UNL     1      56.705 -11.454  26.887  1.00  0.00     0.084 C 
HETATM   16  C14 UNL     1      56.059 -10.487  27.784  1.00  0.00     0.025 C 
HETATM   17  C15 UNL     1      54.972 -10.979  28.692  1.00  0.00     0.002 C 
HETATM   18  C16 UNL     1      53.611 -10.924  28.024  1.00  0.00     0.000 C 
HETATM   19  C17 UNL     1      53.250 -12.152  27.259  1.00  0.00     0.000 C 
HETATM   20  C18 UNL     1      53.788 -12.006  25.854  1.00  0.00     0.000 C 
HETATM   21  C19 UNL     1      55.002 -12.853  25.642  1.00  0.00     0.002 C 
HETATM   22  C20 UNL     1      55.988 -12.792  26.780  1.00  0.00     0.025 C 
ENDBRANCH  14  15
ENDBRANCH   6   7
ENDBRANCH   4   6
BRANCH   1  23
HETATM   23  N2  UNL     1      57.273  -5.227  25.632  1.00  0.00    -0.370 N 
ATOM     24  H2  UNL     1      56.623  -5.540  26.354  1.00  0.00     0.161 HD
BRANCH  23  25
HETATM   25  C4  UNL     1      57.198  -3.878  25.259  1.00  0.00     0.105 A 
HETATM   26  C3  UNL     1      56.201  -3.487  24.359  1.00  0.00     0.096 A 
HETATM   27  C2  UNL     1      56.087  -2.181  23.947  1.00  0.00     0.104 A 
HETATM   28  N1  UNL     1      55.170  -1.855  23.131  1.00  0.00    -0.381 N 
HETATM   29  N7  UNL     1      56.952  -1.279  24.422  1.00  0.00    -0.339 N 
HETATM   30  C1  UNL     1      54.995  -0.503  22.659  1.00  0.00     0.147 C 
ATOM     31  H1  UNL     1      54.533  -2.577  22.796  1.00  0.00     0.160 HD
HETATM   32  C22 UNL     1      57.923  -1.622  25.289  1.00  0.00     0.183 A 
ATOM     33  H7  UNL     1      56.875  -0.308  24.121  1.00  0.00     0.168 HD
HETATM   34  N6  UNL     1      58.020  -2.919  25.685  1.00  0.00    -0.339 N 
ATOM     35  H6  UNL     1      58.759  -3.171  26.341  1.00  0.00     0.168 HD
ENDBRANCH  23  25
ENDBRANCH   1  23
TORSDOF 5
ENDMDL
