MODEL 1
REMARK VINA RESULT: -6.662880326      0.000      0.000
REMARK  5 active torsions:
REMARK  status: ('A' for Active; 'I' for Inactive)
REMARK       I    between atoms: N1_4  and  C4_5 
REMARK    1  A    between atoms: C4_5  and  C5_7 
REMARK    2  A    between atoms: C5_7  and  N2_8 
REMARK    3  A    between atoms: C5_7  and  C11_18 
REMARK    4  A    between atoms: C11_18  and  N4_20 
REMARK    5  A    between atoms: N4_20  and  C13_22 
ROOT
HETATM    1  C5  UNL     1      62.666  -2.998  24.280  1.00  0.00     0.196 C 
ENDROOT
BRANCH   1   2
HETATM    2  C4  UNL     1      63.675  -3.029  25.359  1.00  0.00     0.253 C 
HETATM    3  N1  UNL     1      64.080  -4.137  26.109  1.00  0.00    -0.285 N 
HETATM    4  C3  UNL     1      63.651  -5.394  26.039  1.00  0.00     0.125 A 
HETATM    5  C22 UNL     1      65.041  -4.136  27.097  1.00  0.00     0.191 A 
HETATM    6  C2  UNL     1      64.305  -6.192  26.949  1.00  0.00     0.022 A 
HETATM    7  C1  UNL     1      64.141  -7.666  27.210  1.00  0.00     0.069 C 
HETATM    8  N6  UNL     1      65.156  -5.377  27.582  1.00  0.00    -0.354 N 
ATOM      9  H6  UNL     1      65.797  -5.660  28.323  1.00  0.00     0.166 HD
HETATM   10  O1  UNL     1      64.251  -1.918  25.656  1.00  0.00    -0.270 OA
ENDBRANCH   1   2
BRANCH   1  11
HETATM   11  N2  UNL     1      61.396  -2.663  24.798  1.00  0.00    -0.380 N 
HETATM   12  C6  UNL     1      60.367  -3.425  24.890  1.00  0.00     0.008 C 
HETATM   13  C7  UNL     1      59.159  -2.808  25.477  1.00  0.00     0.055 C 
HETATM   14  C10 UNL     1      60.498  -4.805  24.411  1.00  0.00     0.284 C 
HETATM   15  C8  UNL     1      57.991  -3.724  25.466  1.00  0.00     0.033 C 
HETATM   16  C9  UNL     1      58.103  -4.825  24.464  1.00  0.00     0.233 C 
HETATM   17  N3  UNL     1      59.314  -5.609  24.635  1.00  0.00    -0.070 N 
ATOM     18  H32 UNL     1      59.338  -6.065  25.546  1.00  0.00     0.277 HD
ATOM     19  H31 UNL     1      59.309  -6.439  24.042  1.00  0.00     0.277 HD
ATOM     20  H2  UNL     1      61.284  -1.708  25.137  1.00  0.00     0.160 HD
ENDBRANCH   1  11
BRANCH   1  21
HETATM   21  C11 UNL     1      63.081  -2.230  23.056  1.00  0.00     0.105 C 
HETATM   22  C12 UNL     1      61.952  -2.387  22.006  1.00  0.00     0.034 C 
BRANCH  21  23
HETATM   23  N4  UNL     1      64.256  -2.538  22.467  1.00  0.00    -0.406 N 
ATOM     24  H4  UNL     1      64.226  -3.474  22.064  1.00  0.00     0.154 HD
BRANCH  23  25
HETATM   25  C13 UNL     1      65.478  -1.951  22.257  1.00  0.00     0.030 C 
HETATM   26  C14 UNL     1      65.844  -1.888  20.752  1.00  0.00     0.035 C 
HETATM   27  C15 UNL     1      67.306  -1.617  20.599  1.00  0.00    -0.008 C 
HETATM   28  C16 UNL     1      68.160  -2.671  21.262  1.00  0.00     0.037 C 
HETATM   29  C20 UNL     1      67.682  -0.270  21.142  1.00  0.00     0.037 C 
HETATM   30  C17 UNL     1      67.901  -2.559  22.737  1.00  0.00     0.189 C 
HETATM   31  C18 UNL     1      66.486  -2.893  22.973  1.00  0.00     0.063 C 
HETATM   32  N5  UNL     1      68.132  -1.232  23.277  1.00  0.00    -0.067 N 
HETATM   33  C19 UNL     1      67.297  -0.294  22.623  1.00  0.00     0.189 C 
ATOM     34  H52 UNL     1      68.017  -1.206  24.290  1.00  0.00     0.278 HD
ATOM     35  H51 UNL     1      69.115  -0.965  23.232  1.00  0.00     0.278 HD
HETATM   36  C21 UNL     1      65.796  -0.570  22.749  1.00  0.00     0.063 C 
ENDBRANCH  23  25
ENDBRANCH  21  23
ENDBRANCH   1  21
TORSDOF 5
ENDMDL
MODEL 2
REMARK VINA RESULT: -6.286404972      2.224      4.631
REMARK  5 active torsions:
REMARK  status: ('A' for Active; 'I' for Inactive)
REMARK       I    between atoms: N1_4  and  C4_5 
REMARK    1  A    between atoms: C4_5  and  C5_7 
REMARK    2  A    between atoms: C5_7  and  N2_8 
REMARK    3  A    between atoms: C5_7  and  C11_18 
REMARK    4  A    between atoms: C11_18  and  N4_20 
REMARK    5  A    between atoms: N4_20  and  C13_22 
ROOT
HETATM    1  C5  UNL     1      61.785  -3.614  24.706  1.00  0.00     0.196 C 
ENDROOT
BRANCH   1   2
HETATM    2  C4  UNL     1      61.967  -3.352  23.263  1.00  0.00     0.253 C 
HETATM    3  N1  UNL     1      62.765  -2.368  22.674  1.00  0.00    -0.285 N 
HETATM    4  C3  UNL     1      63.520  -1.444  23.261  1.00  0.00     0.125 A 
HETATM    5  C22 UNL     1      62.928  -2.162  21.321  1.00  0.00     0.191 A 
HETATM    6  C2  UNL     1      64.158  -0.659  22.328  1.00  0.00     0.022 A 
HETATM    7  C1  UNL     1      65.104   0.492  22.544  1.00  0.00     0.069 C 
HETATM    8  N6  UNL     1      63.766  -1.136  21.142  1.00  0.00    -0.354 N 
ATOM      9  H6  UNL     1      64.063  -0.772  20.237  1.00  0.00     0.166 HD
HETATM   10  O1  UNL     1      61.320  -4.105  22.444  1.00  0.00    -0.270 OA
ENDBRANCH   1   2
BRANCH   1  11
HETATM   11  N2  UNL     1      60.551  -4.257  24.942  1.00  0.00    -0.380 N 
HETATM   12  C6  UNL     1      59.392  -3.709  25.025  1.00  0.00     0.008 C 
HETATM   13  C7  UNL     1      58.263  -4.628  25.281  1.00  0.00     0.055 C 
HETATM   14  C10 UNL     1      59.314  -2.255  24.857  1.00  0.00     0.284 C 
HETATM   15  C8  UNL     1      56.975  -3.911  25.451  1.00  0.00     0.033 C 
HETATM   16  C9  UNL     1      57.134  -2.475  25.827  1.00  0.00     0.233 C 
HETATM   17  N3  UNL     1      57.959  -1.743  24.882  1.00  0.00    -0.070 N 
ATOM     18  H32 UNL     1      57.544  -1.738  23.950  1.00  0.00     0.277 HD
ATOM     19  H31 UNL     1      57.941  -0.741  25.068  1.00  0.00     0.277 HD
ATOM     20  H2  UNL     1      60.583  -5.269  25.061  1.00  0.00     0.160 HD
ENDBRANCH   1  11
BRANCH   1  21
HETATM   21  C11 UNL     1      62.973  -4.240  25.383  1.00  0.00     0.105 C 
HETATM   22  C12 UNL     1      62.445  -5.405  26.259  1.00  0.00     0.034 C 
BRANCH  21  23
HETATM   23  N4  UNL     1      63.768  -3.461  26.145  1.00  0.00    -0.406 N 
ATOM     24  H4  UNL     1      63.224  -2.967  26.853  1.00  0.00     0.154 HD
BRANCH  23  25
HETATM   25  C13 UNL     1      65.099  -3.142  26.241  1.00  0.00     0.030 C 
HETATM   26  C14 UNL     1      65.335  -1.611  26.225  1.00  0.00     0.035 C 
HETATM   27  C15 UNL     1      66.774  -1.324  25.936  1.00  0.00    -0.008 C 
HETATM   28  C16 UNL     1      67.220  -1.897  24.612  1.00  0.00     0.037 C 
HETATM   29  C20 UNL     1      67.673  -1.840  27.021  1.00  0.00     0.037 C 
HETATM   30  C17 UNL     1      67.147  -3.391  24.752  1.00  0.00     0.189 C 
HETATM   31  C18 UNL     1      65.735  -3.754  24.962  1.00  0.00     0.063 C 
HETATM   32  N5  UNL     1      67.903  -3.917  25.873  1.00  0.00    -0.067 N 
HETATM   33  C19 UNL     1      67.432  -3.350  27.081  1.00  0.00     0.189 C 
ATOM     34  H52 UNL     1      67.892  -4.937  25.897  1.00  0.00     0.278 HD
ATOM     35  H51 UNL     1      68.908  -3.783  25.754  1.00  0.00     0.278 HD
HETATM   36  C21 UNL     1      65.953  -3.612  27.381  1.00  0.00     0.063 C 
ENDBRANCH  23  25
ENDBRANCH  21  23
ENDBRANCH   1  21
TORSDOF 5
ENDMDL
MODEL 3
REMARK VINA RESULT: -6.252510094      2.109      3.105
REMARK  5 active torsions:
REMARK  status: ('A' for Active; 'I' for Inactive)
REMARK       I    between atoms: N1_4  and  C4_5 
REMARK    1  A    between atoms: C4_5  and  C5_7 
REMARK    2  A    between atoms: C5_7  and  N2_8 
REMARK    3  A    between atoms: C5_7  and  C11_18 
REMARK    4  A    between atoms: C11_18  and  N4_20 
REMARK    5  A    between atoms: N4_20  and  C13_22 
ROOT
HETATM    1  C5  UNL     1      60.806  -3.727  24.539  1.00  0.00     0.196 C 
ENDROOT
BRANCH   1   2
HETATM    2  C4  UNL     1      61.438  -4.799  25.337  1.00  0.00     0.253 C 
HETATM    3  N1  UNL     1      60.916  -6.063  25.621  1.00  0.00    -0.285 N 
HETATM    4  C3  UNL     1      59.745  -6.583  25.262  1.00  0.00     0.125 A 
HETATM    5  C22 UNL     1      61.540  -7.050  26.353  1.00  0.00     0.191 A 
HETATM    6  C2  UNL     1      59.605  -7.866  25.741  1.00  0.00     0.022 A 
HETATM    7  C1  UNL     1      58.454  -8.821  25.571  1.00  0.00     0.069 C 
HETATM    8  N6  UNL     1      60.736  -8.116  26.408  1.00  0.00    -0.354 N 
ATOM      9  H6  UNL     1      60.952  -8.990  26.887  1.00  0.00     0.166 HD
HETATM   10  O1  UNL     1      62.598  -4.553  25.836  1.00  0.00    -0.270 OA
ENDBRANCH   1   2
BRANCH   1  11
HETATM   11  N2  UNL     1      59.961  -2.939  25.350  1.00  0.00    -0.380 N 
HETATM   12  C6  UNL     1      58.677  -2.920  25.348  1.00  0.00     0.008 C 
HETATM   13  C7  UNL     1      58.045  -1.992  26.309  1.00  0.00     0.055 C 
HETATM   14  C10 UNL     1      57.986  -3.809  24.409  1.00  0.00     0.284 C 
HETATM   15  C8  UNL     1      56.567  -1.964  26.183  1.00  0.00     0.033 C 
HETATM   16  C9  UNL     1      56.069  -2.445  24.860  1.00  0.00     0.233 C 
HETATM   17  N3  UNL     1      56.543  -3.780  24.541  1.00  0.00    -0.070 N 
ATOM     18  H32 UNL     1      56.216  -4.465  25.222  1.00  0.00     0.277 HD
ATOM     19  H31 UNL     1      56.084  -4.151  23.710  1.00  0.00     0.277 HD
ATOM     20  H2  UNL     1      60.422  -2.314  26.011  1.00  0.00     0.160 HD
ENDBRANCH   1  11
BRANCH   1  21
HETATM   21  C11 UNL     1      61.755  -2.956  23.664  1.00  0.00     0.105 C 
HETATM   22  C12 UNL     1      61.780  -3.656  22.281  1.00  0.00     0.034 C 
BRANCH  21  23
HETATM   23  N4  UNL     1      63.028  -2.790  24.080  1.00  0.00    -0.406 N 
ATOM     24  H4  UNL     1      63.212  -3.342  24.918  1.00  0.00     0.154 HD
BRANCH  23  25
HETATM   25  C13 UNL     1      64.145  -2.091  23.698  1.00  0.00     0.030 C 
HETATM   26  C14 UNL     1      65.150  -2.977  22.920  1.00  0.00     0.035 C 
HETATM   27  C15 UNL     1      66.485  -2.305  22.873  1.00  0.00    -0.008 C 
HETATM   28  C16 UNL     1      67.042  -2.032  24.250  1.00  0.00     0.037 C 
HETATM   29  C20 UNL     1      66.433  -1.019  22.103  1.00  0.00     0.037 C 
HETATM   30  C17 UNL     1      66.126  -1.025  24.885  1.00  0.00     0.189 C 
HETATM   31  C18 UNL     1      64.802  -1.652  25.035  1.00  0.00     0.063 C 
HETATM   32  N5  UNL     1      65.949   0.185  24.104  1.00  0.00    -0.067 N 
HETATM   33  C19 UNL     1      65.416  -0.135  22.832  1.00  0.00     0.189 C 
ATOM     34  H52 UNL     1      65.381   0.877  24.594  1.00  0.00     0.278 HD
ATOM     35  H51 UNL     1      66.811   0.725  24.032  1.00  0.00     0.278 HD
HETATM   36  C21 UNL     1      64.061  -0.848  22.862  1.00  0.00     0.063 C 
ENDBRANCH  23  25
ENDBRANCH  21  23
ENDBRANCH   1  21
TORSDOF 5
ENDMDL
MODEL 4
REMARK VINA RESULT: -6.222715370      7.035     12.278
REMARK  5 active torsions:
REMARK  status: ('A' for Active; 'I' for Inactive)
REMARK       I    between atoms: N1_4  and  C4_5 
REMARK    1  A    between atoms: C4_5  and  C5_7 
REMARK    2  A    between atoms: C5_7  and  N2_8 
REMARK    3  A    between atoms: C5_7  and  C11_18 
REMARK    4  A    between atoms: C11_18  and  N4_20 
REMARK    5  A    between atoms: N4_20  and  C13_22 
ROOT
HETATM    1  C5  UNL     1      58.075  -9.678  27.002  1.00  0.00     0.196 C 
ENDROOT
BRANCH   1   2
HETATM    2  C4  UNL     1      58.600 -10.764  26.148  1.00  0.00     0.253 C 
HETATM    3  N1  UNL     1      59.804 -11.457  26.303  1.00  0.00    -0.285 N 
HETATM    4  C3  UNL     1      60.747 -11.295  27.226  1.00  0.00     0.125 A 
HETATM    5  C22 UNL     1      60.256 -12.481  25.499  1.00  0.00     0.191 A 
HETATM    6  C2  UNL     1      61.783 -12.181  27.037  1.00  0.00     0.022 A 
HETATM    7  C1  UNL     1      63.045 -12.352  27.841  1.00  0.00     0.069 C 
HETATM    8  N6  UNL     1      61.440 -12.895  25.960  1.00  0.00    -0.354 N 
ATOM      9  H6  UNL     1      61.999 -13.645  25.553  1.00  0.00     0.166 HD
HETATM   10  O1  UNL     1      57.881 -11.119  25.142  1.00  0.00    -0.270 OA
ENDBRANCH   1   2
BRANCH   1  11
HETATM   11  N2  UNL     1      57.613  -8.604  26.210  1.00  0.00    -0.380 N 
HETATM   12  C6  UNL     1      58.304  -7.627  25.745  1.00  0.00     0.008 C 
HETATM   13  C7  UNL     1      57.558  -6.636  24.941  1.00  0.00     0.055 C 
HETATM   14  C10 UNL     1      59.736  -7.599  26.056  1.00  0.00     0.284 C 
HETATM   15  C8  UNL     1      58.405  -5.495  24.518  1.00  0.00     0.033 C 
HETATM   16  C9  UNL     1      59.625  -5.309  25.358  1.00  0.00     0.233 C 
HETATM   17  N3  UNL     1      60.444  -6.507  25.418  1.00  0.00    -0.070 N 
ATOM     18  H32 UNL     1      60.787  -6.772  24.494  1.00  0.00     0.277 HD
ATOM     19  H31 UNL     1      61.339  -6.326  25.872  1.00  0.00     0.277 HD
ATOM     20  H2  UNL     1      56.619  -8.605  25.982  1.00  0.00     0.160 HD
ENDBRANCH   1  11
BRANCH   1  21
HETATM   21  C11 UNL     1      57.131 -10.131  28.081  1.00  0.00     0.105 C 
HETATM   22  C12 UNL     1      57.905 -10.082  29.423  1.00  0.00     0.034 C 
BRANCH  21  23
HETATM   23  N4  UNL     1      56.554 -11.345  27.967  1.00  0.00    -0.406 N 
ATOM     24  H4  UNL     1      57.242 -12.088  28.087  1.00  0.00     0.154 HD
BRANCH  23  25
HETATM   25  C13 UNL     1      55.306 -11.866  27.734  1.00  0.00     0.030 C 
HETATM   26  C14 UNL     1      55.371 -13.269  27.080  1.00  0.00     0.035 C 
HETATM   27  C15 UNL     1      54.039 -13.617  26.497  1.00  0.00    -0.008 C 
HETATM   28  C16 UNL     1      53.587 -12.618  25.458  1.00  0.00     0.037 C 
HETATM   29  C20 UNL     1      52.982 -13.736  27.554  1.00  0.00     0.037 C 
HETATM   30  C17 UNL     1      53.361 -11.324  26.187  1.00  0.00     0.189 C 
HETATM   31  C18 UNL     1      54.657 -10.878  26.725  1.00  0.00     0.063 C 
HETATM   32  N5  UNL     1      52.439 -11.428  27.302  1.00  0.00    -0.067 N 
HETATM   33  C19 UNL     1      52.923 -12.369  28.242  1.00  0.00     0.189 C 
ATOM     34  H52 UNL     1      52.251 -10.521  27.730  1.00  0.00     0.278 HD
ATOM     35  H51 UNL     1      51.490 -11.646  26.996  1.00  0.00     0.278 HD
HETATM   36  C21 UNL     1      54.298 -12.042  28.831  1.00  0.00     0.063 C 
ENDBRANCH  23  25
ENDBRANCH  21  23
ENDBRANCH   1  21
TORSDOF 5
ENDMDL
MODEL 5
REMARK VINA RESULT: -6.092782257      2.285      4.577
REMARK  5 active torsions:
REMARK  status: ('A' for Active; 'I' for Inactive)
REMARK       I    between atoms: N1_4  and  C4_5 
REMARK    1  A    between atoms: C4_5  and  C5_7 
REMARK    2  A    between atoms: C5_7  and  N2_8 
REMARK    3  A    between atoms: C5_7  and  C11_18 
REMARK    4  A    between atoms: C11_18  and  N4_20 
REMARK    5  A    between atoms: N4_20  and  C13_22 
ROOT
HETATM    1  C5  UNL     1      61.884  -3.619  24.700  1.00  0.00     0.196 C 
ENDROOT
BRANCH   1   2
HETATM    2  C4  UNL     1      62.050  -3.352  23.256  1.00  0.00     0.253 C 
HETATM    3  N1  UNL     1      62.831  -2.357  22.662  1.00  0.00    -0.285 N 
HETATM    4  C3  UNL     1      63.580  -1.425  23.245  1.00  0.00     0.125 A 
HETATM    5  C22 UNL     1      62.980  -2.147  21.309  1.00  0.00     0.191 A 
HETATM    6  C2  UNL     1      64.201  -0.631  22.309  1.00  0.00     0.022 A 
HETATM    7  C1  UNL     1      65.135   0.531  22.519  1.00  0.00     0.069 C 
HETATM    8  N6  UNL     1      63.805  -1.110  21.125  1.00  0.00    -0.354 N 
ATOM      9  H6  UNL     1      64.090  -0.741  20.218  1.00  0.00     0.166 HD
HETATM   10  O1  UNL     1      61.405  -4.111  22.441  1.00  0.00    -0.270 OA
ENDBRANCH   1   2
BRANCH   1  11
HETATM   11  N2  UNL     1      60.663  -4.285  24.944  1.00  0.00    -0.380 N 
HETATM   12  C6  UNL     1      59.494  -3.762  25.026  1.00  0.00     0.008 C 
HETATM   13  C7  UNL     1      58.385  -4.702  25.291  1.00  0.00     0.055 C 
HETATM   14  C10 UNL     1      59.385  -2.311  24.848  1.00  0.00     0.284 C 
HETATM   15  C8  UNL     1      57.083  -4.010  25.460  1.00  0.00     0.033 C 
HETATM   16  C9  UNL     1      57.213  -2.568  25.826  1.00  0.00     0.233 C 
HETATM   17  N3  UNL     1      58.020  -1.826  24.873  1.00  0.00    -0.070 N 
ATOM     18  H32 UNL     1      57.602  -1.836  23.942  1.00  0.00     0.277 HD
ATOM     19  H31 UNL     1      57.982  -0.823  25.052  1.00  0.00     0.277 HD
ATOM     20  H2  UNL     1      60.717  -5.296  25.069  1.00  0.00     0.160 HD
ENDBRANCH   1  11
BRANCH   1  21
HETATM   21  C11 UNL     1      63.088  -4.224  25.367  1.00  0.00     0.105 C 
HETATM   22  C12 UNL     1      62.586  -5.389  26.258  1.00  0.00     0.034 C 
BRANCH  21  23
HETATM   23  N4  UNL     1      63.881  -3.427  26.115  1.00  0.00    -0.406 N 
ATOM     24  H4  UNL     1      63.376  -3.070  26.926  1.00  0.00     0.154 HD
BRANCH  23  25
HETATM   25  C13 UNL     1      65.171  -2.961  26.095  1.00  0.00     0.030 C 
HETATM   26  C14 UNL     1      65.993  -3.570  24.931  1.00  0.00     0.035 C 
HETATM   27  C15 UNL     1      67.452  -3.352  25.175  1.00  0.00    -0.008 C 
HETATM   28  C16 UNL     1      67.917  -3.970  26.472  1.00  0.00     0.037 C 
HETATM   29  C20 UNL     1      67.805  -1.895  25.173  1.00  0.00     0.037 C 
HETATM   30  C17 UNL     1      67.226  -3.215  27.572  1.00  0.00     0.189 C 
HETATM   31  C18 UNL     1      65.778  -3.450  27.439  1.00  0.00     0.063 C 
HETATM   32  N5  UNL     1      67.441  -1.780  27.527  1.00  0.00    -0.067 N 
HETATM   33  C19 UNL     1      66.976  -1.262  26.294  1.00  0.00     0.189 C 
ATOM     34  H52 UNL     1      67.020  -1.305  28.326  1.00  0.00     0.278 HD
ATOM     35  H51 UNL     1      68.415  -1.533  27.704  1.00  0.00     0.278 HD
HETATM   36  C21 UNL     1      65.490  -1.497  26.016  1.00  0.00     0.063 C 
ENDBRANCH  23  25
ENDBRANCH  21  23
ENDBRANCH   1  21
TORSDOF 5
ENDMDL
