MODEL 1
REMARK VINA RESULT: -8.232469161      0.000      0.000
REMARK  5 active torsions:
REMARK  status: ('A' for Active; 'I' for Inactive)
REMARK    1  A    between atoms: C2_2  and  N1_4 
REMARK    2  A    between atoms: N1_4  and  C4_6 
REMARK    3  A    between atoms: N3_10  and  C6_12 
REMARK    4  A    between atoms: C9_15  and  N4_16 
REMARK    5  A    between atoms: N6_28  and  C18_29 
ROOT
HETATM    1  C4  UNL     1      57.429  -4.816  24.580  1.00  0.00     0.681 A 
HETATM    2  N2  UNL     1      57.164  -6.096  24.961  1.00  0.00    -0.175 N 
ATOM      3  H2  UNL     1      56.207  -6.443  24.880  1.00  0.00     0.186 HD
HETATM    4  C5  UNL     1      58.111  -6.920  25.438  1.00  0.00     0.148 A 
HETATM    5  N3  UNL     1      57.753  -8.084  25.762  1.00  0.00    -0.369 N 
ATOM      6  H3  UNL     1      56.760  -8.273  25.622  1.00  0.00     0.161 HD
HETATM    7  C16 UNL     1      59.381  -6.398  25.524  1.00  0.00     0.123 A 
HETATM    8  N5  UNL     1      60.528  -6.941  25.947  1.00  0.00    -0.346 N 
ATOM      9  H5  UNL     1      60.643  -7.893  26.295  1.00  0.00     0.167 HD
HETATM   10  C17 UNL     1      61.511  -6.019  25.836  1.00  0.00     0.185 A 
HETATM   11  N6  UNL     1      60.999  -4.866  25.337  1.00  0.00    -0.323 N 
HETATM   12  C21 UNL     1      59.691  -5.112  25.150  1.00  0.00     0.155 A 
HETATM   13  N7  UNL     1      58.676  -4.339  24.676  1.00  0.00    -0.174 N 
ATOM     14  H7  UNL     1      58.869  -3.379  24.389  1.00  0.00     0.186 HD
ENDROOT
BRANCH   5  15
HETATM   15  C6  UNL     1      58.488  -9.175  26.285  1.00  0.00     0.083 C 
HETATM   16  C7  UNL     1      57.947  -9.497  27.659  1.00  0.00     0.027 C 
HETATM   17  C8  UNL     1      56.788 -10.485  27.446  1.00  0.00     0.027 C 
HETATM   18  C9  UNL     1      57.402 -11.809  27.140  1.00  0.00     0.083 C 
HETATM   19  C14 UNL     1      58.386 -11.670  26.020  1.00  0.00     0.027 C 
HETATM   20  C15 UNL     1      58.324 -10.334  25.330  1.00  0.00     0.027 C 
BRANCH  18  21
HETATM   21  N4  UNL     1      56.472 -12.874  26.976  1.00  0.00    -0.385 N 
HETATM   22  C10 UNL     1      56.692 -13.732  25.876  1.00  0.00     0.148 C 
HETATM   23  C11 UNL     1      55.461 -14.102  25.099  1.00  0.00     0.187 C 
HETATM   24  O1  UNL     1      54.630 -13.051  24.819  1.00  0.00    -0.385 OA
HETATM   25  C12 UNL     1      54.380 -12.205  25.862  1.00  0.00     0.212 C 
HETATM   26  C13 UNL     1      55.104 -12.578  27.137  1.00  0.00     0.084 C 
ENDBRANCH  18  21
ENDBRANCH   5  15
BRANCH   1  27
HETATM   27  N1  UNL     1      56.497  -4.071  24.133  1.00  0.00    -0.222 N 
ATOM     28  H1  UNL     1      56.090  -4.381  23.251  1.00  0.00     0.178 HD
BRANCH  27  29
HETATM   29  C2  UNL     1      55.935  -2.887  24.659  1.00  0.00     0.091 C 
HETATM   30  C1  UNL     1      56.731  -2.308  25.816  1.00  0.00     0.032 C 
HETATM   31  C3  UNL     1      55.698  -1.893  23.552  1.00  0.00     0.032 C 
ENDBRANCH  27  29
ENDBRANCH   1  27
BRANCH  11  32
HETATM   32  C18 UNL     1      61.742  -3.661  25.080  1.00  0.00     0.084 C 
HETATM   33  C19 UNL     1      63.145  -3.836  25.623  1.00  0.00     0.032 C 
HETATM   34  C20 UNL     1      61.873  -3.381  23.592  1.00  0.00     0.032 C 
ENDBRANCH  11  32
TORSDOF 5
ENDMDL
MODEL 2
REMARK VINA RESULT: -8.059122223      0.827      1.040
REMARK  5 active torsions:
REMARK  status: ('A' for Active; 'I' for Inactive)
REMARK    1  A    between atoms: C2_2  and  N1_4 
REMARK    2  A    between atoms: N1_4  and  C4_6 
REMARK    3  A    between atoms: N3_10  and  C6_12 
REMARK    4  A    between atoms: C9_15  and  N4_16 
REMARK    5  A    between atoms: N6_28  and  C18_29 
ROOT
HETATM    1  C4  UNL     1      57.439  -4.759  24.597  1.00  0.00     0.681 A 
HETATM    2  N2  UNL     1      57.184  -6.037  24.990  1.00  0.00    -0.175 N 
ATOM      3  H2  UNL     1      56.228  -6.389  24.923  1.00  0.00     0.186 HD
HETATM    4  C5  UNL     1      58.140  -6.854  25.463  1.00  0.00     0.148 A 
HETATM    5  N3  UNL     1      57.791  -8.017  25.799  1.00  0.00    -0.369 N 
ATOM      6  H3  UNL     1      56.798  -8.212  25.672  1.00  0.00     0.161 HD
HETATM    7  C16 UNL     1      59.409  -6.325  25.531  1.00  0.00     0.123 A 
HETATM    8  N5  UNL     1      60.563  -6.860  25.945  1.00  0.00    -0.346 N 
ATOM      9  H5  UNL     1      60.686  -7.809  26.299  1.00  0.00     0.167 HD
HETATM   10  C17 UNL     1      61.540  -5.934  25.817  1.00  0.00     0.185 A 
HETATM   11  N6  UNL     1      61.017  -4.788  25.316  1.00  0.00    -0.323 N 
HETATM   12  C21 UNL     1      59.708  -5.041  25.145  1.00  0.00     0.155 A 
HETATM   13  N7  UNL     1      58.685  -4.276  24.676  1.00  0.00    -0.174 N 
ATOM     14  H7  UNL     1      58.870  -3.317  24.380  1.00  0.00     0.186 HD
ENDROOT
BRANCH   5  15
HETATM   15  C6  UNL     1      58.536  -9.101  26.322  1.00  0.00     0.083 C 
HETATM   16  C7  UNL     1      57.915  -9.514  27.637  1.00  0.00     0.027 C 
HETATM   17  C8  UNL     1      56.821 -10.539  27.294  1.00  0.00     0.027 C 
HETATM   18  C9  UNL     1      57.515 -11.819  26.971  1.00  0.00     0.083 C 
HETATM   19  C14 UNL     1      58.568 -11.582  25.933  1.00  0.00     0.027 C 
HETATM   20  C15 UNL     1      58.493 -10.216  25.304  1.00  0.00     0.027 C 
BRANCH  18  21
HETATM   21  N4  UNL     1      56.649 -12.912  26.690  1.00  0.00    -0.385 N 
HETATM   22  C10 UNL     1      55.446 -12.600  26.018  1.00  0.00     0.148 C 
HETATM   23  C11 UNL     1      54.222 -13.290  26.548  1.00  0.00     0.187 C 
HETATM   24  O1  UNL     1      54.110 -13.278  27.912  1.00  0.00    -0.385 OA
HETATM   25  C12 UNL     1      55.249 -13.589  28.598  1.00  0.00     0.212 C 
HETATM   26  C13 UNL     1      56.442 -13.862  27.710  1.00  0.00     0.084 C 
ENDBRANCH  18  21
ENDBRANCH   5  15
BRANCH   1  27
HETATM   27  N1  UNL     1      56.499  -4.022  24.155  1.00  0.00    -0.222 N 
ATOM     28  H1  UNL     1      56.077  -4.345  23.285  1.00  0.00     0.178 HD
BRANCH  27  29
HETATM   29  C2  UNL     1      55.943  -2.831  24.673  1.00  0.00     0.091 C 
HETATM   30  C1  UNL     1      56.740  -2.253  25.831  1.00  0.00     0.032 C 
HETATM   31  C3  UNL     1      55.719  -1.840  23.561  1.00  0.00     0.032 C 
ENDBRANCH  27  29
ENDBRANCH   1  27
BRANCH  11  32
HETATM   32  C18 UNL     1      61.751  -3.581  25.041  1.00  0.00     0.084 C 
HETATM   33  C19 UNL     1      63.148  -3.730  25.608  1.00  0.00     0.032 C 
HETATM   34  C20 UNL     1      61.901  -3.333  23.550  1.00  0.00     0.032 C 
ENDBRANCH  11  32
TORSDOF 5
ENDMDL
MODEL 3
REMARK VINA RESULT: -7.590900686      4.045      9.067
REMARK  5 active torsions:
REMARK  status: ('A' for Active; 'I' for Inactive)
REMARK    1  A    between atoms: C2_2  and  N1_4 
REMARK    2  A    between atoms: N1_4  and  C4_6 
REMARK    3  A    between atoms: N3_10  and  C6_12 
REMARK    4  A    between atoms: C9_15  and  N4_16 
REMARK    5  A    between atoms: N6_28  and  C18_29 
ROOT
HETATM    1  C4  UNL     1      57.886  -4.941  25.304  1.00  0.00     0.681 A 
HETATM    2  N2  UNL     1      59.134  -4.401  25.246  1.00  0.00    -0.175 N 
ATOM      3  H2  UNL     1      59.228  -3.402  25.063  1.00  0.00     0.186 HD
HETATM    4  C5  UNL     1      60.247  -5.132  25.422  1.00  0.00     0.148 A 
HETATM    5  N3  UNL     1      61.351  -4.528  25.346  1.00  0.00    -0.369 N 
ATOM      6  H3  UNL     1      61.272  -3.530  25.154  1.00  0.00     0.161 HD
HETATM    7  C16 UNL     1      60.060  -6.473  25.665  1.00  0.00     0.123 A 
HETATM    8  N5  UNL     1      60.938  -7.459  25.881  1.00  0.00    -0.346 N 
ATOM      9  H5  UNL     1      61.953  -7.358  25.897  1.00  0.00     0.167 HD
HETATM   10  C17 UNL     1      60.257  -8.612  26.073  1.00  0.00     0.185 A 
HETATM   11  N6  UNL     1      58.925  -8.374  25.982  1.00  0.00    -0.323 N 
HETATM   12  C21 UNL     1      58.818  -7.057  25.731  1.00  0.00     0.155 A 
HETATM   13  N7  UNL     1      57.738  -6.250  25.543  1.00  0.00    -0.174 N 
ATOM     14  H7  UNL     1      56.800  -6.650  25.585  1.00  0.00     0.186 HD
ENDROOT
BRANCH   5  15
HETATM   15  C6  UNL     1      62.681  -4.995  25.480  1.00  0.00     0.083 C 
HETATM   16  C7  UNL     1      63.537  -4.293  24.450  1.00  0.00     0.027 C 
HETATM   17  C8  UNL     1      64.016  -2.987  25.105  1.00  0.00     0.027 C 
HETATM   18  C9  UNL     1      65.094  -3.357  26.066  1.00  0.00     0.083 C 
HETATM   19  C14 UNL     1      64.612  -4.435  26.985  1.00  0.00     0.027 C 
HETATM   20  C15 UNL     1      63.131  -4.688  26.889  1.00  0.00     0.027 C 
BRANCH  18  21
HETATM   21  N4  UNL     1      65.709  -2.255  26.724  1.00  0.00    -0.385 N 
HETATM   22  C10 UNL     1      66.371  -1.323  25.896  1.00  0.00     0.148 C 
HETATM   23  C11 UNL     1      67.708  -0.857  26.401  1.00  0.00     0.187 C 
HETATM   24  O1  UNL     1      68.519  -1.858  26.862  1.00  0.00    -0.385 OA
HETATM   25  C12 UNL     1      67.919  -2.773  27.679  1.00  0.00     0.212 C 
HETATM   26  C13 UNL     1      66.443  -2.521  27.897  1.00  0.00     0.084 C 
ENDBRANCH  18  21
ENDBRANCH   5  15
BRANCH   1  27
HETATM   27  N1  UNL     1      56.859  -4.208  25.130  1.00  0.00    -0.222 N 
ATOM     28  H1  UNL     1      55.967  -4.680  25.278  1.00  0.00     0.178 HD
BRANCH  27  29
HETATM   29  C2  UNL     1      56.751  -2.847  24.766  1.00  0.00     0.091 C 
HETATM   30  C1  UNL     1      55.609  -2.573  23.801  1.00  0.00     0.032 C 
HETATM   31  C3  UNL     1      56.697  -1.986  26.001  1.00  0.00     0.032 C 
ENDBRANCH  27  29
ENDBRANCH   1  27
BRANCH  11  32
HETATM   32  C18 UNL     1      57.886  -9.357  26.130  1.00  0.00     0.084 C 
HETATM   33  C19 UNL     1      58.314 -10.620  25.414  1.00  0.00     0.032 C 
HETATM   34  C20 UNL     1      57.658  -9.727  27.586  1.00  0.00     0.032 C 
ENDBRANCH  11  32
TORSDOF 5
ENDMDL
MODEL 4
REMARK VINA RESULT: -7.414621733      2.706      4.232
REMARK  5 active torsions:
REMARK  status: ('A' for Active; 'I' for Inactive)
REMARK    1  A    between atoms: C2_2  and  N1_4 
REMARK    2  A    between atoms: N1_4  and  C4_6 
REMARK    3  A    between atoms: N3_10  and  C6_12 
REMARK    4  A    between atoms: C9_15  and  N4_16 
REMARK    5  A    between atoms: N6_28  and  C18_29 
ROOT
HETATM    1  C4  UNL     1      59.143  -7.424  25.546  1.00  0.00     0.681 A 
HETATM    2  N2  UNL     1      57.987  -8.070  25.860  1.00  0.00    -0.175 N 
ATOM      3  H2  UNL     1      57.099  -7.643  25.595  1.00  0.00     0.186 HD
HETATM    4  C5  UNL     1      57.969  -9.249  26.505  1.00  0.00     0.148 A 
HETATM    5  N3  UNL     1      56.841  -9.757  26.746  1.00  0.00    -0.369 N 
ATOM      6  H3  UNL     1      56.051  -9.202  26.417  1.00  0.00     0.161 HD
HETATM    7  C16 UNL     1      59.195  -9.777  26.837  1.00  0.00     0.123 A 
HETATM    8  N5  UNL     1      59.523 -10.909  27.468  1.00  0.00    -0.346 N 
ATOM      9  H5  UNL     1      58.866 -11.603  27.825  1.00  0.00     0.167 HD
HETATM   10  C17 UNL     1      60.871 -10.983  27.555  1.00  0.00     0.185 A 
HETATM   11  N6  UNL     1      61.424  -9.889  26.975  1.00  0.00    -0.323 N 
HETATM   12  C21 UNL     1      60.384  -9.156  26.538  1.00  0.00     0.155 A 
HETATM   13  N7  UNL     1      60.320  -7.965  25.884  1.00  0.00    -0.174 N 
ATOM     14  H7  UNL     1      61.183  -7.476  25.646  1.00  0.00     0.186 HD
ENDROOT
BRANCH   5  15
HETATM   15  C6  UNL     1      56.480 -10.963  27.393  1.00  0.00     0.083 C 
HETATM   16  C7  UNL     1      55.224 -10.714  28.196  1.00  0.00     0.027 C 
HETATM   17  C8  UNL     1      54.045 -10.968  27.243  1.00  0.00     0.027 C 
HETATM   18  C9  UNL     1      53.919 -12.447  27.099  1.00  0.00     0.083 C 
HETATM   19  C14 UNL     1      55.238 -13.037  26.712  1.00  0.00     0.027 C 
HETATM   20  C15 UNL     1      56.265 -12.007  26.323  1.00  0.00     0.027 C 
BRANCH  18  21
HETATM   21  N4  UNL     1      52.825 -12.876  26.295  1.00  0.00    -0.385 N 
HETATM   22  C10 UNL     1      51.571 -12.297  26.587  1.00  0.00     0.148 C 
HETATM   23  C11 UNL     1      50.413 -13.254  26.599  1.00  0.00     0.187 C 
HETATM   24  O1  UNL     1      50.650 -14.422  27.273  1.00  0.00    -0.385 OA
HETATM   25  C12 UNL     1      51.848 -15.021  27.007  1.00  0.00     0.212 C 
HETATM   26  C13 UNL     1      52.711 -14.255  26.029  1.00  0.00     0.084 C 
ENDBRANCH  18  21
ENDBRANCH   5  15
BRANCH   1  27
HETATM   27  N1  UNL     1      59.110  -6.307  24.934  1.00  0.00    -0.222 N 
ATOM     28  H1  UNL     1      59.625  -6.288  24.054  1.00  0.00     0.178 HD
BRANCH  27  29
HETATM   29  C2  UNL     1      58.477  -5.091  25.274  1.00  0.00     0.091 C 
HETATM   30  C1  UNL     1      59.424  -3.901  25.271  1.00  0.00     0.032 C 
HETATM   31  C3  UNL     1      57.265  -4.879  24.404  1.00  0.00     0.032 C 
ENDBRANCH  27  29
ENDBRANCH   1  27
BRANCH  11  32
HETATM   32  C18 UNL     1      62.833  -9.616  26.873  1.00  0.00     0.084 C 
HETATM   33  C19 UNL     1      63.395  -9.466  28.271  1.00  0.00     0.032 C 
HETATM   34  C20 UNL     1      63.587 -10.757  26.211  1.00  0.00     0.032 C 
ENDBRANCH  11  32
TORSDOF 5
ENDMDL
MODEL 5
REMARK VINA RESULT: -7.398160631      4.039      9.130
REMARK  5 active torsions:
REMARK  status: ('A' for Active; 'I' for Inactive)
REMARK    1  A    between atoms: C2_2  and  N1_4 
REMARK    2  A    between atoms: N1_4  and  C4_6 
REMARK    3  A    between atoms: N3_10  and  C6_12 
REMARK    4  A    between atoms: C9_15  and  N4_16 
REMARK    5  A    between atoms: N6_28  and  C18_29 
ROOT
HETATM    1  C4  UNL     1      58.403  -6.453  25.422  1.00  0.00     0.681 A 
HETATM    2  N2  UNL     1      59.742  -6.236  25.542  1.00  0.00    -0.175 N 
ATOM      3  H2  UNL     1      60.354  -7.034  25.712  1.00  0.00     0.186 HD
HETATM    4  C5  UNL     1      60.288  -5.013  25.445  1.00  0.00     0.148 A 
HETATM    5  N3  UNL     1      61.539  -4.928  25.574  1.00  0.00    -0.369 N 
ATOM      6  H3  UNL     1      62.006  -5.819  25.742  1.00  0.00     0.161 HD
HETATM    7  C16 UNL     1      59.414  -3.975  25.216  1.00  0.00     0.123 A 
HETATM    8  N5  UNL     1      59.626  -2.662  25.071  1.00  0.00    -0.346 N 
ATOM      9  H5  UNL     1      60.534  -2.199  25.111  1.00  0.00     0.167 HD
HETATM   10  C17 UNL     1      58.438  -2.051  24.861  1.00  0.00     0.185 A 
HETATM   11  N6  UNL     1      57.444  -2.974  24.870  1.00  0.00    -0.323 N 
HETATM   12  C21 UNL     1      58.057  -4.151  25.089  1.00  0.00     0.155 A 
HETATM   13  N7  UNL     1      57.580  -5.421  25.199  1.00  0.00    -0.174 N 
ATOM     14  H7  UNL     1      56.577  -5.589  25.111  1.00  0.00     0.186 HD
ENDROOT
BRANCH   5  15
HETATM   15  C6  UNL     1      62.409  -3.812  25.526  1.00  0.00     0.083 C 
HETATM   16  C7  UNL     1      63.644  -4.137  26.334  1.00  0.00     0.027 C 
HETATM   17  C8  UNL     1      64.618  -4.835  25.372  1.00  0.00     0.027 C 
HETATM   18  C9  UNL     1      65.202  -3.772  24.504  1.00  0.00     0.083 C 
HETATM   19  C14 UNL     1      64.108  -2.959  23.886  1.00  0.00     0.027 C 
HETATM   20  C15 UNL     1      62.738  -3.554  24.075  1.00  0.00     0.027 C 
BRANCH  18  21
HETATM   21  N4  UNL     1      66.187  -4.227  23.584  1.00  0.00    -0.385 N 
HETATM   22  C10 UNL     1      67.186  -5.077  24.108  1.00  0.00     0.148 C 
HETATM   23  C11 UNL     1      68.584  -4.779  23.646  1.00  0.00     0.187 C 
HETATM   24  O1  UNL     1      68.920  -3.453  23.674  1.00  0.00    -0.385 OA
HETATM   25  C12 UNL     1      67.985  -2.599  23.162  1.00  0.00     0.212 C 
HETATM   26  C13 UNL     1      66.726  -3.287  22.683  1.00  0.00     0.084 C 
ENDBRANCH  18  21
ENDBRANCH   5  15
BRANCH   1  27
HETATM   27  N1  UNL     1      57.931  -7.632  25.522  1.00  0.00    -0.222 N 
ATOM     28  H1  UNL     1      57.148  -7.831  24.900  1.00  0.00     0.178 HD
BRANCH  27  29
HETATM   29  C2  UNL     1      58.312  -8.708  26.353  1.00  0.00     0.091 C 
HETATM   30  C1  UNL     1      57.209  -9.736  26.547  1.00  0.00     0.032 C 
HETATM   31  C3  UNL     1      59.599  -9.313  25.855  1.00  0.00     0.032 C 
ENDBRANCH  27  29
ENDBRANCH   1  27
BRANCH  11  32
HETATM   32  C18 UNL     1      56.045  -2.702  24.680  1.00  0.00     0.084 C 
HETATM   33  C19 UNL     1      55.904  -1.333  24.047  1.00  0.00     0.032 C 
HETATM   34  C20 UNL     1      55.395  -3.697  23.735  1.00  0.00     0.032 C 
ENDBRANCH  11  32
TORSDOF 5
ENDMDL
