MODEL 1
REMARK VINA RESULT: -7.571983189      0.000      0.000
REMARK  6 active torsions:
REMARK  status: ('A' for Active; 'I' for Inactive)
REMARK    1  A    between atoms: C2_2  and  C3_3 
REMARK    2  A    between atoms: C3_3  and  N1_4 
REMARK    3  A    between atoms: C12_20  and  C13_21 
REMARK       I    between atoms: C13_21  and  N5_23 
REMARK    4  A    between atoms: N5_23  and  C14_25 
REMARK    5  A    between atoms: C14_25  and  C15_26 
REMARK    6  A    between atoms: C18_31  and  O6_33 
ROOT
HETATM    1  N1  UNL     1      -4.612 -13.448   9.053  1.00  0.00    -0.308 N 
HETATM    2  C4  UNL     1      -5.877 -12.768   8.717  1.00  0.00     0.328 C 
HETATM    3  O1  UNL     1      -6.234 -11.627   9.090  1.00  0.00    -0.247 OA
HETATM    4  N2  UNL     1      -6.622 -13.667   7.880  1.00  0.00    -0.272 N 
HETATM    5  C5  UNL     1      -7.942 -13.463   7.290  1.00  0.00     0.164 C 
HETATM    6  C6  UNL     1      -5.786 -14.810   7.757  1.00  0.00     0.264 C 
HETATM    7  O2  UNL     1      -6.049 -15.994   7.606  1.00  0.00    -0.270 OA
HETATM    8  C7  UNL     1      -4.389 -14.189   7.864  1.00  0.00     0.186 A 
HETATM    9  C8  UNL     1      -4.154 -13.374   6.634  1.00  0.00     0.038 A 
HETATM   10  C9  UNL     1      -3.124 -14.209   6.322  1.00  0.00     0.059 A 
HETATM   11  N3  UNL     1      -2.563 -13.809   5.141  1.00  0.00    -0.355 N 
ATOM     12  H3  UNL     1      -1.775 -14.241   4.658  1.00  0.00     0.166 HD
HETATM   13  C10 UNL     1      -3.265 -12.722   4.746  1.00  0.00     0.060 A 
HETATM   14  C11 UNL     1      -4.263 -12.424   5.654  1.00  0.00     0.071 A 
HETATM   15  N4  UNL     1      -5.131 -11.308   5.433  1.00  0.00    -0.349 N 
ATOM     16  H4  UNL     1      -5.856 -11.119   6.126  1.00  0.00     0.166 HD
HETATM   17  C12 UNL     1      -5.048 -10.521   4.401  1.00  0.00     0.101 A 
HETATM   18  C16 UNL     1      -4.006 -10.816   3.435  1.00  0.00     0.037 A 
HETATM   19  C17 UNL     1      -3.158 -11.849   3.584  1.00  0.00     0.034 A 
HETATM   20  C18 UNL     1      -3.291 -15.051   7.558  1.00  0.00     0.138 A 
HETATM   21  C19 UNL     1      -1.973 -14.999   8.280  1.00  0.00     0.057 C 
ENDROOT
BRANCH   1  22
HETATM   22  C3  UNL     1      -4.010 -13.194  10.311  1.00  0.00     0.129 C 
BRANCH  22  23
HETATM   23  C2  UNL     1      -4.433 -14.025  11.473  1.00  0.00     0.015 C 
HETATM   24  C1  UNL     1      -4.254 -15.473  11.238  1.00  0.00     0.006 C 
ENDBRANCH  22  23
ENDBRANCH   1  22
BRANCH  20  25
HETATM   25  O6  UNL     1      -3.720 -16.357   7.252  1.00  0.00    -0.376 OA
HETATM   26  C20 UNL     1      -2.865 -17.330   7.700  1.00  0.00     0.203 C 
ENDBRANCH  20  25
BRANCH  17  27
HETATM   27  C13 UNL     1      -5.983  -9.397   4.255  1.00  0.00     0.268 C 
HETATM   28  O3  UNL     1      -6.549  -9.154   3.160  1.00  0.00    -0.266 OA
HETATM   29  N5  UNL     1      -6.258  -8.568   5.357  1.00  0.00    -0.346 N 
ATOM     30  H5  UNL     1      -5.804  -8.750   6.251  1.00  0.00     0.163 HD
BRANCH  29  31
HETATM   31  C14 UNL     1      -7.180  -7.460   5.233  1.00  0.00     0.236 C 
BRANCH  31  32
HETATM   32  C15 UNL     1      -7.825  -7.063   6.492  1.00  0.00     0.191 C 
HETATM   33  O4  UNL     1      -7.811  -5.896   6.953  1.00  0.00    -0.647 OA
HETATM   34  O5  UNL     1      -8.509  -8.010   7.257  1.00  0.00    -0.647 OA
ENDBRANCH  31  32
ENDBRANCH  29  31
ENDBRANCH  17  27
TORSDOF 6
ENDMDL
MODEL 2
REMARK VINA RESULT: -7.054154400      1.221      1.439
REMARK  6 active torsions:
REMARK  status: ('A' for Active; 'I' for Inactive)
REMARK    1  A    between atoms: C2_2  and  C3_3 
REMARK    2  A    between atoms: C3_3  and  N1_4 
REMARK    3  A    between atoms: C12_20  and  C13_21 
REMARK       I    between atoms: C13_21  and  N5_23 
REMARK    4  A    between atoms: N5_23  and  C14_25 
REMARK    5  A    between atoms: C14_25  and  C15_26 
REMARK    6  A    between atoms: C18_31  and  O6_33 
ROOT
HETATM    1  N1  UNL     1      -4.940 -13.380   8.741  1.00  0.00    -0.308 N 
HETATM    2  C4  UNL     1      -6.123 -12.777   8.097  1.00  0.00     0.328 C 
HETATM    3  O1  UNL     1      -6.508 -11.591   8.203  1.00  0.00    -0.247 OA
HETATM    4  N2  UNL     1      -6.747 -13.816   7.325  1.00  0.00    -0.272 N 
HETATM    5  C5  UNL     1      -7.955 -13.728   6.508  1.00  0.00     0.164 C 
HETATM    6  C6  UNL     1      -5.927 -14.957   7.538  1.00  0.00     0.264 C 
HETATM    7  O2  UNL     1      -6.190 -16.151   7.558  1.00  0.00    -0.270 OA
HETATM    8  C7  UNL     1      -4.551 -14.319   7.752  1.00  0.00     0.186 A 
HETATM    9  C8  UNL     1      -4.110 -13.733   6.449  1.00  0.00     0.038 A 
HETATM   10  C9  UNL     1      -3.063 -14.603   6.454  1.00  0.00     0.059 A 
HETATM   11  N3  UNL     1      -2.316 -14.415   5.325  1.00  0.00    -0.355 N 
ATOM     12  H3  UNL     1      -1.473 -14.922   5.054  1.00  0.00     0.166 HD
HETATM   13  C10 UNL     1      -2.924 -13.420   4.639  1.00  0.00     0.060 A 
HETATM   14  C11 UNL     1      -4.045 -12.972   5.312  1.00  0.00     0.071 A 
HETATM   15  N4  UNL     1      -4.843 -11.918   4.766  1.00  0.00    -0.349 N 
ATOM     16  H4  UNL     1      -5.663 -11.614   5.292  1.00  0.00     0.166 HD
HETATM   17  C12 UNL     1      -4.584 -11.326   3.637  1.00  0.00     0.101 A 
HETATM   18  C16 UNL     1      -3.411 -11.781   2.914  1.00  0.00     0.037 A 
HETATM   19  C17 UNL     1      -2.620 -12.766   3.373  1.00  0.00     0.034 A 
HETATM   20  C18 UNL     1      -3.438 -15.215   7.777  1.00  0.00     0.138 A 
HETATM   21  C19 UNL     1      -2.247 -15.027   8.677  1.00  0.00     0.057 C 
ENDROOT
BRANCH   1  22
HETATM   22  C3  UNL     1      -4.535 -12.903  10.014  1.00  0.00     0.129 C 
BRANCH  22  23
HETATM   23  C2  UNL     1      -4.506 -13.868  11.149  1.00  0.00     0.015 C 
HETATM   24  C1  UNL     1      -5.703 -14.731  11.199  1.00  0.00     0.006 C 
ENDBRANCH  22  23
ENDBRANCH   1  22
BRANCH  20  25
HETATM   25  O6  UNL     1      -3.843 -16.556   7.643  1.00  0.00    -0.376 OA
HETATM   26  C20 UNL     1      -2.975 -17.447   8.220  1.00  0.00     0.203 C 
ENDBRANCH  20  25
BRANCH  17  27
HETATM   27  C13 UNL     1      -5.460 -10.251   3.151  1.00  0.00     0.268 C 
HETATM   28  O3  UNL     1      -5.202  -9.626   2.092  1.00  0.00    -0.266 OA
HETATM   29  N5  UNL     1      -6.613  -9.906   3.877  1.00  0.00    -0.346 N 
ATOM     30  H5  UNL     1      -6.834 -10.402   4.740  1.00  0.00     0.163 HD
BRANCH  29  31
HETATM   31  C14 UNL     1      -7.490  -8.854   3.411  1.00  0.00     0.236 C 
BRANCH  31  32
HETATM   32  C15 UNL     1      -7.022  -7.494   3.714  1.00  0.00     0.191 C 
HETATM   33  O4  UNL     1      -6.577  -6.695   2.856  1.00  0.00    -0.647 OA
HETATM   34  O5  UNL     1      -7.057  -7.019   5.027  1.00  0.00    -0.647 OA
ENDBRANCH  31  32
ENDBRANCH  29  31
ENDBRANCH  17  27
TORSDOF 6
ENDMDL
MODEL 3
REMARK VINA RESULT: -6.936978216      2.231      4.688
REMARK  6 active torsions:
REMARK  status: ('A' for Active; 'I' for Inactive)
REMARK    1  A    between atoms: C2_2  and  C3_3 
REMARK    2  A    between atoms: C3_3  and  N1_4 
REMARK    3  A    between atoms: C12_20  and  C13_21 
REMARK       I    between atoms: C13_21  and  N5_23 
REMARK    4  A    between atoms: N5_23  and  C14_25 
REMARK    5  A    between atoms: C14_25  and  C15_26 
REMARK    6  A    between atoms: C18_31  and  O6_33 
ROOT
HETATM    1  N1  UNL     1      -5.061 -14.237   7.149  1.00  0.00    -0.308 N 
HETATM    2  C4  UNL     1      -4.360 -13.696   5.969  1.00  0.00     0.328 C 
HETATM    3  O1  UNL     1      -4.606 -13.955   4.769  1.00  0.00    -0.247 OA
HETATM    4  N2  UNL     1      -3.339 -12.813   6.462  1.00  0.00    -0.272 N 
HETATM    5  C5  UNL     1      -2.370 -12.038   5.693  1.00  0.00     0.164 C 
HETATM    6  C6  UNL     1      -3.478 -12.867   7.876  1.00  0.00     0.264 C 
HETATM    7  O2  UNL     1      -2.659 -12.744   8.776  1.00  0.00    -0.270 OA
HETATM    8  C7  UNL     1      -4.979 -13.131   8.033  1.00  0.00     0.186 A 
HETATM    9  C8  UNL     1      -5.709 -11.903   7.595  1.00  0.00     0.038 A 
HETATM   10  C9  UNL     1      -6.189 -11.779   8.864  1.00  0.00     0.059 A 
HETATM   11  N3  UNL     1      -6.980 -10.668   8.939  1.00  0.00    -0.355 N 
ATOM     12  H3  UNL     1      -7.475 -10.320   9.761  1.00  0.00     0.166 HD
HETATM   13  C10 UNL     1      -6.974 -10.122   7.701  1.00  0.00     0.060 A 
HETATM   14  C11 UNL     1      -6.192 -10.868   6.839  1.00  0.00     0.071 A 
HETATM   15  N4  UNL     1      -6.043 -10.472   5.473  1.00  0.00    -0.349 N 
ATOM     16  H4  UNL     1      -5.458 -11.048   4.866  1.00  0.00     0.166 HD
HETATM   17  C12 UNL     1      -6.611  -9.420   4.958  1.00  0.00     0.101 A 
HETATM   18  C16 UNL     1      -7.437  -8.623   5.846  1.00  0.00     0.037 A 
HETATM   19  C17 UNL     1      -7.617  -8.942   7.141  1.00  0.00     0.034 A 
HETATM   20  C18 UNL     1      -5.503 -13.024   9.359  1.00  0.00     0.138 A 
HETATM   21  C19 UNL     1      -6.590 -13.917   9.893  1.00  0.00     0.057 C 
ENDROOT
BRANCH   1  22
HETATM   22  C3  UNL     1      -5.591 -15.551   7.088  1.00  0.00     0.129 C 
BRANCH  22  23
HETATM   23  C2  UNL     1      -7.068 -15.718   7.191  1.00  0.00     0.015 C 
HETATM   24  C1  UNL     1      -7.816 -14.659   6.483  1.00  0.00     0.006 C 
ENDBRANCH  22  23
ENDBRANCH   1  22
BRANCH  20  25
HETATM   25  O6  UNL     1      -4.495 -12.732  10.297  1.00  0.00    -0.376 OA
HETATM   26  C20 UNL     1      -4.482 -13.589  11.368  1.00  0.00     0.203 C 
ENDBRANCH  20  25
BRANCH  17  27
HETATM   27  C13 UNL     1      -6.402  -9.089   3.542  1.00  0.00     0.268 C 
HETATM   28  O3  UNL     1      -7.085  -8.202   2.971  1.00  0.00    -0.266 OA
HETATM   29  N5  UNL     1      -5.421  -9.770   2.802  1.00  0.00    -0.346 N 
ATOM     30  H5  UNL     1      -4.862 -10.495   3.250  1.00  0.00     0.163 HD
BRANCH  29  31
HETATM   31  C14 UNL     1      -5.199  -9.453   1.408  1.00  0.00     0.236 C 
BRANCH  31  32
HETATM   32  C15 UNL     1      -4.018  -8.614   1.156  1.00  0.00     0.191 C 
HETATM   33  O4  UNL     1      -2.852  -9.059   1.027  1.00  0.00    -0.647 OA
HETATM   34  O5  UNL     1      -4.155  -7.229   1.047  1.00  0.00    -0.647 OA
ENDBRANCH  31  32
ENDBRANCH  29  31
ENDBRANCH  17  27
TORSDOF 6
ENDMDL
MODEL 4
REMARK VINA RESULT: -6.862437962      2.628      6.589
REMARK  6 active torsions:
REMARK  status: ('A' for Active; 'I' for Inactive)
REMARK    1  A    between atoms: C2_2  and  C3_3 
REMARK    2  A    between atoms: C3_3  and  N1_4 
REMARK    3  A    between atoms: C12_20  and  C13_21 
REMARK       I    between atoms: C13_21  and  N5_23 
REMARK    4  A    between atoms: N5_23  and  C14_25 
REMARK    5  A    between atoms: C14_25  and  C15_26 
REMARK    6  A    between atoms: C18_31  and  O6_33 
ROOT
HETATM    1  N1  UNL     1      -6.045 -14.490   7.457  1.00  0.00    -0.308 N 
HETATM    2  C4  UNL     1      -4.741 -15.162   7.616  1.00  0.00     0.328 C 
HETATM    3  O1  UNL     1      -4.433 -16.302   7.200  1.00  0.00    -0.247 OA
HETATM    4  N2  UNL     1      -3.893 -14.255   8.339  1.00  0.00    -0.272 N 
HETATM    5  C5  UNL     1      -2.508 -14.454   8.754  1.00  0.00     0.164 C 
HETATM    6  C6  UNL     1      -4.710 -13.115   8.569  1.00  0.00     0.264 C 
HETATM    7  O2  UNL     1      -4.723 -12.297   9.479  1.00  0.00    -0.270 OA
HETATM    8  C7  UNL     1      -5.632 -13.137   7.346  1.00  0.00     0.186 A 
HETATM    9  C8  UNL     1      -4.806 -12.815   6.143  1.00  0.00     0.038 A 
HETATM   10  C9  UNL     1      -5.563 -11.697   5.967  1.00  0.00     0.059 A 
HETATM   11  N3  UNL     1      -5.110 -11.014   4.873  1.00  0.00    -0.355 N 
ATOM     12  H3  UNL     1      -5.479 -10.141   4.498  1.00  0.00     0.166 HD
HETATM   13  C10 UNL     1      -4.072 -11.735   4.389  1.00  0.00     0.060 A 
HETATM   14  C11 UNL     1      -3.857 -12.864   5.157  1.00  0.00     0.071 A 
HETATM   15  N4  UNL     1      -2.804 -13.773   4.824  1.00  0.00    -0.349 N 
ATOM     16  H4  UNL     1      -2.675 -14.596   5.414  1.00  0.00     0.166 HD
HETATM   17  C12 UNL     1      -2.001 -13.612   3.813  1.00  0.00     0.101 A 
HETATM   18  C16 UNL     1      -2.211 -12.433   2.993  1.00  0.00     0.037 A 
HETATM   19  C17 UNL     1      -3.182 -11.540   3.252  1.00  0.00     0.034 A 
HETATM   20  C18 UNL     1      -6.449 -11.981   7.150  1.00  0.00     0.138 A 
HETATM   21  C19 UNL     1      -7.853 -12.043   6.615  1.00  0.00     0.057 C 
ENDROOT
BRANCH   1  22
HETATM   22  C3  UNL     1      -7.224 -15.278   7.434  1.00  0.00     0.129 C 
BRANCH  22  23
HETATM   23  C2  UNL     1      -7.928 -15.526   8.723  1.00  0.00     0.015 C 
HETATM   24  C1  UNL     1      -8.945 -14.500   9.028  1.00  0.00     0.006 C 
ENDBRANCH  22  23
ENDBRANCH   1  22
BRANCH  20  25
HETATM   25  O6  UNL     1      -6.274 -11.037   8.179  1.00  0.00    -0.376 OA
HETATM   26  C20 UNL     1      -7.170 -10.001   8.126  1.00  0.00     0.203 C 
ENDBRANCH  20  25
BRANCH  17  27
HETATM   27  C13 UNL     1      -0.946 -14.599   3.546  1.00  0.00     0.268 C 
HETATM   28  O3  UNL     1       0.032 -14.326   2.804  1.00  0.00    -0.266 OA
HETATM   29  N5  UNL     1      -1.019 -15.876   4.127  1.00  0.00    -0.346 N 
ATOM     30  H5  UNL     1      -1.807 -16.113   4.728  1.00  0.00     0.163 HD
BRANCH  29  31
HETATM   31  C14 UNL     1       0.014 -16.858   3.879  1.00  0.00     0.236 C 
BRANCH  31  32
HETATM   32  C15 UNL     1       0.946 -17.055   4.998  1.00  0.00     0.191 C 
HETATM   33  O4  UNL     1       2.099 -16.563   5.049  1.00  0.00    -0.647 OA
HETATM   34  O5  UNL     1       0.568 -17.832   6.095  1.00  0.00    -0.647 OA
ENDBRANCH  31  32
ENDBRANCH  29  31
ENDBRANCH  17  27
TORSDOF 6
ENDMDL
MODEL 5
REMARK VINA RESULT: -6.764045601      2.276      4.584
REMARK  6 active torsions:
REMARK  status: ('A' for Active; 'I' for Inactive)
REMARK    1  A    between atoms: C2_2  and  C3_3 
REMARK    2  A    between atoms: C3_3  and  N1_4 
REMARK    3  A    between atoms: C12_20  and  C13_21 
REMARK       I    between atoms: C13_21  and  N5_23 
REMARK    4  A    between atoms: N5_23  and  C14_25 
REMARK    5  A    between atoms: C14_25  and  C15_26 
REMARK    6  A    between atoms: C18_31  and  O6_33 
ROOT
HETATM    1  N1  UNL     1      -4.335 -14.418   7.235  1.00  0.00    -0.308 N 
HETATM    2  C4  UNL     1      -3.623 -13.756   6.125  1.00  0.00     0.328 C 
HETATM    3  O1  UNL     1      -3.690 -14.055   4.911  1.00  0.00    -0.247 OA
HETATM    4  N2  UNL     1      -2.839 -12.702   6.706  1.00  0.00    -0.272 N 
HETATM    5  C5  UNL     1      -1.952 -11.761   6.027  1.00  0.00     0.164 C 
HETATM    6  C6  UNL     1      -3.114 -12.781   8.098  1.00  0.00     0.264 C 
HETATM    7  O2  UNL     1      -2.431 -12.511   9.076  1.00  0.00    -0.270 OA
HETATM    8  C7  UNL     1      -4.550 -13.317   8.103  1.00  0.00     0.186 A 
HETATM    9  C8  UNL     1      -5.441 -12.243   7.569  1.00  0.00     0.038 A 
HETATM   10  C9  UNL     1      -6.067 -12.211   8.778  1.00  0.00     0.059 A 
HETATM   11  N3  UNL     1      -7.051 -11.263   8.750  1.00  0.00    -0.355 N 
ATOM     12  H3  UNL     1      -7.685 -11.013   9.510  1.00  0.00     0.166 HD
HETATM   13  C10 UNL     1      -7.014 -10.725   7.510  1.00  0.00     0.060 A 
HETATM   14  C11 UNL     1      -6.023 -11.314   6.748  1.00  0.00     0.071 A 
HETATM   15  N4  UNL     1      -5.805 -10.895   5.397  1.00  0.00    -0.349 N 
ATOM     16  H4  UNL     1      -5.064 -11.353   4.866  1.00  0.00     0.166 HD
HETATM   17  C12 UNL     1      -6.498  -9.965   4.808  1.00  0.00     0.101 A 
HETATM   18  C16 UNL     1      -7.544  -9.334   5.590  1.00  0.00     0.037 A 
HETATM   19  C17 UNL     1      -7.800  -9.682   6.864  1.00  0.00     0.034 A 
HETATM   20  C18 UNL     1      -5.221 -13.309   9.365  1.00  0.00     0.138 A 
HETATM   21  C19 UNL     1      -6.177 -14.386   9.799  1.00  0.00     0.057 C 
ENDROOT
BRANCH   1  22
HETATM   22  C3  UNL     1      -4.606 -15.807   7.144  1.00  0.00     0.129 C 
BRANCH  22  23
HETATM   23  C2  UNL     1      -3.550 -16.760   7.587  1.00  0.00     0.015 C 
HETATM   24  C1  UNL     1      -3.073 -16.490   8.958  1.00  0.00     0.006 C 
ENDBRANCH  22  23
ENDBRANCH   1  22
BRANCH  20  25
HETATM   25  O6  UNL     1      -4.388 -12.838  10.398  1.00  0.00    -0.376 OA
HETATM   26  C20 UNL     1      -4.354 -13.667  11.490  1.00  0.00     0.203 C 
ENDBRANCH  20  25
BRANCH  17  27
HETATM   27  C13 UNL     1      -6.205  -9.599   3.415  1.00  0.00     0.268 C 
HETATM   28  O3  UNL     1      -6.869  -8.716   2.818  1.00  0.00    -0.266 OA
HETATM   29  N5  UNL     1      -5.162 -10.243   2.727  1.00  0.00    -0.346 N 
ATOM     30  H5  UNL     1      -4.617 -10.965   3.197  1.00  0.00     0.163 HD
BRANCH  29  31
HETATM   31  C14 UNL     1      -4.856  -9.892   1.358  1.00  0.00     0.236 C 
BRANCH  31  32
HETATM   32  C15 UNL     1      -3.657  -9.057   1.197  1.00  0.00     0.191 C 
HETATM   33  O4  UNL     1      -2.482  -9.487   1.295  1.00  0.00    -0.647 OA
HETATM   34  O5  UNL     1      -3.785  -7.695   0.918  1.00  0.00    -0.647 OA
ENDBRANCH  31  32
ENDBRANCH  29  31
ENDBRANCH  17  27
TORSDOF 6
ENDMDL
