MODEL 1
REMARK VINA RESULT: -7.283844922      0.000      0.000
REMARK  5 active torsions:
REMARK  status: ('A' for Active; 'I' for Inactive)
REMARK    1  A    between atoms: C2_2  and  C3_3 
REMARK    2  A    between atoms: C3_3  and  N1_4 
REMARK       I    between atoms: N1_4  and  C4_6 
REMARK    3  A    between atoms: C4_6  and  C5_8 
REMARK    4  A    between atoms: C10_13  and  N2_14 
REMARK       I    between atoms: N2_14  and  C11_16 
REMARK    5  A    between atoms: C11_16  and  C12_18 
REMARK       I    between atoms: N3_25  and  C19_26 
ROOT
HETATM    1  C5  UNL     1      -7.162 -12.518   7.512  1.00  0.00     0.104 C 
HETATM    2  C6  UNL     1      -6.556 -13.406   8.549  1.00  0.00     0.025 C 
HETATM    3  C7  UNL     1      -7.263 -14.707   8.063  1.00  0.00     0.015 C 
HETATM    4  C8  UNL     1      -6.625 -14.656   6.676  1.00  0.00     0.033 C 
HETATM    5  C9  UNL     1      -5.177 -14.818   7.110  1.00  0.00     0.133 C 
HETATM    6  C10 UNL     1      -5.139 -13.841   8.294  1.00  0.00     0.113 C 
HETATM    7  N3  UNL     1      -4.386 -14.338   6.013  1.00  0.00    -0.238 N 
HETATM    8  C19 UNL     1      -3.271 -14.917   5.436  1.00  0.00     0.229 C 
HETATM    9  C20 UNL     1      -2.568 -14.256   4.279  1.00  0.00     0.118 C 
HETATM   10  O3  UNL     1      -2.780 -16.006   5.827  1.00  0.00    -0.273 OA
HETATM   11  S1  UNL     1      -5.179 -12.860   5.597  1.00  0.00     0.240 S 
HETATM   12  O4  UNL     1      -5.267 -12.698   4.099  1.00  0.00    -0.205 OA
HETATM   13  O5  UNL     1      -4.436 -11.702   6.122  1.00  0.00    -0.205 OA
HETATM   14  C21 UNL     1      -6.762 -13.175   6.258  1.00  0.00     0.149 C 
ENDROOT
BRANCH   6  15
HETATM   15  N2  UNL     1      -4.693 -14.566   9.482  1.00  0.00    -0.354 N 
HETATM   16  C11 UNL     1      -3.374 -14.484  10.000  1.00  0.00     0.223 C 
HETATM   17  O2  UNL     1      -2.554 -13.739   9.389  1.00  0.00    -0.273 OA
ATOM     18  H2  UNL     1      -5.365 -15.162   9.964  1.00  0.00     0.163 HD
BRANCH  16  19
HETATM   19  C12 UNL     1      -2.939 -15.210  11.185  1.00  0.00     0.086 C 
HETATM   20  C13 UNL     1      -1.526 -15.791  11.153  1.00  0.00    -0.000 C 
HETATM   21  C14 UNL     1      -1.506 -16.635   9.935  1.00  0.00     0.010 C 
HETATM   22  C18 UNL     1      -2.087 -16.763  12.202  1.00  0.00     0.011 C 
HETATM   23  C15 UNL     1      -2.887 -17.306  10.076  1.00  0.00    -0.013 C 
HETATM   24  C16 UNL     1      -2.667 -18.796  10.218  1.00  0.00     0.010 C 
HETATM   25  C17 UNL     1      -3.348 -16.656  11.322  1.00  0.00     0.003 C 
ENDBRANCH  16  19
ENDBRANCH   6  15
BRANCH   1  26
HETATM   26  C4  UNL     1      -7.004 -11.088   7.667  1.00  0.00     0.223 C 
HETATM   27  N1  UNL     1      -7.313 -10.212   6.631  1.00  0.00    -0.361 N 
ATOM     28  H1  UNL     1      -7.665 -10.670   5.791  1.00  0.00     0.162 HD
HETATM   29  O1  UNL     1      -6.580 -10.672   8.757  1.00  0.00    -0.273 OA
BRANCH  27  30
HETATM   30  C3  UNL     1      -7.227  -8.805   6.530  1.00  0.00     0.122 C 
BRANCH  30  31
HETATM   31  C2  UNL     1      -8.222  -7.934   7.172  1.00  0.00     0.015 C 
HETATM   32  C1  UNL     1      -8.049  -6.449   7.122  1.00  0.00     0.006 C 
ENDBRANCH  30  31
ENDBRANCH  27  30
ENDBRANCH   1  26
TORSDOF 5
ENDMDL
MODEL 2
REMARK VINA RESULT: -7.215426757      2.639      6.638
REMARK  5 active torsions:
REMARK  status: ('A' for Active; 'I' for Inactive)
REMARK    1  A    between atoms: C2_2  and  C3_3 
REMARK    2  A    between atoms: C3_3  and  N1_4 
REMARK       I    between atoms: N1_4  and  C4_6 
REMARK    3  A    between atoms: C4_6  and  C5_8 
REMARK    4  A    between atoms: C10_13  and  N2_14 
REMARK       I    between atoms: N2_14  and  C11_16 
REMARK    5  A    between atoms: C11_16  and  C12_18 
REMARK       I    between atoms: N3_25  and  C19_26 
ROOT
HETATM    1  C5  UNL     1      -5.587 -13.732   9.827  1.00  0.00     0.104 C 
HETATM    2  C6  UNL     1      -5.627 -12.400   9.152  1.00  0.00     0.025 C 
HETATM    3  C7  UNL     1      -4.209 -11.953   9.620  1.00  0.00     0.015 C 
HETATM    4  C8  UNL     1      -3.502 -13.111   8.919  1.00  0.00     0.033 C 
HETATM    5  C9  UNL     1      -3.869 -12.742   7.491  1.00  0.00     0.133 C 
HETATM    6  C10 UNL     1      -5.357 -12.407   7.673  1.00  0.00     0.113 C 
HETATM    7  N3  UNL     1      -3.695 -13.941   6.722  1.00  0.00    -0.238 N 
HETATM    8  C19 UNL     1      -3.070 -14.098   5.499  1.00  0.00     0.229 C 
HETATM    9  C20 UNL     1      -2.986 -15.450   4.842  1.00  0.00     0.118 C 
HETATM   10  O3  UNL     1      -2.541 -13.147   4.869  1.00  0.00    -0.273 OA
HETATM   11  S1  UNL     1      -4.463 -15.134   7.708  1.00  0.00     0.240 S 
HETATM   12  O4  UNL     1      -3.659 -16.411   7.735  1.00  0.00    -0.205 OA
HETATM   13  O5  UNL     1      -5.799 -15.466   7.185  1.00  0.00    -0.205 OA
HETATM   14  C21 UNL     1      -4.374 -14.340   9.259  1.00  0.00     0.149 C 
ENDROOT
BRANCH   6  15
HETATM   15  N2  UNL     1      -5.591 -11.048   7.189  1.00  0.00    -0.354 N 
HETATM   16  C11 UNL     1      -6.825 -10.614   6.638  1.00  0.00     0.223 C 
HETATM   17  O2  UNL     1      -7.762 -11.463   6.570  1.00  0.00    -0.273 OA
ATOM     18  H2  UNL     1      -4.827 -10.376   7.250  1.00  0.00     0.163 HD
BRANCH  16  19
HETATM   19  C12 UNL     1      -7.049  -9.258   6.158  1.00  0.00     0.086 C 
HETATM   20  C13 UNL     1      -8.020  -9.095   4.989  1.00  0.00    -0.000 C 
HETATM   21  C14 UNL     1      -7.476  -9.983   3.936  1.00  0.00     0.010 C 
HETATM   22  C18 UNL     1      -7.237  -7.795   4.745  1.00  0.00     0.011 C 
HETATM   23  C15 UNL     1      -5.977  -9.646   4.079  1.00  0.00    -0.013 C 
HETATM   24  C16 UNL     1      -5.512  -9.038   2.773  1.00  0.00     0.010 C 
HETATM   25  C17 UNL     1      -6.050  -8.673   5.190  1.00  0.00     0.003 C 
ENDBRANCH  16  19
ENDBRANCH   6  15
BRANCH   1  26
HETATM   26  C4  UNL     1      -6.816 -14.493   9.902  1.00  0.00     0.223 C 
HETATM   27  N1  UNL     1      -7.960 -14.081   9.226  1.00  0.00    -0.361 N 
ATOM     28  H1  UNL     1      -7.836 -13.229   8.679  1.00  0.00     0.162 HD
HETATM   29  O1  UNL     1      -6.813 -15.523  10.595  1.00  0.00    -0.273 OA
BRANCH  27  30
HETATM   30  C3  UNL     1      -9.262 -14.628   9.158  1.00  0.00     0.122 C 
BRANCH  30  31
HETATM   31  C2  UNL     1     -10.350 -14.107   9.998  1.00  0.00     0.015 C 
HETATM   32  C1  UNL     1     -10.024 -13.358  11.250  1.00  0.00     0.006 C 
ENDBRANCH  30  31
ENDBRANCH  27  30
ENDBRANCH   1  26
TORSDOF 5
ENDMDL
MODEL 3
REMARK VINA RESULT: -7.108056535      2.698      7.578
REMARK  5 active torsions:
REMARK  status: ('A' for Active; 'I' for Inactive)
REMARK    1  A    between atoms: C2_2  and  C3_3 
REMARK    2  A    between atoms: C3_3  and  N1_4 
REMARK       I    between atoms: N1_4  and  C4_6 
REMARK    3  A    between atoms: C4_6  and  C5_8 
REMARK    4  A    between atoms: C10_13  and  N2_14 
REMARK       I    between atoms: N2_14  and  C11_16 
REMARK    5  A    between atoms: C11_16  and  C12_18 
REMARK       I    between atoms: N3_25  and  C19_26 
ROOT
HETATM    1  C5  UNL     1      -6.257 -14.897   7.283  1.00  0.00     0.104 C 
HETATM    2  C6  UNL     1      -6.678 -13.496   6.978  1.00  0.00     0.025 C 
HETATM    3  C7  UNL     1      -8.007 -13.892   6.265  1.00  0.00     0.015 C 
HETATM    4  C8  UNL     1      -8.583 -14.578   7.502  1.00  0.00     0.033 C 
HETATM    5  C9  UNL     1      -8.658 -13.355   8.400  1.00  0.00     0.133 C 
HETATM    6  C10 UNL     1      -7.283 -12.729   8.120  1.00  0.00     0.113 C 
HETATM    7  N3  UNL     1      -8.737 -13.860   9.742  1.00  0.00    -0.238 N 
HETATM    8  C19 UNL     1      -9.583 -13.469  10.762  1.00  0.00     0.229 C 
HETATM    9  C20 UNL     1      -9.516 -14.125  12.116  1.00  0.00     0.118 C 
HETATM   10  O3  UNL     1     -10.446 -12.563  10.633  1.00  0.00    -0.273 OA
HETATM   11  S1  UNL     1      -7.509 -15.076   9.756  1.00  0.00     0.240 S 
HETATM   12  O4  UNL     1      -7.977 -16.306  10.497  1.00  0.00    -0.205 OA
HETATM   13  O5  UNL     1      -6.297 -14.589  10.435  1.00  0.00    -0.205 OA
HETATM   14  C21 UNL     1      -7.403 -15.413   8.048  1.00  0.00     0.149 C 
ENDROOT
BRANCH   6  15
HETATM   15  N2  UNL     1      -7.482 -11.357   7.658  1.00  0.00    -0.354 N 
HETATM   16  C11 UNL     1      -6.517 -10.637   6.905  1.00  0.00     0.223 C 
HETATM   17  O2  UNL     1      -5.433 -11.230   6.630  1.00  0.00    -0.273 OA
ATOM     18  H2  UNL     1      -8.359 -10.893   7.888  1.00  0.00     0.163 HD
BRANCH  16  19
HETATM   19  C12 UNL     1      -6.723  -9.270   6.449  1.00  0.00     0.086 C 
HETATM   20  C13 UNL     1      -7.965  -9.010   5.597  1.00  0.00    -0.000 C 
HETATM   21  C14 UNL     1      -7.842  -9.966   4.472  1.00  0.00     0.010 C 
HETATM   22  C18 UNL     1      -7.151  -7.811   5.084  1.00  0.00     0.011 C 
HETATM   23  C15 UNL     1      -6.339  -9.802   4.171  1.00  0.00    -0.013 C 
HETATM   24  C16 UNL     1      -6.204  -9.266   2.762  1.00  0.00     0.010 C 
HETATM   25  C17 UNL     1      -5.987  -8.814   5.214  1.00  0.00     0.003 C 
ENDBRANCH  16  19
ENDBRANCH   6  15
BRANCH   1  26
HETATM   26  C4  UNL     1      -4.908 -15.111   7.759  1.00  0.00     0.223 C 
HETATM   27  N1  UNL     1      -4.180 -14.083   8.349  1.00  0.00    -0.361 N 
ATOM     28  H1  UNL     1      -4.689 -13.202   8.422  1.00  0.00     0.162 HD
HETATM   29  O1  UNL     1      -4.422 -16.245   7.618  1.00  0.00    -0.273 OA
BRANCH  27  30
HETATM   30  C3  UNL     1      -2.864 -14.036   8.865  1.00  0.00     0.122 C 
BRANCH  30  31
HETATM   31  C2  UNL     1      -2.616 -13.995  10.313  1.00  0.00     0.015 C 
HETATM   32  C1  UNL     1      -2.306 -15.261  11.047  1.00  0.00     0.006 C 
ENDBRANCH  30  31
ENDBRANCH  27  30
ENDBRANCH   1  26
TORSDOF 5
ENDMDL
MODEL 4
REMARK VINA RESULT: -7.085012906      2.675      4.323
REMARK  5 active torsions:
REMARK  status: ('A' for Active; 'I' for Inactive)
REMARK    1  A    between atoms: C2_2  and  C3_3 
REMARK    2  A    between atoms: C3_3  and  N1_4 
REMARK       I    between atoms: N1_4  and  C4_6 
REMARK    3  A    between atoms: C4_6  and  C5_8 
REMARK    4  A    between atoms: C10_13  and  N2_14 
REMARK       I    between atoms: N2_14  and  C11_16 
REMARK    5  A    between atoms: C11_16  and  C12_18 
REMARK       I    between atoms: N3_25  and  C19_26 
ROOT
HETATM    1  C5  UNL     1      -3.767 -13.055   7.472  1.00  0.00     0.104 C 
HETATM    2  C6  UNL     1      -3.254 -14.179   8.312  1.00  0.00     0.025 C 
HETATM    3  C7  UNL     1      -3.171 -13.352   9.631  1.00  0.00     0.015 C 
HETATM    4  C8  UNL     1      -4.667 -13.045   9.651  1.00  0.00     0.033 C 
HETATM    5  C9  UNL     1      -5.169 -14.471   9.800  1.00  0.00     0.133 C 
HETATM    6  C10 UNL     1      -4.281 -15.179   8.766  1.00  0.00     0.113 C 
HETATM    7  N3  UNL     1      -6.541 -14.447   9.378  1.00  0.00    -0.238 N 
HETATM    8  C19 UNL     1      -7.641 -15.018   9.990  1.00  0.00     0.229 C 
HETATM    9  C20 UNL     1      -9.016 -14.884   9.390  1.00  0.00     0.118 C 
HETATM   10  O3  UNL     1      -7.571 -15.672  11.062  1.00  0.00    -0.273 OA
HETATM   11  S1  UNL     1      -6.468 -13.527   7.917  1.00  0.00     0.240 S 
HETATM   12  O4  UNL     1      -7.628 -12.565   7.828  1.00  0.00    -0.205 OA
HETATM   13  O5  UNL     1      -6.535 -14.408   6.739  1.00  0.00    -0.205 OA
HETATM   14  C21 UNL     1      -4.985 -12.651   8.191  1.00  0.00     0.149 C 
ENDROOT
BRANCH   6  15
HETATM   15  N2  UNL     1      -3.558 -16.260   9.435  1.00  0.00    -0.354 N 
HETATM   16  C11 UNL     1      -2.910 -17.315   8.742  1.00  0.00     0.223 C 
HETATM   17  O2  UNL     1      -2.970 -17.304   7.478  1.00  0.00    -0.273 OA
ATOM     18  H2  UNL     1      -3.519 -16.255  10.454  1.00  0.00     0.163 HD
BRANCH  16  19
HETATM   19  C12 UNL     1      -2.193 -18.387   9.417  1.00  0.00     0.086 C 
HETATM   20  C13 UNL     1      -1.544 -18.042  10.757  1.00  0.00    -0.000 C 
HETATM   21  C14 UNL     1      -0.669 -16.886  10.452  1.00  0.00     0.010 C 
HETATM   22  C18 UNL     1      -0.627 -19.230  10.422  1.00  0.00     0.011 C 
HETATM   23  C15 UNL     1      -0.070 -17.374   9.117  1.00  0.00    -0.013 C 
HETATM   24  C16 UNL     1       1.425 -17.514   9.304  1.00  0.00     0.010 C 
HETATM   25  C17 UNL     1      -0.773 -18.670   8.994  1.00  0.00     0.003 C 
ENDBRANCH  16  19
ENDBRANCH   6  15
BRANCH   1  26
HETATM   26  C4  UNL     1      -3.796 -13.239   6.037  1.00  0.00     0.223 C 
HETATM   27  N1  UNL     1      -4.500 -12.367   5.213  1.00  0.00    -0.361 N 
ATOM     28  H1  UNL     1      -4.960 -11.604   5.710  1.00  0.00     0.162 HD
HETATM   29  O1  UNL     1      -3.174 -14.206   5.569  1.00  0.00    -0.273 OA
BRANCH  27  30
HETATM   30  C3  UNL     1      -4.696 -12.345   3.813  1.00  0.00     0.122 C 
BRANCH  30  31
HETATM   31  C2  UNL     1      -4.703 -11.079   3.066  1.00  0.00     0.015 C 
HETATM   32  C1  UNL     1      -5.719 -10.032   3.394  1.00  0.00     0.006 C 
ENDBRANCH  30  31
ENDBRANCH  27  30
ENDBRANCH   1  26
TORSDOF 5
ENDMDL
MODEL 5
REMARK VINA RESULT: -7.016763251      1.417      1.608
REMARK  5 active torsions:
REMARK  status: ('A' for Active; 'I' for Inactive)
REMARK    1  A    between atoms: C2_2  and  C3_3 
REMARK    2  A    between atoms: C3_3  and  N1_4 
REMARK       I    between atoms: N1_4  and  C4_6 
REMARK    3  A    between atoms: C4_6  and  C5_8 
REMARK    4  A    between atoms: C10_13  and  N2_14 
REMARK       I    between atoms: N2_14  and  C11_16 
REMARK    5  A    between atoms: C11_16  and  C12_18 
REMARK       I    between atoms: N3_25  and  C19_26 
ROOT
HETATM    1  C5  UNL     1      -7.514 -11.087   6.958  1.00  0.00     0.104 C 
HETATM    2  C6  UNL     1      -6.911 -12.063   7.915  1.00  0.00     0.025 C 
HETATM    3  C7  UNL     1      -7.592 -13.320   7.294  1.00  0.00     0.015 C 
HETATM    4  C8  UNL     1      -6.932 -13.127   5.930  1.00  0.00     0.033 C 
HETATM    5  C9  UNL     1      -5.489 -13.311   6.371  1.00  0.00     0.133 C 
HETATM    6  C10 UNL     1      -5.485 -12.452   7.644  1.00  0.00     0.113 C 
HETATM    7  N3  UNL     1      -4.688 -12.717   5.339  1.00  0.00    -0.238 N 
HETATM    8  C19 UNL     1      -3.556 -13.222   4.729  1.00  0.00     0.229 C 
HETATM    9  C20 UNL     1      -2.844 -12.444   3.653  1.00  0.00     0.118 C 
HETATM   10  O3  UNL     1      -3.054 -14.338   5.022  1.00  0.00    -0.273 OA
HETATM   11  S1  UNL     1      -5.496 -11.216   5.054  1.00  0.00     0.240 S 
HETATM   12  O4  UNL     1      -5.563 -10.912   3.576  1.00  0.00    -0.205 OA
HETATM   13  O5  UNL     1      -4.779 -10.104   5.700  1.00  0.00    -0.205 OA
HETATM   14  C21 UNL     1      -7.085 -11.615   5.654  1.00  0.00     0.149 C 
ENDROOT
BRANCH   6  15
HETATM   15  N2  UNL     1      -5.047 -13.282   8.764  1.00  0.00    -0.354 N 
HETATM   16  C11 UNL     1      -3.702 -13.344   9.214  1.00  0.00     0.223 C 
HETATM   17  O2  UNL     1      -2.850 -12.636   8.601  1.00  0.00    -0.273 OA
ATOM     18  H2  UNL     1      -5.744 -13.847   9.248  1.00  0.00     0.163 HD
BRANCH  16  19
HETATM   19  C12 UNL     1      -3.275 -14.174  10.332  1.00  0.00     0.086 C 
HETATM   20  C13 UNL     1      -1.838 -14.694  10.291  1.00  0.00    -0.000 C 
HETATM   21  C14 UNL     1      -1.743 -15.403   8.993  1.00  0.00     0.010 C 
HETATM   22  C18 UNL     1      -2.392 -15.792  11.212  1.00  0.00     0.011 C 
HETATM   23  C15 UNL     1      -3.100 -16.137   9.013  1.00  0.00    -0.013 C 
HETATM   24  C16 UNL     1      -2.821 -17.625   9.007  1.00  0.00     0.010 C 
HETATM   25  C17 UNL     1      -3.627 -15.641  10.302  1.00  0.00     0.003 C 
ENDBRANCH  16  19
ENDBRANCH   6  15
BRANCH   1  26
HETATM   26  C4  UNL     1      -7.381  -9.677   7.253  1.00  0.00     0.223 C 
HETATM   27  N1  UNL     1      -7.596  -8.713   6.273  1.00  0.00    -0.361 N 
ATOM     28  H1  UNL     1      -7.866  -9.094   5.366  1.00  0.00     0.162 HD
HETATM   29  O1  UNL     1      -7.062  -9.359   8.410  1.00  0.00    -0.273 OA
BRANCH  27  30
HETATM   30  C3  UNL     1      -7.510  -7.302   6.305  1.00  0.00     0.122 C 
BRANCH  30  31
HETATM   31  C2  UNL     1      -8.313  -6.512   7.249  1.00  0.00     0.015 C 
HETATM   32  C1  UNL     1      -7.882  -5.126   7.610  1.00  0.00     0.006 C 
ENDBRANCH  30  31
ENDBRANCH  27  30
ENDBRANCH   1  26
TORSDOF 5
ENDMDL
