MODEL 1
REMARK VINA RESULT: -8.394505570      0.000      0.000
REMARK  6 active torsions:
REMARK  status: ('A' for Active; 'I' for Inactive)
REMARK    1  A    between atoms: C2_2  and  C4_4 
REMARK    2  A    between atoms: C4_4  and  C6_6 
REMARK       I    between atoms: C6_6  and  N1_8 
REMARK    3  A    between atoms: N1_8  and  C7_10 
REMARK    4  A    between atoms: C9_14  and  C10_15 
REMARK    5  A    between atoms: C12_19  and  C13_20 
REMARK       I    between atoms: C13_20  and  N3_22 
REMARK    6  A    between atoms: C16_26  and  C17_27 
REMARK       I    between atoms: C17_27  and  N4_29 
ROOT
HETATM    1  C7  UNL     1      -5.993 -12.443   7.791  1.00  0.00     0.203 C 
HETATM    2  C8  UNL     1      -6.713 -11.155   7.670  1.00  0.00     0.246 C 
HETATM    3  O2  UNL     1      -7.468 -10.535   8.464  1.00  0.00    -0.271 OA
HETATM    4  N2  UNL     1      -6.178 -11.011   6.370  1.00  0.00    -0.325 N 
HETATM    5  C9  UNL     1      -5.762 -10.188   5.269  1.00  0.00     0.193 C 
HETATM    6  C11 UNL     1      -5.451 -11.036   4.026  1.00  0.00     0.080 C 
HETATM    7  C12 UNL     1      -4.492 -12.086   4.508  1.00  0.00     0.011 C 
HETATM    8  C20 UNL     1      -4.804 -12.750   5.592  1.00  0.00     0.013 C 
HETATM    9  C21 UNL     1      -6.071 -12.440   6.280  1.00  0.00     0.144 C 
ENDROOT
BRANCH   7  10
HETATM   10  C13 UNL     1      -3.271 -12.303   3.745  1.00  0.00     0.251 C 
HETATM   11  O5  UNL     1      -2.472 -13.228   4.032  1.00  0.00    -0.268 OA
HETATM   12  N3  UNL     1      -2.997 -11.439   2.661  1.00  0.00    -0.330 N 
HETATM   13  C14 UNL     1      -1.772 -11.100   2.423  1.00  0.00     0.004 A 
ATOM     14  H3  UNL     1      -3.755 -11.087   2.075  1.00  0.00     0.168 HD
HETATM   15  C15 UNL     1      -0.309 -10.994   2.529  1.00  0.00     0.073 A 
HETATM   16  C16 UNL     1      -0.971 -10.265   1.459  1.00  0.00     0.129 A 
BRANCH  16  17
HETATM   17  C17 UNL     1      -0.953 -10.852   0.102  1.00  0.00     0.229 C 
HETATM   18  O6  UNL     1      -0.057 -11.667  -0.215  1.00  0.00    -0.273 OA
HETATM   19  N4  UNL     1      -1.923 -10.531  -0.879  1.00  0.00    -0.360 N 
HETATM   20  C18 UNL     1      -2.965  -9.591  -0.527  1.00  0.00     0.152 C 
HETATM   21  C19 UNL     1      -1.916 -11.101  -2.209  1.00  0.00     0.152 C 
ENDBRANCH  16  17
ENDBRANCH   7  10
BRANCH   5  22
HETATM   22  C10 UNL     1      -6.782  -9.156   4.978  1.00  0.00     0.197 C 
HETATM   23  O3  UNL     1      -6.509  -7.936   4.855  1.00  0.00    -0.646 OA
HETATM   24  O4  UNL     1      -8.140  -9.491   4.821  1.00  0.00    -0.646 OA
ENDBRANCH   5  22
BRANCH   1  25
HETATM   25  N1  UNL     1      -6.905 -13.443   8.315  1.00  0.00    -0.345 N 
HETATM   26  C6  UNL     1      -6.706 -14.139   9.510  1.00  0.00     0.222 C 
HETATM   27  O1  UNL     1      -5.661 -13.892  10.202  1.00  0.00    -0.273 OA
ATOM     28  H1  UNL     1      -7.745 -13.651   7.775  1.00  0.00     0.163 HD
BRANCH  26  29
HETATM   29  C4  UNL     1      -7.709 -15.144   9.951  1.00  0.00     0.077 C 
HETATM   30  C5  UNL     1      -8.438 -15.602   8.703  1.00  0.00     0.020 C 
BRANCH  29  31
HETATM   31  C2  UNL     1      -8.719 -14.435  10.825  1.00  0.00    -0.010 C 
HETATM   32  C1  UNL     1      -9.991 -14.129  10.043  1.00  0.00     0.010 C 
HETATM   33  C3  UNL     1      -9.030 -15.274  12.047  1.00  0.00     0.010 C 
ENDBRANCH  29  31
ENDBRANCH  26  29
ENDBRANCH   1  25
TORSDOF 6
ENDMDL
MODEL 2
REMARK VINA RESULT: -8.213522359      2.220      9.535
REMARK  6 active torsions:
REMARK  status: ('A' for Active; 'I' for Inactive)
REMARK    1  A    between atoms: C2_2  and  C4_4 
REMARK    2  A    between atoms: C4_4  and  C6_6 
REMARK       I    between atoms: C6_6  and  N1_8 
REMARK    3  A    between atoms: N1_8  and  C7_10 
REMARK    4  A    between atoms: C9_14  and  C10_15 
REMARK    5  A    between atoms: C12_19  and  C13_20 
REMARK       I    between atoms: C13_20  and  N3_22 
REMARK    6  A    between atoms: C16_26  and  C17_27 
REMARK       I    between atoms: C17_27  and  N4_29 
ROOT
HETATM    1  C7  UNL     1      -5.977  -9.629   3.175  1.00  0.00     0.203 C 
HETATM    2  C8  UNL     1      -6.666  -8.432   3.707  1.00  0.00     0.246 C 
HETATM    3  O2  UNL     1      -6.952  -7.324   3.183  1.00  0.00    -0.271 OA
HETATM    4  N2  UNL     1      -6.810  -9.100   4.944  1.00  0.00    -0.325 N 
HETATM    5  C9  UNL     1      -7.500  -9.303   6.187  1.00  0.00     0.193 C 
HETATM    6  C11 UNL     1      -6.709 -10.234   7.118  1.00  0.00     0.080 C 
HETATM    7  C12 UNL     1      -6.412 -11.448   6.284  1.00  0.00     0.011 C 
HETATM    8  C20 UNL     1      -5.904 -11.262   5.092  1.00  0.00     0.013 C 
HETATM    9  C21 UNL     1      -5.649  -9.885   4.630  1.00  0.00     0.144 C 
ENDROOT
BRANCH   7  10
HETATM   10  C13 UNL     1      -6.707 -12.757   6.847  1.00  0.00     0.251 C 
HETATM   11  O5  UNL     1      -6.815 -13.776   6.121  1.00  0.00    -0.268 OA
HETATM   12  N3  UNL     1      -6.872 -12.861   8.246  1.00  0.00    -0.330 N 
HETATM   13  C14 UNL     1      -7.750 -13.688   8.714  1.00  0.00     0.004 A 
ATOM     14  H3  UNL     1      -6.307 -12.294   8.878  1.00  0.00     0.168 HD
HETATM   15  C15 UNL     1      -8.812 -14.704   8.782  1.00  0.00     0.073 A 
HETATM   16  C16 UNL     1      -8.299 -14.167  10.032  1.00  0.00     0.129 A 
BRANCH  16  17
HETATM   17  C17 UNL     1      -7.310 -14.972  10.781  1.00  0.00     0.229 C 
HETATM   18  O6  UNL     1      -6.120 -15.016  10.398  1.00  0.00    -0.273 OA
HETATM   19  N4  UNL     1      -7.653 -15.714  11.938  1.00  0.00    -0.360 N 
HETATM   20  C18 UNL     1      -9.025 -15.674  12.394  1.00  0.00     0.152 C 
HETATM   21  C19 UNL     1      -6.693 -16.504  12.679  1.00  0.00     0.152 C 
ENDBRANCH  16  17
ENDBRANCH   7  10
BRANCH   5  22
HETATM   22  C10 UNL     1      -7.788  -8.005   6.838  1.00  0.00     0.197 C 
HETATM   23  O3  UNL     1      -7.727  -6.905   6.233  1.00  0.00    -0.646 OA
HETATM   24  O4  UNL     1      -8.151  -7.930   8.195  1.00  0.00    -0.646 OA
ENDBRANCH   5  22
BRANCH   1  25
HETATM   25  N1  UNL     1      -4.774  -9.210   2.481  1.00  0.00    -0.345 N 
HETATM   26  C6  UNL     1      -4.487  -9.519   1.148  1.00  0.00     0.222 C 
HETATM   27  O1  UNL     1      -5.325 -10.214   0.481  1.00  0.00    -0.273 OA
ATOM     28  H1  UNL     1      -4.094  -8.653   2.999  1.00  0.00     0.163 HD
BRANCH  26  29
HETATM   29  C4  UNL     1      -3.221  -9.035   0.537  1.00  0.00     0.077 C 
HETATM   30  C5  UNL     1      -3.580  -8.509  -0.839  1.00  0.00     0.020 C 
BRANCH  29  31
HETATM   31  C2  UNL     1      -2.318 -10.230   0.338  1.00  0.00    -0.010 C 
HETATM   32  C1  UNL     1      -1.717 -10.228  -1.063  1.00  0.00     0.010 C 
HETATM   33  C3  UNL     1      -1.227 -10.240   1.389  1.00  0.00     0.010 C 
ENDBRANCH  29  31
ENDBRANCH  26  29
ENDBRANCH   1  25
TORSDOF 6
ENDMDL
MODEL 3
REMARK VINA RESULT: -7.999745895      1.001      1.366
REMARK  6 active torsions:
REMARK  status: ('A' for Active; 'I' for Inactive)
REMARK    1  A    between atoms: C2_2  and  C4_4 
REMARK    2  A    between atoms: C4_4  and  C6_6 
REMARK       I    between atoms: C6_6  and  N1_8 
REMARK    3  A    between atoms: N1_8  and  C7_10 
REMARK    4  A    between atoms: C9_14  and  C10_15 
REMARK    5  A    between atoms: C12_19  and  C13_20 
REMARK       I    between atoms: C13_20  and  N3_22 
REMARK    6  A    between atoms: C16_26  and  C17_27 
REMARK       I    between atoms: C17_27  and  N4_29 
ROOT
HETATM    1  C7  UNL     1      -6.231 -11.055   7.614  1.00  0.00     0.203 C 
HETATM    2  C8  UNL     1      -7.030  -9.924   7.093  1.00  0.00     0.246 C 
HETATM    3  O2  UNL     1      -7.857  -9.152   7.646  1.00  0.00    -0.271 OA
HETATM    4  N2  UNL     1      -6.454 -10.139   5.821  1.00  0.00    -0.325 N 
HETATM    5  C9  UNL     1      -6.050  -9.659   4.529  1.00  0.00     0.193 C 
HETATM    6  C11 UNL     1      -5.632 -10.817   3.610  1.00  0.00     0.080 C 
HETATM    7  C12 UNL     1      -4.624 -11.595   4.407  1.00  0.00     0.011 C 
HETATM    8  C20 UNL     1      -4.934 -11.921   5.636  1.00  0.00     0.013 C 
HETATM    9  C21 UNL     1      -6.247 -11.516   6.173  1.00  0.00     0.144 C 
ENDROOT
BRANCH   7  10
HETATM   10  C13 UNL     1      -3.361 -11.937   3.769  1.00  0.00     0.251 C 
HETATM   11  O5  UNL     1      -2.605 -12.822   4.240  1.00  0.00    -0.268 OA
HETATM   12  N3  UNL     1      -2.997 -11.245   2.593  1.00  0.00    -0.330 N 
HETATM   13  C14 UNL     1      -1.751 -10.962   2.392  1.00  0.00     0.004 A 
ATOM     14  H3  UNL     1      -3.705 -10.972   1.911  1.00  0.00     0.168 HD
HETATM   15  C15 UNL     1      -0.295 -10.862   2.582  1.00  0.00     0.073 A 
HETATM   16  C16 UNL     1      -0.868 -10.287   1.375  1.00  0.00     0.129 A 
BRANCH  16  17
HETATM   17  C17 UNL     1      -0.775 -11.067   0.122  1.00  0.00     0.229 C 
HETATM   18  O6  UNL     1       0.103 -11.950  -0.002  1.00  0.00    -0.273 OA
HETATM   19  N4  UNL     1      -1.652 -10.859  -0.971  1.00  0.00    -0.360 N 
HETATM   20  C18 UNL     1      -2.672  -9.840  -0.843  1.00  0.00     0.152 C 
HETATM   21  C19 UNL     1      -1.571 -11.617  -2.201  1.00  0.00     0.152 C 
ENDBRANCH  16  17
ENDBRANCH   7  10
BRANCH   5  22
HETATM   22  C10 UNL     1      -7.125  -8.846   3.919  1.00  0.00     0.197 C 
HETATM   23  O3  UNL     1      -8.153  -9.347   3.398  1.00  0.00    -0.646 OA
HETATM   24  O4  UNL     1      -7.055  -7.441   3.887  1.00  0.00    -0.646 OA
ENDBRANCH   5  22
BRANCH   1  25
HETATM   25  N1  UNL     1      -7.093 -11.916   8.401  1.00  0.00    -0.345 N 
HETATM   26  C6  UNL     1      -6.636 -12.967   9.202  1.00  0.00     0.222 C 
HETATM   27  O1  UNL     1      -5.381 -13.200   9.257  1.00  0.00    -0.273 OA
ATOM     28  H1  UNL     1      -8.098 -11.743   8.369  1.00  0.00     0.163 HD
BRANCH  26  29
HETATM   29  C4  UNL     1      -7.612 -13.786   9.967  1.00  0.00     0.077 C 
HETATM   30  C5  UNL     1      -6.874 -15.036  10.408  1.00  0.00     0.020 C 
BRANCH  29  31
HETATM   31  C2  UNL     1      -8.699 -14.222   9.012  1.00  0.00    -0.010 C 
HETATM   32  C1  UNL     1      -8.416 -15.618   8.470  1.00  0.00     0.010 C 
HETATM   33  C3  UNL     1     -10.047 -14.178   9.702  1.00  0.00     0.010 C 
ENDBRANCH  29  31
ENDBRANCH  26  29
ENDBRANCH   1  25
TORSDOF 6
ENDMDL
MODEL 4
REMARK VINA RESULT: -7.828359105      3.362      6.016
REMARK  6 active torsions:
REMARK  status: ('A' for Active; 'I' for Inactive)
REMARK    1  A    between atoms: C2_2  and  C4_4 
REMARK    2  A    between atoms: C4_4  and  C6_6 
REMARK       I    between atoms: C6_6  and  N1_8 
REMARK    3  A    between atoms: N1_8  and  C7_10 
REMARK    4  A    between atoms: C9_14  and  C10_15 
REMARK    5  A    between atoms: C12_19  and  C13_20 
REMARK       I    between atoms: C13_20  and  N3_22 
REMARK    6  A    between atoms: C16_26  and  C17_27 
REMARK       I    between atoms: C17_27  and  N4_29 
ROOT
HETATM    1  C7  UNL     1      -4.767 -13.766   9.822  1.00  0.00     0.203 C 
HETATM    2  C8  UNL     1      -5.915 -14.555  10.322  1.00  0.00     0.246 C 
HETATM    3  O2  UNL     1      -6.012 -15.413  11.238  1.00  0.00    -0.271 OA
HETATM    4  N2  UNL     1      -6.733 -13.922   9.359  1.00  0.00    -0.325 N 
HETATM    5  C9  UNL     1      -8.018 -13.468   8.908  1.00  0.00     0.193 C 
HETATM    6  C11 UNL     1      -7.963 -12.998   7.446  1.00  0.00     0.080 C 
HETATM    7  C12 UNL     1      -6.826 -12.017   7.402  1.00  0.00     0.011 C 
HETATM    8  C20 UNL     1      -5.685 -12.377   7.933  1.00  0.00     0.013 C 
HETATM    9  C21 UNL     1      -5.570 -13.715   8.541  1.00  0.00     0.144 C 
ENDROOT
BRANCH   7  10
HETATM   10  C13 UNL     1      -7.059 -10.724   6.774  1.00  0.00     0.251 C 
HETATM   11  O5  UNL     1      -7.608  -9.782   7.396  1.00  0.00    -0.268 OA
HETATM   12  N3  UNL     1      -6.649 -10.548   5.434  1.00  0.00    -0.330 N 
HETATM   13  C14 UNL     1      -7.372  -9.818   4.648  1.00  0.00     0.004 A 
ATOM     14  H3  UNL     1      -5.796 -10.989   5.091  1.00  0.00     0.168 HD
HETATM   15  C15 UNL     1      -8.454  -8.953   4.150  1.00  0.00     0.073 A 
HETATM   16  C16 UNL     1      -7.397  -9.329   3.224  1.00  0.00     0.129 A 
BRANCH  16  17
HETATM   17  C17 UNL     1      -6.323  -8.348   2.959  1.00  0.00     0.229 C 
HETATM   18  O6  UNL     1      -6.411  -7.185   3.413  1.00  0.00    -0.273 OA
HETATM   19  N4  UNL     1      -5.171  -8.668   2.198  1.00  0.00    -0.360 N 
HETATM   20  C18 UNL     1      -5.055 -10.008   1.665  1.00  0.00     0.152 C 
HETATM   21  C19 UNL     1      -4.113  -7.716   1.934  1.00  0.00     0.152 C 
ENDBRANCH  16  17
ENDBRANCH   7  10
BRANCH   5  22
HETATM   22  C10 UNL     1      -9.037 -14.524   9.098  1.00  0.00     0.197 C 
HETATM   23  O3  UNL     1     -10.146 -14.317   9.652  1.00  0.00    -0.646 OA
HETATM   24  O4  UNL     1      -8.816 -15.843   8.661  1.00  0.00    -0.646 OA
ENDBRANCH   5  22
BRANCH   1  25
HETATM   25  N1  UNL     1      -3.632 -14.652   9.640  1.00  0.00    -0.345 N 
HETATM   26  C6  UNL     1      -2.654 -14.887  10.610  1.00  0.00     0.222 C 
HETATM   27  O1  UNL     1      -2.747 -14.294  11.736  1.00  0.00    -0.273 OA
ATOM     28  H1  UNL     1      -3.543 -15.135   8.745  1.00  0.00     0.163 HD
BRANCH  26  29
HETATM   29  C4  UNL     1      -1.533 -15.818  10.313  1.00  0.00     0.077 C 
HETATM   30  C5  UNL     1      -1.813 -16.408   8.944  1.00  0.00     0.020 C 
BRANCH  29  31
HETATM   31  C2  UNL     1      -1.599 -16.952  11.311  1.00  0.00    -0.010 C 
HETATM   32  C1  UNL     1      -1.952 -18.263  10.619  1.00  0.00     0.010 C 
HETATM   33  C3  UNL     1      -0.281 -17.073  12.048  1.00  0.00     0.010 C 
ENDBRANCH  29  31
ENDBRANCH  26  29
ENDBRANCH   1  25
TORSDOF 6
ENDMDL
MODEL 5
REMARK VINA RESULT: -7.776742653      4.096      8.604
REMARK  6 active torsions:
REMARK  status: ('A' for Active; 'I' for Inactive)
REMARK    1  A    between atoms: C2_2  and  C4_4 
REMARK    2  A    between atoms: C4_4  and  C6_6 
REMARK       I    between atoms: C6_6  and  N1_8 
REMARK    3  A    between atoms: N1_8  and  C7_10 
REMARK    4  A    between atoms: C9_14  and  C10_15 
REMARK    5  A    between atoms: C12_19  and  C13_20 
REMARK       I    between atoms: C13_20  and  N3_22 
REMARK    6  A    between atoms: C16_26  and  C17_27 
REMARK       I    between atoms: C17_27  and  N4_29 
ROOT
HETATM    1  C7  UNL     1      -6.454 -12.523   6.509  1.00  0.00     0.203 C 
HETATM    2  C8  UNL     1      -7.658 -13.293   6.894  1.00  0.00     0.246 C 
HETATM    3  O2  UNL     1      -8.799 -13.389   6.370  1.00  0.00    -0.271 OA
HETATM    4  N2  UNL     1      -6.948 -13.793   8.008  1.00  0.00    -0.325 N 
HETATM    5  C9  UNL     1      -6.725 -14.805   9.003  1.00  0.00     0.193 C 
HETATM    6  C11 UNL     1      -5.721 -14.331  10.065  1.00  0.00     0.080 C 
HETATM    7  C12 UNL     1      -4.531 -13.855   9.282  1.00  0.00     0.011 C 
HETATM    8  C20 UNL     1      -4.742 -13.033   8.285  1.00  0.00     0.013 C 
HETATM    9  C21 UNL     1      -6.124 -12.616   7.983  1.00  0.00     0.144 C 
ENDROOT
BRANCH   7  10
HETATM   10  C13 UNL     1      -3.214 -14.335   9.674  1.00  0.00     0.251 C 
HETATM   11  O5  UNL     1      -2.300 -13.544  10.014  1.00  0.00    -0.268 OA
HETATM   12  N3  UNL     1      -2.981 -15.729   9.666  1.00  0.00    -0.330 N 
HETATM   13  C14 UNL     1      -1.818 -16.168   9.311  1.00  0.00     0.004 A 
ATOM     14  H3  UNL     1      -3.720 -16.379   9.935  1.00  0.00     0.168 HD
HETATM   15  C15 UNL     1      -0.417 -16.201   8.860  1.00  0.00     0.073 A 
HETATM   16  C16 UNL     1      -1.077 -17.468   9.137  1.00  0.00     0.129 A 
BRANCH  16  17
HETATM   17  C17 UNL     1      -0.804 -18.125  10.433  1.00  0.00     0.229 C 
HETATM   18  O6  UNL     1       0.188 -17.779  11.113  1.00  0.00    -0.273 OA
HETATM   19  N4  UNL     1      -1.629 -19.151  10.955  1.00  0.00    -0.360 N 
HETATM   20  C18 UNL     1      -2.780 -19.562  10.180  1.00  0.00     0.152 C 
HETATM   21  C19 UNL     1      -1.372 -19.800  12.223  1.00  0.00     0.152 C 
ENDBRANCH  16  17
ENDBRANCH   7  10
BRANCH   5  22
HETATM   22  C10 UNL     1      -8.006 -15.219   9.617  1.00  0.00     0.197 C 
HETATM   23  O3  UNL     1      -8.237 -15.130  10.850  1.00  0.00    -0.646 OA
HETATM   24  O4  UNL     1      -9.056 -15.745   8.842  1.00  0.00    -0.646 OA
ENDBRANCH   5  22
BRANCH   1  25
HETATM   25  N1  UNL     1      -6.847 -11.163   6.192  1.00  0.00    -0.345 N 
HETATM   26  C6  UNL     1      -6.090 -10.288   5.408  1.00  0.00     0.222 C 
HETATM   27  O1  UNL     1      -4.977 -10.693   4.930  1.00  0.00    -0.273 OA
ATOM     28  H1  UNL     1      -7.733 -10.823   6.567  1.00  0.00     0.163 HD
BRANCH  26  29
HETATM   29  C4  UNL     1      -6.592  -8.913   5.148  1.00  0.00     0.077 C 
HETATM   30  C5  UNL     1      -7.936  -8.806   5.841  1.00  0.00     0.020 C 
BRANCH  29  31
HETATM   31  C2  UNL     1      -6.844  -8.788   3.662  1.00  0.00    -0.010 C 
HETATM   32  C1  UNL     1      -8.252  -9.252   3.311  1.00  0.00     0.010 C 
HETATM   33  C3  UNL     1      -6.624  -7.357   3.216  1.00  0.00     0.010 C 
ENDBRANCH  29  31
ENDBRANCH  26  29
ENDBRANCH   1  25
TORSDOF 6
ENDMDL
