MODEL 1
REMARK VINA RESULT: -6.736417674      0.000      0.000
REMARK  4 active torsions:
REMARK  status: ('A' for Active; 'I' for Inactive)
REMARK    1  A    between atoms: C2_2  and  N1_4 
REMARK    2  A    between atoms: N5_14  and  O1_16 
REMARK    3  A    between atoms: C8_19  and  N6_20 
REMARK    4  A    between atoms: N6_20  and  C9_22 
ROOT
HETATM    1  N1  UNL     1      22.100  -2.630   0.631  1.00  0.00    -0.270 N 
HETATM    2  N2  UNL     1      21.909  -1.364   0.362  1.00  0.00    -0.280 N 
ATOM      3  H2  UNL     1      22.444  -0.606   0.784  1.00  0.00     0.189 HD
HETATM    4  C4  UNL     1      20.936  -1.181  -0.525  1.00  0.00     0.139 A 
HETATM    5  N3  UNL     1      20.374  -0.110  -1.098  1.00  0.00    -0.337 N 
ATOM      6  H3  UNL     1      20.721   0.819  -0.861  1.00  0.00     0.168 HD
HETATM    7  C5  UNL     1      19.371  -0.225  -1.972  1.00  0.00     0.183 A 
HETATM    8  N4  UNL     1      18.903  -1.429  -2.296  1.00  0.00    -0.336 N 
ATOM      9  H4  UNL     1      18.136  -1.522  -2.962  1.00  0.00     0.168 HD
HETATM   10  C6  UNL     1      19.450  -2.521  -1.736  1.00  0.00     0.143 A 
HETATM   11  N5  UNL     1      18.951  -3.626  -2.057  1.00  0.00    -0.252 N 
ATOM     12  H5  UNL     1      19.354  -4.467  -1.642  1.00  0.00     0.196 HD
HETATM   13  C7  UNL     1      20.493  -2.486  -0.823  1.00  0.00     0.100 A 
HETATM   14  C8  UNL     1      21.215  -3.403  -0.106  1.00  0.00     0.137 A 
ENDROOT
BRANCH  14  15
HETATM   15  N6  UNL     1      21.126  -4.776  -0.036  1.00  0.00    -0.370 N 
ATOM     16  H6  UNL     1      20.171  -5.029   0.220  1.00  0.00     0.161 HD
BRANCH  15  17
HETATM   17  C9  UNL     1      21.875  -5.951  -0.191  1.00  0.00     0.083 C 
HETATM   18  C10 UNL     1      21.158  -6.895  -1.254  1.00  0.00     0.025 C 
HETATM   19  C11 UNL     1      22.130  -8.021  -1.504  1.00  0.00     0.002 C 
HETATM   20  C12 UNL     1      21.869  -9.203  -0.601  1.00  0.00     0.000 C 
HETATM   21  C13 UNL     1      22.567  -9.136   0.711  1.00  0.00     0.000 C 
HETATM   22  C14 UNL     1      22.948  -7.731   1.126  1.00  0.00     0.002 C 
HETATM   23  C15 UNL     1      21.744  -6.860   1.059  1.00  0.00     0.025 C 
ENDBRANCH  15  17
ENDBRANCH  14  15
BRANCH   1  24
HETATM   24  C2  UNL     1      23.121  -3.108   1.576  1.00  0.00     0.102 C 
HETATM   25  C1  UNL     1      24.515  -2.715   1.162  1.00  0.00     0.034 C 
HETATM   26  C3  UNL     1      22.816  -2.772   2.995  1.00  0.00     0.034 C 
ENDBRANCH   1  24
BRANCH  11  27
HETATM   27  O1  UNL     1      17.925  -3.779  -2.908  1.00  0.00    -0.288 OA
ATOM     28  H1  UNL     1      17.173  -4.338  -2.749  1.00  0.00     0.244 HD
ENDBRANCH  11  27
TORSDOF 4
ENDMDL
MODEL 2
REMARK VINA RESULT: -6.660152794      0.837      1.525
REMARK  4 active torsions:
REMARK  status: ('A' for Active; 'I' for Inactive)
REMARK    1  A    between atoms: C2_2  and  N1_4 
REMARK    2  A    between atoms: N5_14  and  O1_16 
REMARK    3  A    between atoms: C8_19  and  N6_20 
REMARK    4  A    between atoms: N6_20  and  C9_22 
ROOT
HETATM    1  N1  UNL     1      22.325  -2.484   0.572  1.00  0.00    -0.270 N 
HETATM    2  N2  UNL     1      22.005  -1.221   0.452  1.00  0.00    -0.280 N 
ATOM      3  H2  UNL     1      22.477  -0.464   0.946  1.00  0.00     0.189 HD
HETATM    4  C4  UNL     1      20.991  -1.040  -0.389  1.00  0.00     0.139 A 
HETATM    5  N3  UNL     1      20.310   0.027  -0.826  1.00  0.00    -0.337 N 
ATOM      6  H3  UNL     1      20.574   0.955  -0.493  1.00  0.00     0.168 HD
HETATM    7  C5  UNL     1      19.297  -0.090  -1.686  1.00  0.00     0.183 A 
HETATM    8  N4  UNL     1      18.936  -1.292  -2.134  1.00  0.00    -0.336 N 
ATOM      9  H4  UNL     1      18.162  -1.386  -2.790  1.00  0.00     0.168 HD
HETATM   10  C6  UNL     1      19.604  -2.379  -1.712  1.00  0.00     0.143 A 
HETATM   11  N5  UNL     1      19.204  -3.486  -2.145  1.00  0.00    -0.252 N 
ATOM     12  H5  UNL     1      19.699  -4.323  -1.836  1.00  0.00     0.196 HD
HETATM   13  C7  UNL     1      20.667  -2.341  -0.822  1.00  0.00     0.100 A 
HETATM   14  C8  UNL     1      21.496  -3.255  -0.228  1.00  0.00     0.137 A 
ENDROOT
BRANCH  14  15
HETATM   15  N6  UNL     1      21.542  -4.630  -0.312  1.00  0.00    -0.370 N 
ATOM     16  H6  UNL     1      22.442  -4.904  -0.706  1.00  0.00     0.161 HD
BRANCH  15  17
HETATM   17  C9  UNL     1      20.796  -5.788  -0.049  1.00  0.00     0.083 C 
HETATM   18  C10 UNL     1      21.348  -6.479   1.275  1.00  0.00     0.025 C 
HETATM   19  C11 UNL     1      20.367  -7.581   1.585  1.00  0.00     0.002 C 
HETATM   20  C12 UNL     1      20.788  -8.900   0.981  1.00  0.00     0.000 C 
HETATM   21  C13 UNL     1      20.308  -9.114  -0.411  1.00  0.00     0.000 C 
HETATM   22  C14 UNL     1      19.977  -7.833  -1.145  1.00  0.00     0.002 C 
HETATM   23  C15 UNL     1      21.141  -6.909  -1.063  1.00  0.00     0.025 C 
ENDBRANCH  15  17
ENDBRANCH  14  15
BRANCH   1  24
HETATM   24  C2  UNL     1      23.417  -2.959   1.437  1.00  0.00     0.102 C 
HETATM   25  C1  UNL     1      24.746  -2.353   1.068  1.00  0.00     0.034 C 
HETATM   26  C3  UNL     1      23.109  -2.852   2.890  1.00  0.00     0.034 C 
ENDBRANCH   1  24
BRANCH  11  27
HETATM   27  O1  UNL     1      18.171  -3.645  -2.986  1.00  0.00    -0.288 OA
ATOM     28  H1  UNL     1      17.436  -4.226  -2.831  1.00  0.00     0.244 HD
ENDBRANCH  11  27
TORSDOF 4
ENDMDL
MODEL 3
REMARK VINA RESULT: -6.659385104      2.401      4.279
REMARK  4 active torsions:
REMARK  status: ('A' for Active; 'I' for Inactive)
REMARK    1  A    between atoms: C2_2  and  N1_4 
REMARK    2  A    between atoms: N5_14  and  O1_16 
REMARK    3  A    between atoms: C8_19  and  N6_20 
REMARK    4  A    between atoms: N6_20  and  C9_22 
ROOT
HETATM    1  N1  UNL     1      20.704  -2.638  -0.721  1.00  0.00    -0.270 N 
HETATM    2  N2  UNL     1      20.883  -1.383  -0.397  1.00  0.00    -0.280 N 
ATOM      3  H2  UNL     1      20.334  -0.613  -0.778  1.00  0.00     0.189 HD
HETATM    4  C4  UNL     1      21.864  -1.230   0.487  1.00  0.00     0.139 A 
HETATM    5  N3  UNL     1      22.420  -0.179   1.103  1.00  0.00    -0.337 N 
ATOM      6  H3  UNL     1      22.058   0.756   0.912  1.00  0.00     0.168 HD
HETATM    7  C5  UNL     1      23.433  -0.321   1.959  1.00  0.00     0.183 A 
HETATM    8  N4  UNL     1      23.920  -1.533   2.222  1.00  0.00    -0.336 N 
ATOM      9  H4  UNL     1      24.695  -1.647   2.875  1.00  0.00     0.168 HD
HETATM   10  C6  UNL     1      23.380  -2.605   1.619  1.00  0.00     0.143 A 
HETATM   11  N5  UNL     1      23.895  -3.718   1.883  1.00  0.00    -0.252 N 
ATOM     12  H5  UNL     1      23.497  -4.543   1.435  1.00  0.00     0.196 HD
HETATM   13  C7  UNL     1      22.325  -2.541   0.720  1.00  0.00     0.100 A 
HETATM   14  C8  UNL     1      21.606  -3.433  -0.031  1.00  0.00     0.137 A 
ENDROOT
BRANCH  14  15
HETATM   15  N6  UNL     1      21.711  -4.801  -0.164  1.00  0.00    -0.370 N 
ATOM     16  H6  UNL     1      22.524  -5.011  -0.743  1.00  0.00     0.161 HD
BRANCH  15  17
HETATM   17  C9  UNL     1      21.102  -6.007   0.209  1.00  0.00     0.083 C 
HETATM   18  C10 UNL     1      22.127  -6.869   1.071  1.00  0.00     0.025 C 
HETATM   19  C11 UNL     1      21.325  -8.034   1.593  1.00  0.00     0.002 C 
HETATM   20  C12 UNL     1      21.415  -9.236   0.682  1.00  0.00     0.000 C 
HETATM   21  C13 UNL     1      20.398  -9.257  -0.403  1.00  0.00     0.000 C 
HETATM   22  C14 UNL     1      19.837  -7.893  -0.739  1.00  0.00     0.002 C 
HETATM   23  C15 UNL     1      20.961  -6.956  -1.010  1.00  0.00     0.025 C 
ENDBRANCH  15  17
ENDBRANCH  14  15
BRANCH   1  24
HETATM   24  C2  UNL     1      19.677  -3.085  -1.676  1.00  0.00     0.102 C 
HETATM   25  C1  UNL     1      18.289  -2.678  -1.258  1.00  0.00     0.034 C 
HETATM   26  C3  UNL     1      19.991  -2.730  -3.088  1.00  0.00     0.034 C 
ENDBRANCH   1  24
BRANCH  11  27
HETATM   27  O1  UNL     1      24.932  -3.896   2.715  1.00  0.00    -0.288 OA
ATOM     28  H1  UNL     1      24.901  -4.413   3.511  1.00  0.00     0.244 HD
ENDBRANCH  11  27
TORSDOF 4
ENDMDL
MODEL 4
REMARK VINA RESULT: -6.654940633      2.341      4.046
REMARK  4 active torsions:
REMARK  status: ('A' for Active; 'I' for Inactive)
REMARK    1  A    between atoms: C2_2  and  N1_4 
REMARK    2  A    between atoms: N5_14  and  O1_16 
REMARK    3  A    between atoms: C8_19  and  N6_20 
REMARK    4  A    between atoms: N6_20  and  C9_22 
ROOT
HETATM    1  N1  UNL     1      20.574  -2.492  -0.546  1.00  0.00    -0.270 N 
HETATM    2  N2  UNL     1      20.896  -1.229  -0.434  1.00  0.00    -0.280 N 
ATOM      3  H2  UNL     1      20.422  -0.475  -0.929  1.00  0.00     0.189 HD
HETATM    4  C4  UNL     1      21.913  -1.045   0.401  1.00  0.00     0.139 A 
HETATM    5  N3  UNL     1      22.597   0.024   0.830  1.00  0.00    -0.337 N 
ATOM      6  H3  UNL     1      22.333   0.950   0.493  1.00  0.00     0.168 HD
HETATM    7  C5  UNL     1      23.614  -0.090   1.686  1.00  0.00     0.183 A 
HETATM    8  N4  UNL     1      23.975  -1.290   2.139  1.00  0.00    -0.336 N 
ATOM      9  H4  UNL     1      24.753  -1.381   2.793  1.00  0.00     0.168 HD
HETATM   10  C6  UNL     1      23.305  -2.378   1.726  1.00  0.00     0.143 A 
HETATM   11  N5  UNL     1      23.705  -3.484   2.163  1.00  0.00    -0.252 N 
ATOM     12  H5  UNL     1      23.208  -4.322   1.861  1.00  0.00     0.196 HD
HETATM   13  C7  UNL     1      22.238  -2.344   0.841  1.00  0.00     0.100 A 
HETATM   14  C8  UNL     1      21.405  -3.260   0.255  1.00  0.00     0.137 A 
ENDROOT
BRANCH  14  15
HETATM   15  N6  UNL     1      21.358  -4.635   0.346  1.00  0.00    -0.370 N 
ATOM     16  H6  UNL     1      20.470  -4.904   0.770  1.00  0.00     0.161 HD
BRANCH  15  17
HETATM   17  C9  UNL     1      22.092  -5.796   0.065  1.00  0.00     0.083 C 
HETATM   18  C10 UNL     1      21.539  -6.457  -1.274  1.00  0.00     0.025 C 
HETATM   19  C11 UNL     1      22.510  -7.563  -1.600  1.00  0.00     0.002 C 
HETATM   20  C12 UNL     1      22.071  -8.888  -1.022  1.00  0.00     0.000 C 
HETATM   21  C13 UNL     1      22.542  -9.133   0.368  1.00  0.00     0.000 C 
HETATM   22  C14 UNL     1      22.883  -7.870   1.127  1.00  0.00     0.002 C 
HETATM   23  C15 UNL     1      21.730  -6.932   1.057  1.00  0.00     0.025 C 
ENDBRANCH  15  17
ENDBRANCH  14  15
BRANCH   1  24
HETATM   24  C2  UNL     1      19.477  -2.971  -1.403  1.00  0.00     0.102 C 
HETATM   25  C1  UNL     1      18.152  -2.355  -1.037  1.00  0.00     0.034 C 
HETATM   26  C3  UNL     1      19.782  -2.880  -2.858  1.00  0.00     0.034 C 
ENDBRANCH   1  24
BRANCH  11  27
HETATM   27  O1  UNL     1      24.742  -3.639   3.000  1.00  0.00    -0.288 OA
ATOM     28  H1  UNL     1      25.240  -4.442   3.096  1.00  0.00     0.244 HD
ENDBRANCH  11  27
TORSDOF 4
ENDMDL
MODEL 5
REMARK VINA RESULT: -6.634585679      7.155      9.829
REMARK  4 active torsions:
REMARK  status: ('A' for Active; 'I' for Inactive)
REMARK    1  A    between atoms: C2_2  and  N1_4 
REMARK    2  A    between atoms: N5_14  and  O1_16 
REMARK    3  A    between atoms: C8_19  and  N6_20 
REMARK    4  A    between atoms: N6_20  and  C9_22 
ROOT
HETATM    1  N1  UNL     1      27.666   2.687   1.526  1.00  0.00    -0.270 N 
HETATM    2  N2  UNL     1      28.219   3.804   1.924  1.00  0.00    -0.280 N 
ATOM      3  H2  UNL     1      28.213   4.667   1.383  1.00  0.00     0.189 HD
HETATM    4  C4  UNL     1      28.790   3.681   3.119  1.00  0.00     0.139 A 
HETATM    5  N3  UNL     1      29.471   4.505   3.926  1.00  0.00    -0.337 N 
ATOM      6  H3  UNL     1      29.622   5.471   3.635  1.00  0.00     0.168 HD
HETATM    7  C5  UNL     1      29.957   4.096   5.100  1.00  0.00     0.183 A 
HETATM    8  N4  UNL     1      29.770   2.839   5.498  1.00  0.00    -0.336 N 
ATOM      9  H4  UNL     1      30.140   2.522   6.394  1.00  0.00     0.168 HD
HETATM   10  C6  UNL     1      29.088   1.992   4.708  1.00  0.00     0.143 A 
HETATM   11  N5  UNL     1      28.966   0.814   5.122  1.00  0.00    -0.252 N 
ATOM     12  H5  UNL     1      28.451   0.156   4.536  1.00  0.00     0.196 HD
HETATM   13  C7  UNL     1      28.552   2.339   3.478  1.00  0.00     0.100 A 
HETATM   14  C8  UNL     1      27.848   1.706   2.488  1.00  0.00     0.137 A 
ENDROOT
BRANCH  14  15
HETATM   15  N6  UNL     1      27.418   0.401   2.371  1.00  0.00    -0.370 N 
ATOM     16  H6  UNL     1      28.203  -0.176   2.070  1.00  0.00     0.161 HD
BRANCH  15  17
HETATM   17  C9  UNL     1      26.289  -0.417   2.517  1.00  0.00     0.083 C 
HETATM   18  C10 UNL     1      26.295  -1.529   1.376  1.00  0.00     0.025 C 
HETATM   19  C11 UNL     1      25.174  -2.471   1.736  1.00  0.00     0.002 C 
HETATM   20  C12 UNL     1      23.878  -2.092   1.058  1.00  0.00     0.000 C 
HETATM   21  C13 UNL     1      23.055  -1.115   1.818  1.00  0.00     0.000 C 
HETATM   22  C14 UNL     1      23.849  -0.288   2.806  1.00  0.00     0.002 C 
HETATM   23  C15 UNL     1      25.000   0.340   2.103  1.00  0.00     0.025 C 
ENDBRANCH  15  17
ENDBRANCH  14  15
BRANCH   1  24
HETATM   24  C2  UNL     1      26.962   2.552   0.241  1.00  0.00     0.102 C 
HETATM   25  C1  UNL     1      26.316   3.840  -0.199  1.00  0.00     0.034 C 
HETATM   26  C3  UNL     1      27.790   1.920  -0.823  1.00  0.00     0.034 C 
ENDBRANCH   1  24
BRANCH  11  27
HETATM   27  O1  UNL     1      29.466   0.360   6.281  1.00  0.00    -0.288 OA
ATOM     28  H1  UNL     1      28.942   0.005   6.990  1.00  0.00     0.244 HD
ENDBRANCH  11  27
TORSDOF 4
ENDMDL
