MODEL 1
REMARK VINA RESULT: -6.447471322      0.000      0.000
REMARK  2 active torsions:
REMARK  status: ('A' for Active; 'I' for Inactive)
REMARK    1  A    between atoms: C3_6  and  C4_7 
REMARK    2  A    between atoms: C8_15  and  N5_16 
ROOT
HETATM    1  C4  UNL     1      11.569 -11.828 -28.883  1.00  0.00     0.068 C 
HETATM    2  C5  UNL     1      11.621 -12.419 -30.054  1.00  0.00     0.078 A 
HETATM    3  N3  UNL     1      12.156 -13.671 -30.428  1.00  0.00    -0.346 N 
ATOM      4  H3  UNL     1      12.578 -14.298 -29.743  1.00  0.00     0.167 HD
HETATM    5  C6  UNL     1      12.082 -14.006 -31.768  1.00  0.00     0.107 A 
HETATM    6  C7  UNL     1      11.495 -13.103 -32.611  1.00  0.00     0.122 A 
HETATM    7  N4  UNL     1      11.358 -13.267 -33.927  1.00  0.00    -0.183 N 
ATOM      8  H4  UNL     1      10.907 -12.547 -34.492  1.00  0.00     0.185 HD
HETATM    9  C8  UNL     1      11.815 -14.381 -34.496  1.00  0.00     0.677 A 
HETATM   10  N6  UNL     1      12.399 -15.306 -33.730  1.00  0.00    -0.179 N 
ATOM     11  H6  UNL     1      12.747 -16.156 -34.172  1.00  0.00     0.185 HD
HETATM   12  C9  UNL     1      12.547 -15.167 -32.421  1.00  0.00     0.146 A 
HETATM   13  S1  UNL     1      13.282 -16.361 -31.585  1.00  0.00    -0.057 SA
HETATM   14  S2  UNL     1      10.980 -11.738 -31.584  1.00  0.00    -0.052 SA
ENDROOT
BRANCH   1  15
HETATM   15  C3  UNL     1      10.979 -10.519 -28.655  1.00  0.00     0.051 A 
HETATM   16  N2  UNL     1      11.098  -9.800 -27.501  1.00  0.00    -0.351 N 
HETATM   17  C2  UNL     1      10.427  -8.643 -27.596  1.00  0.00     0.182 A 
ATOM     18  H2  UNL     1      11.624 -10.102 -26.681  1.00  0.00     0.166 HD
HETATM   19  N1  UNL     1       9.846  -8.578 -28.827  1.00  0.00    -0.355 N 
HETATM   20  C1  UNL     1       9.021  -7.494 -29.336  1.00  0.00     0.156 C 
HETATM   21  C10 UNL     1      10.188  -9.723 -29.463  1.00  0.00     0.120 A 
ENDBRANCH   1  15
BRANCH   9  22
HETATM   22  N5  UNL     1      11.713 -14.598 -35.779  1.00  0.00    -0.234 N 
ATOM     23  H52 UNL     1      10.990 -14.107 -36.305  1.00  0.00     0.174 HD
ATOM     24  H51 UNL     1      12.330 -15.244 -36.271  1.00  0.00     0.174 HD
ENDBRANCH   9  22
TORSDOF 2
ENDMDL
MODEL 2
REMARK VINA RESULT: -6.106906181      1.890      2.885
REMARK  2 active torsions:
REMARK  status: ('A' for Active; 'I' for Inactive)
REMARK    1  A    between atoms: C3_6  and  C4_7 
REMARK    2  A    between atoms: C8_15  and  N5_16 
ROOT
HETATM    1  C4  UNL     1      10.773 -10.749 -32.379  1.00  0.00     0.068 C 
HETATM    2  C5  UNL     1      11.147 -12.005 -32.465  1.00  0.00     0.078 A 
HETATM    3  N3  UNL     1      11.430 -12.803 -33.595  1.00  0.00    -0.346 N 
ATOM      4  H3  UNL     1      11.381 -12.426 -34.542  1.00  0.00     0.167 HD
HETATM    5  C6  UNL     1      11.777 -14.120 -33.357  1.00  0.00     0.107 A 
HETATM    6  C7  UNL     1      11.820 -14.535 -32.054  1.00  0.00     0.122 A 
HETATM    7  N4  UNL     1      12.121 -15.771 -31.657  1.00  0.00    -0.183 N 
ATOM      8  H4  UNL     1      12.133 -16.005 -30.665  1.00  0.00     0.185 HD
HETATM    9  C8  UNL     1      12.407 -16.698 -32.571  1.00  0.00     0.677 A 
HETATM   10  N6  UNL     1      12.384 -16.360 -33.863  1.00  0.00    -0.179 N 
ATOM     11  H6  UNL     1      12.603 -17.074 -34.557  1.00  0.00     0.185 HD
HETATM   12  C9  UNL     1      12.088 -15.139 -34.283  1.00  0.00     0.146 A 
HETATM   13  S1  UNL     1      12.086 -14.842 -35.888  1.00  0.00    -0.057 SA
HETATM   14  S2  UNL     1      11.408 -13.103 -31.073  1.00  0.00    -0.052 SA
ENDROOT
BRANCH   1  15
HETATM   15  C3  UNL     1      10.514 -10.059 -31.126  1.00  0.00     0.051 A 
HETATM   16  N2  UNL     1       9.753  -8.934 -30.998  1.00  0.00    -0.351 N 
HETATM   17  C2  UNL     1       9.720  -8.530 -29.719  1.00  0.00     0.182 A 
ATOM     18  H2  UNL     1       9.276  -8.465 -31.768  1.00  0.00     0.166 HD
HETATM   19  N1  UNL     1      10.467  -9.391 -28.973  1.00  0.00    -0.355 N 
HETATM   20  C1  UNL     1      10.702  -9.313 -27.540  1.00  0.00     0.156 C 
HETATM   21  C10 UNL     1      10.945 -10.317 -29.838  1.00  0.00     0.120 A 
ENDBRANCH   1  15
BRANCH   9  22
HETATM   22  N5  UNL     1      12.706 -17.925 -32.245  1.00  0.00    -0.234 N 
ATOM     23  H52 UNL     1      12.141 -18.400 -31.541  1.00  0.00     0.174 HD
ATOM     24  H51 UNL     1      13.488 -18.423 -32.671  1.00  0.00     0.174 HD
ENDBRANCH   9  22
TORSDOF 2
ENDMDL
MODEL 3
REMARK VINA RESULT: -6.013046890      1.749      2.848
REMARK  2 active torsions:
REMARK  status: ('A' for Active; 'I' for Inactive)
REMARK    1  A    between atoms: C3_6  and  C4_7 
REMARK    2  A    between atoms: C8_15  and  N5_16 
ROOT
HETATM    1  C4  UNL     1      10.397 -10.264 -31.854  1.00  0.00     0.068 C 
HETATM    2  C5  UNL     1      10.947 -11.454 -31.771  1.00  0.00     0.078 A 
HETATM    3  N3  UNL     1      11.253 -12.396 -32.778  1.00  0.00    -0.346 N 
ATOM      4  H3  UNL     1      11.071 -12.205 -33.763  1.00  0.00     0.167 HD
HETATM    5  C6  UNL     1      11.813 -13.591 -32.364  1.00  0.00     0.107 A 
HETATM    6  C7  UNL     1      12.025 -13.757 -31.023  1.00  0.00     0.122 A 
HETATM    7  N4  UNL     1      12.540 -14.850 -30.461  1.00  0.00    -0.183 N 
ATOM      8  H4  UNL     1      12.669 -14.899 -29.451  1.00  0.00     0.185 HD
HETATM    9  C8  UNL     1      12.886 -15.879 -31.235  1.00  0.00     0.677 A 
HETATM   10  N6  UNL     1      12.706 -15.784 -32.555  1.00  0.00    -0.179 N 
ATOM     11  H6  UNL     1      12.973 -16.574 -33.141  1.00  0.00     0.185 HD
HETATM   12  C9  UNL     1      12.197 -14.708 -33.137  1.00  0.00     0.146 A 
HETATM   13  S1  UNL     1      12.018 -14.706 -34.759  1.00  0.00    -0.057 SA
HETATM   14  S2  UNL     1      11.485 -12.240 -30.253  1.00  0.00    -0.052 SA
ENDROOT
BRANCH   1  15
HETATM   15  C3  UNL     1      10.141  -9.403 -30.711  1.00  0.00     0.051 A 
HETATM   16  N2  UNL     1       9.534  -8.183 -30.776  1.00  0.00    -0.351 N 
HETATM   17  C2  UNL     1       9.460  -7.629 -29.556  1.00  0.00     0.182 A 
ATOM     18  H2  UNL     1       9.185  -7.752 -31.632  1.00  0.00     0.166 HD
HETATM   19  N1  UNL     1      10.025  -8.483 -28.657  1.00  0.00    -0.355 N 
HETATM   20  C1  UNL     1      10.159  -8.264 -27.225  1.00  0.00     0.156 C 
HETATM   21  C10 UNL     1      10.435  -9.558 -29.370  1.00  0.00     0.120 A 
ENDBRANCH   1  15
BRANCH   9  22
HETATM   22  N5  UNL     1      13.392 -16.976 -30.745  1.00  0.00    -0.234 N 
ATOM     23  H52 UNL     1      14.359 -16.970 -30.417  1.00  0.00     0.174 HD
ATOM     24  H51 UNL     1      12.855 -17.840 -30.681  1.00  0.00     0.174 HD
ENDBRANCH   9  22
TORSDOF 2
ENDMDL
MODEL 4
REMARK VINA RESULT: -5.987184727      2.018      2.813
REMARK  2 active torsions:
REMARK  status: ('A' for Active; 'I' for Inactive)
REMARK    1  A    between atoms: C3_6  and  C4_7 
REMARK    2  A    between atoms: C8_15  and  N5_16 
ROOT
HETATM    1  C4  UNL     1      11.056 -11.033 -32.451  1.00  0.00     0.068 C 
HETATM    2  C5  UNL     1      11.252 -12.321 -32.617  1.00  0.00     0.078 A 
HETATM    3  N3  UNL     1      11.506 -13.067 -33.789  1.00  0.00    -0.346 N 
ATOM      4  H3  UNL     1      11.585 -12.619 -34.702  1.00  0.00     0.167 HD
HETATM    5  C6  UNL     1      11.641 -14.435 -33.640  1.00  0.00     0.107 A 
HETATM    6  C7  UNL     1      11.523 -14.946 -32.377  1.00  0.00     0.122 A 
HETATM    7  N4  UNL     1      11.613 -16.239 -32.066  1.00  0.00    -0.183 N 
ATOM      8  H4  UNL     1      11.514 -16.545 -31.098  1.00  0.00     0.185 HD
HETATM    9  C8  UNL     1      11.834 -17.128 -33.033  1.00  0.00     0.677 A 
HETATM   10  N6  UNL     1      11.960 -16.697 -34.291  1.00  0.00    -0.179 N 
ATOM     11  H6  UNL     1      12.129 -17.383 -35.027  1.00  0.00     0.185 HD
HETATM   12  C9  UNL     1      11.875 -15.418 -34.625  1.00  0.00     0.146 A 
HETATM   13  S1  UNL     1      12.041 -15.007 -36.197  1.00  0.00    -0.057 SA
HETATM   14  S2  UNL     1      11.245 -13.545 -31.308  1.00  0.00    -0.052 SA
ENDROOT
BRANCH   1  15
HETATM   15  C3  UNL     1      10.801 -10.407 -31.164  1.00  0.00     0.051 A 
HETATM   16  N2  UNL     1      11.327 -10.823 -29.977  1.00  0.00    -0.351 N 
HETATM   17  C2  UNL     1      10.888 -10.051 -28.970  1.00  0.00     0.182 A 
ATOM     18  H2  UNL     1      11.964 -11.612 -29.868  1.00  0.00     0.166 HD
HETATM   19  N1  UNL     1      10.055  -9.103 -29.483  1.00  0.00    -0.355 N 
HETATM   20  C1  UNL     1       9.358  -8.069 -28.734  1.00  0.00     0.156 C 
HETATM   21  C10 UNL     1      10.009  -9.327 -30.818  1.00  0.00     0.120 A 
ENDBRANCH   1  15
BRANCH   9  22
HETATM   22  N5  UNL     1      11.929 -18.407 -32.793  1.00  0.00    -0.234 N 
ATOM     23  H52 UNL     1      12.846 -18.851 -32.843  1.00  0.00     0.174 HD
ATOM     24  H51 UNL     1      11.116 -18.976 -32.557  1.00  0.00     0.174 HD
ENDBRANCH   9  22
TORSDOF 2
ENDMDL
MODEL 5
REMARK VINA RESULT: -5.867385986      2.454      7.136
REMARK  2 active torsions:
REMARK  status: ('A' for Active; 'I' for Inactive)
REMARK    1  A    between atoms: C3_6  and  C4_7 
REMARK    2  A    between atoms: C8_15  and  N5_16 
ROOT
HETATM    1  C4  UNL     1      12.516 -14.080 -31.531  1.00  0.00     0.068 C 
HETATM    2  C5  UNL     1      12.071 -13.071 -30.818  1.00  0.00     0.078 A 
HETATM    3  N3  UNL     1      11.364 -11.913 -31.208  1.00  0.00    -0.346 N 
ATOM      4  H3  UNL     1      11.094 -11.752 -32.178  1.00  0.00     0.167 HD
HETATM    5  C6  UNL     1      11.056 -11.005 -30.210  1.00  0.00     0.107 A 
HETATM    6  C7  UNL     1      11.456 -11.308 -28.938  1.00  0.00     0.122 A 
HETATM    7  N4  UNL     1      11.251 -10.537 -27.871  1.00  0.00    -0.183 N 
ATOM      8  H4  UNL     1      11.579 -10.831 -26.951  1.00  0.00     0.185 HD
HETATM    9  C8  UNL     1      10.611  -9.377 -28.018  1.00  0.00     0.677 A 
HETATM   10  N6  UNL     1      10.192  -9.020 -29.234  1.00  0.00    -0.179 N 
ATOM     11  H6  UNL     1       9.704  -8.131 -29.340  1.00  0.00     0.185 HD
HETATM   12  C9  UNL     1      10.383  -9.769 -30.310  1.00  0.00     0.146 A 
HETATM   13  S1  UNL     1       9.832  -9.229 -31.749  1.00  0.00    -0.057 SA
HETATM   14  S2  UNL     1      12.263 -12.896 -29.045  1.00  0.00    -0.052 SA
ENDROOT
BRANCH   1  15
HETATM   15  C3  UNL     1      13.239 -15.214 -30.979  1.00  0.00     0.051 A 
HETATM   16  N2  UNL     1      12.655 -16.334 -30.464  1.00  0.00    -0.351 N 
HETATM   17  C2  UNL     1      13.588 -17.189 -30.018  1.00  0.00     0.182 A 
ATOM     18  H2  UNL     1      11.649 -16.499 -30.424  1.00  0.00     0.166 HD
HETATM   19  N1  UNL     1      14.817 -16.640 -30.231  1.00  0.00    -0.355 N 
HETATM   20  C1  UNL     1      16.100 -17.233 -29.887  1.00  0.00     0.156 C 
HETATM   21  C10 UNL     1      14.593 -15.439 -30.817  1.00  0.00     0.120 A 
ENDBRANCH   1  15
BRANCH   9  22
HETATM   22  N5  UNL     1      10.383  -8.578 -27.012  1.00  0.00    -0.234 N 
ATOM     23  H52 UNL     1       9.618  -7.906 -27.081  1.00  0.00     0.174 HD
ATOM     24  H51 UNL     1      10.945  -8.602 -26.162  1.00  0.00     0.174 HD
ENDBRANCH   9  22
TORSDOF 2
ENDMDL
