MODEL 1
REMARK VINA RESULT: -5.158793167      0.000      0.000
REMARK  4 active torsions:
REMARK  status: ('A' for Active; 'I' for Inactive)
REMARK    1  A    between atoms: N1_6  and  O1_8 
REMARK    2  A    between atoms: C8_12  and  O2_13 
REMARK    3  A    between atoms: O2_13  and  O3_14 
REMARK    4  A    between atoms: C14_21  and  O4_22 
ROOT
HETATM    1  C1  UNL     1      10.042 -21.051 -25.718  1.00  0.00     0.016 C 
HETATM    2  C2  UNL     1       9.895 -20.055 -26.879  1.00  0.00    -0.032 C 
HETATM    3  C3  UNL     1      11.340 -19.792 -27.338  1.00  0.00     0.015 C 
HETATM    4  C4  UNL     1      11.924 -19.130 -26.126  1.00  0.00     0.056 C 
HETATM    5  C5  UNL     1      10.781 -18.407 -25.520  1.00  0.00     0.015 C 
HETATM    6  N1  UNL     1      10.871 -17.626 -24.509  1.00  0.00    -0.277 N 
ATOM      7  H1  UNL     1      10.040 -17.160 -24.145  1.00  0.00     0.193 HD
HETATM    8  C6  UNL     1       9.529 -18.752 -26.296  1.00  0.00     0.044 C 
HETATM    9  C7  UNL     1       8.414 -18.790 -25.293  1.00  0.00     0.051 C 
HETATM   10  C8  UNL     1       7.153 -19.392 -25.869  1.00  0.00     0.192 C 
HETATM   11  C9  UNL     1       7.196 -19.106 -27.339  1.00  0.00    -0.018 C 
HETATM   12  C10 UNL     1       6.539 -18.005 -27.643  1.00  0.00    -0.018 C 
HETATM   13  C11 UNL     1       6.384 -17.438 -28.994  1.00  0.00     0.027 C 
HETATM   14  C12 UNL     1       6.797 -18.459 -30.046  1.00  0.00     0.007 C 
HETATM   15  C13 UNL     1       8.126 -19.024 -29.578  1.00  0.00     0.043 C 
HETATM   16  C14 UNL     1       7.854 -19.894 -28.369  1.00  0.00     0.084 C 
HETATM   17  C15 UNL     1       9.090 -20.605 -27.961  1.00  0.00     0.052 C 
ENDROOT
BRANCH   6  18
HETATM   18  O1  UNL     1      12.086 -17.422 -23.922  1.00  0.00    -0.290 OA
ATOM     19  H1  UNL     1      12.580 -16.638 -24.128  1.00  0.00     0.244 HD
ENDBRANCH   6  18
BRANCH  10  20
HETATM   20  O2  UNL     1       6.017 -18.812 -25.305  1.00  0.00    -0.233 OA
BRANCH  20  21
HETATM   21  O3  UNL     1       5.982 -19.058 -24.019  1.00  0.00    -0.250 OA
ATOM     22  H3  UNL     1       5.142 -18.796 -23.662  1.00  0.00     0.253 HD
ENDBRANCH  20  21
ENDBRANCH  10  20
BRANCH  16  23
HETATM   23  O4  UNL     1       6.909 -20.851 -28.817  1.00  0.00    -0.385 OA
ATOM     24  H4  UNL     1       6.668 -20.604 -29.701  1.00  0.00     0.211 HD
ENDBRANCH  16  23
TORSDOF 4
ENDMDL
MODEL 2
REMARK VINA RESULT: -5.051025583      7.305      8.450
REMARK  4 active torsions:
REMARK  status: ('A' for Active; 'I' for Inactive)
REMARK    1  A    between atoms: N1_6  and  O1_8 
REMARK    2  A    between atoms: C8_12  and  O2_13 
REMARK    3  A    between atoms: O2_13  and  O3_14 
REMARK    4  A    between atoms: C14_21  and  O4_22 
ROOT
HETATM    1  C1  UNL     1      14.115 -17.801 -32.147  1.00  0.00     0.016 C 
HETATM    2  C2  UNL     1      13.827 -16.437 -32.794  1.00  0.00    -0.032 C 
HETATM    3  C3  UNL     1      14.525 -16.511 -34.163  1.00  0.00     0.015 C 
HETATM    4  C4  UNL     1      15.965 -16.626 -33.759  1.00  0.00     0.056 C 
HETATM    5  C5  UNL     1      16.048 -15.871 -32.488  1.00  0.00     0.015 C 
HETATM    6  N1  UNL     1      17.135 -15.640 -31.851  1.00  0.00    -0.277 N 
ATOM      7  H1  UNL     1      17.116 -15.110 -30.979  1.00  0.00     0.193 HD
HETATM    8  C6  UNL     1      14.653 -15.436 -32.096  1.00  0.00     0.044 C 
HETATM    9  C7  UNL     1      14.602 -15.498 -30.597  1.00  0.00     0.051 C 
HETATM   10  C8  UNL     1      13.192 -15.360 -30.071  1.00  0.00     0.192 C 
HETATM   11  C9  UNL     1      12.454 -14.542 -31.086  1.00  0.00    -0.018 C 
HETATM   12  C10 UNL     1      12.454 -13.261 -30.776  1.00  0.00    -0.018 C 
HETATM   13  C11 UNL     1      11.820 -12.183 -31.556  1.00  0.00     0.027 C 
HETATM   14  C12 UNL     1      10.877 -12.771 -32.598  1.00  0.00     0.007 C 
HETATM   15  C13 UNL     1      11.652 -13.885 -33.279  1.00  0.00     0.043 C 
HETATM   16  C14 UNL     1      11.790 -15.020 -32.288  1.00  0.00     0.084 C 
HETATM   17  C15 UNL     1      12.397 -16.204 -32.944  1.00  0.00     0.052 C 
ENDROOT
BRANCH   6  18
HETATM   18  O1  UNL     1      18.318 -16.107 -32.347  1.00  0.00    -0.290 OA
ATOM     19  H1  UNL     1      18.930 -16.542 -31.766  1.00  0.00     0.244 HD
ENDBRANCH   6  18
BRANCH  10  20
HETATM   20  O2  UNL     1      13.179 -14.711 -28.837  1.00  0.00    -0.233 OA
BRANCH  20  21
HETATM   21  O3  UNL     1      13.966 -15.335 -27.996  1.00  0.00    -0.250 OA
ATOM     22  H3  UNL     1      13.865 -14.969 -27.125  1.00  0.00     0.253 HD
ENDBRANCH  20  21
ENDBRANCH  10  20
BRANCH  16  23
HETATM   23  O4  UNL     1      10.459 -15.342 -31.917  1.00  0.00    -0.385 OA
ATOM     24  H4  UNL     1      10.229 -14.765 -31.199  1.00  0.00     0.211 HD
ENDBRANCH  16  23
TORSDOF 4
ENDMDL
MODEL 3
REMARK VINA RESULT: -5.023852460      6.964      8.439
REMARK  4 active torsions:
REMARK  status: ('A' for Active; 'I' for Inactive)
REMARK    1  A    between atoms: N1_6  and  O1_8 
REMARK    2  A    between atoms: C8_12  and  O2_13 
REMARK    3  A    between atoms: O2_13  and  O3_14 
REMARK    4  A    between atoms: C14_21  and  O4_22 
ROOT
HETATM    1  C1  UNL     1      17.659 -15.765 -24.891  1.00  0.00     0.016 C 
HETATM    2  C2  UNL     1      17.313 -15.423 -26.349  1.00  0.00    -0.032 C 
HETATM    3  C3  UNL     1      18.650 -14.966 -26.959  1.00  0.00     0.015 C 
HETATM    4  C4  UNL     1      18.934 -13.727 -26.164  1.00  0.00     0.056 C 
HETATM    5  C5  UNL     1      17.593 -13.183 -25.845  1.00  0.00     0.015 C 
HETATM    6  N1  UNL     1      17.385 -12.067 -25.252  1.00  0.00    -0.277 N 
ATOM      7  H1  UNL     1      16.432 -11.755 -25.064  1.00  0.00     0.193 HD
HETATM    8  C6  UNL     1      16.549 -14.162 -26.335  1.00  0.00     0.044 C 
HETATM    9  C7  UNL     1      15.425 -14.106 -25.342  1.00  0.00     0.051 C 
HETATM   10  C8  UNL     1      14.434 -15.229 -25.544  1.00  0.00     0.192 C 
HETATM   11  C9  UNL     1      14.494 -15.572 -27.001  1.00  0.00    -0.018 C 
HETATM   12  C10 UNL     1      13.571 -14.935 -27.693  1.00  0.00    -0.018 C 
HETATM   13  C11 UNL     1      13.353 -15.044 -29.147  1.00  0.00     0.027 C 
HETATM   14  C12 UNL     1      14.113 -16.239 -29.706  1.00  0.00     0.007 C 
HETATM   15  C13 UNL     1      15.513 -16.151 -29.125  1.00  0.00     0.043 C 
HETATM   16  C14 UNL     1      15.419 -16.485 -27.652  1.00  0.00     0.084 C 
HETATM   17  C15 UNL     1      16.776 -16.576 -27.060  1.00  0.00     0.052 C 
ENDROOT
BRANCH   6  18
HETATM   18  O1  UNL     1      18.447 -11.298 -24.873  1.00  0.00    -0.290 OA
ATOM     19  H1  UNL     1      18.661 -11.216 -23.952  1.00  0.00     0.244 HD
ENDBRANCH   6  18
BRANCH  10  20
HETATM   20  O2  UNL     1      13.143 -14.824 -25.205  1.00  0.00    -0.233 OA
BRANCH  20  21
HETATM   21  O3  UNL     1      13.189 -13.696 -24.540  1.00  0.00    -0.250 OA
ATOM     22  H3  UNL     1      14.077 -13.525 -24.252  1.00  0.00     0.253 HD
ENDBRANCH  20  21
ENDBRANCH  10  20
BRANCH  16  23
HETATM   23  O4  UNL     1      14.822 -17.771 -27.609  1.00  0.00    -0.385 OA
ATOM     24  H4  UNL     1      15.431 -18.369 -28.024  1.00  0.00     0.211 HD
ENDBRANCH  16  23
TORSDOF 4
ENDMDL
MODEL 4
REMARK VINA RESULT: -4.945482382      1.636      2.206
REMARK  4 active torsions:
REMARK  status: ('A' for Active; 'I' for Inactive)
REMARK    1  A    between atoms: N1_6  and  O1_8 
REMARK    2  A    between atoms: C8_12  and  O2_13 
REMARK    3  A    between atoms: O2_13  and  O3_14 
REMARK    4  A    between atoms: C14_21  and  O4_22 
ROOT
HETATM    1  C1  UNL     1       8.011 -20.337 -23.453  1.00  0.00     0.016 C 
HETATM    2  C2  UNL     1       8.573 -20.677 -24.843  1.00  0.00    -0.032 C 
HETATM    3  C3  UNL     1       9.911 -21.379 -24.549  1.00  0.00     0.015 C 
HETATM    4  C4  UNL     1      10.693 -20.274 -23.904  1.00  0.00     0.056 C 
HETATM    5  C5  UNL     1      10.181 -19.041 -24.546  1.00  0.00     0.015 C 
HETATM    6  N1  UNL     1      10.655 -17.869 -24.347  1.00  0.00    -0.277 N 
ATOM      7  H1  UNL     1      10.251 -17.063 -24.825  1.00  0.00     0.193 HD
HETATM    8  C6  UNL     1       9.030 -19.415 -25.453  1.00  0.00     0.044 C 
HETATM    9  C7  UNL     1       8.053 -18.278 -25.379  1.00  0.00     0.051 C 
HETATM   10  C8  UNL     1       6.726 -18.628 -26.012  1.00  0.00     0.192 C 
HETATM   11  C9  UNL     1       7.031 -19.646 -27.069  1.00  0.00    -0.018 C 
HETATM   12  C10 UNL     1       7.194 -19.090 -28.252  1.00  0.00    -0.018 C 
HETATM   13  C11 UNL     1       7.503 -19.801 -29.506  1.00  0.00     0.027 C 
HETATM   14  C12 UNL     1       7.286 -21.298 -29.330  1.00  0.00     0.007 C 
HETATM   15  C13 UNL     1       7.970 -21.668 -28.026  1.00  0.00     0.043 C 
HETATM   16  C14 UNL     1       7.148 -21.085 -26.896  1.00  0.00     0.084 C 
HETATM   17  C15 UNL     1       7.674 -21.547 -25.589  1.00  0.00     0.052 C 
ENDROOT
BRANCH   6  18
HETATM   18  O1  UNL     1      11.705 -17.704 -23.490  1.00  0.00    -0.290 OA
ATOM     19  H1  UNL     1      12.488 -18.229 -23.603  1.00  0.00     0.244 HD
ENDBRANCH   6  18
BRANCH  10  20
HETATM   20  O2  UNL     1       6.136 -17.505 -26.591  1.00  0.00    -0.233 OA
BRANCH  20  21
HETATM   21  O3  UNL     1       5.440 -16.853 -25.693  1.00  0.00    -0.250 OA
ATOM     22  H3  UNL     1       5.497 -15.919 -25.854  1.00  0.00     0.253 HD
ENDBRANCH  20  21
ENDBRANCH  10  20
BRANCH  16  23
HETATM   23  O4  UNL     1       5.849 -21.624 -27.077  1.00  0.00    -0.385 OA
ATOM     24  H4  UNL     1       5.732 -21.745 -28.011  1.00  0.00     0.211 HD
ENDBRANCH  16  23
TORSDOF 4
ENDMDL
MODEL 5
REMARK VINA RESULT: -4.871393167      3.280      5.325
REMARK  4 active torsions:
REMARK  status: ('A' for Active; 'I' for Inactive)
REMARK    1  A    between atoms: N1_6  and  O1_8 
REMARK    2  A    between atoms: C8_12  and  O2_13 
REMARK    3  A    between atoms: O2_13  and  O3_14 
REMARK    4  A    between atoms: C14_21  and  O4_22 
ROOT
HETATM    1  C1  UNL     1       7.466 -20.804 -29.404  1.00  0.00     0.016 C 
HETATM    2  C2  UNL     1       8.581 -19.746 -29.425  1.00  0.00    -0.032 C 
HETATM    3  C3  UNL     1       9.108 -19.722 -27.980  1.00  0.00     0.015 C 
HETATM    4  C4  UNL     1       7.906 -19.228 -27.231  1.00  0.00     0.056 C 
HETATM    5  C5  UNL     1       7.214 -18.343 -28.196  1.00  0.00     0.015 C 
HETATM    6  N1  UNL     1       6.181 -17.637 -27.921  1.00  0.00    -0.277 N 
ATOM      7  H1  UNL     1       5.755 -17.048 -28.637  1.00  0.00     0.193 HD
HETATM    8  C6  UNL     1       7.932 -18.426 -29.524  1.00  0.00     0.044 C 
HETATM    9  C7  UNL     1       6.871 -18.312 -30.580  1.00  0.00     0.051 C 
HETATM   10  C8  UNL     1       7.399 -18.656 -31.954  1.00  0.00     0.192 C 
HETATM   11  C9  UNL     1       8.858 -18.316 -31.930  1.00  0.00    -0.018 C 
HETATM   12  C10 UNL     1       9.086 -17.104 -32.393  1.00  0.00    -0.018 C 
HETATM   13  C11 UNL     1      10.405 -16.457 -32.509  1.00  0.00     0.027 C 
HETATM   14  C12 UNL     1      11.514 -17.487 -32.335  1.00  0.00     0.007 C 
HETATM   15  C13 UNL     1      11.140 -18.298 -31.107  1.00  0.00     0.043 C 
HETATM   16  C14 UNL     1       9.950 -19.160 -31.473  1.00  0.00     0.084 C 
HETATM   17  C15 UNL     1       9.636 -20.096 -30.366  1.00  0.00     0.052 C 
ENDROOT
BRANCH   6  18
HETATM   18  O1  UNL     1       5.654 -17.677 -26.662  1.00  0.00    -0.290 OA
ATOM     19  H1  UNL     1       5.222 -16.908 -26.311  1.00  0.00     0.244 HD
ENDBRANCH   6  18
BRANCH  10  20
HETATM   20  O2  UNL     1       6.754 -17.911 -32.940  1.00  0.00    -0.233 OA
BRANCH  20  21
HETATM   21  O3  UNL     1       6.546 -18.655 -33.998  1.00  0.00    -0.250 OA
ATOM     22  H3  UNL     1       7.342 -19.118 -34.230  1.00  0.00     0.253 HD
ENDBRANCH  20  21
ENDBRANCH  10  20
BRANCH  16  23
HETATM   23  O4  UNL     1      10.380 -19.914 -32.594  1.00  0.00    -0.385 OA
ATOM     24  H4  UNL     1      11.147 -20.401 -32.318  1.00  0.00     0.211 HD
ENDBRANCH  16  23
TORSDOF 4
ENDMDL
