MODEL 1
REMARK VINA RESULT: -7.049201146      0.000      0.000
REMARK  4 active torsions:
REMARK  status: ('A' for Active; 'I' for Inactive)
REMARK    1  A    between atoms: N1_1  and  C1_4 
REMARK    2  A    between atoms: C2_7  and  O1_8 
REMARK    3  A    between atoms: C4_13  and  C5_14 
REMARK    4  A    between atoms: N4_23  and  N5_24 
ROOT
HETATM    1  C1  UNL     1       9.389  -7.987 -29.605  1.00  0.00     0.679 A 
HETATM    2  N2  UNL     1       9.812  -8.497 -28.413  1.00  0.00    -0.168 N 
ATOM      3  H2  UNL     1       9.564  -8.008 -27.552  1.00  0.00     0.186 HD
HETATM    4  C2  UNL     1      10.542  -9.618 -28.334  1.00  0.00     0.186 A 
HETATM    5  C3  UNL     1      10.901 -10.314 -29.478  1.00  0.00     0.132 A 
HETATM    6  N3  UNL     1      11.591 -11.415 -29.747  1.00  0.00    -0.338 N 
ATOM      7  H3  UNL     1      12.035 -12.018 -29.054  1.00  0.00     0.167 HD
HETATM    8  C4  UNL     1      11.613 -11.608 -31.065  1.00  0.00     0.110 A 
HETATM    9  N4  UNL     1      10.924 -10.609 -31.629  1.00  0.00    -0.231 N 
HETATM   10  C14 UNL     1      10.471  -9.790 -30.668  1.00  0.00     0.174 A 
HETATM   11  N6  UNL     1       9.729  -8.645 -30.705  1.00  0.00    -0.172 N 
ATOM     12  H6  UNL     1       9.425  -8.283 -31.609  1.00  0.00     0.186 HD
ENDROOT
BRANCH   8  13
HETATM   13  C5  UNL     1      12.255 -12.707 -31.838  1.00  0.00     0.055 C 
HETATM   14  C6  UNL     1      11.342 -13.417 -32.788  1.00  0.00     0.012 C 
HETATM   15  C7  UNL     1      10.109 -14.012 -32.283  1.00  0.00     0.001 C 
HETATM   16  C8  UNL     1      10.095 -15.476 -31.979  1.00  0.00     0.000 C 
HETATM   17  C9  UNL     1      11.164 -16.313 -32.544  1.00  0.00     0.000 C 
HETATM   18  C10 UNL     1      12.451 -16.382 -31.814  1.00  0.00     0.000 C 
HETATM   19  C11 UNL     1      12.475 -15.955 -30.411  1.00  0.00     0.000 C 
HETATM   20  C12 UNL     1      12.504 -14.519 -30.080  1.00  0.00     0.001 C 
HETATM   21  C13 UNL     1      13.145 -13.596 -31.021  1.00  0.00     0.012 C 
ENDBRANCH   8  13
BRANCH   9  22
HETATM   22  N5  UNL     1      10.681 -10.401 -33.014  1.00  0.00    -0.335 N 
ATOM     23  H52 UNL     1      10.815 -11.122 -33.722  1.00  0.00     0.177 HD
ATOM     24  H51 UNL     1      10.357  -9.546 -33.464  1.00  0.00     0.177 HD
ENDBRANCH   9  22
BRANCH   4  25
HETATM   25  O1  UNL     1      10.957 -10.113 -27.116  1.00  0.00    -0.344 OA
ATOM     26  H1  UNL     1      11.813 -10.510 -27.014  1.00  0.00     0.219 HD
ENDBRANCH   4  25
BRANCH   1  27
HETATM   27  N1  UNL     1       8.690  -6.911 -29.661  1.00  0.00    -0.234 N 
ATOM     28  H12 UNL     1       7.705  -6.906 -29.397  1.00  0.00     0.174 HD
ATOM     29  H11 UNL     1       9.098  -6.029 -29.971  1.00  0.00     0.174 HD
ENDBRANCH   1  27
TORSDOF 4
ENDMDL
MODEL 2
REMARK VINA RESULT: -6.035310380      1.161      1.380
REMARK  4 active torsions:
REMARK  status: ('A' for Active; 'I' for Inactive)
REMARK    1  A    between atoms: N1_1  and  C1_4 
REMARK    2  A    between atoms: C2_7  and  O1_8 
REMARK    3  A    between atoms: C4_13  and  C5_14 
REMARK    4  A    between atoms: N4_23  and  N5_24 
ROOT
HETATM    1  C1  UNL     1      10.033  -9.052 -30.252  1.00  0.00     0.679 A 
HETATM    2  N2  UNL     1      10.528  -9.381 -29.024  1.00  0.00    -0.168 N 
ATOM      3  H2  UNL     1      10.335  -8.765 -28.234  1.00  0.00     0.186 HD
HETATM    4  C2  UNL     1      11.258 -10.486 -28.820  1.00  0.00     0.186 A 
HETATM    5  C3  UNL     1      11.544 -11.351 -29.864  1.00  0.00     0.132 A 
HETATM    6  N3  UNL     1      12.214 -12.488 -30.004  1.00  0.00    -0.338 N 
ATOM      7  H3  UNL     1      12.698 -12.984 -29.257  1.00  0.00     0.167 HD
HETATM    8  C4  UNL     1      12.153 -12.879 -31.277  1.00  0.00     0.110 A 
HETATM    9  N4  UNL     1      11.433 -11.970 -31.943  1.00  0.00    -0.231 N 
HETATM   10  C14 UNL     1      11.042 -11.009 -31.092  1.00  0.00     0.174 A 
HETATM   11  N6  UNL     1      10.302  -9.874 -31.257  1.00  0.00    -0.172 N 
ATOM     12  H6  UNL     1       9.943  -9.650 -32.186  1.00  0.00     0.186 HD
ENDROOT
BRANCH   8  13
HETATM   13  C5  UNL     1      12.744 -14.090 -31.911  1.00  0.00     0.055 C 
HETATM   14  C6  UNL     1      11.811 -14.839 -32.812  1.00  0.00     0.012 C 
HETATM   15  C7  UNL     1      10.530 -15.301 -32.289  1.00  0.00     0.001 C 
HETATM   16  C8  UNL     1      10.416 -16.723 -31.835  1.00  0.00     0.000 C 
HETATM   17  C9  UNL     1      11.443 -17.677 -32.277  1.00  0.00     0.000 C 
HETATM   18  C10 UNL     1      12.704 -17.747 -31.503  1.00  0.00     0.000 C 
HETATM   19  C11 UNL     1      12.719 -17.178 -30.151  1.00  0.00     0.000 C 
HETATM   20  C12 UNL     1      12.831 -15.720 -29.969  1.00  0.00     0.001 C 
HETATM   21  C13 UNL     1      13.553 -14.941 -30.979  1.00  0.00     0.012 C 
ENDBRANCH   8  13
BRANCH   9  22
HETATM   22  N5  UNL     1      11.105 -11.970 -33.326  1.00  0.00    -0.335 N 
ATOM     23  H52 UNL     1      10.379 -12.562 -33.730  1.00  0.00     0.177 HD
ATOM     24  H51 UNL     1      11.528 -11.409 -34.064  1.00  0.00     0.177 HD
ENDBRANCH   9  22
BRANCH   4  25
HETATM   25  O1  UNL     1      11.747 -10.795 -27.568  1.00  0.00    -0.344 OA
ATOM     26  H1  UNL     1      12.508 -11.353 -27.463  1.00  0.00     0.219 HD
ENDBRANCH   4  25
BRANCH   1  27
HETATM   27  N1  UNL     1       9.334  -7.990 -30.428  1.00  0.00    -0.234 N 
ATOM     28  H12 UNL     1       8.548  -7.974 -31.077  1.00  0.00     0.174 HD
ATOM     29  H11 UNL     1       9.544  -7.128 -29.923  1.00  0.00     0.174 HD
ENDBRANCH   1  27
TORSDOF 4
ENDMDL
MODEL 3
REMARK VINA RESULT: -6.015994144      2.778      4.289
REMARK  4 active torsions:
REMARK  status: ('A' for Active; 'I' for Inactive)
REMARK    1  A    between atoms: N1_1  and  C1_4 
REMARK    2  A    between atoms: C2_7  and  O1_8 
REMARK    3  A    between atoms: C4_13  and  C5_14 
REMARK    4  A    between atoms: N4_23  and  N5_24 
ROOT
HETATM    1  C1  UNL     1      11.545 -11.139 -29.322  1.00  0.00     0.679 A 
HETATM    2  N2  UNL     1      11.088 -10.471 -30.421  1.00  0.00    -0.168 N 
ATOM      3  H2  UNL     1      10.805  -9.496 -30.322  1.00  0.00     0.186 HD
HETATM    4  C2  UNL     1      10.999 -11.053 -31.625  1.00  0.00     0.186 A 
HETATM    5  C3  UNL     1      11.372 -12.375 -31.804  1.00  0.00     0.132 A 
HETATM    6  N3  UNL     1      11.409 -13.227 -32.821  1.00  0.00    -0.338 N 
ATOM      7  H3  UNL     1      11.127 -13.015 -33.778  1.00  0.00     0.167 HD
HETATM    8  C4  UNL     1      11.872 -14.401 -32.395  1.00  0.00     0.110 A 
HETATM    9  N4  UNL     1      12.130 -14.281 -31.087  1.00  0.00    -0.231 N 
HETATM   10  C14 UNL     1      11.829 -13.034 -30.693  1.00  0.00     0.174 A 
HETATM   11  N6  UNL     1      11.904 -12.404 -29.484  1.00  0.00    -0.172 N 
ATOM     12  H6  UNL     1      12.249 -12.926 -28.677  1.00  0.00     0.186 HD
ENDROOT
BRANCH   8  13
HETATM   13  C5  UNL     1      12.096 -15.654 -33.168  1.00  0.00     0.055 C 
HETATM   14  C6  UNL     1      12.824 -15.465 -34.463  1.00  0.00     0.012 C 
HETATM   15  C7  UNL     1      12.295 -14.529 -35.449  1.00  0.00     0.001 C 
HETATM   16  C8  UNL     1      11.474 -15.068 -36.578  1.00  0.00     0.000 C 
HETATM   17  C9  UNL     1      11.550 -16.508 -36.864  1.00  0.00     0.000 C 
HETATM   18  C10 UNL     1      10.690 -17.420 -36.075  1.00  0.00     0.000 C 
HETATM   19  C11 UNL     1       9.553 -16.843 -35.349  1.00  0.00     0.000 C 
HETATM   20  C12 UNL     1       9.776 -16.143 -34.072  1.00  0.00     0.001 C 
HETATM   21  C13 UNL     1      10.903 -16.560 -33.231  1.00  0.00     0.012 C 
ENDBRANCH   8  13
BRANCH   9  22
HETATM   22  N5  UNL     1      12.639 -15.277 -30.212  1.00  0.00    -0.335 N 
ATOM     23  H52 UNL     1      13.102 -15.064 -29.328  1.00  0.00     0.177 HD
ATOM     24  H51 UNL     1      12.613 -16.288 -30.340  1.00  0.00     0.177 HD
ENDBRANCH   9  22
BRANCH   4  25
HETATM   25  O1  UNL     1      10.534 -10.356 -32.719  1.00  0.00    -0.344 OA
ATOM     26  H1  UNL     1      11.010 -10.357 -33.540  1.00  0.00     0.219 HD
ENDBRANCH   4  25
BRANCH   1  27
HETATM   27  N1  UNL     1      11.624 -10.564 -28.177  1.00  0.00    -0.234 N 
ATOM     28  H12 UNL     1      11.188 -10.971 -27.349  1.00  0.00     0.174 HD
ATOM     29  H11 UNL     1      12.125  -9.683 -28.059  1.00  0.00     0.174 HD
ENDBRANCH   1  27
TORSDOF 4
ENDMDL
MODEL 4
REMARK VINA RESULT: -5.879653003      2.372      3.680
REMARK  4 active torsions:
REMARK  status: ('A' for Active; 'I' for Inactive)
REMARK    1  A    between atoms: N1_1  and  C1_4 
REMARK    2  A    between atoms: C2_7  and  O1_8 
REMARK    3  A    between atoms: C4_13  and  C5_14 
REMARK    4  A    between atoms: N4_23  and  N5_24 
ROOT
HETATM    1  C1  UNL     1      10.540 -10.176 -31.471  1.00  0.00     0.679 A 
HETATM    2  N2  UNL     1      10.857 -10.057 -30.150  1.00  0.00    -0.168 N 
ATOM      3  H2  UNL     1      10.625  -9.190 -29.663  1.00  0.00     0.186 HD
HETATM    4  C2  UNL     1      11.463 -11.039 -29.469  1.00  0.00     0.186 A 
HETATM    5  C3  UNL     1      11.797 -12.232 -30.090  1.00  0.00     0.132 A 
HETATM    6  N3  UNL     1      12.381 -13.366 -29.725  1.00  0.00    -0.338 N 
ATOM      7  H3  UNL     1      12.730 -13.576 -28.790  1.00  0.00     0.167 HD
HETATM    8  C4  UNL     1      12.439 -14.188 -30.772  1.00  0.00     0.110 A 
HETATM    9  N4  UNL     1      11.881 -13.555 -31.810  1.00  0.00    -0.231 N 
HETATM   10  C14 UNL     1      11.474 -12.338 -31.416  1.00  0.00     0.174 A 
HETATM   11  N6  UNL     1      10.856 -11.313 -32.074  1.00  0.00    -0.172 N 
ATOM     12  H6  UNL     1      10.629 -11.427 -33.062  1.00  0.00     0.186 HD
ENDROOT
BRANCH   8  13
HETATM   13  C5  UNL     1      12.996 -15.566 -30.849  1.00  0.00     0.055 C 
HETATM   14  C6  UNL     1      13.082 -16.278 -29.534  1.00  0.00     0.012 C 
HETATM   15  C7  UNL     1      13.813 -15.660 -28.434  1.00  0.00     0.001 C 
HETATM   16  C8  UNL     1      15.223 -16.094 -28.181  1.00  0.00     0.000 C 
HETATM   17  C9  UNL     1      15.677 -17.359 -28.777  1.00  0.00     0.000 C 
HETATM   18  C10 UNL     1      16.154 -17.334 -30.179  1.00  0.00     0.000 C 
HETATM   19  C11 UNL     1      16.519 -16.038 -30.763  1.00  0.00     0.000 C 
HETATM   20  C12 UNL     1      15.465 -15.122 -31.232  1.00  0.00     0.001 C 
HETATM   21  C13 UNL     1      14.208 -15.693 -31.724  1.00  0.00     0.012 C 
ENDBRANCH   8  13
BRANCH   9  22
HETATM   22  N5  UNL     1      11.719 -14.043 -33.135  1.00  0.00    -0.335 N 
ATOM     23  H52 UNL     1      12.345 -14.726 -33.562  1.00  0.00     0.177 HD
ATOM     24  H51 UNL     1      10.994 -13.790 -33.805  1.00  0.00     0.177 HD
ENDBRANCH   9  22
BRANCH   4  25
HETATM   25  O1  UNL     1      11.773 -10.893 -28.134  1.00  0.00    -0.344 OA
ATOM     26  H1  UNL     1      11.711 -11.625 -27.533  1.00  0.00     0.219 HD
ENDBRANCH   4  25
BRANCH   1  27
HETATM   27  N1  UNL     1       9.958  -9.224 -32.107  1.00  0.00    -0.234 N 
ATOM     28  H12 UNL     1       9.275  -8.621 -31.649  1.00  0.00     0.174 HD
ATOM     29  H11 UNL     1      10.162  -9.040 -33.089  1.00  0.00     0.174 HD
ENDBRANCH   1  27
TORSDOF 4
ENDMDL
MODEL 5
REMARK VINA RESULT: -5.851528123      2.604      4.349
REMARK  4 active torsions:
REMARK  status: ('A' for Active; 'I' for Inactive)
REMARK    1  A    between atoms: N1_1  and  C1_4 
REMARK    2  A    between atoms: C2_7  and  O1_8 
REMARK    3  A    between atoms: C4_13  and  C5_14 
REMARK    4  A    between atoms: N4_23  and  N5_24 
ROOT
HETATM    1  C1  UNL     1      10.894 -10.386 -30.798  1.00  0.00     0.679 A 
HETATM    2  N2  UNL     1      10.802 -10.853 -32.076  1.00  0.00    -0.168 N 
ATOM      3  H2  UNL     1      10.402 -10.248 -32.794  1.00  0.00     0.186 HD
HETATM    4  C2  UNL     1      11.221 -12.078 -32.422  1.00  0.00     0.186 A 
HETATM    5  C3  UNL     1      11.771 -12.932 -31.480  1.00  0.00     0.132 A 
HETATM    6  N3  UNL     1      12.267 -14.163 -31.483  1.00  0.00    -0.338 N 
ATOM      7  H3  UNL     1      12.333 -14.771 -32.300  1.00  0.00     0.167 HD
HETATM    8  C4  UNL     1      12.663 -14.480 -30.251  1.00  0.00     0.110 A 
HETATM    9  N4  UNL     1      12.412 -13.428 -29.465  1.00  0.00    -0.231 N 
HETATM   10  C14 UNL     1      11.857 -12.452 -30.200  1.00  0.00     0.174 A 
HETATM   11  N6  UNL     1      11.419 -11.197 -29.889  1.00  0.00    -0.172 N 
ATOM     12  H6  UNL     1      11.499 -10.871 -28.925  1.00  0.00     0.186 HD
ENDROOT
BRANCH   8  13
HETATM   13  C5  UNL     1      13.285 -15.744 -29.766  1.00  0.00     0.055 C 
HETATM   14  C6  UNL     1      14.782 -15.757 -29.806  1.00  0.00     0.012 C 
HETATM   15  C7  UNL     1      15.465 -15.487 -31.066  1.00  0.00     0.001 C 
HETATM   16  C8  UNL     1      15.943 -16.646 -31.882  1.00  0.00     0.000 C 
HETATM   17  C9  UNL     1      16.052 -17.958 -31.227  1.00  0.00     0.000 C 
HETATM   18  C10 UNL     1      14.831 -18.791 -31.133  1.00  0.00     0.000 C 
HETATM   19  C11 UNL     1      13.702 -18.466 -32.013  1.00  0.00     0.000 C 
HETATM   20  C12 UNL     1      12.812 -17.339 -31.681  1.00  0.00     0.001 C 
HETATM   21  C13 UNL     1      12.621 -16.990 -30.270  1.00  0.00     0.012 C 
ENDBRANCH   8  13
BRANCH   9  22
HETATM   22  N5  UNL     1      12.668 -13.309 -28.072  1.00  0.00    -0.335 N 
ATOM     23  H52 UNL     1      13.491 -13.704 -27.617  1.00  0.00     0.177 HD
ATOM     24  H51 UNL     1      12.094 -12.836 -27.374  1.00  0.00     0.177 HD
ENDBRANCH   9  22
BRANCH   4  25
HETATM   25  O1  UNL     1      11.116 -12.525 -33.722  1.00  0.00    -0.344 OA
ATOM     26  H1  UNL     1      10.269 -12.695 -34.115  1.00  0.00     0.219 HD
ENDBRANCH   4  25
BRANCH   1  27
HETATM   27  N1  UNL     1      10.489  -9.209 -30.485  1.00  0.00    -0.234 N 
ATOM     28  H12 UNL     1      10.989  -8.377 -30.796  1.00  0.00     0.174 HD
ATOM     29  H11 UNL     1       9.653  -9.069 -29.917  1.00  0.00     0.174 HD
ENDBRANCH   1  27
TORSDOF 4
ENDMDL
