MODEL 1
REMARK VINA RESULT: -7.393542178      0.000      0.000
REMARK  5 active torsions:
REMARK  status: ('A' for Active; 'I' for Inactive)
REMARK    1  A    between atoms: N1_1  and  C1_4 
REMARK    2  A    between atoms: C4_7  and  C5_8 
REMARK    3  A    between atoms: C6_9  and  C7_10 
REMARK    4  A    between atoms: C7_10  and  N2_11 
REMARK    5  A    between atoms: C10_14  and  O1_15 
ROOT
HETATM    1  C5  UNL     1      16.879  23.348  65.702  1.00  0.00     0.010 C 
HETATM    2  C6  UNL     1      17.256  22.614  64.690  1.00  0.00    -0.004 C 
ENDROOT
BRANCH   1   3
HETATM    3  C4  UNL     1      17.406  24.663  65.920  1.00  0.00    -0.021 A 
HETATM    4  C3  UNL     1      16.687  25.594  66.624  1.00  0.00     0.016 A 
HETATM    5  C2  UNL     1      17.213  26.867  66.828  1.00  0.00     0.049 A 
HETATM    6  C1  UNL     1      18.453  27.134  66.301  1.00  0.00     0.098 A 
HETATM    7  N4  UNL     1      19.156  26.219  65.610  1.00  0.00    -0.352 N 
HETATM    8  C11 UNL     1      18.668  24.990  65.404  1.00  0.00     0.101 A 
ATOM      9  H4  UNL     1      20.073  26.466  65.238  1.00  0.00     0.166 HD
BRANCH   6  10
HETATM   10  N1  UNL     1      18.913  28.341  66.512  1.00  0.00    -0.385 N 
ATOM     11  H12 UNL     1      19.888  28.508  66.761  1.00  0.00     0.157 HD
ATOM     12  H11 UNL     1      18.237  29.097  66.411  1.00  0.00     0.157 HD
ENDBRANCH   6  10
ENDBRANCH   1   3
BRANCH   2  13
HETATM   13  C7  UNL     1      16.694  21.227  64.470  1.00  0.00     0.175 C 
BRANCH  13  14
HETATM   14  N2  UNL     1      17.829  20.325  64.560  1.00  0.00    -0.298 N 
HETATM   15  C8  UNL     1      18.272  19.723  65.666  1.00  0.00     0.114 A 
HETATM   16  C9  UNL     1      19.359  18.969  65.284  1.00  0.00     0.076 A 
HETATM   17  C10 UNL     1      19.528  19.158  63.914  1.00  0.00     0.156 A 
HETATM   18  N3  UNL     1      18.568  19.996  63.516  1.00  0.00    -0.278 N 
ATOM     19  H3  UNL     1      18.427  20.327  62.562  1.00  0.00     0.189 HD
BRANCH  17  20
HETATM   20  O1  UNL     1      20.502  18.592  63.103  1.00  0.00    -0.345 OA
ATOM     21  H1  UNL     1      20.375  17.946  62.419  1.00  0.00     0.219 HD
ENDBRANCH  17  20
ENDBRANCH  13  14
ENDBRANCH   2  13
TORSDOF 5
ENDMDL
MODEL 2
REMARK VINA RESULT: -7.349976374      0.678      1.199
REMARK  5 active torsions:
REMARK  status: ('A' for Active; 'I' for Inactive)
REMARK    1  A    between atoms: N1_1  and  C1_4 
REMARK    2  A    between atoms: C4_7  and  C5_8 
REMARK    3  A    between atoms: C6_9  and  C7_10 
REMARK    4  A    between atoms: C7_10  and  N2_11 
REMARK    5  A    between atoms: C10_14  and  O1_15 
ROOT
HETATM    1  C5  UNL     1      16.934  23.393  65.705  1.00  0.00     0.010 C 
HETATM    2  C6  UNL     1      17.250  22.676  64.660  1.00  0.00    -0.004 C 
ENDROOT
BRANCH   1   3
HETATM    3  C4  UNL     1      17.481  24.700  65.917  1.00  0.00    -0.021 A 
HETATM    4  C3  UNL     1      18.709  25.032  65.408  1.00  0.00     0.016 A 
HETATM    5  C2  UNL     1      19.228  26.307  65.622  1.00  0.00     0.049 A 
HETATM    6  C1  UNL     1      18.466  27.187  66.351  1.00  0.00     0.098 A 
HETATM    7  N4  UNL     1      17.262  26.859  66.850  1.00  0.00    -0.352 N 
HETATM    8  C11 UNL     1      16.746  25.639  66.654  1.00  0.00     0.101 A 
ATOM      9  H4  UNL     1      16.735  27.548  67.386  1.00  0.00     0.166 HD
BRANCH   6  10
HETATM   10  N1  UNL     1      18.987  28.375  66.532  1.00  0.00    -0.385 N 
ATOM     11  H12 UNL     1      19.982  28.502  66.714  1.00  0.00     0.157 HD
ATOM     12  H11 UNL     1      18.335  29.157  66.479  1.00  0.00     0.157 HD
ENDBRANCH   6  10
ENDBRANCH   1   3
BRANCH   2  13
HETATM   13  C7  UNL     1      16.666  21.296  64.445  1.00  0.00     0.175 C 
BRANCH  13  14
HETATM   14  N2  UNL     1      17.784  20.376  64.557  1.00  0.00    -0.298 N 
HETATM   15  C8  UNL     1      18.184  19.751  65.667  1.00  0.00     0.114 A 
HETATM   16  C9  UNL     1      19.271  18.987  65.307  1.00  0.00     0.076 A 
HETATM   17  C10 UNL     1      19.485  19.193  63.946  1.00  0.00     0.156 A 
HETATM   18  N3  UNL     1      18.550  20.051  63.531  1.00  0.00    -0.278 N 
ATOM     19  H3  UNL     1      18.445  20.398  62.578  1.00  0.00     0.189 HD
BRANCH  17  20
HETATM   20  O1  UNL     1      20.476  18.623  63.158  1.00  0.00    -0.345 OA
ATOM     21  H1  UNL     1      20.386  18.298  62.270  1.00  0.00     0.219 HD
ENDBRANCH  17  20
ENDBRANCH  13  14
ENDBRANCH   2  13
TORSDOF 5
ENDMDL
MODEL 3
REMARK VINA RESULT: -7.333785672      2.494      2.997
REMARK  5 active torsions:
REMARK  status: ('A' for Active; 'I' for Inactive)
REMARK    1  A    between atoms: N1_1  and  C1_4 
REMARK    2  A    between atoms: C4_7  and  C5_8 
REMARK    3  A    between atoms: C6_9  and  C7_10 
REMARK    4  A    between atoms: C7_10  and  N2_11 
REMARK    5  A    between atoms: C10_14  and  O1_15 
ROOT
HETATM    1  C5  UNL     1      17.698  23.397  65.360  1.00  0.00     0.010 C 
HETATM    2  C6  UNL     1      18.165  22.987  64.211  1.00  0.00    -0.004 C 
ENDROOT
BRANCH   1   3
HETATM    3  C4  UNL     1      17.825  24.760  65.784  1.00  0.00    -0.021 A 
HETATM    4  C3  UNL     1      16.819  25.366  66.490  1.00  0.00     0.016 A 
HETATM    5  C2  UNL     1      16.957  26.691  66.895  1.00  0.00     0.049 A 
HETATM    6  C1  UNL     1      18.120  27.339  66.560  1.00  0.00     0.098 A 
HETATM    7  N4  UNL     1      19.105  26.743  65.867  1.00  0.00    -0.352 N 
HETATM    8  C11 UNL     1      18.992  25.470  65.468  1.00  0.00     0.101 A 
ATOM      9  H4  UNL     1      19.950  27.267  65.642  1.00  0.00     0.166 HD
BRANCH   6  10
HETATM   10  N1  UNL     1      18.213  28.583  66.958  1.00  0.00    -0.385 N 
ATOM     11  H12 UNL     1      18.379  28.823  67.935  1.00  0.00     0.157 HD
ATOM     12  H11 UNL     1      18.110  29.290  66.230  1.00  0.00     0.157 HD
ENDBRANCH   6  10
ENDBRANCH   1   3
BRANCH   2  13
HETATM   13  C7  UNL     1      18.026  21.544  63.773  1.00  0.00     0.175 C 
BRANCH  13  14
HETATM   14  N2  UNL     1      16.602  21.263  63.798  1.00  0.00    -0.298 N 
HETATM   15  C8  UNL     1      15.963  20.504  64.692  1.00  0.00     0.114 A 
HETATM   16  C9  UNL     1      14.635  20.519  64.329  1.00  0.00     0.076 A 
HETATM   17  C10 UNL     1      14.530  21.317  63.192  1.00  0.00     0.156 A 
HETATM   18  N3  UNL     1      15.759  21.749  62.905  1.00  0.00    -0.278 N 
ATOM     19  H3  UNL     1      16.008  22.356  62.124  1.00  0.00     0.189 HD
BRANCH  17  20
HETATM   20  O1  UNL     1      13.375  21.614  62.480  1.00  0.00    -0.345 OA
ATOM     21  H1  UNL     1      12.496  21.300  62.656  1.00  0.00     0.219 HD
ENDBRANCH  17  20
ENDBRANCH  13  14
ENDBRANCH   2  13
TORSDOF 5
ENDMDL
MODEL 4
REMARK VINA RESULT: -7.310570095      1.203      1.442
REMARK  5 active torsions:
REMARK  status: ('A' for Active; 'I' for Inactive)
REMARK    1  A    between atoms: N1_1  and  C1_4 
REMARK    2  A    between atoms: C4_7  and  C5_8 
REMARK    3  A    between atoms: C6_9  and  C7_10 
REMARK    4  A    between atoms: C7_10  and  N2_11 
REMARK    5  A    between atoms: C10_14  and  O1_15 
ROOT
HETATM    1  C5  UNL     1      17.064  22.774  65.534  1.00  0.00     0.010 C 
HETATM    2  C6  UNL     1      17.126  22.303  64.318  1.00  0.00    -0.004 C 
ENDROOT
BRANCH   1   3
HETATM    3  C4  UNL     1      17.287  24.161  65.819  1.00  0.00    -0.021 A 
HETATM    4  C3  UNL     1      16.352  24.891  66.505  1.00  0.00     0.016 A 
HETATM    5  C2  UNL     1      16.584  26.237  66.775  1.00  0.00     0.049 A 
HETATM    6  C1  UNL     1      17.765  26.779  66.330  1.00  0.00     0.098 A 
HETATM    7  N4  UNL     1      18.680  26.061  65.656  1.00  0.00    -0.352 N 
HETATM    8  C11 UNL     1      18.476  24.766  65.388  1.00  0.00     0.101 A 
ATOM      9  H4  UNL     1      19.542  26.510  65.346  1.00  0.00     0.166 HD
BRANCH   6  10
HETATM   10  N1  UNL     1      17.947  28.047  66.602  1.00  0.00    -0.385 N 
ATOM     11  H12 UNL     1      17.163  28.674  66.784  1.00  0.00     0.157 HD
ATOM     12  H11 UNL     1      18.916  28.362  66.619  1.00  0.00     0.157 HD
ENDBRANCH   6  10
ENDBRANCH   1   3
BRANCH   2  13
HETATM   13  C7  UNL     1      16.888  20.836  64.028  1.00  0.00     0.175 C 
BRANCH  13  14
HETATM   14  N2  UNL     1      18.080  20.148  64.491  1.00  0.00    -0.298 N 
HETATM   15  C8  UNL     1      19.261  20.108  63.869  1.00  0.00     0.114 A 
HETATM   16  C9  UNL     1      20.089  19.348  64.665  1.00  0.00     0.076 A 
HETATM   17  C10 UNL     1      19.342  18.951  65.772  1.00  0.00     0.156 A 
HETATM   18  N3  UNL     1      18.120  19.464  65.621  1.00  0.00    -0.278 N 
ATOM     19  H3  UNL     1      17.343  19.348  66.272  1.00  0.00     0.189 HD
BRANCH  17  20
HETATM   20  O1  UNL     1      19.772  18.170  66.836  1.00  0.00    -0.345 OA
ATOM     21  H1  UNL     1      19.237  17.627  67.403  1.00  0.00     0.219 HD
ENDBRANCH  17  20
ENDBRANCH  13  14
ENDBRANCH   2  13
TORSDOF 5
ENDMDL
MODEL 5
REMARK VINA RESULT: -7.300591902      1.411      1.868
REMARK  5 active torsions:
REMARK  status: ('A' for Active; 'I' for Inactive)
REMARK    1  A    between atoms: N1_1  and  C1_4 
REMARK    2  A    between atoms: C4_7  and  C5_8 
REMARK    3  A    between atoms: C6_9  and  C7_10 
REMARK    4  A    between atoms: C7_10  and  N2_11 
REMARK    5  A    between atoms: C10_14  and  O1_15 
ROOT
HETATM    1  C5  UNL     1      17.049  22.777  65.561  1.00  0.00     0.010 C 
HETATM    2  C6  UNL     1      17.095  22.300  64.346  1.00  0.00    -0.004 C 
ENDROOT
BRANCH   1   3
HETATM    3  C4  UNL     1      17.283  24.163  65.837  1.00  0.00    -0.021 A 
HETATM    4  C3  UNL     1      18.439  24.771  65.421  1.00  0.00     0.016 A 
HETATM    5  C2  UNL     1      18.653  26.119  65.697  1.00  0.00     0.049 A 
HETATM    6  C1  UNL     1      17.672  26.788  66.387  1.00  0.00     0.098 A 
HETATM    7  N4  UNL     1      16.540  26.191  66.795  1.00  0.00    -0.352 N 
HETATM    8  C11 UNL     1      16.316  24.896  66.539  1.00  0.00     0.101 A 
ATOM      9  H4  UNL     1      15.841  26.731  67.305  1.00  0.00     0.166 HD
BRANCH   6  10
HETATM   10  N1  UNL     1      17.909  28.053  66.628  1.00  0.00    -0.385 N 
ATOM     11  H12 UNL     1      17.915  28.750  65.882  1.00  0.00     0.157 HD
ATOM     12  H11 UNL     1      18.084  28.294  67.603  1.00  0.00     0.157 HD
ENDBRANCH   6  10
ENDBRANCH   1   3
BRANCH   2  13
HETATM   13  C7  UNL     1      16.846  20.833  64.066  1.00  0.00     0.175 C 
BRANCH  13  14
HETATM   14  N2  UNL     1      18.042  20.141  64.511  1.00  0.00    -0.298 N 
HETATM   15  C8  UNL     1      19.212  20.094  63.870  1.00  0.00     0.114 A 
HETATM   16  C9  UNL     1      20.050  19.333  64.654  1.00  0.00     0.076 A 
HETATM   17  C10 UNL     1      19.320  18.942  65.774  1.00  0.00     0.156 A 
HETATM   18  N3  UNL     1      18.097  19.460  65.642  1.00  0.00    -0.278 N 
ATOM     19  H3  UNL     1      17.331  19.349  66.306  1.00  0.00     0.189 HD
BRANCH  17  20
HETATM   20  O1  UNL     1      19.764  18.162  66.834  1.00  0.00    -0.345 OA
ATOM     21  H1  UNL     1      19.432  18.160  67.723  1.00  0.00     0.219 HD
ENDBRANCH  17  20
ENDBRANCH  13  14
ENDBRANCH   2  13
TORSDOF 5
ENDMDL
