MODEL 1
REMARK VINA RESULT: -6.728209181      0.000      0.000
REMARK  5 active torsions:
REMARK  status: ('A' for Active; 'I' for Inactive)
REMARK    1  A    between atoms: N1_1  and  C1_4 
REMARK    2  A    between atoms: N2_6  and  C3_7 
REMARK    3  A    between atoms: C3_7  and  C4_8 
REMARK    4  A    between atoms: C4_8  and  C5_9 
REMARK    5  A    between atoms: C5_9  and  N3_10 
ROOT
HETATM    1  C1  UNL     1      18.959  19.626  67.015  1.00  0.00     0.114 A 
HETATM    2  C2  UNL     1      18.487  19.903  65.762  1.00  0.00     0.138 A 
HETATM    3  N2  UNL     1      19.321  19.787  64.721  1.00  0.00    -0.361 N 
HETATM    4  C9  UNL     1      20.588  19.406  64.927  1.00  0.00     0.107 A 
HETATM    5  C10 UNL     1      21.071  19.122  66.206  1.00  0.00     0.107 A 
HETATM    6  N6  UNL     1      20.227  19.241  67.252  1.00  0.00    -0.350 N 
ATOM      7  H6  UNL     1      20.543  19.043  68.202  1.00  0.00     0.166 HD
ENDROOT
BRANCH   3   8
HETATM    8  C3  UNL     1      18.886  20.068  63.348  1.00  0.00     0.129 C 
BRANCH   8   9
HETATM    9  C4  UNL     1      18.900  21.559  63.189  1.00  0.00     0.042 C 
BRANCH   9  10
HETATM   10  C5  UNL     1      17.721  22.091  62.431  1.00  0.00     0.150 C 
BRANCH  10  11
HETATM   11  N3  UNL     1      16.566  22.010  63.332  1.00  0.00    -0.302 N 
HETATM   12  C6  UNL     1      16.398  22.634  64.514  1.00  0.00     0.113 A 
HETATM   13  C7  UNL     1      15.169  22.294  65.051  1.00  0.00     0.065 A 
HETATM   14  C8  UNL     1      14.603  21.434  64.136  1.00  0.00     0.132 A 
HETATM   15  N4  UNL     1      13.332  20.840  64.290  1.00  0.00    -0.081 NA
HETATM   16  N5  UNL     1      15.493  21.299  63.117  1.00  0.00    -0.286 N 
ATOM     17  H5  UNL     1      15.342  20.718  62.293  1.00  0.00     0.188 HD
ENDBRANCH  10  11
ENDBRANCH   9  10
ENDBRANCH   8   9
ENDBRANCH   3   8
BRANCH   1  18
HETATM   18  N1  UNL     1      18.183  19.727  68.039  1.00  0.00    -0.384 N 
ATOM     19  H12 UNL     1      18.551  20.236  68.843  1.00  0.00     0.157 HD
ATOM     20  H11 UNL     1      17.253  19.310  68.022  1.00  0.00     0.157 HD
ENDBRANCH   1  18
TORSDOF 5
ENDMDL
MODEL 2
REMARK VINA RESULT: -6.709337023      2.774      3.108
REMARK  5 active torsions:
REMARK  status: ('A' for Active; 'I' for Inactive)
REMARK    1  A    between atoms: N1_1  and  C1_4 
REMARK    2  A    between atoms: N2_6  and  C3_7 
REMARK    3  A    between atoms: C3_7  and  C4_8 
REMARK    4  A    between atoms: C4_8  and  C5_9 
REMARK    5  A    between atoms: C5_9  and  N3_10 
ROOT
HETATM    1  C1  UNL     1      18.477  19.655  67.298  1.00  0.00     0.114 A 
HETATM    2  C2  UNL     1      17.951  20.555  66.413  1.00  0.00     0.138 A 
HETATM    3  N2  UNL     1      18.389  20.544  65.148  1.00  0.00    -0.361 N 
HETATM    4  C9  UNL     1      19.325  19.661  64.779  1.00  0.00     0.107 A 
HETATM    5  C10 UNL     1      19.863  18.740  65.682  1.00  0.00     0.107 A 
HETATM    6  N6  UNL     1      19.418  18.755  66.956  1.00  0.00    -0.350 N 
ATOM      7  H6  UNL     1      19.787  18.100  67.644  1.00  0.00     0.166 HD
ENDROOT
BRANCH   3   8
HETATM    8  C3  UNL     1      17.872  21.480  64.143  1.00  0.00     0.129 C 
BRANCH   8   9
HETATM    9  C4  UNL     1      17.066  22.505  64.884  1.00  0.00     0.042 C 
BRANCH   9  10
HETATM   10  C5  UNL     1      17.875  23.672  65.362  1.00  0.00     0.150 C 
BRANCH  10  11
HETATM   11  N3  UNL     1      16.953  24.567  66.069  1.00  0.00    -0.302 N 
HETATM   12  C6  UNL     1      17.212  25.790  66.568  1.00  0.00     0.113 A 
HETATM   13  C7  UNL     1      16.072  26.304  67.161  1.00  0.00     0.065 A 
HETATM   14  C8  UNL     1      15.112  25.330  66.996  1.00  0.00     0.132 A 
HETATM   15  N4  UNL     1      13.783  25.445  67.458  1.00  0.00    -0.081 NA
HETATM   16  N5  UNL     1      15.701  24.303  66.329  1.00  0.00    -0.286 N 
ATOM     17  H5  UNL     1      15.227  23.439  66.066  1.00  0.00     0.188 HD
ENDBRANCH  10  11
ENDBRANCH   9  10
ENDBRANCH   8   9
ENDBRANCH   3   8
BRANCH   1  18
HETATM   18  N1  UNL     1      18.077  19.638  68.523  1.00  0.00    -0.384 N 
ATOM     19  H12 UNL     1      18.802  19.635  69.241  1.00  0.00     0.157 HD
ATOM     20  H11 UNL     1      17.081  19.628  68.738  1.00  0.00     0.157 HD
ENDBRANCH   1  18
TORSDOF 5
ENDMDL
MODEL 3
REMARK VINA RESULT: -6.485957445      1.495      5.526
REMARK  5 active torsions:
REMARK  status: ('A' for Active; 'I' for Inactive)
REMARK    1  A    between atoms: N1_1  and  C1_4 
REMARK    2  A    between atoms: N2_6  and  C3_7 
REMARK    3  A    between atoms: C3_7  and  C4_8 
REMARK    4  A    between atoms: C4_8  and  C5_9 
REMARK    5  A    between atoms: C5_9  and  N3_10 
ROOT
HETATM    1  C1  UNL     1      16.104  21.318  62.450  1.00  0.00     0.114 A 
HETATM    2  C2  UNL     1      16.673  22.101  63.416  1.00  0.00     0.138 A 
HETATM    3  N2  UNL     1      15.944  22.425  64.492  1.00  0.00    -0.361 N 
HETATM    4  C9  UNL     1      14.686  21.980  64.598  1.00  0.00     0.107 A 
HETATM    5  C10 UNL     1      14.104  21.180  63.612  1.00  0.00     0.107 A 
HETATM    6  N6  UNL     1      14.842  20.857  62.529  1.00  0.00    -0.350 N 
ATOM      7  H6  UNL     1      14.452  20.275  61.787  1.00  0.00     0.166 HD
ENDROOT
BRANCH   3   8
HETATM    8  C3  UNL     1      16.487  23.261  65.569  1.00  0.00     0.129 C 
BRANCH   8   9
HETATM    9  C4  UNL     1      17.768  22.618  66.009  1.00  0.00     0.042 C 
BRANCH   9  10
HETATM   10  C5  UNL     1      17.567  21.342  66.770  1.00  0.00     0.150 C 
BRANCH  10  11
HETATM   11  N3  UNL     1      18.481  20.353  66.189  1.00  0.00    -0.302 N 
HETATM   12  C6  UNL     1      19.222  19.435  66.838  1.00  0.00     0.113 A 
HETATM   13  C7  UNL     1      19.950  18.692  65.925  1.00  0.00     0.065 A 
HETATM   14  C8  UNL     1      19.613  19.207  64.693  1.00  0.00     0.132 A 
HETATM   15  N4  UNL     1      20.134  18.734  63.469  1.00  0.00    -0.081 NA
HETATM   16  N5  UNL     1      18.721  20.209  64.914  1.00  0.00    -0.286 N 
ATOM     17  H5  UNL     1      18.295  20.774  64.180  1.00  0.00     0.188 HD
ENDBRANCH  10  11
ENDBRANCH   9  10
ENDBRANCH   8   9
ENDBRANCH   3   8
BRANCH   1  18
HETATM   18  N1  UNL     1      16.777  20.987  61.402  1.00  0.00    -0.384 N 
ATOM     19  H12 UNL     1      16.535  20.098  60.964  1.00  0.00     0.157 HD
ATOM     20  H11 UNL     1      17.511  21.600  61.047  1.00  0.00     0.157 HD
ENDBRANCH   1  18
TORSDOF 5
ENDMDL
MODEL 4
REMARK VINA RESULT: -6.448838067      3.010      5.508
REMARK  5 active torsions:
REMARK  status: ('A' for Active; 'I' for Inactive)
REMARK    1  A    between atoms: N1_1  and  C1_4 
REMARK    2  A    between atoms: N2_6  and  C3_7 
REMARK    3  A    between atoms: C3_7  and  C4_8 
REMARK    4  A    between atoms: C4_8  and  C5_9 
REMARK    5  A    between atoms: C5_9  and  N3_10 
ROOT
HETATM    1  C1  UNL     1      15.565  25.336  66.900  1.00  0.00     0.114 A 
HETATM    2  C2  UNL     1      16.015  24.150  66.388  1.00  0.00     0.138 A 
HETATM    3  N2  UNL     1      17.245  24.103  65.863  1.00  0.00    -0.361 N 
HETATM    4  C9  UNL     1      18.003  25.207  65.848  1.00  0.00     0.107 A 
HETATM    5  C10 UNL     1      17.545  26.418  66.371  1.00  0.00     0.107 A 
HETATM    6  N6  UNL     1      16.304  26.462  66.899  1.00  0.00    -0.350 N 
ATOM      7  H6  UNL     1      15.933  27.328  67.290  1.00  0.00     0.166 HD
ENDROOT
BRANCH   3   8
HETATM    8  C3  UNL     1      17.795  22.866  65.295  1.00  0.00     0.129 C 
BRANCH   8   9
HETATM    9  C4  UNL     1      16.829  22.408  64.244  1.00  0.00     0.042 C 
BRANCH   9  10
HETATM   10  C5  UNL     1      16.340  21.006  64.451  1.00  0.00     0.150 C 
BRANCH  10  11
HETATM   11  N3  UNL     1      17.528  20.147  64.502  1.00  0.00    -0.302 N 
HETATM   12  C6  UNL     1      17.895  19.308  65.489  1.00  0.00     0.113 A 
HETATM   13  C7  UNL     1      19.080  18.679  65.151  1.00  0.00     0.065 A 
HETATM   14  C8  UNL     1      19.411  19.180  63.911  1.00  0.00     0.132 A 
HETATM   15  N4  UNL     1      20.563  18.802  63.187  1.00  0.00    -0.081 NA
HETATM   16  N5  UNL     1      18.436  20.063  63.569  1.00  0.00    -0.286 N 
ATOM     17  H5  UNL     1      18.417  20.591  62.697  1.00  0.00     0.188 HD
ENDBRANCH  10  11
ENDBRANCH   9  10
ENDBRANCH   8   9
ENDBRANCH   3   8
BRANCH   1  18
HETATM   18  N1  UNL     1      14.386  25.417  67.414  1.00  0.00    -0.384 N 
ATOM     19  H12 UNL     1      14.288  25.998  68.246  1.00  0.00     0.157 HD
ATOM     20  H11 UNL     1      13.605  24.916  66.991  1.00  0.00     0.157 HD
ENDBRANCH   1  18
TORSDOF 5
ENDMDL
MODEL 5
REMARK VINA RESULT: -6.420204599      4.118      5.990
REMARK  5 active torsions:
REMARK  status: ('A' for Active; 'I' for Inactive)
REMARK    1  A    between atoms: N1_1  and  C1_4 
REMARK    2  A    between atoms: N2_6  and  C3_7 
REMARK    3  A    between atoms: C3_7  and  C4_8 
REMARK    4  A    between atoms: C4_8  and  C5_9 
REMARK    5  A    between atoms: C5_9  and  N3_10 
ROOT
HETATM    1  C1  UNL     1      16.498  21.296  62.533  1.00  0.00     0.114 A 
HETATM    2  C2  UNL     1      17.227  21.902  63.518  1.00  0.00     0.138 A 
HETATM    3  N2  UNL     1      16.768  21.860  64.775  1.00  0.00    -0.361 N 
HETATM    4  C9  UNL     1      15.615  21.233  65.040  1.00  0.00     0.107 A 
HETATM    5  C10 UNL     1      14.870  20.613  64.035  1.00  0.00     0.107 A 
HETATM    6  N6  UNL     1      15.336  20.657  62.769  1.00  0.00    -0.350 N 
ATOM      7  H6  UNL     1      14.819  20.217  62.008  1.00  0.00     0.166 HD
ENDROOT
BRANCH   3   8
HETATM    8  C3  UNL     1      17.496  22.488  65.884  1.00  0.00     0.129 C 
BRANCH   8   9
HETATM    9  C4  UNL     1      17.308  23.969  65.739  1.00  0.00     0.042 C 
BRANCH   9  10
HETATM   10  C5  UNL     1      16.158  24.507  66.536  1.00  0.00     0.150 C 
BRANCH  10  11
HETATM   11  N3  UNL     1      16.608  25.770  67.130  1.00  0.00    -0.302 N 
HETATM   12  C6  UNL     1      17.284  26.768  66.529  1.00  0.00     0.113 A 
HETATM   13  C7  UNL     1      17.517  27.786  67.437  1.00  0.00     0.065 A 
HETATM   14  C8  UNL     1      16.949  27.354  68.615  1.00  0.00     0.132 A 
HETATM   15  N4  UNL     1      16.957  28.097  69.815  1.00  0.00    -0.081 NA
HETATM   16  N5  UNL     1      16.414  26.129  68.370  1.00  0.00    -0.286 N 
ATOM     17  H5  UNL     1      15.925  25.564  69.064  1.00  0.00     0.188 HD
ENDBRANCH  10  11
ENDBRANCH   9  10
ENDBRANCH   8   9
ENDBRANCH   3   8
BRANCH   1  18
HETATM   18  N1  UNL     1      16.910  21.316  61.313  1.00  0.00    -0.384 N 
ATOM     19  H12 UNL     1      16.286  21.739  60.626  1.00  0.00     0.157 HD
ATOM     20  H11 UNL     1      17.818  20.921  61.070  1.00  0.00     0.157 HD
ENDBRANCH   1  18
TORSDOF 5
ENDMDL
