MODEL 1
REMARK VINA RESULT: -7.217736170      0.000      0.000
REMARK  5 active torsions:
REMARK  status: ('A' for Active; 'I' for Inactive)
REMARK    1  A    between atoms: N1_1  and  C1_5 
REMARK    2  A    between atoms: C1_5  and  C2_6 
REMARK    3  A    between atoms: C2_6  and  C3_7 
REMARK    4  A    between atoms: N2_10  and  C6_11 
REMARK    5  A    between atoms: C6_11  and  C7_12 
ROOT
HETATM    1  C3  UNL     1      17.151  26.049  66.414  1.00  0.00    -0.054 A 
HETATM    2  C4  UNL     1      16.146  25.200  66.839  1.00  0.00     0.024 A 
HETATM    3  C5  UNL     1      16.213  23.861  66.514  1.00  0.00     0.091 A 
HETATM    4  N2  UNL     1      17.228  23.349  65.795  1.00  0.00    -0.361 N 
HETATM    5  C10 UNL     1      18.212  24.165  65.376  1.00  0.00     0.091 A 
HETATM    6  C11 UNL     1      18.189  25.518  65.676  1.00  0.00     0.024 A 
ENDROOT
BRANCH   4   7
HETATM    7  C6  UNL     1      17.305  21.955  65.454  1.00  0.00     0.186 C 
BRANCH   7   8
HETATM    8  C7  UNL     1      16.369  21.570  64.384  1.00  0.00     0.049 A 
HETATM    9  C8  UNL     1      15.042  21.923  64.356  1.00  0.00     0.104 A 
HETATM   10  C9  UNL     1      14.473  21.400  63.227  1.00  0.00     0.261 A 
HETATM   11  O1  UNL     1      13.286  21.493  62.834  1.00  0.00    -0.267 OA
HETATM   12  N3  UNL     1      15.443  20.738  62.578  1.00  0.00    -0.266 N 
HETATM   13  N4  UNL     1      16.570  20.843  63.273  1.00  0.00    -0.300 N 
ATOM     14  H3  UNL     1      15.332  20.237  61.696  1.00  0.00     0.190 HD
ATOM     15  H4  UNL     1      17.462  20.430  63.001  1.00  0.00     0.186 HD
ENDBRANCH   7   8
ENDBRANCH   4   7
BRANCH   1  16
HETATM   16  C2  UNL     1      17.132  27.493  66.730  1.00  0.00     0.066 C 
BRANCH  16  17
HETATM   17  C1  UNL     1      18.288  27.847  67.667  1.00  0.00     0.234 C 
BRANCH  17  18
HETATM   18  N1  UNL     1      19.039  28.939  67.085  1.00  0.00    -0.079 N 
ATOM     19  H13 UNL     1      19.396  28.715  66.156  1.00  0.00     0.274 HD
ATOM     20  H12 UNL     1      18.445  29.725  66.823  1.00  0.00     0.274 HD
ATOM     21  H11 UNL     1      19.780  29.208  67.734  1.00  0.00     0.274 HD
ENDBRANCH  17  18
ENDBRANCH  16  17
ENDBRANCH   1  16
TORSDOF 5
ENDMDL
MODEL 2
REMARK VINA RESULT: -7.190840560      0.958      1.019
REMARK  5 active torsions:
REMARK  status: ('A' for Active; 'I' for Inactive)
REMARK    1  A    between atoms: N1_1  and  C1_5 
REMARK    2  A    between atoms: C1_5  and  C2_6 
REMARK    3  A    between atoms: C2_6  and  C3_7 
REMARK    4  A    between atoms: N2_10  and  C6_11 
REMARK    5  A    between atoms: C6_11  and  C7_12 
ROOT
HETATM    1  C3  UNL     1      17.988  25.967  65.919  1.00  0.00    -0.054 A 
HETATM    2  C4  UNL     1      16.905  25.418  66.580  1.00  0.00     0.024 A 
HETATM    3  C5  UNL     1      16.653  24.068  66.458  1.00  0.00     0.091 A 
HETATM    4  N2  UNL     1      17.430  23.260  65.713  1.00  0.00    -0.361 N 
HETATM    5  C10 UNL     1      18.486  23.782  65.065  1.00  0.00     0.091 A 
HETATM    6  C11 UNL     1      18.780  25.133  65.156  1.00  0.00     0.024 A 
ENDROOT
BRANCH   4   7
HETATM    7  C6  UNL     1      17.174  21.852  65.581  1.00  0.00     0.186 C 
BRANCH   7   8
HETATM    8  C7  UNL     1      16.255  21.532  64.477  1.00  0.00     0.049 A 
HETATM    9  C8  UNL     1      14.973  22.016  64.376  1.00  0.00     0.104 A 
HETATM   10  C9  UNL     1      14.406  21.521  63.234  1.00  0.00     0.261 A 
HETATM   11  O1  UNL     1      13.254  21.721  62.781  1.00  0.00    -0.267 OA
HETATM   12  N3  UNL     1      15.332  20.747  62.648  1.00  0.00    -0.266 N 
HETATM   13  N4  UNL     1      16.431  20.758  63.395  1.00  0.00    -0.300 N 
ATOM     14  H3  UNL     1      15.212  20.235  61.774  1.00  0.00     0.190 HD
ATOM     15  H4  UNL     1      17.288  20.250  63.176  1.00  0.00     0.186 HD
ENDBRANCH   7   8
ENDBRANCH   4   7
BRANCH   1  16
HETATM   16  C2  UNL     1      18.305  27.407  66.012  1.00  0.00     0.066 C 
BRANCH  16  17
HETATM   17  C1  UNL     1      19.474  27.755  65.090  1.00  0.00     0.234 C 
BRANCH  17  18
HETATM   18  N1  UNL     1      20.109  28.960  65.579  1.00  0.00    -0.079 N 
ATOM     19  H13 UNL     1      19.765  29.799  65.111  1.00  0.00     0.274 HD
ATOM     20  H12 UNL     1      19.817  29.198  66.527  1.00  0.00     0.274 HD
ATOM     21  H11 UNL     1      21.120  28.854  65.498  1.00  0.00     0.274 HD
ENDBRANCH  17  18
ENDBRANCH  16  17
ENDBRANCH   1  16
TORSDOF 5
ENDMDL
MODEL 3
REMARK VINA RESULT: -7.183866137      0.054      1.174
REMARK  5 active torsions:
REMARK  status: ('A' for Active; 'I' for Inactive)
REMARK    1  A    between atoms: N1_1  and  C1_5 
REMARK    2  A    between atoms: C1_5  and  C2_6 
REMARK    3  A    between atoms: C2_6  and  C3_7 
REMARK    4  A    between atoms: N2_10  and  C6_11 
REMARK    5  A    between atoms: C6_11  and  C7_12 
ROOT
HETATM    1  C3  UNL     1      17.193  26.045  66.412  1.00  0.00    -0.054 A 
HETATM    2  C4  UNL     1      18.231  25.544  65.647  1.00  0.00     0.024 A 
HETATM    3  C5  UNL     1      18.260  24.198  65.348  1.00  0.00     0.091 A 
HETATM    4  N2  UNL     1      17.307  23.350  65.775  1.00  0.00    -0.361 N 
HETATM    5  C10 UNL     1      16.292  23.825  66.520  1.00  0.00     0.091 A 
HETATM    6  C11 UNL     1      16.220  25.169  66.848  1.00  0.00     0.024 A 
ENDROOT
BRANCH   4   7
HETATM    7  C6  UNL     1      17.329  21.946  65.467  1.00  0.00     0.186 C 
BRANCH   7   8
HETATM    8  C7  UNL     1      16.396  21.576  64.390  1.00  0.00     0.049 A 
HETATM    9  C8  UNL     1      15.064  21.914  64.374  1.00  0.00     0.104 A 
HETATM   10  C9  UNL     1      14.498  21.412  63.234  1.00  0.00     0.261 A 
HETATM   11  O1  UNL     1      13.310  21.500  62.846  1.00  0.00    -0.267 OA
HETATM   12  N3  UNL     1      15.474  20.777  62.568  1.00  0.00    -0.266 N 
HETATM   13  N4  UNL     1      16.602  20.878  63.263  1.00  0.00    -0.300 N 
ATOM     14  H3  UNL     1      15.367  20.295  61.675  1.00  0.00     0.190 HD
ATOM     15  H4  UNL     1      17.498  20.482  62.979  1.00  0.00     0.186 HD
ENDBRANCH   7   8
ENDBRANCH   4   7
BRANCH   1  16
HETATM   16  C2  UNL     1      17.111  27.477  66.765  1.00  0.00     0.066 C 
BRANCH  16  17
HETATM   17  C1  UNL     1      18.255  27.860  67.704  1.00  0.00     0.234 C 
BRANCH  17  18
HETATM   18  N1  UNL     1      18.995  28.955  67.113  1.00  0.00    -0.079 N 
ATOM     19  H13 UNL     1      19.642  28.642  66.388  1.00  0.00     0.274 HD
ATOM     20  H12 UNL     1      18.408  29.553  66.530  1.00  0.00     0.274 HD
ATOM     21  H11 UNL     1      19.462  29.473  67.857  1.00  0.00     0.274 HD
ENDBRANCH  17  18
ENDBRANCH  16  17
ENDBRANCH   1  16
TORSDOF 5
ENDMDL
MODEL 4
REMARK VINA RESULT: -7.143914704      0.969      1.548
REMARK  5 active torsions:
REMARK  status: ('A' for Active; 'I' for Inactive)
REMARK    1  A    between atoms: N1_1  and  C1_5 
REMARK    2  A    between atoms: C1_5  and  C2_6 
REMARK    3  A    between atoms: C2_6  and  C3_7 
REMARK    4  A    between atoms: N2_10  and  C6_11 
REMARK    5  A    between atoms: C6_11  and  C7_12 
ROOT
HETATM    1  C3  UNL     1      18.033  25.938  65.881  1.00  0.00    -0.054 A 
HETATM    2  C4  UNL     1      18.828  25.095  65.127  1.00  0.00     0.024 A 
HETATM    3  C5  UNL     1      18.509  23.755  65.055  1.00  0.00     0.091 A 
HETATM    4  N2  UNL     1      17.445  23.237  65.694  1.00  0.00    -0.361 N 
HETATM    5  C10 UNL     1      16.664  24.047  66.431  1.00  0.00     0.091 A 
HETATM    6  C11 UNL     1      16.944  25.401  66.535  1.00  0.00     0.024 A 
ENDROOT
BRANCH   4   7
HETATM    7  C6  UNL     1      17.106  21.842  65.623  1.00  0.00     0.186 C 
BRANCH   7   8
HETATM    8  C7  UNL     1      16.209  21.522  64.500  1.00  0.00     0.049 A 
HETATM    9  C8  UNL     1      14.928  22.003  64.375  1.00  0.00     0.104 A 
HETATM   10  C9  UNL     1      14.385  21.508  63.221  1.00  0.00     0.261 A 
HETATM   11  O1  UNL     1      13.242  21.707  62.747  1.00  0.00    -0.267 OA
HETATM   12  N3  UNL     1      15.323  20.736  62.654  1.00  0.00    -0.266 N 
HETATM   13  N4  UNL     1      16.407  20.748  63.422  1.00  0.00    -0.300 N 
ATOM     14  H3  UNL     1      15.221  20.224  61.778  1.00  0.00     0.190 HD
ATOM     15  H4  UNL     1      17.269  20.242  63.219  1.00  0.00     0.186 HD
ENDBRANCH   7   8
ENDBRANCH   4   7
BRANCH   1  16
HETATM   16  C2  UNL     1      18.327  27.382  65.996  1.00  0.00     0.066 C 
BRANCH  16  17
HETATM   17  C1  UNL     1      19.485  27.765  65.075  1.00  0.00     0.234 C 
BRANCH  17  18
HETATM   18  N1  UNL     1      20.127  28.949  65.604  1.00  0.00    -0.079 N 
ATOM     19  H13 UNL     1      21.105  29.022  65.320  1.00  0.00     0.274 HD
ATOM     20  H12 UNL     1      19.789  29.806  65.166  1.00  0.00     0.274 HD
ATOM     21  H11 UNL     1      20.012  28.958  66.618  1.00  0.00     0.274 HD
ENDBRANCH  17  18
ENDBRANCH  16  17
ENDBRANCH   1  16
TORSDOF 5
ENDMDL
MODEL 5
REMARK VINA RESULT: -6.957219379      1.439      1.866
REMARK  5 active torsions:
REMARK  status: ('A' for Active; 'I' for Inactive)
REMARK    1  A    between atoms: N1_1  and  C1_5 
REMARK    2  A    between atoms: C1_5  and  C2_6 
REMARK    3  A    between atoms: C2_6  and  C3_7 
REMARK    4  A    between atoms: N2_10  and  C6_11 
REMARK    5  A    between atoms: C6_11  and  C7_12 
ROOT
HETATM    1  C3  UNL     1      19.014  25.167  65.047  1.00  0.00    -0.054 A 
HETATM    2  C4  UNL     1      18.018  24.428  65.657  1.00  0.00     0.024 A 
HETATM    3  C5  UNL     1      17.720  23.170  65.174  1.00  0.00     0.091 A 
HETATM    4  N2  UNL     1      18.369  22.635  64.125  1.00  0.00    -0.361 N 
HETATM    5  C10 UNL     1      19.340  23.345  63.523  1.00  0.00     0.091 A 
HETATM    6  C11 UNL     1      19.675  24.613  63.971  1.00  0.00     0.024 A 
ENDROOT
BRANCH   4   7
HETATM    7  C6  UNL     1      18.065  21.325  63.616  1.00  0.00     0.186 C 
BRANCH   7   8
HETATM    8  C7  UNL     1      16.629  21.005  63.668  1.00  0.00     0.049 A 
HETATM    9  C8  UNL     1      15.656  21.711  63.002  1.00  0.00     0.104 A 
HETATM   10  C9  UNL     1      14.441  21.143  63.271  1.00  0.00     0.261 A 
HETATM   11  O1  UNL     1      13.308  21.488  62.859  1.00  0.00    -0.267 OA
HETATM   12  N3  UNL     1      14.673  20.106  64.088  1.00  0.00    -0.266 N 
HETATM   13  N4  UNL     1      15.979  20.029  64.321  1.00  0.00    -0.300 N 
ATOM     14  H3  UNL     1      13.964  19.479  64.469  1.00  0.00     0.190 HD
ATOM     15  H4  UNL     1      16.424  19.328  64.912  1.00  0.00     0.186 HD
ENDBRANCH   7   8
ENDBRANCH   4   7
BRANCH   1  16
HETATM   16  C2  UNL     1      19.376  26.520  65.520  1.00  0.00     0.066 C 
BRANCH  16  17
HETATM   17  C1  UNL     1      18.167  27.198  66.166  1.00  0.00     0.234 C 
BRANCH  17  18
HETATM   18  N1  UNL     1      18.624  28.354  66.907  1.00  0.00    -0.079 N 
ATOM     19  H13 UNL     1      18.000  28.597  67.676  1.00  0.00     0.274 HD
ATOM     20  H12 UNL     1      19.459  28.159  67.459  1.00  0.00     0.274 HD
ATOM     21  H11 UNL     1      18.760  29.128  66.255  1.00  0.00     0.274 HD
ENDBRANCH  17  18
ENDBRANCH  16  17
ENDBRANCH   1  16
TORSDOF 5
ENDMDL
