MODEL 1
REMARK VINA RESULT: -6.436092010      0.000      0.000
REMARK  7 active torsions:
REMARK  status: ('A' for Active; 'I' for Inactive)
REMARK    1  A    between atoms: N1_1  and  C1_5 
REMARK    2  A    between atoms: C1_5  and  N2_6 
REMARK    3  A    between atoms: C1_5  and  C2_10 
REMARK    4  A    between atoms: N3_13  and  C5_14 
REMARK    5  A    between atoms: C5_14  and  C6_15 
REMARK    6  A    between atoms: C6_15  and  C7_16 
REMARK    7  A    between atoms: C7_16  and  N4_17 
ROOT
HETATM    1  C2  UNL     1      16.309  24.073  66.133  1.00  0.00     0.001 A 
HETATM    2  C3  UNL     1      15.455  23.172  65.524  1.00  0.00     0.028 A 
HETATM    3  C4  UNL     1      15.922  22.370  64.498  1.00  0.00     0.091 A 
HETATM    4  N3  UNL     1      17.188  22.426  64.059  1.00  0.00    -0.366 N 
HETATM    5  C11 UNL     1      18.024  23.297  64.644  1.00  0.00     0.091 A 
HETATM    6  C12 UNL     1      17.621  24.124  65.670  1.00  0.00     0.028 A 
ENDROOT
BRANCH   1   7
HETATM    7  C1  UNL     1      15.857  24.956  67.238  1.00  0.00     0.411 C 
BRANCH   7   8
HETATM    8  N1  UNL     1      16.371  26.298  67.043  1.00  0.00    -0.046 N 
ATOM      9  H13 UNL     1      16.139  26.677  66.125  1.00  0.00     0.277 HD
ATOM     10  H12 UNL     1      15.880  26.991  67.609  1.00  0.00     0.277 HD
ATOM     11  H11 UNL     1      17.375  26.288  67.221  1.00  0.00     0.277 HD
ENDBRANCH   7   8
BRANCH   7  12
HETATM   12  N2  UNL     1      14.407  25.016  67.251  1.00  0.00    -0.046 N 
ATOM     13  H23 UNL     1      14.054  25.849  67.723  1.00  0.00     0.277 HD
ATOM     14  H22 UNL     1      14.014  25.202  66.328  1.00  0.00     0.277 HD
ATOM     15  H21 UNL     1      14.052  24.153  67.661  1.00  0.00     0.277 HD
ENDBRANCH   7  12
ENDBRANCH   1   7
BRANCH   4  16
HETATM   16  C5  UNL     1      17.673  21.584  62.985  1.00  0.00     0.129 C 
BRANCH  16  17
HETATM   17  C6  UNL     1      19.069  21.155  63.340  1.00  0.00     0.040 C 
BRANCH  17  18
HETATM   18  C7  UNL     1      19.146  19.690  63.714  1.00  0.00     0.131 C 
BRANCH  18  19
HETATM   19  N4  UNL     1      19.230  19.518  65.148  1.00  0.00    -0.352 N 
HETATM   20  C8  UNL     1      18.248  19.752  66.024  1.00  0.00     0.108 A 
HETATM   21  C9  UNL     1      18.705  19.474  67.290  1.00  0.00     0.106 A 
HETATM   22  N5  UNL     1      19.967  19.072  67.170  1.00  0.00    -0.361 N 
HETATM   23  C10 UNL     1      20.282  19.099  65.872  1.00  0.00     0.182 A 
ATOM     24  H5  UNL     1      20.585  18.793  67.932  1.00  0.00     0.166 HD
ENDBRANCH  18  19
ENDBRANCH  17  18
ENDBRANCH  16  17
ENDBRANCH   4  16
TORSDOF 7
ENDMDL
MODEL 2
REMARK VINA RESULT: -6.347687761      2.066      3.194
REMARK  7 active torsions:
REMARK  status: ('A' for Active; 'I' for Inactive)
REMARK    1  A    between atoms: N1_1  and  C1_5 
REMARK    2  A    between atoms: C1_5  and  N2_6 
REMARK    3  A    between atoms: C1_5  and  C2_10 
REMARK    4  A    between atoms: N3_13  and  C5_14 
REMARK    5  A    between atoms: C5_14  and  C6_15 
REMARK    6  A    between atoms: C6_15  and  C7_16 
REMARK    7  A    between atoms: C7_16  and  N4_17 
ROOT
HETATM    1  C2  UNL     1      17.852  26.660  66.639  1.00  0.00     0.001 A 
HETATM    2  C3  UNL     1      18.646  25.850  65.848  1.00  0.00     0.028 A 
HETATM    3  C4  UNL     1      18.192  24.597  65.476  1.00  0.00     0.091 A 
HETATM    4  N3  UNL     1      16.996  24.123  65.852  1.00  0.00    -0.366 N 
HETATM    5  C11 UNL     1      16.217  24.902  66.620  1.00  0.00     0.091 A 
HETATM    6  C12 UNL     1      16.611  26.159  67.025  1.00  0.00     0.028 A 
ENDROOT
BRANCH   1   7
HETATM    7  C1  UNL     1      18.292  28.012  67.066  1.00  0.00     0.411 C 
BRANCH   7   8
HETATM    8  N1  UNL     1      18.869  27.950  68.395  1.00  0.00    -0.046 N 
ATOM      9  H13 UNL     1      19.053  26.994  68.699  1.00  0.00     0.277 HD
ATOM     10  H12 UNL     1      19.830  28.292  68.422  1.00  0.00     0.277 HD
ATOM     11  H11 UNL     1      18.257  28.454  69.037  1.00  0.00     0.277 HD
ENDBRANCH   7   8
BRANCH   7  12
HETATM   12  N2  UNL     1      19.303  28.507  66.149  1.00  0.00    -0.046 N 
ATOM     13  H23 UNL     1      20.237  28.161  66.372  1.00  0.00     0.277 HD
ATOM     14  H22 UNL     1      19.221  28.098  65.218  1.00  0.00     0.277 HD
ATOM     15  H21 UNL     1      19.255  29.525  66.135  1.00  0.00     0.277 HD
ENDBRANCH   7  12
ENDBRANCH   1   7
BRANCH   4  16
HETATM   16  C5  UNL     1      16.523  22.812  65.460  1.00  0.00     0.129 C 
BRANCH  16  17
HETATM   17  C6  UNL     1      17.165  22.471  64.144  1.00  0.00     0.040 C 
BRANCH  17  18
HETATM   18  C7  UNL     1      16.886  21.046  63.716  1.00  0.00     0.131 C 
BRANCH  18  19
HETATM   19  N4  UNL     1      17.825  20.124  64.315  1.00  0.00    -0.352 N 
HETATM   20  C8  UNL     1      19.091  19.936  63.932  1.00  0.00     0.108 A 
HETATM   21  C9  UNL     1      19.665  18.983  64.739  1.00  0.00     0.106 A 
HETATM   22  N5  UNL     1      18.735  18.599  65.610  1.00  0.00    -0.361 N 
HETATM   23  C10 UNL     1      17.624  19.292  65.351  1.00  0.00     0.182 A 
ATOM     24  H5  UNL     1      18.851  17.901  66.344  1.00  0.00     0.166 HD
ENDBRANCH  18  19
ENDBRANCH  17  18
ENDBRANCH  16  17
ENDBRANCH   4  16
TORSDOF 7
ENDMDL
MODEL 3
REMARK VINA RESULT: -6.343570132      1.668      2.685
REMARK  7 active torsions:
REMARK  status: ('A' for Active; 'I' for Inactive)
REMARK    1  A    between atoms: N1_1  and  C1_5 
REMARK    2  A    between atoms: C1_5  and  N2_6 
REMARK    3  A    between atoms: C1_5  and  C2_10 
REMARK    4  A    between atoms: N3_13  and  C5_14 
REMARK    5  A    between atoms: C5_14  and  C6_15 
REMARK    6  A    between atoms: C6_15  and  C7_16 
REMARK    7  A    between atoms: C7_16  and  N4_17 
ROOT
HETATM    1  C2  UNL     1      17.338  26.235  66.792  1.00  0.00     0.001 A 
HETATM    2  C3  UNL     1      18.431  26.037  65.969  1.00  0.00     0.028 A 
HETATM    3  C4  UNL     1      18.558  24.849  65.270  1.00  0.00     0.091 A 
HETATM    4  N3  UNL     1      17.652  23.864  65.354  1.00  0.00    -0.366 N 
HETATM    5  C11 UNL     1      16.587  24.047  66.150  1.00  0.00     0.091 A 
HETATM    6  C12 UNL     1      16.403  25.206  66.872  1.00  0.00     0.028 A 
ENDROOT
BRANCH   1   7
HETATM    7  C1  UNL     1      17.155  27.491  67.562  1.00  0.00     0.411 C 
BRANCH   7   8
HETATM    8  N1  UNL     1      17.309  27.230  68.981  1.00  0.00    -0.046 N 
ATOM      9  H13 UNL     1      17.244  28.078  69.544  1.00  0.00     0.277 HD
ATOM     10  H12 UNL     1      16.510  26.736  69.378  1.00  0.00     0.277 HD
ATOM     11  H11 UNL     1      18.188  26.732  69.123  1.00  0.00     0.277 HD
ENDBRANCH   7   8
BRANCH   7  12
HETATM   12  N2  UNL     1      18.160  28.459  67.161  1.00  0.00    -0.046 N 
ATOM     13  H23 UNL     1      19.072  28.271  67.576  1.00  0.00     0.277 HD
ATOM     14  H22 UNL     1      18.429  28.361  66.182  1.00  0.00     0.277 HD
ATOM     15  H21 UNL     1      17.814  29.392  67.380  1.00  0.00     0.277 HD
ENDBRANCH   7  12
ENDBRANCH   1   7
BRANCH   4  16
HETATM   16  C5  UNL     1      17.788  22.623  64.621  1.00  0.00     0.129 C 
BRANCH  16  17
HETATM   17  C6  UNL     1      16.637  21.737  65.009  1.00  0.00     0.040 C 
BRANCH  17  18
HETATM   18  C7  UNL     1      16.921  20.273  64.749  1.00  0.00     0.131 C 
BRANCH  18  19
HETATM   19  N4  UNL     1      17.974  19.782  65.611  1.00  0.00    -0.352 N 
HETATM   20  C8  UNL     1      19.081  19.149  65.212  1.00  0.00     0.108 A 
HETATM   21  C9  UNL     1      19.840  18.839  66.315  1.00  0.00     0.106 A 
HETATM   22  N5  UNL     1      19.181  19.289  67.380  1.00  0.00    -0.361 N 
HETATM   23  C10 UNL     1      18.053  19.859  66.950  1.00  0.00     0.182 A 
ATOM     24  H5  UNL     1      19.484  19.212  68.351  1.00  0.00     0.166 HD
ENDBRANCH  18  19
ENDBRANCH  17  18
ENDBRANCH  16  17
ENDBRANCH   4  16
TORSDOF 7
ENDMDL
MODEL 4
REMARK VINA RESULT: -6.342443087      2.039      3.018
REMARK  7 active torsions:
REMARK  status: ('A' for Active; 'I' for Inactive)
REMARK    1  A    between atoms: N1_1  and  C1_5 
REMARK    2  A    between atoms: C1_5  and  N2_6 
REMARK    3  A    between atoms: C1_5  and  C2_10 
REMARK    4  A    between atoms: N3_13  and  C5_14 
REMARK    5  A    between atoms: C5_14  and  C6_15 
REMARK    6  A    between atoms: C6_15  and  C7_16 
REMARK    7  A    between atoms: C7_16  and  N4_17 
ROOT
HETATM    1  C2  UNL     1      17.807  26.610  66.558  1.00  0.00     0.001 A 
HETATM    2  C3  UNL     1      16.583  26.132  66.991  1.00  0.00     0.028 A 
HETATM    3  C4  UNL     1      16.175  24.862  66.625  1.00  0.00     0.091 A 
HETATM    4  N3  UNL     1      16.924  24.057  65.858  1.00  0.00    -0.366 N 
HETATM    5  C11 UNL     1      18.113  24.511  65.433  1.00  0.00     0.091 A 
HETATM    6  C12 UNL     1      18.578  25.767  65.761  1.00  0.00     0.028 A 
ENDROOT
BRANCH   1   7
HETATM    7  C1  UNL     1      18.291  27.965  66.922  1.00  0.00     0.411 C 
BRANCH   7   8
HETATM    8  N1  UNL     1      18.803  27.963  68.279  1.00  0.00    -0.046 N 
ATOM      9  H13 UNL     1      19.822  27.974  68.313  1.00  0.00     0.277 HD
ATOM     10  H12 UNL     1      18.637  28.846  68.762  1.00  0.00     0.277 HD
ATOM     11  H11 UNL     1      18.403  27.165  68.773  1.00  0.00     0.277 HD
ENDBRANCH   7   8
BRANCH   7  12
HETATM   12  N2  UNL     1      19.365  28.355  66.026  1.00  0.00    -0.046 N 
ATOM     13  H23 UNL     1      20.217  28.612  66.526  1.00  0.00     0.277 HD
ATOM     14  H22 UNL     1      19.744  27.566  65.502  1.00  0.00     0.277 HD
ATOM     15  H21 UNL     1      19.026  29.101  65.421  1.00  0.00     0.277 HD
ENDBRANCH   7  12
ENDBRANCH   1   7
BRANCH   4  16
HETATM   16  C5  UNL     1      16.494  22.727  65.478  1.00  0.00     0.129 C 
BRANCH  16  17
HETATM   17  C6  UNL     1      17.126  22.406  64.153  1.00  0.00     0.040 C 
BRANCH  17  18
HETATM   18  C7  UNL     1      16.867  20.978  63.720  1.00  0.00     0.131 C 
BRANCH  18  19
HETATM   19  N4  UNL     1      17.805  20.064  64.334  1.00  0.00    -0.352 N 
HETATM   20  C8  UNL     1      19.068  19.862  63.949  1.00  0.00     0.108 A 
HETATM   21  C9  UNL     1      19.641  18.924  64.773  1.00  0.00     0.106 A 
HETATM   22  N5  UNL     1      18.714  18.563  65.657  1.00  0.00    -0.361 N 
HETATM   23  C10 UNL     1      17.604  19.255  65.388  1.00  0.00     0.182 A 
ATOM     24  H5  UNL     1      18.830  17.879  66.405  1.00  0.00     0.166 HD
ENDBRANCH  18  19
ENDBRANCH  17  18
ENDBRANCH  16  17
ENDBRANCH   4  16
TORSDOF 7
ENDMDL
MODEL 5
REMARK VINA RESULT: -6.329335736      2.828      4.686
REMARK  7 active torsions:
REMARK  status: ('A' for Active; 'I' for Inactive)
REMARK    1  A    between atoms: N1_1  and  C1_5 
REMARK    2  A    between atoms: C1_5  and  N2_6 
REMARK    3  A    between atoms: C1_5  and  C2_10 
REMARK    4  A    between atoms: N3_13  and  C5_14 
REMARK    5  A    between atoms: C5_14  and  C6_15 
REMARK    6  A    between atoms: C6_15  and  C7_16 
REMARK    7  A    between atoms: C7_16  and  N4_17 
ROOT
HETATM    1  C2  UNL     1      18.035  27.910  67.797  1.00  0.00     0.001 A 
HETATM    2  C3  UNL     1      17.001  27.271  68.455  1.00  0.00     0.028 A 
HETATM    3  C4  UNL     1      16.491  26.089  67.947  1.00  0.00     0.091 A 
HETATM    4  N3  UNL     1      16.962  25.524  66.827  1.00  0.00    -0.366 N 
HETATM    5  C11 UNL     1      17.966  26.137  66.180  1.00  0.00     0.091 A 
HETATM    6  C12 UNL     1      18.518  27.316  66.633  1.00  0.00     0.028 A 
ENDROOT
BRANCH   1   7
HETATM    7  C1  UNL     1      18.618  29.180  68.300  1.00  0.00     0.411 C 
BRANCH   7   8
HETATM    8  N1  UNL     1      19.472  28.916  69.441  1.00  0.00    -0.046 N 
ATOM      9  H13 UNL     1      19.135  29.362  70.295  1.00  0.00     0.277 HD
ATOM     10  H12 UNL     1      19.416  27.948  69.758  1.00  0.00     0.277 HD
ATOM     11  H11 UNL     1      20.424  29.196  69.203  1.00  0.00     0.277 HD
ENDBRANCH   7   8
BRANCH   7  12
HETATM   12  N2  UNL     1      19.420  29.794  67.257  1.00  0.00    -0.046 N 
ATOM     13  H23 UNL     1      20.305  30.160  67.609  1.00  0.00     0.277 HD
ATOM     14  H22 UNL     1      19.802  29.111  66.603  1.00  0.00     0.277 HD
ATOM     15  H21 UNL     1      18.857  30.507  66.795  1.00  0.00     0.277 HD
ENDBRANCH   7  12
ENDBRANCH   1   7
BRANCH   4  16
HETATM   16  C5  UNL     1      16.426  24.287  66.298  1.00  0.00     0.129 C 
BRANCH  16  17
HETATM   17  C6  UNL     1      17.526  23.604  65.534  1.00  0.00     0.040 C 
BRANCH  17  18
HETATM   18  C7  UNL     1      17.487  22.098  65.685  1.00  0.00     0.131 C 
BRANCH  18  19
HETATM   19  N4  UNL     1      16.585  21.497  64.727  1.00  0.00    -0.352 N 
HETATM   20  C8  UNL     1      16.297  21.978  63.515  1.00  0.00     0.108 A 
HETATM   21  C9  UNL     1      15.405  21.133  62.900  1.00  0.00     0.106 A 
HETATM   22  N5  UNL     1      15.159  20.140  63.751  1.00  0.00    -0.361 N 
HETATM   23  C10 UNL     1      15.875  20.364  64.855  1.00  0.00     0.182 A 
ATOM     24  H5  UNL     1      14.534  19.350  63.589  1.00  0.00     0.166 HD
ENDBRANCH  18  19
ENDBRANCH  17  18
ENDBRANCH  16  17
ENDBRANCH   4  16
TORSDOF 7
ENDMDL
