MODEL 1
REMARK VINA RESULT: -6.933523094      0.000      0.000
REMARK  5 active torsions:
REMARK  status: ('A' for Active; 'I' for Inactive)
REMARK       I    between atoms: N2_3  and  C2_5 
REMARK    1  A    between atoms: N4_7  and  C3_9 
REMARK    2  A    between atoms: C3_9  and  C4_10 
REMARK    3  A    between atoms: C4_10  and  N5_11 
REMARK    4  A    between atoms: C4_10  and  C5_15 
REMARK    5  A    between atoms: C5_15  and  C6_16 
ROOT
HETATM    1  C4  UNL     1      15.786  20.701  64.944  1.00  0.00     0.205 C 
ENDROOT
BRANCH   1   2
HETATM    2  C3  UNL     1      16.809  19.687  65.471  1.00  0.00     0.155 C 
BRANCH   2   3
HETATM    3  N4  UNL     1      18.118  20.122  65.051  1.00  0.00    -0.362 N 
HETATM    4  C2  UNL     1      19.109  19.341  64.922  1.00  0.00     0.188 C 
HETATM    5  N2  UNL     1      20.363  19.855  64.503  1.00  0.00    -0.329 N 
HETATM    6  N3  UNL     1      18.963  17.956  65.198  1.00  0.00    -0.064 NA
HETATM    7  C1  UNL     1      21.034  19.152  63.637  1.00  0.00     0.192 C 
ATOM      8  H2  UNL     1      20.724  20.737  64.866  1.00  0.00     0.168 HD
HETATM    9  N1  UNL     1      22.281  19.675  63.227  1.00  0.00    -0.097 NA
ATOM     10  H4  UNL     1      18.254  21.112  64.847  1.00  0.00     0.162 HD
ENDBRANCH   2   3
ENDBRANCH   1   2
BRANCH   1  11
HETATM   11  N5  UNL     1      14.850  20.085  64.058  1.00  0.00    -0.073 N 
ATOM     12  H53 UNL     1      15.266  19.896  63.147  1.00  0.00     0.274 HD
ATOM     13  H52 UNL     1      14.645  19.127  64.339  1.00  0.00     0.274 HD
ATOM     14  H51 UNL     1      13.998  20.640  63.972  1.00  0.00     0.274 HD
ENDBRANCH   1  11
BRANCH   1  15
HETATM   15  C5  UNL     1      16.578  21.811  64.292  1.00  0.00     0.072 C 
BRANCH  15  16
HETATM   16  C6  UNL     1      16.636  23.029  65.127  1.00  0.00    -0.056 A 
HETATM   17  C7  UNL     1      15.553  23.467  65.850  1.00  0.00     0.007 A 
HETATM   18  C8  UNL     1      15.596  24.606  66.637  1.00  0.00     0.001 A 
HETATM   19  C9  UNL     1      16.775  25.322  66.690  1.00  0.00     0.000 A 
HETATM   20  C10 UNL     1      17.867  24.896  65.971  1.00  0.00     0.001 A 
HETATM   21  C11 UNL     1      17.802  23.749  65.188  1.00  0.00     0.007 A 
ENDBRANCH  15  16
ENDBRANCH   1  15
TORSDOF 5
ENDMDL
MODEL 2
REMARK VINA RESULT: -6.919107247      0.026      1.186
REMARK  5 active torsions:
REMARK  status: ('A' for Active; 'I' for Inactive)
REMARK       I    between atoms: N2_3  and  C2_5 
REMARK    1  A    between atoms: N4_7  and  C3_9 
REMARK    2  A    between atoms: C3_9  and  C4_10 
REMARK    3  A    between atoms: C4_10  and  N5_11 
REMARK    4  A    between atoms: C4_10  and  C5_15 
REMARK    5  A    between atoms: C5_15  and  C6_16 
ROOT
HETATM    1  C4  UNL     1      15.792  20.706  64.941  1.00  0.00     0.205 C 
ENDROOT
BRANCH   1   2
HETATM    2  C3  UNL     1      16.811  19.693  65.476  1.00  0.00     0.155 C 
BRANCH   2   3
HETATM    3  N4  UNL     1      18.122  20.126  65.063  1.00  0.00    -0.362 N 
HETATM    4  C2  UNL     1      19.112  19.342  64.931  1.00  0.00     0.188 C 
HETATM    5  N2  UNL     1      20.369  19.854  64.519  1.00  0.00    -0.329 N 
HETATM    6  N3  UNL     1      18.959  17.956  65.197  1.00  0.00    -0.064 NA
HETATM    7  C1  UNL     1      21.039  19.155  63.650  1.00  0.00     0.192 C 
ATOM      8  H2  UNL     1      20.731  20.732  64.889  1.00  0.00     0.168 HD
HETATM    9  N1  UNL     1      22.290  19.676  63.247  1.00  0.00    -0.097 NA
ATOM     10  H4  UNL     1      18.263  21.116  64.866  1.00  0.00     0.162 HD
ENDBRANCH   2   3
ENDBRANCH   1   2
BRANCH   1  11
HETATM   11  N5  UNL     1      14.853  20.087  64.061  1.00  0.00    -0.073 N 
ATOM     12  H53 UNL     1      14.063  20.701  63.865  1.00  0.00     0.274 HD
ATOM     13  H52 UNL     1      15.225  20.003  63.116  1.00  0.00     0.274 HD
ATOM     14  H51 UNL     1      14.544  19.184  64.422  1.00  0.00     0.274 HD
ENDBRANCH   1  11
BRANCH   1  15
HETATM   15  C5  UNL     1      16.588  21.807  64.278  1.00  0.00     0.072 C 
BRANCH  15  16
HETATM   16  C6  UNL     1      16.663  23.027  65.109  1.00  0.00    -0.056 A 
HETATM   17  C7  UNL     1      17.808  23.781  65.192  1.00  0.00     0.007 A 
HETATM   18  C8  UNL     1      17.889  24.926  65.967  1.00  0.00     0.001 A 
HETATM   19  C9  UNL     1      16.774  25.317  66.679  1.00  0.00     0.000 A 
HETATM   20  C10 UNL     1      15.620  24.572  66.606  1.00  0.00     0.001 A 
HETATM   21  C11 UNL     1      15.560  23.426  65.821  1.00  0.00     0.007 A 
ENDBRANCH  15  16
ENDBRANCH   1  15
TORSDOF 5
ENDMDL
MODEL 3
REMARK VINA RESULT: -6.814773370      2.760      5.706
REMARK  5 active torsions:
REMARK  status: ('A' for Active; 'I' for Inactive)
REMARK       I    between atoms: N2_3  and  C2_5 
REMARK    1  A    between atoms: N4_7  and  C3_9 
REMARK    2  A    between atoms: C3_9  and  C4_10 
REMARK    3  A    between atoms: C4_10  and  N5_11 
REMARK    4  A    between atoms: C4_10  and  C5_15 
REMARK    5  A    between atoms: C5_15  and  C6_16 
ROOT
HETATM    1  C4  UNL     1      16.506  20.848  63.421  1.00  0.00     0.205 C 
ENDROOT
BRANCH   1   2
HETATM    2  C3  UNL     1      17.000  22.278  63.675  1.00  0.00     0.155 C 
BRANCH   2   3
HETATM    3  N4  UNL     1      16.259  22.809  64.790  1.00  0.00    -0.362 N 
HETATM    4  C2  UNL     1      16.729  23.664  65.602  1.00  0.00     0.188 C 
HETATM    5  N2  UNL     1      15.928  24.135  66.674  1.00  0.00    -0.329 N 
HETATM    6  N3  UNL     1      18.053  24.148  65.436  1.00  0.00    -0.064 NA
HETATM    7  C1  UNL     1      15.976  25.408  66.938  1.00  0.00     0.192 C 
ATOM      8  H2  UNL     1      15.340  23.502  67.215  1.00  0.00     0.168 HD
HETATM    9  N1  UNL     1      15.174  25.865  68.008  1.00  0.00    -0.097 NA
ATOM     10  H4  UNL     1      15.305  22.480  64.936  1.00  0.00     0.162 HD
ENDBRANCH   2   3
ENDBRANCH   1   2
BRANCH   1  11
HETATM   11  N5  UNL     1      15.246  20.844  62.748  1.00  0.00    -0.073 N 
ATOM     12  H53 UNL     1      14.480  21.054  63.387  1.00  0.00     0.274 HD
ATOM     13  H52 UNL     1      15.154  21.645  62.123  1.00  0.00     0.274 HD
ATOM     14  H51 UNL     1      15.090  19.965  62.254  1.00  0.00     0.274 HD
ENDBRANCH   1  11
BRANCH   1  15
HETATM   15  C5  UNL     1      16.460  20.164  64.768  1.00  0.00     0.072 C 
BRANCH  15  16
HETATM   16  C6  UNL     1      17.803  19.782  65.252  1.00  0.00    -0.056 A 
HETATM   17  C7  UNL     1      18.811  19.421  64.392  1.00  0.00     0.007 A 
HETATM   18  C8  UNL     1      20.074  19.062  64.835  1.00  0.00     0.001 A 
HETATM   19  C9  UNL     1      20.319  19.069  66.193  1.00  0.00     0.000 A 
HETATM   20  C10 UNL     1      19.319  19.428  67.066  1.00  0.00     0.001 A 
HETATM   21  C11 UNL     1      18.059  19.785  66.600  1.00  0.00     0.007 A 
ENDBRANCH  15  16
ENDBRANCH   1  15
TORSDOF 5
ENDMDL
MODEL 4
REMARK VINA RESULT: -6.806060419      5.007      7.049
REMARK  5 active torsions:
REMARK  status: ('A' for Active; 'I' for Inactive)
REMARK       I    between atoms: N2_3  and  C2_5 
REMARK    1  A    between atoms: N4_7  and  C3_9 
REMARK    2  A    between atoms: C3_9  and  C4_10 
REMARK    3  A    between atoms: C4_10  and  N5_11 
REMARK    4  A    between atoms: C4_10  and  C5_15 
REMARK    5  A    between atoms: C5_15  and  C6_16 
ROOT
HETATM    1  C4  UNL     1      15.628  25.515  66.780  1.00  0.00     0.205 C 
ENDROOT
BRANCH   1   2
HETATM    2  C3  UNL     1      16.445  26.779  67.076  1.00  0.00     0.155 C 
BRANCH   2   3
HETATM    3  N4  UNL     1      17.184  26.552  68.292  1.00  0.00    -0.362 N 
HETATM    4  C2  UNL     1      18.090  27.331  68.719  1.00  0.00     0.188 C 
HETATM    5  N2  UNL     1      18.768  27.030  69.928  1.00  0.00    -0.329 N 
HETATM    6  N3  UNL     1      18.422  28.502  67.988  1.00  0.00    -0.064 NA
HETATM    7  C1  UNL     1      18.996  28.018  70.744  1.00  0.00     0.192 C 
ATOM      8  H2  UNL     1      19.065  26.080  70.148  1.00  0.00     0.168 HD
HETATM    9  N1  UNL     1      19.673  27.705  71.945  1.00  0.00    -0.097 NA
ATOM     10  H4  UNL     1      16.968  25.718  68.838  1.00  0.00     0.162 HD
ENDBRANCH   2   3
ENDBRANCH   1   2
BRANCH   1  11
HETATM   11  N5  UNL     1      14.458  25.447  67.596  1.00  0.00    -0.073 N 
ATOM     12  H53 UNL     1      14.263  24.491  67.892  1.00  0.00     0.274 HD
ATOM     13  H52 UNL     1      14.616  25.866  68.512  1.00  0.00     0.274 HD
ATOM     14  H51 UNL     1      13.653  25.865  67.129  1.00  0.00     0.274 HD
ENDBRANCH   1  11
BRANCH   1  15
HETATM   15  C5  UNL     1      16.561  24.343  66.983  1.00  0.00     0.072 C 
BRANCH  15  16
HETATM   16  C6  UNL     1      16.723  23.533  65.757  1.00  0.00    -0.056 A 
HETATM   17  C7  UNL     1      15.681  22.824  65.212  1.00  0.00     0.007 A 
HETATM   18  C8  UNL     1      15.821  22.062  64.064  1.00  0.00     0.001 A 
HETATM   19  C9  UNL     1      17.057  22.018  63.452  1.00  0.00     0.000 A 
HETATM   20  C10 UNL     1      18.109  22.723  63.987  1.00  0.00     0.001 A 
HETATM   21  C11 UNL     1      17.947  23.482  65.140  1.00  0.00     0.007 A 
ENDBRANCH  15  16
ENDBRANCH   1  15
TORSDOF 5
ENDMDL
MODEL 5
REMARK VINA RESULT: -6.804444545      5.024      7.160
REMARK  5 active torsions:
REMARK  status: ('A' for Active; 'I' for Inactive)
REMARK       I    between atoms: N2_3  and  C2_5 
REMARK    1  A    between atoms: N4_7  and  C3_9 
REMARK    2  A    between atoms: C3_9  and  C4_10 
REMARK    3  A    between atoms: C4_10  and  N5_11 
REMARK    4  A    between atoms: C4_10  and  C5_15 
REMARK    5  A    between atoms: C5_15  and  C6_16 
ROOT
HETATM    1  C4  UNL     1      15.675  25.536  66.781  1.00  0.00     0.205 C 
ENDROOT
BRANCH   1   2
HETATM    2  C3  UNL     1      16.490  26.799  67.088  1.00  0.00     0.155 C 
BRANCH   2   3
HETATM    3  N4  UNL     1      17.232  26.562  68.300  1.00  0.00    -0.362 N 
HETATM    4  C2  UNL     1      18.118  27.353  68.747  1.00  0.00     0.188 C 
HETATM    5  N2  UNL     1      18.802  27.041  69.950  1.00  0.00    -0.329 N 
HETATM    6  N3  UNL     1      18.424  28.547  68.043  1.00  0.00    -0.064 NA
HETATM    7  C1  UNL     1      19.005  28.015  70.788  1.00  0.00     0.192 C 
ATOM      8  H2  UNL     1      19.120  26.093  70.149  1.00  0.00     0.168 HD
HETATM    9  N1  UNL     1      19.686  27.691  71.983  1.00  0.00    -0.097 NA
ATOM     10  H4  UNL     1      17.035  25.712  68.827  1.00  0.00     0.162 HD
ENDBRANCH   2   3
ENDBRANCH   1   2
BRANCH   1  11
HETATM   11  N5  UNL     1      14.499  25.465  67.588  1.00  0.00    -0.073 N 
ATOM     12  H53 UNL     1      13.742  24.984  67.104  1.00  0.00     0.274 HD
ATOM     13  H52 UNL     1      14.621  24.821  68.370  1.00  0.00     0.274 HD
ATOM     14  H51 UNL     1      14.211  26.389  67.908  1.00  0.00     0.274 HD
ENDBRANCH   1  11
BRANCH   1  15
HETATM   15  C5  UNL     1      16.607  24.364  66.985  1.00  0.00     0.072 C 
BRANCH  15  16
HETATM   16  C6  UNL     1      16.772  23.554  65.760  1.00  0.00    -0.056 A 
HETATM   17  C7  UNL     1      17.971  23.477  65.095  1.00  0.00     0.007 A 
HETATM   18  C8  UNL     1      18.137  22.721  63.947  1.00  0.00     0.001 A 
HETATM   19  C9  UNL     1      17.051  22.023  63.458  1.00  0.00     0.000 A 
HETATM   20  C10 UNL     1      15.844  22.091  64.113  1.00  0.00     0.001 A 
HETATM   21  C11 UNL     1      15.700  22.855  65.265  1.00  0.00     0.007 A 
ENDBRANCH  15  16
ENDBRANCH   1  15
TORSDOF 5
ENDMDL
