MODEL 1
REMARK VINA RESULT: -11.132075378      0.000      0.000
REMARK  3 active torsions:
REMARK  status: ('A' for Active; 'I' for Inactive)
REMARK    1  A    between atoms: C4_4  and  C5_5 
REMARK    2  A    between atoms: C8_8  and  N1_9 
REMARK    3  A    between atoms: N1_9  and  C9_11 
ROOT
HETATM    1  N1  UNL     1     -12.422   5.229 -17.328  1.00  0.00    -0.355 N 
ATOM      2  H1  UNL     1     -11.941   5.792 -16.627  1.00  0.00     0.166 HD
ENDROOT
BRANCH   1   3
HETATM    3  C8  UNL     1     -11.875   3.993 -17.767  1.00  0.00     0.032 A 
HETATM    4  C7  UNL     1     -12.236   2.852 -17.076  1.00  0.00     0.030 A 
HETATM    5  C6  UNL     1     -11.713   1.650 -17.490  1.00  0.00     0.014 A 
HETATM    6  C5  UNL     1     -10.853   1.560 -18.561  1.00  0.00    -0.026 A 
HETATM    7  C19 UNL     1     -10.525   2.737 -19.220  1.00  0.00     0.014 A 
HETATM    8  C18 UNL     1     -11.021   3.961 -18.842  1.00  0.00     0.030 A 
BRANCH   6   9
HETATM    9  C4  UNL     1     -10.293   0.287 -19.010  1.00  0.00    -0.026 A 
HETATM   10  C3  UNL     1     -10.014  -0.707 -18.116  1.00  0.00     0.012 A 
HETATM   11  C2  UNL     1      -9.488  -1.890 -18.584  1.00  0.00     0.001 A 
HETATM   12  C1  UNL     1      -9.240  -2.085 -19.922  1.00  0.00     0.000 A 
HETATM   13  C21 UNL     1      -9.525  -1.075 -20.816  1.00  0.00     0.001 A 
HETATM   14  C20 UNL     1     -10.054   0.114 -20.355  1.00  0.00     0.012 A 
ENDBRANCH   6   9
ENDBRANCH   1   3
BRANCH   1  15
HETATM   15  C9  UNL     1     -13.526   5.618 -17.827  1.00  0.00     0.046 A 
HETATM   16  C10 UNL     1     -13.714   5.815 -19.184  1.00  0.00     0.047 A 
HETATM   17  C11 UNL     1     -14.931   6.237 -19.674  1.00  0.00     0.090 A 
HETATM   18  N2  UNL     1     -15.928   6.452 -18.796  1.00  0.00    -0.365 N 
HETATM   19  C12 UNL     1     -15.770   6.267 -17.468  1.00  0.00     0.044 A 
ATOM     20  H2  UNL     1     -16.834   6.765 -19.146  1.00  0.00     0.165 HD
HETATM   21  C13 UNL     1     -16.815   6.497 -16.600  1.00  0.00     0.030 A 
HETATM   22  C17 UNL     1     -14.572   5.846 -16.929  1.00  0.00     0.017 A 
HETATM   23  C14 UNL     1     -16.634   6.303 -15.241  1.00  0.00     0.002 A 
HETATM   24  C15 UNL     1     -15.439   5.881 -14.694  1.00  0.00     0.001 A 
HETATM   25  C16 UNL     1     -14.383   5.649 -15.577  1.00  0.00     0.016 A 
ENDBRANCH   1  15
TORSDOF 3
ENDMDL
MODEL 2
REMARK VINA RESULT: -11.053504398      2.526      8.012
REMARK  3 active torsions:
REMARK  status: ('A' for Active; 'I' for Inactive)
REMARK    1  A    between atoms: C4_4  and  C5_5 
REMARK    2  A    between atoms: C8_8  and  N1_9 
REMARK    3  A    between atoms: N1_9  and  C9_11 
ROOT
HETATM    1  N1  UNL     1      -9.962   1.075 -19.290  1.00  0.00    -0.355 N 
ATOM      2  H1  UNL     1      -9.199   1.392 -19.889  1.00  0.00     0.166 HD
ENDROOT
BRANCH   1   3
HETATM    3  C8  UNL     1     -10.802   2.010 -18.627  1.00  0.00     0.032 A 
HETATM    4  C7  UNL     1     -10.843   3.298 -19.125  1.00  0.00     0.030 A 
HETATM    5  C6  UNL     1     -11.650   4.213 -18.493  1.00  0.00     0.014 A 
HETATM    6  C5  UNL     1     -12.407   3.878 -17.392  1.00  0.00    -0.026 A 
HETATM    7  C19 UNL     1     -12.329   2.571 -16.935  1.00  0.00     0.014 A 
HETATM    8  C18 UNL     1     -11.536   1.622 -17.533  1.00  0.00     0.030 A 
BRANCH   6   9
HETATM    9  C4  UNL     1     -13.270   4.844 -16.714  1.00  0.00    -0.026 A 
HETATM   10  C3  UNL     1     -13.286   6.155 -17.095  1.00  0.00     0.012 A 
HETATM   11  C2  UNL     1     -14.114   7.028 -16.427  1.00  0.00     0.001 A 
HETATM   12  C1  UNL     1     -14.916   6.608 -15.394  1.00  0.00     0.000 A 
HETATM   13  C21 UNL     1     -14.893   5.282 -15.017  1.00  0.00     0.001 A 
HETATM   14  C20 UNL     1     -14.066   4.399 -15.681  1.00  0.00     0.012 A 
ENDBRANCH   6   9
ENDBRANCH   1   3
BRANCH   1  15
HETATM   15  C9  UNL     1     -10.181  -0.167 -19.121  1.00  0.00     0.046 A 
HETATM   16  C10 UNL     1      -9.637  -0.896 -18.078  1.00  0.00     0.047 A 
HETATM   17  C11 UNL     1      -9.907  -2.240 -17.940  1.00  0.00     0.090 A 
HETATM   18  N2  UNL     1     -10.712  -2.822 -18.848  1.00  0.00    -0.365 N 
HETATM   19  C12 UNL     1     -11.255  -2.133 -19.875  1.00  0.00     0.044 A 
ATOM     20  H2  UNL     1     -10.919  -3.817 -18.757  1.00  0.00     0.165 HD
HETATM   21  C13 UNL     1     -12.075  -2.763 -20.785  1.00  0.00     0.030 A 
HETATM   22  C17 UNL     1     -11.015  -0.787 -20.055  1.00  0.00     0.017 A 
HETATM   23  C14 UNL     1     -12.623  -2.041 -21.832  1.00  0.00     0.002 A 
HETATM   24  C15 UNL     1     -12.388  -0.694 -22.019  1.00  0.00     0.001 A 
HETATM   25  C16 UNL     1     -11.556  -0.059 -21.095  1.00  0.00     0.016 A 
ENDBRANCH   1  15
TORSDOF 3
ENDMDL
MODEL 3
REMARK VINA RESULT: -10.741065432      2.330      7.701
REMARK  3 active torsions:
REMARK  status: ('A' for Active; 'I' for Inactive)
REMARK    1  A    between atoms: C4_4  and  C5_5 
REMARK    2  A    between atoms: C8_8  and  N1_9 
REMARK    3  A    between atoms: N1_9  and  C9_11 
ROOT
HETATM    1  N1  UNL     1     -10.086   1.491 -19.173  1.00  0.00    -0.355 N 
ATOM      2  H1  UNL     1      -9.091   1.458 -18.950  1.00  0.00     0.166 HD
ENDROOT
BRANCH   1   3
HETATM    3  C8  UNL     1     -10.947   2.410 -18.513  1.00  0.00     0.032 A 
HETATM    4  C7  UNL     1     -11.710   1.933 -17.465  1.00  0.00     0.030 A 
HETATM    5  C6  UNL     1     -12.547   2.811 -16.819  1.00  0.00     0.014 A 
HETATM    6  C5  UNL     1     -12.639   4.135 -17.188  1.00  0.00    -0.026 A 
HETATM    7  C19 UNL     1     -11.850   4.560 -18.247  1.00  0.00     0.014 A 
HETATM    8  C18 UNL     1     -11.000   3.720 -18.923  1.00  0.00     0.030 A 
BRANCH   6   9
HETATM    9  C4  UNL     1     -13.525   5.076 -16.507  1.00  0.00    -0.026 A 
HETATM   10  C3  UNL     1     -14.294   4.674 -15.452  1.00  0.00     0.012 A 
HETATM   11  C2  UNL     1     -15.114   5.596 -14.841  1.00  0.00     0.001 A 
HETATM   12  C1  UNL     1     -15.172   6.899 -15.271  1.00  0.00     0.000 A 
HETATM   13  C21 UNL     1     -14.393   7.295 -16.337  1.00  0.00     0.001 A 
HETATM   14  C20 UNL     1     -13.568   6.378 -16.955  1.00  0.00     0.012 A 
ENDBRANCH   6   9
ENDBRANCH   1   3
BRANCH   1  15
HETATM   15  C9  UNL     1     -10.583   0.711 -20.046  1.00  0.00     0.046 A 
HETATM   16  C10 UNL     1     -10.982   1.137 -21.300  1.00  0.00     0.047 A 
HETATM   17  C11 UNL     1     -11.515   0.249 -22.211  1.00  0.00     0.090 A 
HETATM   18  N2  UNL     1     -11.636  -1.039 -21.844  1.00  0.00    -0.365 N 
HETATM   19  C12 UNL     1     -11.255  -1.480 -20.626  1.00  0.00     0.044 A 
ATOM     20  H2  UNL     1     -12.030  -1.706 -22.509  1.00  0.00     0.165 HD
HETATM   21  C13 UNL     1     -11.394  -2.808 -20.287  1.00  0.00     0.030 A 
HETATM   22  C17 UNL     1     -10.716  -0.632 -19.681  1.00  0.00     0.017 A 
HETATM   23  C14 UNL     1     -10.997  -3.242 -19.033  1.00  0.00     0.002 A 
HETATM   24  C15 UNL     1     -10.457  -2.400 -18.082  1.00  0.00     0.001 A 
HETATM   25  C16 UNL     1     -10.318  -1.055 -18.430  1.00  0.00     0.016 A 
ENDBRANCH   1  15
TORSDOF 3
ENDMDL
MODEL 4
REMARK VINA RESULT: -10.740303279      1.397      1.808
REMARK  3 active torsions:
REMARK  status: ('A' for Active; 'I' for Inactive)
REMARK    1  A    between atoms: C4_4  and  C5_5 
REMARK    2  A    between atoms: C8_8  and  N1_9 
REMARK    3  A    between atoms: N1_9  and  C9_11 
ROOT
HETATM    1  N1  UNL     1     -12.203   4.918 -18.443  1.00  0.00    -0.355 N 
ATOM      2  H1  UNL     1     -11.470   5.392 -17.915  1.00  0.00     0.166 HD
ENDROOT
BRANCH   1   3
HETATM    3  C8  UNL     1     -11.982   3.626 -18.991  1.00  0.00     0.032 A 
HETATM    4  C7  UNL     1     -10.752   3.037 -18.766  1.00  0.00     0.030 A 
HETATM    5  C6  UNL     1     -10.524   1.787 -19.292  1.00  0.00     0.014 A 
HETATM    6  C5  UNL     1     -11.481   1.121 -20.024  1.00  0.00    -0.026 A 
HETATM    7  C19 UNL     1     -12.698   1.758 -20.219  1.00  0.00     0.014 A 
HETATM    8  C18 UNL     1     -12.971   3.005 -19.715  1.00  0.00     0.030 A 
BRANCH   6   9
HETATM    9  C4  UNL     1     -11.248  -0.209 -20.586  1.00  0.00    -0.026 A 
HETATM   10  C3  UNL     1     -12.265  -0.908 -21.171  1.00  0.00     0.012 A 
HETATM   11  C2  UNL     1     -11.999  -2.156 -21.686  1.00  0.00     0.001 A 
HETATM   12  C1  UNL     1     -10.741  -2.706 -21.621  1.00  0.00     0.000 A 
HETATM   13  C21 UNL     1      -9.722  -1.992 -21.027  1.00  0.00     0.001 A 
HETATM   14  C20 UNL     1      -9.979  -0.739 -20.509  1.00  0.00     0.012 A 
ENDBRANCH   6   9
ENDBRANCH   1   3
BRANCH   1  15
HETATM   15  C9  UNL     1     -13.334   5.471 -18.623  1.00  0.00     0.046 A 
HETATM   16  C10 UNL     1     -13.750   5.959 -19.849  1.00  0.00     0.047 A 
HETATM   17  C11 UNL     1     -14.987   6.549 -19.991  1.00  0.00     0.090 A 
HETATM   18  N2  UNL     1     -15.777   6.637 -18.906  1.00  0.00    -0.365 N 
HETATM   19  C12 UNL     1     -15.395   6.168 -17.698  1.00  0.00     0.044 A 
ATOM     20  H2  UNL     1     -16.695   7.072 -18.998  1.00  0.00     0.165 HD
HETATM   21  C13 UNL     1     -16.231   6.275 -16.609  1.00  0.00     0.030 A 
HETATM   22  C17 UNL     1     -14.167   5.569 -17.505  1.00  0.00     0.017 A 
HETATM   23  C14 UNL     1     -15.822   5.788 -15.379  1.00  0.00     0.002 A 
HETATM   24  C15 UNL     1     -14.596   5.188 -15.177  1.00  0.00     0.001 A 
HETATM   25  C16 UNL     1     -13.751   5.082 -16.284  1.00  0.00     0.016 A 
ENDBRANCH   1  15
TORSDOF 3
ENDMDL
MODEL 5
REMARK VINA RESULT: -10.509887451      1.658      2.024
REMARK  3 active torsions:
REMARK  status: ('A' for Active; 'I' for Inactive)
REMARK    1  A    between atoms: C4_4  and  C5_5 
REMARK    2  A    between atoms: C8_8  and  N1_9 
REMARK    3  A    between atoms: N1_9  and  C9_11 
ROOT
HETATM    1  N1  UNL     1     -14.810   2.614 -18.015  1.00  0.00    -0.355 N 
ATOM      2  H1  UNL     1     -15.607   2.257 -17.488  1.00  0.00     0.166 HD
ENDROOT
BRANCH   1   3
HETATM    3  C8  UNL     1     -13.759   1.745 -18.418  1.00  0.00     0.032 A 
HETATM    4  C7  UNL     1     -12.493   2.003 -17.928  1.00  0.00     0.030 A 
HETATM    5  C6  UNL     1     -11.467   1.171 -18.310  1.00  0.00     0.014 A 
HETATM    6  C5  UNL     1     -11.672   0.105 -19.156  1.00  0.00    -0.026 A 
HETATM    7  C19 UNL     1     -12.964  -0.108 -19.618  1.00  0.00     0.014 A 
HETATM    8  C18 UNL     1     -14.019   0.695 -19.265  1.00  0.00     0.030 A 
BRANCH   6   9
HETATM    9  C4  UNL     1     -10.588  -0.786 -19.567  1.00  0.00    -0.026 A 
HETATM   10  C3  UNL     1      -9.585  -1.113 -18.700  1.00  0.00     0.012 A 
HETATM   11  C2  UNL     1      -8.586  -1.954 -19.132  1.00  0.00     0.001 A 
HETATM   12  C1  UNL     1      -8.579  -2.465 -20.407  1.00  0.00     0.000 A 
HETATM   13  C21 UNL     1      -9.596  -2.129 -21.275  1.00  0.00     0.001 A 
HETATM   14  C20 UNL     1     -10.602  -1.286 -20.851  1.00  0.00     0.012 A 
ENDBRANCH   6   9
ENDBRANCH   1   3
BRANCH   1  15
HETATM   15  C9  UNL     1     -14.735   3.845 -18.325  1.00  0.00     0.046 A 
HETATM   16  C10 UNL     1     -14.643   4.291 -19.632  1.00  0.00     0.047 A 
HETATM   17  C11 UNL     1     -14.564   5.638 -19.914  1.00  0.00     0.090 A 
HETATM   18  N2  UNL     1     -14.578   6.504 -18.884  1.00  0.00    -0.365 N 
HETATM   19  C12 UNL     1     -14.666   6.094 -17.600  1.00  0.00     0.044 A 
ATOM     20  H2  UNL     1     -14.519   7.503 -19.080  1.00  0.00     0.165 HD
HETATM   21  C13 UNL     1     -14.679   7.011 -16.572  1.00  0.00     0.030 A 
HETATM   22  C17 UNL     1     -14.748   4.758 -17.267  1.00  0.00     0.017 A 
HETATM   23  C14 UNL     1     -14.770   6.572 -15.262  1.00  0.00     0.002 A 
HETATM   24  C15 UNL     1     -14.852   5.238 -14.920  1.00  0.00     0.001 A 
HETATM   25  C16 UNL     1     -14.839   4.312 -15.965  1.00  0.00     0.016 A 
ENDBRANCH   1  15
TORSDOF 3
ENDMDL
