MODEL 1
REMARK VINA RESULT: -9.889385928      0.000      0.000
REMARK  3 active torsions:
REMARK  status: ('A' for Active; 'I' for Inactive)
REMARK    1  A    between atoms: C4_4  and  N1_5 
REMARK    2  A    between atoms: N1_5  and  C5_7 
REMARK    3  A    between atoms: C9_13  and  C10_14 
ROOT
HETATM    1  C5  UNL     1     -13.632   2.388 -17.022  1.00  0.00     0.116 A 
HETATM    2  N2  UNL     1     -14.168   1.266 -16.553  1.00  0.00    -0.352 N 
ATOM      3  H2  UNL     1     -14.369   1.186 -15.556  1.00  0.00     0.166 HD
HETATM    4  C6  UNL     1     -14.448   0.239 -17.363  1.00  0.00     0.090 A 
HETATM    5  C7  UNL     1     -14.193   0.311 -18.697  1.00  0.00     0.018 A 
HETATM    6  C8  UNL     1     -13.641   1.465 -19.187  1.00  0.00     0.017 A 
HETATM    7  C9  UNL     1     -13.343   2.535 -18.381  1.00  0.00     0.019 A 
ENDROOT
BRANCH   7   8
HETATM    8  C10 UNL     1     -12.699   3.764 -18.860  1.00  0.00    -0.011 A 
HETATM    9  C11 UNL     1     -11.319   3.913 -18.695  1.00  0.00     0.013 A 
HETATM   10  C12 UNL     1     -10.640   5.008 -19.163  1.00  0.00     0.002 A 
HETATM   11  C13 UNL     1     -11.357   5.981 -19.812  1.00  0.00     0.012 A 
HETATM   12  C14 UNL     1     -12.728   5.902 -20.009  1.00  0.00    -0.025 A 
HETATM   13  C15 UNL     1     -13.410   6.915 -20.658  1.00  0.00     0.012 A 
HETATM   14  C19 UNL     1     -13.367   4.764 -19.511  1.00  0.00    -0.015 A 
HETATM   15  C16 UNL     1     -14.770   6.850 -20.842  1.00  0.00     0.001 A 
HETATM   16  C17 UNL     1     -15.422   5.745 -20.362  1.00  0.00     0.001 A 
HETATM   17  C18 UNL     1     -14.728   4.723 -19.708  1.00  0.00     0.013 A 
ENDBRANCH   7   8
BRANCH   1  18
HETATM   18  N1  UNL     1     -13.372   3.360 -16.235  1.00  0.00    -0.342 N 
ATOM     19  H1  UNL     1     -12.484   3.370 -15.734  1.00  0.00     0.167 HD
BRANCH  18  20
HETATM   20  C4  UNL     1     -14.291   4.427 -16.042  1.00  0.00     0.033 A 
HETATM   21  C3  UNL     1     -13.895   5.763 -16.171  1.00  0.00     0.029 A 
HETATM   22  C2  UNL     1     -14.773   6.802 -15.987  1.00  0.00     0.002 A 
HETATM   23  C1  UNL     1     -16.094   6.559 -15.666  1.00  0.00     0.000 A 
HETATM   24  C21 UNL     1     -16.478   5.238 -15.542  1.00  0.00     0.002 A 
HETATM   25  C20 UNL     1     -15.608   4.179 -15.723  1.00  0.00     0.029 A 
ENDBRANCH  18  20
ENDBRANCH   1  18
TORSDOF 3
ENDMDL
MODEL 2
REMARK VINA RESULT: -9.864348677      1.765      4.658
REMARK  3 active torsions:
REMARK  status: ('A' for Active; 'I' for Inactive)
REMARK    1  A    between atoms: C4_4  and  N1_5 
REMARK    2  A    between atoms: N1_5  and  C5_7 
REMARK    3  A    between atoms: C9_13  and  C10_14 
ROOT
HETATM    1  C5  UNL     1     -14.358   1.543 -17.662  1.00  0.00     0.116 A 
HETATM    2  N2  UNL     1     -14.482   0.613 -16.722  1.00  0.00    -0.352 N 
ATOM      3  H2  UNL     1     -14.387  -0.371 -16.975  1.00  0.00     0.166 HD
HETATM    4  C6  UNL     1     -14.729   0.941 -15.449  1.00  0.00     0.090 A 
HETATM    5  C7  UNL     1     -14.862   2.243 -15.076  1.00  0.00     0.018 A 
HETATM    6  C8  UNL     1     -14.735   3.206 -16.041  1.00  0.00     0.017 A 
HETATM    7  C9  UNL     1     -14.481   2.900 -17.354  1.00  0.00     0.019 A 
ENDROOT
BRANCH   7   8
HETATM    8  C10 UNL     1     -14.397   3.901 -18.425  1.00  0.00    -0.011 A 
HETATM    9  C11 UNL     1     -15.559   4.251 -19.117  1.00  0.00     0.013 A 
HETATM   10  C12 UNL     1     -15.568   5.214 -20.092  1.00  0.00     0.002 A 
HETATM   11  C13 UNL     1     -14.386   5.844 -20.386  1.00  0.00     0.012 A 
HETATM   12  C14 UNL     1     -13.194   5.548 -19.741  1.00  0.00    -0.025 A 
HETATM   13  C15 UNL     1     -12.024   6.201 -20.081  1.00  0.00     0.012 A 
HETATM   14  C19 UNL     1     -13.244   4.558 -18.757  1.00  0.00    -0.015 A 
HETATM   15  C16 UNL     1     -10.837   5.901 -19.457  1.00  0.00     0.001 A 
HETATM   16  C17 UNL     1     -10.857   4.932 -18.489  1.00  0.00     0.001 A 
HETATM   17  C18 UNL     1     -12.044   4.275 -18.148  1.00  0.00     0.013 A 
ENDBRANCH   7   8
BRANCH   1  18
HETATM   18  N1  UNL     1     -14.121   1.212 -18.873  1.00  0.00    -0.342 N 
ATOM     19  H1  UNL     1     -14.903   1.030 -19.502  1.00  0.00     0.167 HD
BRANCH  18  20
HETATM   20  C4  UNL     1     -12.792   1.093 -19.365  1.00  0.00     0.033 A 
HETATM   21  C3  UNL     1     -11.738   0.706 -18.531  1.00  0.00     0.029 A 
HETATM   22  C2  UNL     1     -10.450   0.587 -18.995  1.00  0.00     0.002 A 
HETATM   23  C1  UNL     1     -10.152   0.848 -20.317  1.00  0.00     0.000 A 
HETATM   24  C21 UNL     1     -11.199   1.229 -21.134  1.00  0.00     0.002 A 
HETATM   25  C20 UNL     1     -12.500   1.355 -20.686  1.00  0.00     0.029 A 
ENDBRANCH  18  20
ENDBRANCH   1  18
TORSDOF 3
ENDMDL
MODEL 3
REMARK VINA RESULT: -9.840736130      2.837      5.517
REMARK  3 active torsions:
REMARK  status: ('A' for Active; 'I' for Inactive)
REMARK    1  A    between atoms: C4_4  and  N1_5 
REMARK    2  A    between atoms: N1_5  and  C5_7 
REMARK    3  A    between atoms: C9_13  and  C10_14 
ROOT
HETATM    1  C5  UNL     1     -12.567   2.131 -17.511  1.00  0.00     0.116 A 
HETATM    2  N2  UNL     1     -13.284   2.458 -16.441  1.00  0.00    -0.352 N 
ATOM      3  H2  UNL     1     -13.025   3.281 -15.897  1.00  0.00     0.166 HD
HETATM    4  C6  UNL     1     -14.338   1.727 -16.063  1.00  0.00     0.090 A 
HETATM    5  C7  UNL     1     -14.711   0.622 -16.764  1.00  0.00     0.018 A 
HETATM    6  C8  UNL     1     -13.977   0.281 -17.868  1.00  0.00     0.017 A 
HETATM    7  C9  UNL     1     -12.891   1.011 -18.281  1.00  0.00     0.019 A 
ENDROOT
BRANCH   7   8
HETATM    8  C10 UNL     1     -12.046   0.644 -19.424  1.00  0.00    -0.011 A 
HETATM    9  C11 UNL     1     -12.330   1.191 -20.679  1.00  0.00     0.013 A 
HETATM   10  C12 UNL     1     -11.555   0.936 -21.780  1.00  0.00     0.002 A 
HETATM   11  C13 UNL     1     -10.469   0.112 -21.627  1.00  0.00     0.012 A 
HETATM   12  C14 UNL     1     -10.129  -0.467 -20.414  1.00  0.00    -0.025 A 
HETATM   13  C15 UNL     1      -9.031  -1.302 -20.311  1.00  0.00     0.012 A 
HETATM   14  C19 UNL     1     -10.953  -0.173 -19.326  1.00  0.00    -0.015 A 
HETATM   15  C16 UNL     1      -8.698  -1.892 -19.116  1.00  0.00     0.001 A 
HETATM   16  C17 UNL     1      -9.491  -1.622 -18.033  1.00  0.00     0.001 A 
HETATM   17  C18 UNL     1     -10.600  -0.776 -18.142  1.00  0.00     0.013 A 
ENDBRANCH   7   8
BRANCH   1  18
HETATM   18  N1  UNL     1     -11.564   2.841 -17.860  1.00  0.00    -0.342 N 
ATOM     19  H1  UNL     1     -10.627   2.550 -17.581  1.00  0.00     0.167 HD
BRANCH  18  20
HETATM   20  C4  UNL     1     -11.722   4.026 -18.628  1.00  0.00     0.033 A 
HETATM   21  C3  UNL     1     -12.939   4.340 -19.242  1.00  0.00     0.029 A 
HETATM   22  C2  UNL     1     -13.104   5.483 -19.987  1.00  0.00     0.002 A 
HETATM   23  C1  UNL     1     -12.060   6.371 -20.154  1.00  0.00     0.000 A 
HETATM   24  C21 UNL     1     -10.862   6.054 -19.544  1.00  0.00     0.002 A 
HETATM   25  C20 UNL     1     -10.676   4.909 -18.791  1.00  0.00     0.029 A 
ENDBRANCH  18  20
ENDBRANCH   1  18
TORSDOF 3
ENDMDL
MODEL 4
REMARK VINA RESULT: -9.613614022      1.986      4.463
REMARK  3 active torsions:
REMARK  status: ('A' for Active; 'I' for Inactive)
REMARK    1  A    between atoms: C4_4  and  N1_5 
REMARK    2  A    between atoms: N1_5  and  C5_7 
REMARK    3  A    between atoms: C9_13  and  C10_14 
ROOT
HETATM    1  C5  UNL     1     -13.691   1.617 -18.248  1.00  0.00     0.116 A 
HETATM    2  N2  UNL     1     -14.315   0.628 -17.617  1.00  0.00    -0.352 N 
ATOM      3  H2  UNL     1     -14.504  -0.242 -18.116  1.00  0.00     0.166 HD
HETATM    4  C6  UNL     1     -14.699   0.751 -16.342  1.00  0.00     0.090 A 
HETATM    5  C7  UNL     1     -14.462   1.897 -15.648  1.00  0.00     0.018 A 
HETATM    6  C8  UNL     1     -13.819   2.920 -16.292  1.00  0.00     0.017 A 
HETATM    7  C9  UNL     1     -13.413   2.823 -17.599  1.00  0.00     0.019 A 
ENDROOT
BRANCH   7   8
HETATM    8  C10 UNL     1     -12.774   3.918 -18.339  1.00  0.00    -0.011 A 
HETATM    9  C11 UNL     1     -11.383   4.048 -18.287  1.00  0.00     0.013 A 
HETATM   10  C12 UNL     1     -10.712   5.012 -18.993  1.00  0.00     0.002 A 
HETATM   11  C13 UNL     1     -11.447   5.871 -19.770  1.00  0.00     0.012 A 
HETATM   12  C14 UNL     1     -12.829   5.803 -19.867  1.00  0.00    -0.025 A 
HETATM   13  C15 UNL     1     -13.529   6.700 -20.654  1.00  0.00     0.012 A 
HETATM   14  C19 UNL     1     -13.460   4.801 -19.127  1.00  0.00    -0.015 A 
HETATM   15  C16 UNL     1     -14.899   6.647 -20.742  1.00  0.00     0.001 A 
HETATM   16  C17 UNL     1     -15.543   5.675 -20.024  1.00  0.00     0.001 A 
HETATM   17  C18 UNL     1     -14.831   4.770 -19.231  1.00  0.00     0.013 A 
ENDBRANCH   7   8
BRANCH   1  18
HETATM   18  N1  UNL     1     -13.329   1.483 -19.466  1.00  0.00    -0.342 N 
ATOM     19  H1  UNL     1     -13.975   1.748 -20.209  1.00  0.00     0.167 HD
BRANCH  18  20
HETATM   20  C4  UNL     1     -12.047   0.974 -19.809  1.00  0.00     0.033 A 
HETATM   21  C3  UNL     1     -11.215   0.386 -18.851  1.00  0.00     0.029 A 
HETATM   22  C2  UNL     1      -9.975  -0.109 -19.171  1.00  0.00     0.002 A 
HETATM   23  C1  UNL     1      -9.504  -0.043 -20.467  1.00  0.00     0.000 A 
HETATM   24  C21 UNL     1     -10.331   0.538 -21.408  1.00  0.00     0.002 A 
HETATM   25  C20 UNL     1     -11.582   1.043 -21.105  1.00  0.00     0.029 A 
ENDBRANCH  18  20
ENDBRANCH   1  18
TORSDOF 3
ENDMDL
MODEL 5
REMARK VINA RESULT: -9.446224638      1.760      2.505
REMARK  3 active torsions:
REMARK  status: ('A' for Active; 'I' for Inactive)
REMARK    1  A    between atoms: C4_4  and  N1_5 
REMARK    2  A    between atoms: N1_5  and  C5_7 
REMARK    3  A    between atoms: C9_13  and  C10_14 
ROOT
HETATM    1  C5  UNL     1     -11.616   1.554 -18.477  1.00  0.00     0.116 A 
HETATM    2  N2  UNL     1     -11.227   0.285 -18.409  1.00  0.00    -0.352 N 
ATOM      3  H2  UNL     1     -10.852  -0.077 -17.532  1.00  0.00     0.166 HD
HETATM    4  C6  UNL     1     -11.320  -0.526 -19.468  1.00  0.00     0.090 A 
HETATM    5  C7  UNL     1     -11.816  -0.076 -20.653  1.00  0.00     0.018 A 
HETATM    6  C8  UNL     1     -12.218   1.231 -20.728  1.00  0.00     0.017 A 
HETATM    7  C9  UNL     1     -12.135   2.086 -19.659  1.00  0.00     0.019 A 
ENDROOT
BRANCH   7   8
HETATM    8  C10 UNL     1     -12.502   3.507 -19.719  1.00  0.00    -0.011 A 
HETATM    9  C11 UNL     1     -11.511   4.450 -20.005  1.00  0.00     0.013 A 
HETATM   10  C12 UNL     1     -11.787   5.786 -20.130  1.00  0.00     0.002 A 
HETATM   11  C13 UNL     1     -13.086   6.194 -19.962  1.00  0.00     0.012 A 
HETATM   12  C14 UNL     1     -14.120   5.315 -19.675  1.00  0.00    -0.025 A 
HETATM   13  C15 UNL     1     -15.412   5.776 -19.502  1.00  0.00     0.012 A 
HETATM   14  C19 UNL     1     -13.780   3.966 -19.560  1.00  0.00    -0.015 A 
HETATM   15  C16 UNL     1     -16.438   4.913 -19.201  1.00  0.00     0.001 A 
HETATM   16  C17 UNL     1     -16.132   3.582 -19.080  1.00  0.00     0.001 A 
HETATM   17  C18 UNL     1     -14.824   3.122 -19.257  1.00  0.00     0.013 A 
ENDBRANCH   7   8
BRANCH   1  18
HETATM   18  N1  UNL     1     -11.522   2.315 -17.455  1.00  0.00    -0.342 N 
ATOM     19  H1  UNL     1     -10.601   2.638 -17.158  1.00  0.00     0.167 HD
BRANCH  18  20
HETATM   20  C4  UNL     1     -12.670   2.722 -16.723  1.00  0.00     0.033 A 
HETATM   21  C3  UNL     1     -12.883   4.063 -16.387  1.00  0.00     0.029 A 
HETATM   22  C2  UNL     1     -13.989   4.469 -15.680  1.00  0.00     0.002 A 
HETATM   23  C1  UNL     1     -14.940   3.553 -15.275  1.00  0.00     0.000 A 
HETATM   24  C21 UNL     1     -14.723   2.232 -15.612  1.00  0.00     0.002 A 
HETATM   25  C20 UNL     1     -13.617   1.804 -16.322  1.00  0.00     0.029 A 
ENDBRANCH  18  20
ENDBRANCH   1  18
TORSDOF 3
ENDMDL
