MODEL 1
REMARK VINA RESULT: -11.151502165      0.000      0.000
REMARK  3 active torsions:
REMARK  status: ('A' for Active; 'I' for Inactive)
REMARK    1  A    between atoms: C4_4  and  C5_5 
REMARK    2  A    between atoms: C8_8  and  N1_9 
REMARK    3  A    between atoms: N1_9  and  C9_11 
ROOT
HETATM    1  N1  UNL     1     -12.419   5.277 -17.376  1.00  0.00    -0.342 N 
ATOM      2  H1  UNL     1     -11.888   5.868 -16.735  1.00  0.00     0.167 HD
ENDROOT
BRANCH   1   3
HETATM    3  C8  UNL     1     -11.914   4.008 -17.737  1.00  0.00     0.033 A 
HETATM    4  C7  UNL     1     -11.068   3.954 -18.839  1.00  0.00     0.030 A 
HETATM    5  C6  UNL     1     -10.542   2.749 -19.245  1.00  0.00     0.014 A 
HETATM    6  C5  UNL     1     -10.825   1.563 -18.587  1.00  0.00    -0.026 A 
HETATM    7  C19 UNL     1     -11.667   1.655 -17.499  1.00  0.00     0.014 A 
HETATM    8  C18 UNL     1     -12.206   2.849 -17.075  1.00  0.00     0.030 A 
BRANCH   6   9
HETATM    9  C4  UNL     1     -10.262   0.286 -19.026  1.00  0.00    -0.026 A 
HETATM   10  C3  UNL     1      -9.984  -0.732 -18.154  1.00  0.00     0.012 A 
HETATM   11  C2  UNL     1      -9.450  -1.955 -18.542  1.00  0.00     0.001 A 
HETATM   12  C1  UNL     1      -9.204  -2.102 -19.892  1.00  0.00     0.000 A 
HETATM   13  C21 UNL     1      -9.473  -1.100 -20.790  1.00  0.00     0.001 A 
HETATM   14  C20 UNL     1     -10.003   0.099 -20.368  1.00  0.00     0.012 A 
ENDBRANCH   6   9
ENDBRANCH   1   3
BRANCH   1  15
HETATM   15  C9  UNL     1     -13.538   5.695 -17.845  1.00  0.00     0.116 A 
HETATM   16  N2  UNL     1     -13.688   5.929 -19.162  1.00  0.00    -0.352 N 
HETATM   17  C10 UNL     1     -14.881   6.368 -19.626  1.00  0.00     0.090 A 
ATOM     18  H2  UNL     1     -12.910   5.777 -19.804  1.00  0.00     0.166 HD
HETATM   19  C11 UNL     1     -15.915   6.564 -18.735  1.00  0.00     0.029 A 
HETATM   20  C12 UNL     1     -15.788   6.333 -17.390  1.00  0.00    -0.021 A 
HETATM   21  C13 UNL     1     -16.841   6.534 -16.498  1.00  0.00     0.012 A 
HETATM   22  C17 UNL     1     -14.565   5.885 -16.931  1.00  0.00     0.018 A 
HETATM   23  C14 UNL     1     -16.666   6.288 -15.153  1.00  0.00     0.001 A 
HETATM   24  C15 UNL     1     -15.444   5.837 -14.675  1.00  0.00     0.001 A 
HETATM   25  C16 UNL     1     -14.414   5.647 -15.592  1.00  0.00     0.016 A 
ENDBRANCH   1  15
TORSDOF 3
ENDMDL
MODEL 2
REMARK VINA RESULT: -10.952456897      1.392      1.700
REMARK  3 active torsions:
REMARK  status: ('A' for Active; 'I' for Inactive)
REMARK    1  A    between atoms: C4_4  and  C5_5 
REMARK    2  A    between atoms: C8_8  and  N1_9 
REMARK    3  A    between atoms: N1_9  and  C9_11 
ROOT
HETATM    1  N1  UNL     1     -12.223   4.925 -18.528  1.00  0.00    -0.342 N 
ATOM      2  H1  UNL     1     -11.464   5.400 -18.039  1.00  0.00     0.167 HD
ENDROOT
BRANCH   1   3
HETATM    3  C8  UNL     1     -12.010   3.636 -19.067  1.00  0.00     0.033 A 
HETATM    4  C7  UNL     1     -10.803   3.016 -18.764  1.00  0.00     0.030 A 
HETATM    5  C6  UNL     1     -10.532   1.760 -19.258  1.00  0.00     0.014 A 
HETATM    6  C5  UNL     1     -11.430   1.073 -20.057  1.00  0.00    -0.026 A 
HETATM    7  C19 UNL     1     -12.617   1.718 -20.335  1.00  0.00     0.014 A 
HETATM    8  C18 UNL     1     -12.910   2.975 -19.854  1.00  0.00     0.030 A 
BRANCH   6   9
HETATM    9  C4  UNL     1     -11.134  -0.262 -20.577  1.00  0.00    -0.026 A 
HETATM   10  C3  UNL     1      -9.885  -0.818 -20.503  1.00  0.00     0.012 A 
HETATM   11  C2  UNL     1      -9.575  -2.083 -20.987  1.00  0.00     0.001 A 
HETATM   12  C1  UNL     1     -10.617  -2.777 -21.567  1.00  0.00     0.000 A 
HETATM   13  C21 UNL     1     -11.880  -2.246 -21.655  1.00  0.00     0.001 A 
HETATM   14  C20 UNL     1     -12.149  -0.988 -21.163  1.00  0.00     0.012 A 
ENDBRANCH   6   9
ENDBRANCH   1   3
BRANCH   1  15
HETATM   15  C9  UNL     1     -13.362   5.505 -18.649  1.00  0.00     0.116 A 
HETATM   16  N2  UNL     1     -13.752   6.018 -19.830  1.00  0.00    -0.352 N 
HETATM   17  C10 UNL     1     -14.958   6.623 -19.925  1.00  0.00     0.090 A 
ATOM     18  H2  UNL     1     -13.143   5.951 -20.646  1.00  0.00     0.166 HD
HETATM   19  C11 UNL     1     -15.760   6.698 -18.805  1.00  0.00     0.029 A 
HETATM   20  C12 UNL     1     -15.386   6.183 -17.591  1.00  0.00    -0.021 A 
HETATM   21  C13 UNL     1     -16.205   6.264 -16.465  1.00  0.00     0.012 A 
HETATM   22  C17 UNL     1     -14.152   5.569 -17.509  1.00  0.00     0.018 A 
HETATM   23  C14 UNL     1     -15.786   5.733 -15.264  1.00  0.00     0.001 A 
HETATM   24  C15 UNL     1     -14.549   5.111 -15.165  1.00  0.00     0.001 A 
HETATM   25  C16 UNL     1     -13.756   5.048 -16.308  1.00  0.00     0.016 A 
ENDBRANCH   1  15
TORSDOF 3
ENDMDL
MODEL 3
REMARK VINA RESULT: -10.779808430      2.302      8.040
REMARK  3 active torsions:
REMARK  status: ('A' for Active; 'I' for Inactive)
REMARK    1  A    between atoms: C4_4  and  C5_5 
REMARK    2  A    between atoms: C8_8  and  N1_9 
REMARK    3  A    between atoms: N1_9  and  C9_11 
ROOT
HETATM    1  N1  UNL     1     -10.070   1.174 -19.118  1.00  0.00    -0.342 N 
ATOM      2  H1  UNL     1      -9.309   1.531 -19.696  1.00  0.00     0.167 HD
ENDROOT
BRANCH   1   3
HETATM    3  C8  UNL     1     -10.926   2.078 -18.450  1.00  0.00     0.033 A 
HETATM    4  C7  UNL     1     -10.945   3.389 -18.912  1.00  0.00     0.030 A 
HETATM    5  C6  UNL     1     -11.756   4.321 -18.305  1.00  0.00     0.014 A 
HETATM    6  C5  UNL     1     -12.573   4.000 -17.235  1.00  0.00    -0.026 A 
HETATM    7  C19 UNL     1     -12.530   2.690 -16.805  1.00  0.00     0.014 A 
HETATM    8  C18 UNL     1     -11.725   1.741 -17.394  1.00  0.00     0.030 A 
BRANCH   6   9
HETATM    9  C4  UNL     1     -13.433   4.997 -16.596  1.00  0.00    -0.026 A 
HETATM   10  C3  UNL     1     -13.488   6.298 -17.019  1.00  0.00     0.012 A 
HETATM   11  C2  UNL     1     -14.295   7.266 -16.432  1.00  0.00     0.001 A 
HETATM   12  C1  UNL     1     -15.063   6.842 -15.367  1.00  0.00     0.000 A 
HETATM   13  C21 UNL     1     -15.030   5.545 -14.921  1.00  0.00     0.001 A 
HETATM   14  C20 UNL     1     -14.217   4.613 -15.528  1.00  0.00     0.012 A 
ENDBRANCH   6   9
ENDBRANCH   1   3
BRANCH   1  15
HETATM   15  C9  UNL     1     -10.240  -0.094 -19.005  1.00  0.00     0.116 A 
HETATM   16  N2  UNL     1      -9.674  -0.777 -17.992  1.00  0.00    -0.352 N 
HETATM   17  C10 UNL     1      -9.873  -2.112 -17.901  1.00  0.00     0.090 A 
ATOM     18  H2  UNL     1      -9.102  -0.292 -17.301  1.00  0.00     0.166 HD
HETATM   19  C11 UNL     1     -10.652  -2.740 -18.850  1.00  0.00     0.029 A 
HETATM   20  C12 UNL     1     -11.239  -2.068 -19.889  1.00  0.00    -0.021 A 
HETATM   21  C13 UNL     1     -12.026  -2.713 -20.844  1.00  0.00     0.012 A 
HETATM   22  C17 UNL     1     -11.027  -0.705 -19.971  1.00  0.00     0.018 A 
HETATM   23  C14 UNL     1     -12.595  -1.995 -21.872  1.00  0.00     0.001 A 
HETATM   24  C15 UNL     1     -12.394  -0.625 -21.969  1.00  0.00     0.001 A 
HETATM   25  C16 UNL     1     -11.603  -0.012 -21.000  1.00  0.00     0.016 A 
ENDBRANCH   1  15
TORSDOF 3
ENDMDL
MODEL 4
REMARK VINA RESULT: -10.671004611      2.115      7.885
REMARK  3 active torsions:
REMARK  status: ('A' for Active; 'I' for Inactive)
REMARK    1  A    between atoms: C4_4  and  C5_5 
REMARK    2  A    between atoms: C8_8  and  N1_9 
REMARK    3  A    between atoms: N1_9  and  C9_11 
ROOT
HETATM    1  N1  UNL     1     -10.111   1.475 -19.152  1.00  0.00    -0.342 N 
ATOM      2  H1  UNL     1      -9.130   1.410 -18.883  1.00  0.00     0.167 HD
ENDROOT
BRANCH   1   3
HETATM    3  C8  UNL     1     -10.946   2.427 -18.525  1.00  0.00     0.033 A 
HETATM    4  C7  UNL     1     -11.748   1.976 -17.482  1.00  0.00     0.030 A 
HETATM    5  C6  UNL     1     -12.585   2.852 -16.829  1.00  0.00     0.014 A 
HETATM    6  C5  UNL     1     -12.663   4.191 -17.172  1.00  0.00    -0.026 A 
HETATM    7  C19 UNL     1     -11.854   4.603 -18.210  1.00  0.00     0.014 A 
HETATM    8  C18 UNL     1     -11.009   3.745 -18.879  1.00  0.00     0.030 A 
BRANCH   6   9
HETATM    9  C4  UNL     1     -13.556   5.115 -16.473  1.00  0.00    -0.026 A 
HETATM   10  C3  UNL     1     -13.659   6.437 -16.813  1.00  0.00     0.012 A 
HETATM   11  C2  UNL     1     -14.499   7.336 -16.168  1.00  0.00     0.001 A 
HETATM   12  C1  UNL     1     -15.250   6.819 -15.131  1.00  0.00     0.000 A 
HETATM   13  C21 UNL     1     -15.169   5.498 -14.767  1.00  0.00     0.001 A 
HETATM   14  C20 UNL     1     -14.325   4.637 -15.432  1.00  0.00     0.012 A 
ENDBRANCH   6   9
ENDBRANCH   1   3
BRANCH   1  15
HETATM   15  C9  UNL     1     -10.577   0.692 -20.056  1.00  0.00     0.116 A 
HETATM   16  N2  UNL     1     -10.888   1.160 -21.279  1.00  0.00    -0.352 N 
HETATM   17  C10 UNL     1     -11.376   0.309 -22.210  1.00  0.00     0.090 A 
ATOM     18  H2  UNL     1     -10.758   2.147 -21.501  1.00  0.00     0.166 HD
HETATM   19  C11 UNL     1     -11.541  -1.021 -21.882  1.00  0.00     0.029 A 
HETATM   20  C12 UNL     1     -11.230  -1.522 -20.645  1.00  0.00    -0.021 A 
HETATM   21  C13 UNL     1     -11.400  -2.869 -20.324  1.00  0.00     0.012 A 
HETATM   22  C17 UNL     1     -10.734  -0.642 -19.704  1.00  0.00     0.018 A 
HETATM   23  C14 UNL     1     -11.075  -3.327 -19.066  1.00  0.00     0.001 A 
HETATM   24  C15 UNL     1     -10.574  -2.456 -18.108  1.00  0.00     0.001 A 
HETATM   25  C16 UNL     1     -10.417  -1.119 -18.461  1.00  0.00     0.016 A 
ENDBRANCH   1  15
TORSDOF 3
ENDMDL
MODEL 5
REMARK VINA RESULT: -10.596165539      2.829      8.236
REMARK  3 active torsions:
REMARK  status: ('A' for Active; 'I' for Inactive)
REMARK    1  A    between atoms: C4_4  and  C5_5 
REMARK    2  A    between atoms: C8_8  and  N1_9 
REMARK    3  A    between atoms: N1_9  and  C9_11 
ROOT
HETATM    1  N1  UNL     1     -13.598  -0.985 -18.529  1.00  0.00    -0.342 N 
ATOM      2  H1  UNL     1     -13.974  -1.691 -17.896  1.00  0.00     0.167 HD
ENDROOT
BRANCH   1   3
HETATM    3  C8  UNL     1     -13.787   0.385 -18.241  1.00  0.00     0.033 A 
HETATM    4  C7  UNL     1     -14.220   0.708 -16.960  1.00  0.00     0.030 A 
HETATM    5  C6  UNL     1     -14.425   2.025 -16.613  1.00  0.00     0.014 A 
HETATM    6  C5  UNL     1     -14.212   3.062 -17.505  1.00  0.00    -0.026 A 
HETATM    7  C19 UNL     1     -13.782   2.705 -18.766  1.00  0.00     0.014 A 
HETATM    8  C18 UNL     1     -13.572   1.395 -19.136  1.00  0.00     0.030 A 
BRANCH   6   9
HETATM    9  C4  UNL     1     -14.433   4.459 -17.129  1.00  0.00    -0.026 A 
HETATM   10  C3  UNL     1     -14.731   5.429 -18.048  1.00  0.00     0.012 A 
HETATM   11  C2  UNL     1     -14.946   6.762 -17.719  1.00  0.00     0.001 A 
HETATM   12  C1  UNL     1     -14.842   7.075 -16.379  1.00  0.00     0.000 A 
HETATM   13  C21 UNL     1     -14.545   6.124 -15.435  1.00  0.00     0.001 A 
HETATM   14  C20 UNL     1     -14.339   4.812 -15.799  1.00  0.00     0.012 A 
ENDBRANCH   6   9
ENDBRANCH   1   3
BRANCH   1  15
HETATM   15  C9  UNL     1     -12.956  -1.351 -19.579  1.00  0.00     0.116 A 
HETATM   16  N2  UNL     1     -13.601  -1.555 -20.743  1.00  0.00    -0.352 N 
HETATM   17  C10 UNL     1     -12.896  -1.939 -21.832  1.00  0.00     0.090 A 
ATOM     18  H2  UNL     1     -14.610  -1.421 -20.803  1.00  0.00     0.166 HD
HETATM   19  C11 UNL     1     -11.532  -2.112 -21.721  1.00  0.00     0.029 A 
HETATM   20  C12 UNL     1     -10.853  -1.910 -20.548  1.00  0.00    -0.021 A 
HETATM   21  C13 UNL     1      -9.473  -2.087 -20.447  1.00  0.00     0.012 A 
HETATM   22  C17 UNL     1     -11.585  -1.518 -19.445  1.00  0.00     0.018 A 
HETATM   23  C14 UNL     1      -8.833  -1.872 -19.246  1.00  0.00     0.001 A 
HETATM   24  C15 UNL     1      -9.554  -1.477 -18.127  1.00  0.00     0.001 A 
HETATM   25  C16 UNL     1     -10.929  -1.310 -18.262  1.00  0.00     0.016 A 
ENDBRANCH   1  15
TORSDOF 3
ENDMDL
