MODEL 1
REMARK VINA RESULT: -7.577827370      0.000      0.000
REMARK  9 active torsions:
REMARK  status: ('A' for Active; 'I' for Inactive)
REMARK    1  A    between atoms: O1_2  and  C2_3 
REMARK       I    between atoms: C2_3  and  N1_5 
REMARK    2  A    between atoms: N1_5  and  C3_7 
REMARK    3  A    between atoms: C3_7  and  C4_8 
REMARK    4  A    between atoms: N2_13  and  C9_14 
REMARK    5  A    between atoms: C9_14  and  C10_15 
REMARK    6  A    between atoms: C9_14  and  C15_24 
REMARK    7  A    between atoms: C10_15  and  N3_16 
REMARK    8  A    between atoms: N3_16  and  C11_19 
REMARK    9  A    between atoms: N7_28  and  C16_29 
ROOT
HETATM    1  C11 UNL     1      17.846 -18.488  10.228  1.00  0.00     0.213 A 
HETATM    2  C12 UNL     1      18.218 -18.681  11.636  1.00  0.00     0.099 C 
HETATM    3  N4  UNL     1      18.498 -18.818  12.747  1.00  0.00    -0.195 NA
HETATM    4  C13 UNL     1      18.168 -19.594   9.335  1.00  0.00     0.058 A 
HETATM    5  C14 UNL     1      16.748 -19.371   9.761  1.00  0.00     0.058 A 
ENDROOT
BRANCH   1   6
HETATM    6  N3  UNL     1      17.863 -17.099   9.823  1.00  0.00    -0.051 N 
ATOM      7  H32 UNL     1      17.285 -16.965   8.993  1.00  0.00     0.279 HD
ATOM      8  H31 UNL     1      18.778 -16.853   9.444  1.00  0.00     0.279 HD
BRANCH   6   9
HETATM    9  C10 UNL     1      17.496 -16.201  10.815  1.00  0.00     0.268 C 
BRANCH   9  10
HETATM   10  C9  UNL     1      16.057 -15.717  10.887  1.00  0.00     0.190 C 
BRANCH  10  11
HETATM   11  N2  UNL     1      15.914 -14.450  10.318  1.00  0.00    -0.281 N 
HETATM   12  C8  UNL     1      14.621 -13.894  10.083  1.00  0.00     0.157 C 
HETATM   13  C7  UNL     1      14.924 -12.770   9.103  1.00  0.00     0.037 C 
HETATM   14  C6  UNL     1      14.450 -13.035   7.734  1.00  0.00     0.009 C 
HETATM   15  C21 UNL     1      16.439 -12.778   9.099  1.00  0.00     0.163 C 
HETATM   16  C5  UNL     1      15.614 -12.687   6.839  1.00  0.00     0.009 C 
HETATM   17  C4  UNL     1      16.760 -12.274   7.738  1.00  0.00     0.035 C 
HETATM   18  O3  UNL     1      16.702 -14.158   9.298  1.00  0.00    -0.276 OA
BRANCH  17  19
HETATM   19  C3  UNL     1      16.750 -10.744   7.832  1.00  0.00     0.132 C 
BRANCH  19  20
HETATM   20  N1  UNL     1      17.899 -10.333   8.612  1.00  0.00    -0.336 N 
HETATM   21  C2  UNL     1      19.130  -9.974   8.056  1.00  0.00     0.360 C 
HETATM   22  O2  UNL     1      19.366  -9.954   6.795  1.00  0.00    -0.239 OA
ATOM     23  H1  UNL     1      17.804 -10.302   9.628  1.00  0.00     0.164 HD
BRANCH  21  24
HETATM   24  O1  UNL     1      20.202  -9.612   8.841  1.00  0.00    -0.309 OA
HETATM   25  C1  UNL     1      21.541  -9.730   8.392  1.00  0.00     0.215 C 
ENDBRANCH  21  24
ENDBRANCH  19  20
ENDBRANCH  17  19
ENDBRANCH  10  11
BRANCH  10  26
HETATM   26  C15 UNL     1      15.602 -15.878  12.291  1.00  0.00     0.107 A 
HETATM   27  N5  UNL     1      15.541 -15.022  13.322  1.00  0.00    -0.281 N 
HETATM   28  N6  UNL     1      15.013 -15.572  14.403  1.00  0.00    -0.017 NA
ATOM     29  H5  UNL     1      15.866 -14.056  13.278  1.00  0.00     0.184 HD
HETATM   30  N7  UNL     1      14.703 -16.843  14.104  1.00  0.00    -0.240 N 
HETATM   31  C20 UNL     1      15.050 -17.061  12.817  1.00  0.00     0.230 A 
HETATM   32  F1  UNL     1      14.874 -18.263  12.199  1.00  0.00    -0.183 F 
BRANCH  30  33
HETATM   33  C16 UNL     1      14.149 -17.733  15.085  1.00  0.00     0.044 C 
HETATM   34  C17 UNL     1      13.948 -17.102  16.433  1.00  0.00     0.039 C 
HETATM   35  C18 UNL     1      12.767 -18.193  14.605  1.00  0.00     0.039 C 
HETATM   36  C19 UNL     1      15.012 -18.975  15.267  1.00  0.00     0.039 C 
ENDBRANCH  30  33
ENDBRANCH  10  26
ENDBRANCH   9  10
ENDBRANCH   6   9
ENDBRANCH   1   6
TORSDOF 9
ENDMDL
MODEL 2
REMARK VINA RESULT: -7.557853487      1.103      1.316
REMARK  9 active torsions:
REMARK  status: ('A' for Active; 'I' for Inactive)
REMARK    1  A    between atoms: O1_2  and  C2_3 
REMARK       I    between atoms: C2_3  and  N1_5 
REMARK    2  A    between atoms: N1_5  and  C3_7 
REMARK    3  A    between atoms: C3_7  and  C4_8 
REMARK    4  A    between atoms: N2_13  and  C9_14 
REMARK    5  A    between atoms: C9_14  and  C10_15 
REMARK    6  A    between atoms: C9_14  and  C15_24 
REMARK    7  A    between atoms: C10_15  and  N3_16 
REMARK    8  A    between atoms: N3_16  and  C11_19 
REMARK    9  A    between atoms: N7_28  and  C16_29 
ROOT
HETATM    1  C11 UNL     1      19.035 -17.124  11.373  1.00  0.00     0.213 A 
HETATM    2  C12 UNL     1      20.459 -16.767  11.333  1.00  0.00     0.099 C 
HETATM    3  N4  UNL     1      21.575 -16.472  11.314  1.00  0.00    -0.195 NA
HETATM    4  C13 UNL     1      18.713 -18.476  10.932  1.00  0.00     0.058 A 
HETATM    5  C14 UNL     1      18.690 -18.144  12.394  1.00  0.00     0.058 A 
ENDROOT
BRANCH   1   6
HETATM    6  N3  UNL     1      18.161 -15.987  11.178  1.00  0.00    -0.051 N 
ATOM      7  H32 UNL     1      18.702 -15.168  10.902  1.00  0.00     0.279 HD
ATOM      8  H31 UNL     1      17.796 -15.664  12.074  1.00  0.00     0.279 HD
BRANCH   6   9
HETATM    9  C10 UNL     1      17.122 -16.201  10.284  1.00  0.00     0.268 C 
BRANCH   9  10
HETATM   10  C9  UNL     1      15.778 -15.534  10.529  1.00  0.00     0.190 C 
BRANCH  10  11
HETATM   11  N2  UNL     1      15.758 -14.226  10.041  1.00  0.00    -0.281 N 
HETATM   12  C8  UNL     1      14.535 -13.614   9.636  1.00  0.00     0.157 C 
HETATM   13  C7  UNL     1      15.021 -12.434   8.808  1.00  0.00     0.037 C 
HETATM   14  C6  UNL     1      14.780 -12.585   7.363  1.00  0.00     0.009 C 
HETATM   15  C21 UNL     1      16.515 -12.490   9.057  1.00  0.00     0.163 C 
HETATM   16  C5  UNL     1      16.085 -12.213   6.704  1.00  0.00     0.009 C 
HETATM   17  C4  UNL     1      17.072 -11.902   7.810  1.00  0.00     0.035 C 
HETATM   18  O3  UNL     1      16.714 -13.889   9.192  1.00  0.00    -0.276 OA
BRANCH  17  19
HETATM   19  C3  UNL     1      17.077 -10.383   8.016  1.00  0.00     0.132 C 
BRANCH  19  20
HETATM   20  N1  UNL     1      18.272 -10.032   8.754  1.00  0.00    -0.336 N 
HETATM   21  C2  UNL     1      19.493  -9.714   8.153  1.00  0.00     0.360 C 
HETATM   22  O2  UNL     1      19.678  -9.681   6.884  1.00  0.00    -0.239 OA
ATOM     23  H1  UNL     1      18.220 -10.016   9.773  1.00  0.00     0.164 HD
BRANCH  21  24
HETATM   24  O1  UNL     1      20.610  -9.408   8.899  1.00  0.00    -0.309 OA
HETATM   25  C1  UNL     1      21.922  -9.697   8.447  1.00  0.00     0.215 C 
ENDBRANCH  21  24
ENDBRANCH  19  20
ENDBRANCH  17  19
ENDBRANCH  10  11
BRANCH  10  26
HETATM   26  C15 UNL     1      15.444 -15.721  11.964  1.00  0.00     0.107 A 
HETATM   27  N5  UNL     1      15.327 -14.856  12.982  1.00  0.00    -0.281 N 
HETATM   28  N6  UNL     1      14.954 -15.446  14.105  1.00  0.00    -0.017 NA
ATOM     29  H5  UNL     1      15.505 -13.855  12.899  1.00  0.00     0.184 HD
HETATM   30  N7  UNL     1      14.813 -16.756  13.850  1.00  0.00    -0.240 N 
HETATM   31  C20 UNL     1      15.102 -16.956  12.546  1.00  0.00     0.230 A 
HETATM   32  F1  UNL     1      15.062 -18.187  11.963  1.00  0.00    -0.183 F 
BRANCH  30  33
HETATM   33  C16 UNL     1      14.457 -17.689  14.882  1.00  0.00     0.044 C 
HETATM   34  C17 UNL     1      14.109 -17.043  16.192  1.00  0.00     0.039 C 
HETATM   35  C18 UNL     1      13.214 -18.467  14.433  1.00  0.00     0.039 C 
HETATM   36  C19 UNL     1      15.570 -18.699  15.131  1.00  0.00     0.039 C 
ENDBRANCH  30  33
ENDBRANCH  10  26
ENDBRANCH   9  10
ENDBRANCH   6   9
ENDBRANCH   1   6
TORSDOF 9
ENDMDL
MODEL 3
REMARK VINA RESULT: -7.451859515      3.569      8.195
REMARK  9 active torsions:
REMARK  status: ('A' for Active; 'I' for Inactive)
REMARK    1  A    between atoms: O1_2  and  C2_3 
REMARK       I    between atoms: C2_3  and  N1_5 
REMARK    2  A    between atoms: N1_5  and  C3_7 
REMARK    3  A    between atoms: C3_7  and  C4_8 
REMARK    4  A    between atoms: N2_13  and  C9_14 
REMARK    5  A    between atoms: C9_14  and  C10_15 
REMARK    6  A    between atoms: C9_14  and  C15_24 
REMARK    7  A    between atoms: C10_15  and  N3_16 
REMARK    8  A    between atoms: N3_16  and  C11_19 
REMARK    9  A    between atoms: N7_28  and  C16_29 
ROOT
HETATM    1  C11 UNL     1      19.245 -17.150  10.327  1.00  0.00     0.213 A 
HETATM    2  C12 UNL     1      20.517 -16.801  10.974  1.00  0.00     0.099 C 
HETATM    3  N4  UNL     1      21.505 -16.518  11.499  1.00  0.00    -0.195 NA
HETATM    4  C13 UNL     1      19.320 -18.199   9.318  1.00  0.00     0.058 A 
HETATM    5  C14 UNL     1      18.738 -18.503  10.666  1.00  0.00     0.058 A 
ENDROOT
BRANCH   1   6
HETATM    6  N3  UNL     1      18.320 -16.039  10.262  1.00  0.00    -0.051 N 
ATOM      7  H32 UNL     1      18.308 -15.642   9.322  1.00  0.00     0.279 HD
ATOM      8  H31 UNL     1      18.685 -15.244  10.785  1.00  0.00     0.279 HD
BRANCH   6   9
HETATM    9  C10 UNL     1      17.029 -16.335  10.674  1.00  0.00     0.268 C 
BRANCH   9  10
HETATM   10  C9  UNL     1      16.286 -15.352  11.564  1.00  0.00     0.190 C 
BRANCH  10  11
HETATM   11  N2  UNL     1      15.834 -15.961  12.736  1.00  0.00    -0.281 N 
HETATM   12  C8  UNL     1      15.928 -17.374  12.912  1.00  0.00     0.157 C 
HETATM   13  C7  UNL     1      14.967 -17.622  14.065  1.00  0.00     0.037 C 
HETATM   14  C6  UNL     1      13.729 -18.312  13.665  1.00  0.00     0.009 C 
HETATM   15  C21 UNL     1      14.619 -16.206  14.474  1.00  0.00     0.163 C 
HETATM   16  C5  UNL     1      12.613 -17.527  14.309  1.00  0.00     0.009 C 
HETATM   17  C4  UNL     1      13.249 -16.358  15.032  1.00  0.00     0.035 C 
HETATM   18  O3  UNL     1      14.679 -15.540  13.222  1.00  0.00    -0.276 OA
BRANCH  17  19
HETATM   19  C3  UNL     1      13.425 -16.759  16.500  1.00  0.00     0.132 C 
BRANCH  19  20
HETATM   20  N1  UNL     1      12.190 -17.364  16.954  1.00  0.00    -0.336 N 
HETATM   21  C2  UNL     1      11.029 -16.643  17.245  1.00  0.00     0.360 C 
HETATM   22  O2  UNL     1      10.930 -15.369  17.122  1.00  0.00    -0.239 OA
ATOM     23  H1  UNL     1      12.166 -18.378  17.068  1.00  0.00     0.164 HD
BRANCH  21  24
HETATM   24  O1  UNL     1       9.885 -17.262  17.696  1.00  0.00    -0.309 OA
HETATM   25  C1  UNL     1       8.591 -16.766  17.399  1.00  0.00     0.215 C 
ENDBRANCH  21  24
ENDBRANCH  19  20
ENDBRANCH  17  19
ENDBRANCH  10  11
BRANCH  10  26
HETATM   26  C15 UNL     1      15.268 -14.672  10.724  1.00  0.00     0.107 A 
HETATM   27  N5  UNL     1      13.927 -14.712  10.724  1.00  0.00    -0.281 N 
HETATM   28  N6  UNL     1      13.398 -13.897   9.827  1.00  0.00    -0.017 NA
ATOM     29  H5  UNL     1      13.377 -15.305  11.346  1.00  0.00     0.184 HD
HETATM   30  N7  UNL     1      14.407 -13.281   9.192  1.00  0.00    -0.240 N 
HETATM   31  C20 UNL     1      15.565 -13.731   9.720  1.00  0.00     0.230 A 
HETATM   32  F1  UNL     1      16.786 -13.307   9.289  1.00  0.00    -0.183 F 
BRANCH  30  33
HETATM   33  C16 UNL     1      14.167 -12.357   8.118  1.00  0.00     0.044 C 
HETATM   34  C17 UNL     1      14.864 -11.038   8.285  1.00  0.00     0.039 C 
HETATM   35  C18 UNL     1      14.694 -12.971   6.816  1.00  0.00     0.039 C 
HETATM   36  C19 UNL     1      12.679 -12.088   7.933  1.00  0.00     0.039 C 
ENDBRANCH  30  33
ENDBRANCH  10  26
ENDBRANCH   9  10
ENDBRANCH   6   9
ENDBRANCH   1   6
TORSDOF 9
ENDMDL
MODEL 4
REMARK VINA RESULT: -7.403555765      3.632      6.566
REMARK  9 active torsions:
REMARK  status: ('A' for Active; 'I' for Inactive)
REMARK    1  A    between atoms: O1_2  and  C2_3 
REMARK       I    between atoms: C2_3  and  N1_5 
REMARK    2  A    between atoms: N1_5  and  C3_7 
REMARK    3  A    between atoms: C3_7  and  C4_8 
REMARK    4  A    between atoms: N2_13  and  C9_14 
REMARK    5  A    between atoms: C9_14  and  C10_15 
REMARK    6  A    between atoms: C9_14  and  C15_24 
REMARK    7  A    between atoms: C10_15  and  N3_16 
REMARK    8  A    between atoms: N3_16  and  C11_19 
REMARK    9  A    between atoms: N7_28  and  C16_29 
ROOT
HETATM    1  C11 UNL     1      13.542 -16.923  15.689  1.00  0.00     0.213 A 
HETATM    2  C12 UNL     1      14.390 -18.054  16.089  1.00  0.00     0.099 C 
HETATM    3  N4  UNL     1      15.070 -18.930  16.409  1.00  0.00    -0.195 NA
HETATM    4  C13 UNL     1      12.121 -17.216  15.562  1.00  0.00     0.058 A 
HETATM    5  C14 UNL     1      12.619 -16.447  16.748  1.00  0.00     0.058 A 
ENDROOT
BRANCH   1   6
HETATM    6  N3  UNL     1      14.239 -15.958  14.865  1.00  0.00    -0.051 N 
ATOM      7  H32 UNL     1      14.611 -15.203  15.442  1.00  0.00     0.279 HD
ATOM      8  H31 UNL     1      13.574 -15.434  14.296  1.00  0.00     0.279 HD
BRANCH   6   9
HETATM    9  C10 UNL     1      15.240 -16.492  14.067  1.00  0.00     0.268 C 
BRANCH   9  10
HETATM   10  C9  UNL     1      14.955 -16.771  12.600  1.00  0.00     0.190 C 
BRANCH  10  11
HETATM   11  N2  UNL     1      15.963 -17.543  12.020  1.00  0.00    -0.281 N 
HETATM   12  C8  UNL     1      16.804 -18.372  12.820  1.00  0.00     0.157 C 
HETATM   13  C7  UNL     1      17.966 -18.659  11.881  1.00  0.00     0.037 C 
HETATM   14  C6  UNL     1      19.216 -17.976  12.260  1.00  0.00     0.009 C 
HETATM   15  C21 UNL     1      17.460 -18.055  10.587  1.00  0.00     0.163 C 
HETATM   16  C5  UNL     1      19.730 -17.358  10.983  1.00  0.00     0.009 C 
HETATM   17  C4  UNL     1      18.719 -17.665   9.899  1.00  0.00     0.035 C 
HETATM   18  O3  UNL     1      16.691 -16.968  11.078  1.00  0.00    -0.276 OA
BRANCH  17  19
HETATM   19  C3  UNL     1      19.203 -18.911   9.149  1.00  0.00     0.132 C 
BRANCH  19  20
HETATM   20  N1  UNL     1      19.654 -18.501   7.836  1.00  0.00    -0.336 N 
HETATM   21  C2  UNL     1      20.983 -18.195   7.529  1.00  0.00     0.360 C 
HETATM   22  O2  UNL     1      21.946 -18.264   8.374  1.00  0.00    -0.239 OA
ATOM     23  H1  UNL     1      18.961 -18.430   7.090  1.00  0.00     0.164 HD
BRANCH  21  24
HETATM   24  O1  UNL     1      21.360 -17.786   6.269  1.00  0.00    -0.309 OA
HETATM   25  C1  UNL     1      22.649 -18.053   5.743  1.00  0.00     0.215 C 
ENDBRANCH  21  24
ENDBRANCH  19  20
ENDBRANCH  17  19
ENDBRANCH  10  11
BRANCH  10  26
HETATM   26  C15 UNL     1      14.647 -15.472  11.951  1.00  0.00     0.107 A 
HETATM   27  N5  UNL     1      15.401 -14.393  11.691  1.00  0.00    -0.281 N 
HETATM   28  N6  UNL     1      14.733 -13.457  11.038  1.00  0.00    -0.017 NA
ATOM     29  H5  UNL     1      16.379 -14.305  11.966  1.00  0.00     0.184 HD
HETATM   30  N7  UNL     1      13.484 -13.906  10.846  1.00  0.00    -0.240 N 
HETATM   31  C20 UNL     1      13.400 -15.139  11.391  1.00  0.00     0.230 A 
HETATM   32  F1  UNL     1      12.253 -15.876  11.374  1.00  0.00    -0.183 F 
BRANCH  30  33
HETATM   33  C16 UNL     1      12.485 -13.100  10.201  1.00  0.00     0.044 C 
HETATM   34  C17 UNL     1      11.324 -12.748  11.085  1.00  0.00     0.039 C 
HETATM   35  C18 UNL     1      13.126 -11.776   9.770  1.00  0.00     0.039 C 
HETATM   36  C19 UNL     1      11.941 -13.778   8.950  1.00  0.00     0.039 C 
ENDBRANCH  30  33
ENDBRANCH  10  26
ENDBRANCH   9  10
ENDBRANCH   6   9
ENDBRANCH   1   6
TORSDOF 9
ENDMDL
MODEL 5
REMARK VINA RESULT: -7.311084492      3.453      7.706
REMARK  9 active torsions:
REMARK  status: ('A' for Active; 'I' for Inactive)
REMARK    1  A    between atoms: O1_2  and  C2_3 
REMARK       I    between atoms: C2_3  and  N1_5 
REMARK    2  A    between atoms: N1_5  and  C3_7 
REMARK    3  A    between atoms: C3_7  and  C4_8 
REMARK    4  A    between atoms: N2_13  and  C9_14 
REMARK    5  A    between atoms: C9_14  and  C10_15 
REMARK    6  A    between atoms: C9_14  and  C15_24 
REMARK    7  A    between atoms: C10_15  and  N3_16 
REMARK    8  A    between atoms: N3_16  and  C11_19 
REMARK    9  A    between atoms: N7_28  and  C16_29 
ROOT
HETATM    1  C11 UNL     1      17.720 -18.579  10.366  1.00  0.00     0.213 A 
HETATM    2  C12 UNL     1      18.048 -19.022  11.728  1.00  0.00     0.099 C 
HETATM    3  N4  UNL     1      18.288 -19.363  12.804  1.00  0.00    -0.195 NA
HETATM    4  C13 UNL     1      18.497 -19.197   9.300  1.00  0.00     0.058 A 
HETATM    5  C14 UNL     1      17.076 -19.618   9.525  1.00  0.00     0.058 A 
ENDROOT
BRANCH   1   6
HETATM    6  N3  UNL     1      17.229 -17.218  10.317  1.00  0.00    -0.051 N 
ATOM      7  H32 UNL     1      17.168 -16.899   9.350  1.00  0.00     0.279 HD
ATOM      8  H31 UNL     1      17.936 -16.574  10.671  1.00  0.00     0.279 HD
BRANCH   6   9
HETATM    9  C10 UNL     1      16.022 -17.013  10.968  1.00  0.00     0.268 C 
BRANCH   9  10
HETATM   10  C9  UNL     1      15.767 -15.688  11.666  1.00  0.00     0.190 C 
BRANCH  10  11
HETATM   11  N2  UNL     1      15.297 -15.875  12.968  1.00  0.00    -0.281 N 
HETATM   12  C8  UNL     1      15.794 -16.937  13.781  1.00  0.00     0.157 C 
HETATM   13  C7  UNL     1      14.744 -17.025  14.878  1.00  0.00     0.037 C 
HETATM   14  C6  UNL     1      13.898 -18.228  14.793  1.00  0.00     0.009 C 
HETATM   15  C21 UNL     1      13.890 -15.812  14.571  1.00  0.00     0.163 C 
HETATM   16  C5  UNL     1      12.484 -17.729  14.955  1.00  0.00     0.009 C 
HETATM   17  C4  UNL     1      12.554 -16.221  15.080  1.00  0.00     0.035 C 
HETATM   18  O3  UNL     1      13.994 -15.758  13.157  1.00  0.00    -0.276 OA
BRANCH  17  19
HETATM   19  C3  UNL     1      12.539 -15.876  16.574  1.00  0.00     0.132 C 
BRANCH  19  20
HETATM   20  N1  UNL     1      12.305 -14.454  16.706  1.00  0.00    -0.336 N 
HETATM   21  C2  UNL     1      11.048 -13.889  16.941  1.00  0.00     0.360 C 
HETATM   22  O2  UNL     1       9.972 -14.574  17.083  1.00  0.00    -0.239 OA
ATOM     23  H1  UNL     1      13.105 -13.825  16.623  1.00  0.00     0.164 HD
BRANCH  21  24
HETATM   24  O1  UNL     1      10.872 -12.526  17.036  1.00  0.00    -0.309 OA
HETATM   25  C1  UNL     1      10.149 -11.788  16.065  1.00  0.00     0.215 C 
ENDBRANCH  21  24
ENDBRANCH  19  20
ENDBRANCH  17  19
ENDBRANCH  10  11
BRANCH  10  26
HETATM   26  C15 UNL     1      14.927 -14.862  10.762  1.00  0.00     0.107 A 
HETATM   27  N5  UNL     1      13.600 -14.678  10.682  1.00  0.00    -0.281 N 
HETATM   28  N6  UNL     1      13.269 -13.802   9.749  1.00  0.00    -0.017 NA
ATOM     29  H5  UNL     1      12.924 -15.159  11.275  1.00  0.00     0.184 HD
HETATM   30  N7  UNL     1      14.401 -13.374   9.170  1.00  0.00    -0.240 N 
HETATM   31  C20 UNL     1      15.435 -14.002   9.770  1.00  0.00     0.230 A 
HETATM   32  F1  UNL     1      16.733 -13.796   9.409  1.00  0.00    -0.183 F 
BRANCH  30  33
HETATM   33  C16 UNL     1      14.382 -12.442   8.077  1.00  0.00     0.044 C 
HETATM   34  C17 UNL     1      14.886 -13.013   6.783  1.00  0.00     0.039 C 
HETATM   35  C18 UNL     1      12.933 -12.006   7.829  1.00  0.00     0.039 C 
HETATM   36  C19 UNL     1      15.193 -11.192   8.392  1.00  0.00     0.039 C 
ENDBRANCH  30  33
ENDBRANCH  10  26
ENDBRANCH   9  10
ENDBRANCH   6   9
ENDBRANCH   1   6
TORSDOF 9
ENDMDL
