MODEL 1
REMARK VINA RESULT: -6.782890008      0.000      0.000
REMARK  9 active torsions:
REMARK  status: ('A' for Active; 'I' for Inactive)
REMARK    1  A    between atoms: O1_2  and  C2_3 
REMARK    2  A    between atoms: C3_5  and  C4_6 
REMARK    3  A    between atoms: C12_15  and  O3_16 
REMARK    4  A    between atoms: C12_15  and  C13_18 
REMARK    5  A    between atoms: C13_18  and  C15_20 
REMARK    6  A    between atoms: C15_20  and  C16_22 
REMARK    7  A    between atoms: C16_22  and  O5_24 
REMARK    8  A    between atoms: C20_29  and  O7_30 
REMARK    9  A    between atoms: O7_30  and  C21_31 
ROOT
HETATM    1  C2  UNL     1      13.311 -15.038  11.628  1.00  0.00     0.275 C 
HETATM    2  O2  UNL     1      14.018 -14.854  10.490  1.00  0.00    -0.345 OA
HETATM    3  C3  UNL     1      14.995 -13.892  10.512  1.00  0.00     0.110 C 
HETATM    4  C5  UNL     1      16.327 -14.652  10.442  1.00  0.00     0.043 C 
HETATM    5  C6  UNL     1      16.230 -16.077  10.773  1.00  0.00     0.020 C 
HETATM    6  C7  UNL     1      16.428 -16.464  12.221  1.00  0.00     0.012 C 
HETATM    7  C8  UNL     1      17.532 -15.686  12.883  1.00  0.00     0.023 C 
HETATM    8  C9  UNL     1      15.181 -16.079  12.933  1.00  0.00    -0.056 C 
HETATM    9  C10 UNL     1      14.988 -16.973  13.889  1.00  0.00    -0.019 C 
HETATM   10  C11 UNL     1      16.062 -18.007  13.894  1.00  0.00     0.067 C 
HETATM   11  C12 UNL     1      16.434 -17.915  12.399  1.00  0.00     0.082 C 
HETATM   12  C18 UNL     1      14.138 -15.024  12.880  1.00  0.00     0.143 C 
HETATM   13  C19 UNL     1      14.702 -13.642  12.970  1.00  0.00     0.172 C 
HETATM   14  O6  UNL     1      14.900 -13.057  13.998  1.00  0.00    -0.294 OA
HETATM   15  C20 UNL     1      15.027 -12.985  11.673  1.00  0.00     0.237 C 
ENDROOT
BRANCH  11  16
HETATM   16  O3  UNL     1      15.254 -18.398  11.769  1.00  0.00    -0.388 OA
ATOM     17  H3  UNL     1      15.161 -19.306  12.037  1.00  0.00     0.210 HD
ENDBRANCH  11  16
BRANCH  11  18
HETATM   18  C13 UNL     1      17.551 -18.787  12.150  1.00  0.00     0.089 C 
HETATM   19  C14 UNL     1      18.603 -18.845  13.251  1.00  0.00     0.021 C 
BRANCH  18  20
HETATM   20  C15 UNL     1      18.255 -18.756  10.871  1.00  0.00     0.161 C 
HETATM   21  O4  UNL     1      19.124 -17.934  10.640  1.00  0.00    -0.295 OA
BRANCH  20  22
HETATM   22  C16 UNL     1      17.985 -19.699   9.752  1.00  0.00     0.184 C 
HETATM   23  C17 UNL     1      18.979 -19.394   8.622  1.00  0.00     0.047 C 
BRANCH  22  24
HETATM   24  O5  UNL     1      16.687 -19.597   9.293  1.00  0.00    -0.388 OA
ATOM     25  H5  UNL     1      16.352 -18.711   9.368  1.00  0.00     0.210 HD
ENDBRANCH  22  24
ENDBRANCH  20  22
ENDBRANCH  18  20
ENDBRANCH  11  18
BRANCH   3  26
HETATM   26  C4  UNL     1      14.795 -13.048   9.266  1.00  0.00     0.156 C 
HETATM   27 CL1  UNL     1      16.354 -12.626   8.576  1.00  0.00    -0.127 Cl
ENDBRANCH   3  26
BRANCH   1  28
HETATM   28  O1  UNL     1      12.279 -14.117  11.802  1.00  0.00    -0.365 OA
HETATM   29  C1  UNL     1      11.422 -14.064  10.705  1.00  0.00     0.204 C 
ENDBRANCH   1  28
BRANCH  15  30
HETATM   30  O7  UNL     1      14.287 -11.786  11.546  1.00  0.00    -0.305 OA
BRANCH  30  31
HETATM   31  C21 UNL     1      14.843 -10.528  11.760  1.00  0.00     0.255 C 
HETATM   32  C22 UNL     1      15.688  -9.788  10.829  1.00  0.00     0.126 C 
HETATM   33  O8  UNL     1      14.572  -9.991  12.888  1.00  0.00    -0.266 OA
ENDBRANCH  30  31
ENDBRANCH  15  30
TORSDOF 9
ENDMDL
MODEL 2
REMARK VINA RESULT: -6.729882118      2.072      2.832
REMARK  9 active torsions:
REMARK  status: ('A' for Active; 'I' for Inactive)
REMARK    1  A    between atoms: O1_2  and  C2_3 
REMARK    2  A    between atoms: C3_5  and  C4_6 
REMARK    3  A    between atoms: C12_15  and  O3_16 
REMARK    4  A    between atoms: C12_15  and  C13_18 
REMARK    5  A    between atoms: C13_18  and  C15_20 
REMARK    6  A    between atoms: C15_20  and  C16_22 
REMARK    7  A    between atoms: C16_22  and  O5_24 
REMARK    8  A    between atoms: C20_29  and  O7_30 
REMARK    9  A    between atoms: O7_30  and  C21_31 
ROOT
HETATM    1  C2  UNL     1      13.288 -14.311  11.479  1.00  0.00     0.275 C 
HETATM    2  O2  UNL     1      14.458 -13.713  11.800  1.00  0.00    -0.345 OA
HETATM    3  C3  UNL     1      14.534 -13.116  13.032  1.00  0.00     0.110 C 
HETATM    4  C5  UNL     1      15.504 -13.977  13.852  1.00  0.00     0.043 C 
HETATM    5  C6  UNL     1      15.735 -15.318  13.305  1.00  0.00     0.020 C 
HETATM    6  C7  UNL     1      14.820 -16.424  13.779  1.00  0.00     0.012 C 
HETATM    7  C8  UNL     1      14.516 -16.333  15.250  1.00  0.00     0.023 C 
HETATM    8  C9  UNL     1      13.521 -16.222  13.085  1.00  0.00    -0.056 C 
HETATM    9  C10 UNL     1      13.008 -17.421  12.865  1.00  0.00    -0.019 C 
HETATM   10  C11 UNL     1      13.900 -18.499  13.379  1.00  0.00     0.067 C 
HETATM   11  C12 UNL     1      15.232 -17.727  13.261  1.00  0.00     0.082 C 
HETATM   12  C18 UNL     1      12.673 -15.107  12.593  1.00  0.00     0.143 C 
HETATM   13  C19 UNL     1      12.343 -14.112  13.658  1.00  0.00     0.172 C 
HETATM   14  O6  UNL     1      11.394 -14.191  14.388  1.00  0.00    -0.294 OA
HETATM   15  C20 UNL     1      13.279 -12.961  13.789  1.00  0.00     0.237 C 
ENDROOT
BRANCH  11  16
HETATM   16  O3  UNL     1      15.363 -17.574  11.853  1.00  0.00    -0.388 OA
ATOM     17  H3  UNL     1      14.482 -17.469  11.513  1.00  0.00     0.210 HD
ENDBRANCH  11  16
BRANCH  11  18
HETATM   18  C13 UNL     1      16.286 -18.549  13.795  1.00  0.00     0.089 C 
HETATM   19  C14 UNL     1      16.151 -18.925  15.266  1.00  0.00     0.021 C 
BRANCH  18  20
HETATM   20  C15 UNL     1      17.687 -18.219  13.552  1.00  0.00     0.161 C 
HETATM   21  O4  UNL     1      18.305 -17.472  14.291  1.00  0.00    -0.295 OA
BRANCH  20  22
HETATM   22  C16 UNL     1      18.478 -18.750  12.409  1.00  0.00     0.184 C 
HETATM   23  C17 UNL     1      19.002 -17.555  11.598  1.00  0.00     0.047 C 
BRANCH  22  24
HETATM   24  O5  UNL     1      17.728 -19.585  11.606  1.00  0.00    -0.388 OA
ATOM     25  H5  UNL     1      17.042 -20.026  12.095  1.00  0.00     0.210 HD
ENDBRANCH  22  24
ENDBRANCH  20  22
ENDBRANCH  18  20
ENDBRANCH  11  18
BRANCH   3  26
HETATM   26  C4  UNL     1      15.114 -11.731  12.802  1.00  0.00     0.156 C 
HETATM   27 CL1  UNL     1      15.040 -11.331  11.093  1.00  0.00    -0.127 Cl
ENDBRANCH   3  26
BRANCH   1  28
HETATM   28  O1  UNL     1      12.316 -13.428  11.014  1.00  0.00    -0.365 OA
HETATM   29  C1  UNL     1      11.870 -13.752   9.735  1.00  0.00     0.204 C 
ENDBRANCH   1  28
BRANCH  15  30
HETATM   30  O7  UNL     1      12.579 -11.748  13.591  1.00  0.00    -0.305 OA
BRANCH  30  31
HETATM   31  C21 UNL     1      12.352 -10.830  14.613  1.00  0.00     0.255 C 
HETATM   32  C22 UNL     1      13.002  -9.533  14.767  1.00  0.00     0.126 C 
HETATM   33  O8  UNL     1      11.486 -11.180  15.486  1.00  0.00    -0.266 OA
ENDBRANCH  30  31
ENDBRANCH  15  30
TORSDOF 9
ENDMDL
MODEL 3
REMARK VINA RESULT: -6.677030726      1.240      1.274
REMARK  9 active torsions:
REMARK  status: ('A' for Active; 'I' for Inactive)
REMARK    1  A    between atoms: O1_2  and  C2_3 
REMARK    2  A    between atoms: C3_5  and  C4_6 
REMARK    3  A    between atoms: C12_15  and  O3_16 
REMARK    4  A    between atoms: C12_15  and  C13_18 
REMARK    5  A    between atoms: C13_18  and  C15_20 
REMARK    6  A    between atoms: C15_20  and  C16_22 
REMARK    7  A    between atoms: C16_22  and  O5_24 
REMARK    8  A    between atoms: C20_29  and  O7_30 
REMARK    9  A    between atoms: O7_30  and  C21_31 
ROOT
HETATM    1  C2  UNL     1      12.797 -15.405  12.253  1.00  0.00     0.275 C 
HETATM    2  O2  UNL     1      13.318 -15.195  11.023  1.00  0.00    -0.345 OA
HETATM    3  C3  UNL     1      14.147 -14.113  10.875  1.00  0.00     0.110 C 
HETATM    4  C5  UNL     1      15.551 -14.693  10.653  1.00  0.00     0.043 C 
HETATM    5  C6  UNL     1      15.695 -16.098  11.049  1.00  0.00     0.020 C 
HETATM    6  C7  UNL     1      16.131 -16.373  12.471  1.00  0.00     0.012 C 
HETATM    7  C8  UNL     1      17.193 -15.420  12.946  1.00  0.00     0.023 C 
HETATM    8  C9  UNL     1      14.945 -16.116  13.330  1.00  0.00    -0.056 C 
HETATM    9  C10 UNL     1      15.003 -16.973  14.337  1.00  0.00    -0.019 C 
HETATM   10  C11 UNL     1      16.201 -17.853  14.236  1.00  0.00     0.067 C 
HETATM   11  C12 UNL     1      16.359 -17.798  12.701  1.00  0.00     0.082 C 
HETATM   12  C18 UNL     1      13.769 -15.212  13.379  1.00  0.00     0.143 C 
HETATM   13  C19 UNL     1      14.144 -13.765  13.338  1.00  0.00     0.172 C 
HETATM   14  O6  UNL     1      14.391 -13.102  14.306  1.00  0.00    -0.294 OA
HETATM   15  C20 UNL     1      14.204 -13.145  11.985  1.00  0.00     0.237 C 
ENDROOT
BRANCH  11  16
HETATM   16  O3  UNL     1      15.186 -18.467  12.257  1.00  0.00    -0.388 OA
ATOM     17  H3  UNL     1      15.466 -19.083  11.590  1.00  0.00     0.210 HD
ENDBRANCH  11  16
BRANCH  11  18
HETATM   18  C13 UNL     1      17.545 -18.529  12.336  1.00  0.00     0.089 C 
HETATM   19  C14 UNL     1      18.745 -18.343  13.256  1.00  0.00     0.021 C 
BRANCH  18  20
HETATM   20  C15 UNL     1      18.038 -18.517  10.962  1.00  0.00     0.161 C 
HETATM   21  O4  UNL     1      18.744 -17.616  10.545  1.00  0.00    -0.295 OA
BRANCH  20  22
HETATM   22  C16 UNL     1      17.733 -19.576   9.962  1.00  0.00     0.184 C 
HETATM   23  C17 UNL     1      18.724 -19.431   8.797  1.00  0.00     0.047 C 
BRANCH  22  24
HETATM   24  O5  UNL     1      16.434 -19.494   9.504  1.00  0.00    -0.388 OA
ATOM     25  H5  UNL     1      16.113 -18.600   9.504  1.00  0.00     0.210 HD
ENDBRANCH  22  24
ENDBRANCH  20  22
ENDBRANCH  18  20
ENDBRANCH  11  18
BRANCH   3  26
HETATM   26  C4  UNL     1      13.673 -13.375   9.636  1.00  0.00     0.156 C 
HETATM   27 CL1  UNL     1      12.106 -13.993   9.137  1.00  0.00    -0.127 Cl
ENDBRANCH   3  26
BRANCH   1  28
HETATM   28  O1  UNL     1      11.678 -14.620  12.530  1.00  0.00    -0.365 OA
HETATM   29  C1  UNL     1      10.989 -15.056  13.659  1.00  0.00     0.204 C 
ENDBRANCH   1  28
BRANCH  15  30
HETATM   30  O7  UNL     1      13.296 -12.063  11.913  1.00  0.00    -0.305 OA
BRANCH  30  31
HETATM   31  C21 UNL     1      13.695 -10.733  12.006  1.00  0.00     0.255 C 
HETATM   32  C22 UNL     1      15.053 -10.254  12.243  1.00  0.00     0.126 C 
HETATM   33  O8  UNL     1      12.765  -9.867  11.866  1.00  0.00    -0.266 OA
ENDBRANCH  30  31
ENDBRANCH  15  30
TORSDOF 9
ENDMDL
MODEL 4
REMARK VINA RESULT: -6.623908907      1.212      1.242
REMARK  9 active torsions:
REMARK  status: ('A' for Active; 'I' for Inactive)
REMARK    1  A    between atoms: O1_2  and  C2_3 
REMARK    2  A    between atoms: C3_5  and  C4_6 
REMARK    3  A    between atoms: C12_15  and  O3_16 
REMARK    4  A    between atoms: C12_15  and  C13_18 
REMARK    5  A    between atoms: C13_18  and  C15_20 
REMARK    6  A    between atoms: C15_20  and  C16_22 
REMARK    7  A    between atoms: C16_22  and  O5_24 
REMARK    8  A    between atoms: C20_29  and  O7_30 
REMARK    9  A    between atoms: O7_30  and  C21_31 
ROOT
HETATM    1  C2  UNL     1      12.847 -14.537  12.314  1.00  0.00     0.275 C 
HETATM    2  O2  UNL     1      13.458 -14.336  11.124  1.00  0.00    -0.345 OA
HETATM    3  C3  UNL     1      14.451 -13.392  11.086  1.00  0.00     0.110 C 
HETATM    4  C5  UNL     1      15.758 -14.171  10.884  1.00  0.00     0.043 C 
HETATM    5  C6  UNL     1      15.663 -15.602  11.189  1.00  0.00     0.020 C 
HETATM    6  C7  UNL     1      15.976 -16.029  12.605  1.00  0.00     0.012 C 
HETATM    7  C8  UNL     1      17.147 -15.285  13.188  1.00  0.00     0.023 C 
HETATM    8  C9  UNL     1      14.801 -15.642  13.429  1.00  0.00    -0.056 C 
HETATM    9  C10 UNL     1      14.674 -16.557  14.376  1.00  0.00    -0.019 C 
HETATM   10  C11 UNL     1      15.725 -17.607  14.265  1.00  0.00     0.067 C 
HETATM   11  C12 UNL     1      15.970 -17.483  12.746  1.00  0.00     0.082 C 
HETATM   12  C18 UNL     1      13.777 -14.568  13.491  1.00  0.00     0.143 C 
HETATM   13  C19 UNL     1      14.372 -13.199  13.565  1.00  0.00     0.172 C 
HETATM   14  O6  UNL     1      14.668 -12.643  14.586  1.00  0.00    -0.294 OA
HETATM   15  C20 UNL     1      14.598 -12.514  12.261  1.00  0.00     0.237 C 
ENDROOT
BRANCH  11  16
HETATM   16  O3  UNL     1      14.733 -17.931  12.209  1.00  0.00    -0.388 OA
ATOM     17  H3  UNL     1      14.405 -17.223  11.666  1.00  0.00     0.210 HD
ENDBRANCH  11  16
BRANCH  11  18
HETATM   18  C13 UNL     1      17.047 -18.367  12.382  1.00  0.00     0.089 C 
HETATM   19  C14 UNL     1      17.883 -18.901  13.538  1.00  0.00     0.021 C 
BRANCH  18  20
HETATM   20  C15 UNL     1      17.962 -18.025  11.298  1.00  0.00     0.161 C 
HETATM   21  O4  UNL     1      19.065 -17.556  11.518  1.00  0.00    -0.295 OA
BRANCH  20  22
HETATM   22  C16 UNL     1      17.645 -18.208   9.856  1.00  0.00     0.184 C 
HETATM   23  C17 UNL     1      16.754 -19.452   9.718  1.00  0.00     0.047 C 
BRANCH  22  24
HETATM   24  O5  UNL     1      18.786 -18.345   9.091  1.00  0.00    -0.388 OA
ATOM     25  H5  UNL     1      18.667 -18.968   8.383  1.00  0.00     0.210 HD
ENDBRANCH  22  24
ENDBRANCH  20  22
ENDBRANCH  18  20
ENDBRANCH  11  18
BRANCH   3  26
HETATM   26  C4  UNL     1      14.161 -12.513   9.882  1.00  0.00     0.156 C 
HETATM   27 CL1  UNL     1      13.078 -13.349   8.781  1.00  0.00    -0.127 Cl
ENDBRANCH   3  26
BRANCH   1  28
HETATM   28  O1  UNL     1      11.850 -13.605  12.597  1.00  0.00    -0.365 OA
HETATM   29  C1  UNL     1      10.834 -13.606  11.644  1.00  0.00     0.204 C 
ENDBRANCH   1  28
BRANCH  15  30
HETATM   30  O7  UNL     1      13.873 -11.301  12.226  1.00  0.00    -0.305 OA
BRANCH  30  31
HETATM   31  C21 UNL     1      14.427 -10.077  12.590  1.00  0.00     0.255 C 
HETATM   32  C22 UNL     1      15.702  -9.537  12.129  1.00  0.00     0.126 C 
HETATM   33  O8  UNL     1      13.734  -9.378  13.405  1.00  0.00    -0.266 OA
ENDBRANCH  30  31
ENDBRANCH  15  30
TORSDOF 9
ENDMDL
MODEL 5
REMARK VINA RESULT: -6.619474976      2.984      4.657
REMARK  9 active torsions:
REMARK  status: ('A' for Active; 'I' for Inactive)
REMARK    1  A    between atoms: O1_2  and  C2_3 
REMARK    2  A    between atoms: C3_5  and  C4_6 
REMARK    3  A    between atoms: C12_15  and  O3_16 
REMARK    4  A    between atoms: C12_15  and  C13_18 
REMARK    5  A    between atoms: C13_18  and  C15_20 
REMARK    6  A    between atoms: C15_20  and  C16_22 
REMARK    7  A    between atoms: C16_22  and  O5_24 
REMARK    8  A    between atoms: C20_29  and  O7_30 
REMARK    9  A    between atoms: O7_30  and  C21_31 
ROOT
HETATM    1  C2  UNL     1      13.918 -13.610  13.871  1.00  0.00     0.275 C 
HETATM    2  O2  UNL     1      13.881 -14.333  15.013  1.00  0.00    -0.345 OA
HETATM    3  C3  UNL     1      12.849 -15.225  15.152  1.00  0.00     0.110 C 
HETATM    4  C5  UNL     1      13.488 -16.618  15.064  1.00  0.00     0.043 C 
HETATM    5  C6  UNL     1      14.834 -16.630  14.480  1.00  0.00     0.020 C 
HETATM    6  C7  UNL     1      14.935 -16.816  12.983  1.00  0.00     0.012 C 
HETATM    7  C8  UNL     1      13.956 -17.830  12.457  1.00  0.00     0.023 C 
HETATM    8  C9  UNL     1      14.539 -15.519  12.371  1.00  0.00    -0.056 C 
HETATM    9  C10 UNL     1      15.260 -15.373  11.272  1.00  0.00    -0.019 C 
HETATM   10  C11 UNL     1      16.177 -16.529  11.063  1.00  0.00     0.067 C 
HETATM   11  C12 UNL     1      16.323 -16.937  12.544  1.00  0.00     0.082 C 
HETATM   12  C18 UNL     1      13.606 -14.394  12.631  1.00  0.00     0.143 C 
HETATM   13  C19 UNL     1      12.187 -14.837  12.786  1.00  0.00     0.172 C 
HETATM   14  O6  UNL     1      11.411 -14.955  11.879  1.00  0.00    -0.294 OA
HETATM   15  C20 UNL     1      11.748 -15.145  14.176  1.00  0.00     0.237 C 
ENDROOT
BRANCH  11  16
HETATM   16  O3  UNL     1      17.014 -15.822  13.092  1.00  0.00    -0.388 OA
ATOM     17  H3  UNL     1      16.646 -15.050  12.678  1.00  0.00     0.210 HD
ENDBRANCH  11  16
BRANCH  11  18
HETATM   18  C13 UNL     1      17.125 -18.131  12.614  1.00  0.00     0.089 C 
HETATM   19  C14 UNL     1      17.388 -18.670  14.015  1.00  0.00     0.021 C 
BRANCH  18  20
HETATM   20  C15 UNL     1      18.370 -18.242  11.859  1.00  0.00     0.161 C 
HETATM   21  O4  UNL     1      19.335 -17.544  12.115  1.00  0.00    -0.295 OA
BRANCH  20  22
HETATM   22  C16 UNL     1      18.575 -19.191  10.732  1.00  0.00     0.184 C 
HETATM   23  C17 UNL     1      18.882 -18.372   9.469  1.00  0.00     0.047 C 
BRANCH  22  24
HETATM   24  O5  UNL     1      17.472 -19.996  10.529  1.00  0.00    -0.388 OA
ATOM     25  H5  UNL     1      17.019 -19.781   9.722  1.00  0.00     0.210 HD
ENDBRANCH  22  24
ENDBRANCH  20  22
ENDBRANCH  18  20
ENDBRANCH  11  18
BRANCH   3  26
HETATM   26  C4  UNL     1      12.264 -14.993  16.534  1.00  0.00     0.156 C 
HETATM   27 CL1  UNL     1      11.744 -16.522  17.225  1.00  0.00    -0.127 Cl
ENDBRANCH   3  26
BRANCH   1  28
HETATM   28  O1  UNL     1      13.075 -12.499  13.883  1.00  0.00    -0.365 OA
HETATM   29  C1  UNL     1      13.481 -11.533  14.801  1.00  0.00     0.204 C 
ENDBRANCH   1  28
BRANCH  15  30
HETATM   30  O7  UNL     1      10.661 -14.312  14.530  1.00  0.00    -0.305 OA
BRANCH  30  31
HETATM   31  C21 UNL     1       9.336 -14.732  14.473  1.00  0.00     0.255 C 
HETATM   32  C22 UNL     1       8.739 -15.815  15.250  1.00  0.00     0.126 C 
HETATM   33  O8  UNL     1       8.589 -14.094  13.655  1.00  0.00    -0.266 OA
ENDBRANCH  30  31
ENDBRANCH  15  30
TORSDOF 9
ENDMDL
