MODEL 1
REMARK VINA RESULT: -9.730603160      0.000      0.000
REMARK  9 active torsions:
REMARK  status: ('A' for Active; 'I' for Inactive)
REMARK    1  A    between atoms: O1_2  and  C2_3 
REMARK    2  A    between atoms: C4_5  and  N1_6 
REMARK    3  A    between atoms: C9_14  and  O2_15 
REMARK    4  A    between atoms: C10_17  and  O3_18 
REMARK    5  A    between atoms: C11_20  and  O4_21 
REMARK    6  A    between atoms: O4_21  and  C12_22 
REMARK    7  A    between atoms: C13_23  and  C14_24 
REMARK    8  A    between atoms: C15_31  and  C16_32 
REMARK       I    between atoms: C16_32  and  N6_34 
REMARK    9  A    between atoms: N6_34  and  N7_36 
ROOT
HETATM    1  C2  UNL     1     -54.388  16.312  18.612  1.00  0.00     0.107 A 
HETATM    2  C3  UNL     1     -55.565  15.714  18.935  1.00  0.00     0.072 A 
HETATM    3  C4  UNL     1     -56.231  14.846  18.081  1.00  0.00     0.069 A 
HETATM    4  C9  UNL     1     -55.636  14.614  16.866  1.00  0.00     0.128 A 
HETATM    5  C10 UNL     1     -54.459  15.192  16.500  1.00  0.00     0.138 A 
HETATM    6  C11 UNL     1     -53.771  16.078  17.361  1.00  0.00     0.145 A 
ENDROOT
BRANCH   6   7
HETATM    7  O4  UNL     1     -52.649  16.628  17.014  1.00  0.00    -0.306 OA
BRANCH   7   8
HETATM    8  C12 UNL     1     -51.348  16.476  16.754  1.00  0.00     0.095 A 
HETATM    9  C13 UNL     1     -50.598  16.678  15.699  1.00  0.00     0.161 A 
HETATM   10  N3  UNL     1     -49.231  16.332  15.946  1.00  0.00    -0.232 N 
HETATM   11  N4  UNL     1     -47.940  16.286  15.328  1.00  0.00    -0.014 NA
HETATM   12  C17 UNL     1     -49.125  15.876  17.264  1.00  0.00     0.072 A 
HETATM   13  N5  UNL     1     -47.123  15.764  16.304  1.00  0.00    -0.277 N 
HETATM   14  C15 UNL     1     -47.856  15.528  17.498  1.00  0.00     0.140 A 
ATOM     15  H5  UNL     1     -46.129  15.573  16.187  1.00  0.00     0.184 HD
HETATM   16  C18 UNL     1     -50.425  15.950  17.874  1.00  0.00     0.129 A 
BRANCH   9  17
HETATM   17  C14 UNL     1     -51.014  17.183  14.365  1.00  0.00     0.231 C 
HETATM   18  O5  UNL     1     -50.412  18.032  13.750  1.00  0.00    -0.643 OA
HETATM   19  O6  UNL     1     -52.175  16.655  13.763  1.00  0.00    -0.643 OA
ENDBRANCH   9  17
BRANCH  14  20
HETATM   20  C16 UNL     1     -47.348  15.006  18.753  1.00  0.00     0.289 C 
HETATM   21  O7  UNL     1     -46.375  15.571  19.305  1.00  0.00    -0.264 OA
HETATM   22  N6  UNL     1     -47.907  13.871  19.397  1.00  0.00    -0.271 N 
ATOM     23  H6  UNL     1     -48.699  13.406  18.953  1.00  0.00     0.189 HD
BRANCH  22  24
HETATM   24  N7  UNL     1     -47.439  13.361  20.590  1.00  0.00    -0.342 N 
ATOM     25  H72 UNL     1     -46.428  13.276  20.694  1.00  0.00     0.176 HD
ATOM     26  H71 UNL     1     -48.046  13.071  21.357  1.00  0.00     0.176 HD
ENDBRANCH  22  24
ENDBRANCH  14  20
ENDBRANCH   7   8
ENDBRANCH   6   7
BRANCH   1  27
HETATM   27  O1  UNL     1     -53.763  17.168  19.496  1.00  0.00    -0.353 OA
HETATM   28  C1  UNL     1     -54.347  18.311  20.039  1.00  0.00     0.210 C 
ENDBRANCH   1  27
BRANCH   5  29
HETATM   29  O3  UNL     1     -53.859  14.944  15.250  1.00  0.00    -0.356 OA
ATOM     30  H3  UNL     1     -53.508  15.643  14.711  1.00  0.00     0.218 HD
ENDBRANCH   5  29
BRANCH   4  31
HETATM   31  O2  UNL     1     -56.245  13.754  15.959  1.00  0.00    -0.356 OA
ATOM     32  H2  UNL     1     -55.989  12.840  15.937  1.00  0.00     0.218 HD
ENDBRANCH   4  31
BRANCH   3  33
HETATM   33  N1  UNL     1     -57.478  14.255  18.463  1.00  0.00    -0.375 N 
HETATM   34  C5  UNL     1     -57.422  13.269  19.522  1.00  0.00     0.150 C 
HETATM   35  C6  UNL     1     -58.625  12.423  19.691  1.00  0.00     0.252 C 
HETATM   36  N2  UNL     1     -59.596  12.552  18.613  1.00  0.00    -0.072 N 
HETATM   37  C7  UNL     1     -59.898  13.990  18.584  1.00  0.00     0.252 C 
ATOM     38  H22 UNL     1     -59.287  12.169  17.720  1.00  0.00     0.277 HD
ATOM     39  H21 UNL     1     -60.415  11.952  18.711  1.00  0.00     0.277 HD
HETATM   40  C8  UNL     1     -58.710  14.622  17.843  1.00  0.00     0.150 C 
ENDBRANCH   3  33
TORSDOF 9
ENDMDL
MODEL 2
REMARK VINA RESULT: -9.094979530      2.065      2.333
REMARK  9 active torsions:
REMARK  status: ('A' for Active; 'I' for Inactive)
REMARK    1  A    between atoms: O1_2  and  C2_3 
REMARK    2  A    between atoms: C4_5  and  N1_6 
REMARK    3  A    between atoms: C9_14  and  O2_15 
REMARK    4  A    between atoms: C10_17  and  O3_18 
REMARK    5  A    between atoms: C11_20  and  O4_21 
REMARK    6  A    between atoms: O4_21  and  C12_22 
REMARK    7  A    between atoms: C13_23  and  C14_24 
REMARK    8  A    between atoms: C15_31  and  C16_32 
REMARK       I    between atoms: C16_32  and  N6_34 
REMARK    9  A    between atoms: N6_34  and  N7_36 
ROOT
HETATM    1  C2  UNL     1     -54.969  15.982  18.666  1.00  0.00     0.107 A 
HETATM    2  C3  UNL     1     -56.234  15.620  19.008  1.00  0.00     0.072 A 
HETATM    3  C4  UNL     1     -56.640  14.297  19.105  1.00  0.00     0.069 A 
HETATM    4  C9  UNL     1     -55.687  13.347  18.833  1.00  0.00     0.128 A 
HETATM    5  C10 UNL     1     -54.410  13.664  18.486  1.00  0.00     0.138 A 
HETATM    6  C11 UNL     1     -53.983  15.008  18.384  1.00  0.00     0.145 A 
ENDROOT
BRANCH   6   7
HETATM    7  O4  UNL     1     -52.766  15.312  18.055  1.00  0.00    -0.306 OA
BRANCH   7   8
HETATM    8  C12 UNL     1     -51.949  15.959  17.220  1.00  0.00     0.095 A 
HETATM    9  C13 UNL     1     -52.133  16.712  16.164  1.00  0.00     0.161 A 
HETATM   10  N3  UNL     1     -50.890  17.159  15.609  1.00  0.00    -0.232 N 
HETATM   11  N4  UNL     1     -50.336  17.944  14.548  1.00  0.00    -0.014 NA
HETATM   12  C17 UNL     1     -49.851  16.637  16.385  1.00  0.00     0.072 A 
HETATM   13  N5  UNL     1     -48.977  17.823  14.720  1.00  0.00    -0.277 N 
HETATM   14  C15 UNL     1     -48.685  17.029  15.861  1.00  0.00     0.140 A 
ATOM     15  H5  UNL     1     -48.275  18.244  14.111  1.00  0.00     0.184 HD
HETATM   16  C18 UNL     1     -50.426  15.871  17.458  1.00  0.00     0.129 A 
BRANCH   9  17
HETATM   17  C14 UNL     1     -53.419  17.102  15.532  1.00  0.00     0.231 C 
HETATM   18  O5  UNL     1     -53.703  18.238  15.232  1.00  0.00    -0.643 OA
HETATM   19  O6  UNL     1     -54.378  16.106  15.257  1.00  0.00    -0.643 OA
ENDBRANCH   9  17
BRANCH  14  20
HETATM   20  C16 UNL     1     -47.375  16.690  16.385  1.00  0.00     0.289 C 
HETATM   21  O7  UNL     1     -46.567  16.061  15.661  1.00  0.00    -0.264 OA
HETATM   22  N6  UNL     1     -46.956  17.038  17.697  1.00  0.00    -0.271 N 
ATOM     23  H6  UNL     1     -47.608  17.549  18.291  1.00  0.00     0.189 HD
BRANCH  22  24
HETATM   24  N7  UNL     1     -45.716  16.724  18.211  1.00  0.00    -0.342 N 
ATOM     25  H72 UNL     1     -45.493  17.085  19.139  1.00  0.00     0.176 HD
ATOM     26  H71 UNL     1     -45.025  16.159  17.716  1.00  0.00     0.176 HD
ENDBRANCH  22  24
ENDBRANCH  14  20
ENDBRANCH   7   8
ENDBRANCH   6   7
BRANCH   1  27
HETATM   27  O1  UNL     1     -54.612  17.313  18.583  1.00  0.00    -0.353 OA
HETATM   28  C1  UNL     1     -54.750  18.236  19.619  1.00  0.00     0.210 C 
ENDBRANCH   1  27
BRANCH   5  29
HETATM   29  O3  UNL     1     -53.442  12.679  18.211  1.00  0.00    -0.356 OA
ATOM     30  H3  UNL     1     -52.717  12.836  17.618  1.00  0.00     0.218 HD
ENDBRANCH   5  29
BRANCH   4  31
HETATM   31  O2  UNL     1     -56.022  12.000  18.912  1.00  0.00    -0.356 OA
ATOM     32  H2  UNL     1     -56.671  11.644  18.316  1.00  0.00     0.218 HD
ENDBRANCH   4  31
BRANCH   3  33
HETATM   33  N1  UNL     1     -57.991  13.969  19.452  1.00  0.00    -0.375 N 
HETATM   34  C5  UNL     1     -58.196  13.425  20.779  1.00  0.00     0.150 C 
HETATM   35  C6  UNL     1     -59.507  12.780  21.023  1.00  0.00     0.252 C 
HETATM   36  N2  UNL     1     -60.304  12.583  19.820  1.00  0.00    -0.072 N 
HETATM   37  C7  UNL     1     -60.419  13.933  19.251  1.00  0.00     0.252 C 
ATOM     38  H22 UNL     1     -59.930  11.886  19.176  1.00  0.00     0.277 HD
ATOM     39  H21 UNL     1     -61.197  12.116  19.979  1.00  0.00     0.277 HD
HETATM   40  C8  UNL     1     -59.075  14.175  18.548  1.00  0.00     0.150 C 
ENDBRANCH   3  33
TORSDOF 9
ENDMDL
MODEL 3
REMARK VINA RESULT: -8.791699801      1.068      1.137
REMARK  9 active torsions:
REMARK  status: ('A' for Active; 'I' for Inactive)
REMARK    1  A    between atoms: O1_2  and  C2_3 
REMARK    2  A    between atoms: C4_5  and  N1_6 
REMARK    3  A    between atoms: C9_14  and  O2_15 
REMARK    4  A    between atoms: C10_17  and  O3_18 
REMARK    5  A    between atoms: C11_20  and  O4_21 
REMARK    6  A    between atoms: O4_21  and  C12_22 
REMARK    7  A    between atoms: C13_23  and  C14_24 
REMARK    8  A    between atoms: C15_31  and  C16_32 
REMARK       I    between atoms: C16_32  and  N6_34 
REMARK    9  A    between atoms: N6_34  and  N7_36 
ROOT
HETATM    1  C2  UNL     1     -54.666  16.351  18.747  1.00  0.00     0.107 A 
HETATM    2  C3  UNL     1     -55.811  15.758  19.176  1.00  0.00     0.072 A 
HETATM    3  C4  UNL     1     -56.522  14.845  18.411  1.00  0.00     0.069 A 
HETATM    4  C9  UNL     1     -56.007  14.561  17.170  1.00  0.00     0.128 A 
HETATM    5  C10 UNL     1     -54.865  15.131  16.700  1.00  0.00     0.138 A 
HETATM    6  C11 UNL     1     -54.131  16.063  17.470  1.00  0.00     0.145 A 
ENDROOT
BRANCH   6   7
HETATM    7  O4  UNL     1     -53.042  16.606  17.023  1.00  0.00    -0.306 OA
BRANCH   7   8
HETATM    8  C12 UNL     1     -51.836  16.436  16.474  1.00  0.00     0.095 A 
HETATM    9  C13 UNL     1     -51.350  16.605  15.269  1.00  0.00     0.161 A 
HETATM   10  N3  UNL     1     -49.963  16.253  15.204  1.00  0.00    -0.232 N 
HETATM   11  N4  UNL     1     -48.850  16.180  14.307  1.00  0.00    -0.014 NA
HETATM   12  C17 UNL     1     -49.557  15.830  16.474  1.00  0.00     0.072 A 
HETATM   13  N5  UNL     1     -47.831  15.676  15.082  1.00  0.00    -0.277 N 
HETATM   14  C15 UNL     1     -48.269  15.477  16.419  1.00  0.00     0.140 A 
ATOM     15  H5  UNL     1     -46.891  15.473  14.744  1.00  0.00     0.184 HD
HETATM   16  C18 UNL     1     -50.681  15.931  17.366  1.00  0.00     0.129 A 
BRANCH   9  17
HETATM   17  C14 UNL     1     -52.060  17.079  14.054  1.00  0.00     0.231 C 
HETATM   18  O5  UNL     1     -51.869  16.632  12.947  1.00  0.00    -0.643 OA
HETATM   19  O6  UNL     1     -53.016  18.107  14.176  1.00  0.00    -0.643 OA
ENDBRANCH   9  17
BRANCH  14  20
HETATM   20  C16 UNL     1     -47.487  14.983  17.537  1.00  0.00     0.289 C 
HETATM   21  O7  UNL     1     -47.150  13.776  17.565  1.00  0.00    -0.264 OA
HETATM   22  N6  UNL     1     -47.080  15.810  18.617  1.00  0.00    -0.271 N 
ATOM     23  H6  UNL     1     -47.351  16.793  18.600  1.00  0.00     0.189 HD
BRANCH  22  24
HETATM   24  N7  UNL     1     -46.337  15.359  19.687  1.00  0.00    -0.342 N 
ATOM     25  H72 UNL     1     -46.674  14.524  20.168  1.00  0.00     0.176 HD
ATOM     26  H71 UNL     1     -45.483  15.812  20.013  1.00  0.00     0.176 HD
ENDBRANCH  22  24
ENDBRANCH  14  20
ENDBRANCH   7   8
ENDBRANCH   6   7
BRANCH   1  27
HETATM   27  O1  UNL     1     -53.994  17.253  19.546  1.00  0.00    -0.353 OA
HETATM   28  C1  UNL     1     -54.518  18.468  19.984  1.00  0.00     0.210 C 
ENDBRANCH   1  27
BRANCH   5  29
HETATM   29  O3  UNL     1     -54.347  14.830  15.425  1.00  0.00    -0.356 OA
ATOM     30  H3  UNL     1     -54.882  14.865  14.641  1.00  0.00     0.218 HD
ENDBRANCH   5  29
BRANCH   4  31
HETATM   31  O2  UNL     1     -56.665  13.653  16.348  1.00  0.00    -0.356 OA
ATOM     32  H2  UNL     1     -57.614  13.663  16.307  1.00  0.00     0.218 HD
ENDBRANCH   4  31
BRANCH   3  33
HETATM   33  N1  UNL     1     -57.734  14.261  18.903  1.00  0.00    -0.375 N 
HETATM   34  C5  UNL     1     -57.593  13.027  19.648  1.00  0.00     0.150 C 
HETATM   35  C6  UNL     1     -58.836  12.252  19.866  1.00  0.00     0.252 C 
HETATM   36  N2  UNL     1     -59.977  12.731  19.098  1.00  0.00    -0.072 N 
HETATM   37  C7  UNL     1     -60.096  14.142  19.491  1.00  0.00     0.252 C 
ATOM     38  H22 UNL     1     -59.900  12.580  18.092  1.00  0.00     0.277 HD
ATOM     39  H21 UNL     1     -60.828  12.185  19.225  1.00  0.00     0.277 HD
HETATM   40  C8  UNL     1     -59.007  14.865  18.683  1.00  0.00     0.150 C 
ENDBRANCH   3  33
TORSDOF 9
ENDMDL
MODEL 4
REMARK VINA RESULT: -8.671024958      1.092      1.248
REMARK  9 active torsions:
REMARK  status: ('A' for Active; 'I' for Inactive)
REMARK    1  A    between atoms: O1_2  and  C2_3 
REMARK    2  A    between atoms: C4_5  and  N1_6 
REMARK    3  A    between atoms: C9_14  and  O2_15 
REMARK    4  A    between atoms: C10_17  and  O3_18 
REMARK    5  A    between atoms: C11_20  and  O4_21 
REMARK    6  A    between atoms: O4_21  and  C12_22 
REMARK    7  A    between atoms: C13_23  and  C14_24 
REMARK    8  A    between atoms: C15_31  and  C16_32 
REMARK       I    between atoms: C16_32  and  N6_34 
REMARK    9  A    between atoms: N6_34  and  N7_36 
ROOT
HETATM    1  C2  UNL     1     -53.685  15.354  18.537  1.00  0.00     0.107 A 
HETATM    2  C3  UNL     1     -54.894  14.798  18.814  1.00  0.00     0.072 A 
HETATM    3  C4  UNL     1     -55.951  14.801  17.915  1.00  0.00     0.069 A 
HETATM    4  C9  UNL     1     -55.717  15.405  16.704  1.00  0.00     0.128 A 
HETATM    5  C10 UNL     1     -54.523  15.975  16.385  1.00  0.00     0.138 A 
HETATM    6  C11 UNL     1     -53.439  15.979  17.293  1.00  0.00     0.145 A 
ENDROOT
BRANCH   6   7
HETATM    7  O4  UNL     1     -52.300  16.520  16.989  1.00  0.00    -0.306 OA
BRANCH   7   8
HETATM    8  C12 UNL     1     -51.028  16.347  16.623  1.00  0.00     0.095 A 
HETATM    9  C13 UNL     1     -50.412  16.275  15.469  1.00  0.00     0.161 A 
HETATM   10  N3  UNL     1     -49.005  16.058  15.632  1.00  0.00    -0.232 N 
HETATM   11  N4  UNL     1     -47.789  15.887  14.896  1.00  0.00    -0.014 NA
HETATM   12  C17 UNL     1     -48.728  15.988  17.000  1.00  0.00     0.072 A 
HETATM   13  N5  UNL     1     -46.838  15.684  15.870  1.00  0.00    -0.277 N 
HETATM   14  C15 UNL     1     -47.420  15.763  17.163  1.00  0.00     0.140 A 
ATOM     15  H5  UNL     1     -45.852  15.502  15.688  1.00  0.00     0.184 HD
HETATM   16  C18 UNL     1     -49.956  16.184  17.722  1.00  0.00     0.129 A 
BRANCH   9  17
HETATM   17  C14 UNL     1     -51.002  16.375  14.110  1.00  0.00     0.231 C 
HETATM   18  O5  UNL     1     -50.577  17.106  13.245  1.00  0.00    -0.643 OA
HETATM   19  O6  UNL     1     -52.122  15.582  13.787  1.00  0.00    -0.643 OA
ENDBRANCH   9  17
BRANCH  14  20
HETATM   20  C16 UNL     1     -46.746  15.627  18.441  1.00  0.00     0.289 C 
HETATM   21  O7  UNL     1     -45.737  16.331  18.682  1.00  0.00    -0.264 OA
HETATM   22  N6  UNL     1     -47.179  14.723  19.448  1.00  0.00    -0.271 N 
ATOM     23  H6  UNL     1     -47.999  14.147  19.258  1.00  0.00     0.189 HD
BRANCH  22  24
HETATM   24  N7  UNL     1     -46.552  14.581  20.667  1.00  0.00    -0.342 N 
ATOM     25  H72 UNL     1     -45.704  15.128  20.821  1.00  0.00     0.176 HD
ATOM     26  H71 UNL     1     -46.890  13.966  21.408  1.00  0.00     0.176 HD
ENDBRANCH  22  24
ENDBRANCH  14  20
ENDBRANCH   7   8
ENDBRANCH   6   7
BRANCH   1  27
HETATM   27  O1  UNL     1     -52.664  15.325  19.465  1.00  0.00    -0.353 OA
HETATM   28  C1  UNL     1     -51.824  14.234  19.685  1.00  0.00     0.210 C 
ENDBRANCH   1  27
BRANCH   5  29
HETATM   29  O3  UNL     1     -54.297  16.591  15.139  1.00  0.00    -0.356 OA
ATOM     30  H3  UNL     1     -54.392  17.528  15.014  1.00  0.00     0.218 HD
ENDBRANCH   5  29
BRANCH   4  31
HETATM   31  O2  UNL     1     -56.729  15.445  15.753  1.00  0.00    -0.356 OA
ATOM     32  H2  UNL     1     -56.942  16.269  15.331  1.00  0.00     0.218 HD
ENDBRANCH   4  31
BRANCH   3  33
HETATM   33  N1  UNL     1     -57.211  14.216  18.262  1.00  0.00    -0.375 N 
HETATM   34  C5  UNL     1     -57.179  13.179  19.273  1.00  0.00     0.150 C 
HETATM   35  C6  UNL     1     -58.399  12.349  19.394  1.00  0.00     0.252 C 
HETATM   36  N2  UNL     1     -59.363  12.549  18.320  1.00  0.00    -0.072 N 
HETATM   37  C7  UNL     1     -59.636  13.992  18.360  1.00  0.00     0.252 C 
ATOM     38  H22 UNL     1     -59.056  12.204  17.410  1.00  0.00     0.277 HD
ATOM     39  H21 UNL     1     -60.193  11.961  18.385  1.00  0.00     0.277 HD
HETATM   40  C8  UNL     1     -58.432  14.637  17.656  1.00  0.00     0.150 C 
ENDBRANCH   3  33
TORSDOF 9
ENDMDL
MODEL 5
REMARK VINA RESULT: -8.308135136      0.988      2.404
REMARK  9 active torsions:
REMARK  status: ('A' for Active; 'I' for Inactive)
REMARK    1  A    between atoms: O1_2  and  C2_3 
REMARK    2  A    between atoms: C4_5  and  N1_6 
REMARK    3  A    between atoms: C9_14  and  O2_15 
REMARK    4  A    between atoms: C10_17  and  O3_18 
REMARK    5  A    between atoms: C11_20  and  O4_21 
REMARK    6  A    between atoms: O4_21  and  C12_22 
REMARK    7  A    between atoms: C13_23  and  C14_24 
REMARK    8  A    between atoms: C15_31  and  C16_32 
REMARK       I    between atoms: C16_32  and  N6_34 
REMARK    9  A    between atoms: N6_34  and  N7_36 
ROOT
HETATM    1  C2  UNL     1     -54.489  14.945  15.877  1.00  0.00     0.107 A 
HETATM    2  C3  UNL     1     -55.614  14.392  16.401  1.00  0.00     0.072 A 
HETATM    3  C4  UNL     1     -56.042  14.637  17.698  1.00  0.00     0.069 A 
HETATM    4  C9  UNL     1     -55.260  15.481  18.447  1.00  0.00     0.128 A 
HETATM    5  C10 UNL     1     -54.125  16.055  17.963  1.00  0.00     0.138 A 
HETATM    6  C11 UNL     1     -53.679  15.814  16.644  1.00  0.00     0.145 A 
ENDROOT
BRANCH   6   7
HETATM    7  O4  UNL     1     -52.598  16.362  16.181  1.00  0.00    -0.306 OA
BRANCH   7   8
HETATM    8  C12 UNL     1     -51.275  16.287  16.013  1.00  0.00     0.095 A 
HETATM    9  C13 UNL     1     -50.476  16.438  14.986  1.00  0.00     0.161 A 
HETATM   10  N3  UNL     1     -49.105  16.229  15.346  1.00  0.00    -0.232 N 
HETATM   11  N4  UNL     1     -47.778  16.222  14.811  1.00  0.00    -0.014 NA
HETATM   12  C17 UNL     1     -49.052  15.921  16.709  1.00  0.00     0.072 A 
HETATM   13  N5  UNL     1     -46.990  15.869  15.882  1.00  0.00    -0.277 N 
HETATM   14  C15 UNL     1     -47.779  15.700  17.051  1.00  0.00     0.140 A 
ATOM     15  H5  UNL     1     -45.978  15.746  15.842  1.00  0.00     0.184 HD
HETATM   16  C18 UNL     1     -50.391  15.955  17.234  1.00  0.00     0.129 A 
BRANCH   9  17
HETATM   17  C14 UNL     1     -50.840  16.768  13.584  1.00  0.00     0.231 C 
HETATM   18  O5  UNL     1     -50.090  17.307  12.804  1.00  0.00    -0.643 OA
HETATM   19  O6  UNL     1     -52.130  16.443  13.116  1.00  0.00    -0.643 OA
ENDBRANCH   9  17
BRANCH  14  20
HETATM   20  C16 UNL     1     -47.317  15.352  18.382  1.00  0.00     0.289 C 
HETATM   21  O7  UNL     1     -46.491  16.098  18.960  1.00  0.00    -0.264 OA
HETATM   22  N6  UNL     1     -47.760  14.193  19.072  1.00  0.00    -0.271 N 
ATOM     23  H6  UNL     1     -48.431  13.582  18.607  1.00  0.00     0.189 HD
BRANCH  22  24
HETATM   24  N7  UNL     1     -47.332  13.847  20.336  1.00  0.00    -0.342 N 
ATOM     25  H72 UNL     1     -47.706  14.387  21.117  1.00  0.00     0.176 HD
ATOM     26  H71 UNL     1     -46.674  13.090  20.523  1.00  0.00     0.176 HD
ENDBRANCH  22  24
ENDBRANCH  14  20
ENDBRANCH   7   8
ENDBRANCH   6   7
BRANCH   1  27
HETATM   27  O1  UNL     1     -54.104  14.672  14.580  1.00  0.00    -0.353 OA
HETATM   28  C1  UNL     1     -54.677  13.689  13.774  1.00  0.00     0.210 C 
ENDBRANCH   1  27
BRANCH   5  29
HETATM   29  O3  UNL     1     -53.333  16.920  18.743  1.00  0.00    -0.356 OA
ATOM     30  H3  UNL     1     -52.546  16.623  19.185  1.00  0.00     0.218 HD
ENDBRANCH   5  29
BRANCH   4  31
HETATM   31  O2  UNL     1     -55.628  15.773  19.756  1.00  0.00    -0.356 OA
ATOM     32  H2  UNL     1     -54.974  16.096  20.364  1.00  0.00     0.218 HD
ENDBRANCH   4  31
BRANCH   3  33
HETATM   33  N1  UNL     1     -57.227  14.015  18.209  1.00  0.00    -0.375 N 
HETATM   34  C5  UNL     1     -58.485  14.505  17.683  1.00  0.00     0.150 C 
HETATM   35  C6  UNL     1     -59.701  14.117  18.433  1.00  0.00     0.252 C 
HETATM   36  N2  UNL     1     -59.429  13.492  19.721  1.00  0.00    -0.072 N 
HETATM   37  C7  UNL     1     -58.567  12.352  19.382  1.00  0.00     0.252 C 
ATOM     38  H22 UNL     1     -59.037  14.123  20.420  1.00  0.00     0.277 HD
ATOM     39  H21 UNL     1     -60.263  13.246  20.253  1.00  0.00     0.277 HD
HETATM   40  C8  UNL     1     -57.174  12.965  19.173  1.00  0.00     0.150 C 
ENDBRANCH   3  33
TORSDOF 9
ENDMDL
