MODEL 1
REMARK VINA RESULT: -8.166191634      0.000      0.000
REMARK  3 active torsions:
REMARK  status: ('A' for Active; 'I' for Inactive)
REMARK    1  A    between atoms: O1_2  and  C2_3 
REMARK    2  A    between atoms: C5_6  and  C6_7 
REMARK    3  A    between atoms: C6_7  and  C7_8 
ROOT
HETATM    1  C2  UNL     1      29.274  15.628  -1.605  1.00  0.00     0.068 A 
HETATM    2  C3  UNL     1      29.298  16.020  -0.269  1.00  0.00     0.037 A 
HETATM    3  C4  UNL     1      30.394  16.700   0.230  1.00  0.00     0.010 A 
HETATM    4  C5  UNL     1      31.474  17.005  -0.561  1.00  0.00    -0.054 A 
HETATM    5  C11 UNL     1      31.432  16.611  -1.877  1.00  0.00     0.010 A 
HETATM    6  C12 UNL     1      30.351  15.928  -2.410  1.00  0.00     0.037 A 
ENDROOT
BRANCH   4   7
HETATM    7  C6  UNL     1      32.632  17.721  -0.044  1.00  0.00     0.078 C 
BRANCH   7   8
HETATM    8  C7  UNL     1      32.315  18.729   0.981  1.00  0.00    -0.037 A 
HETATM    9  C8  UNL     1      32.456  18.612   2.343  1.00  0.00     0.025 A 
HETATM   10  C9  UNL     1      32.041  19.799   2.950  1.00  0.00     0.088 A 
HETATM   11  N1  UNL     1      31.656  20.607   1.947  1.00  0.00    -0.375 N 
HETATM   12  C10 UNL     1      31.812  19.989   0.765  1.00  0.00     0.095 A 
ATOM     13  H1  UNL     1      31.298  21.554   2.068  1.00  0.00     0.164 HD
ENDBRANCH   7   8
ENDBRANCH   4   7
BRANCH   1  14
HETATM   14  O1  UNL     1      28.174  14.947  -2.099  1.00  0.00    -0.356 OA
HETATM   15  C1  UNL     1      28.142  13.540  -1.970  1.00  0.00     0.210 C 
ENDBRANCH   1  14
TORSDOF 3
ENDMDL
MODEL 2
REMARK VINA RESULT: -8.132945401      0.033      1.267
REMARK  3 active torsions:
REMARK  status: ('A' for Active; 'I' for Inactive)
REMARK    1  A    between atoms: O1_2  and  C2_3 
REMARK    2  A    between atoms: C5_6  and  C6_7 
REMARK    3  A    between atoms: C6_7  and  C7_8 
ROOT
HETATM    1  C2  UNL     1      29.278  15.642  -1.573  1.00  0.00     0.068 A 
HETATM    2  C3  UNL     1      30.352  15.946  -2.406  1.00  0.00     0.037 A 
HETATM    3  C4  UNL     1      31.448  16.619  -1.899  1.00  0.00     0.010 A 
HETATM    4  C5  UNL     1      31.513  17.002  -0.582  1.00  0.00    -0.054 A 
HETATM    5  C11 UNL     1      30.444  16.693   0.225  1.00  0.00     0.010 A 
HETATM    6  C12 UNL     1      29.329  16.021  -0.249  1.00  0.00     0.037 A 
ENDROOT
BRANCH   4   7
HETATM    7  C6  UNL     1      32.663  17.710  -0.039  1.00  0.00     0.078 C 
BRANCH   7   8
HETATM    8  C7  UNL     1      32.330  18.711   0.989  1.00  0.00    -0.037 A 
HETATM    9  C8  UNL     1      32.472  18.593   2.350  1.00  0.00     0.025 A 
HETATM   10  C9  UNL     1      32.038  19.772   2.959  1.00  0.00     0.088 A 
HETATM   11  N1  UNL     1      31.643  20.576   1.958  1.00  0.00    -0.375 N 
HETATM   12  C10 UNL     1      31.809  19.963   0.775  1.00  0.00     0.095 A 
ATOM     13  H1  UNL     1      31.270  21.518   2.080  1.00  0.00     0.164 HD
ENDBRANCH   7   8
ENDBRANCH   4   7
BRANCH   1  14
HETATM   14  O1  UNL     1      28.182  14.968  -2.087  1.00  0.00    -0.356 OA
HETATM   15  C1  UNL     1      28.156  13.558  -1.989  1.00  0.00     0.210 C 
ENDBRANCH   1  14
TORSDOF 3
ENDMDL
MODEL 3
REMARK VINA RESULT: -7.752492423      1.158      1.882
REMARK  3 active torsions:
REMARK  status: ('A' for Active; 'I' for Inactive)
REMARK    1  A    between atoms: O1_2  and  C2_3 
REMARK    2  A    between atoms: C5_6  and  C6_7 
REMARK    3  A    between atoms: C6_7  and  C7_8 
ROOT
HETATM    1  C2  UNL     1      30.164  16.170  -1.965  1.00  0.00     0.068 A 
HETATM    2  C3  UNL     1      31.519  16.484  -2.015  1.00  0.00     0.037 A 
HETATM    3  C4  UNL     1      32.157  16.961  -0.885  1.00  0.00     0.010 A 
HETATM    4  C5  UNL     1      31.489  17.137   0.301  1.00  0.00    -0.054 A 
HETATM    5  C11 UNL     1      30.151  16.821   0.331  1.00  0.00     0.010 A 
HETATM    6  C12 UNL     1      29.479  16.341  -0.781  1.00  0.00     0.037 A 
ENDROOT
BRANCH   4   7
HETATM    7  C6  UNL     1      32.153  17.638   1.496  1.00  0.00     0.078 C 
BRANCH   7   8
HETATM    8  C7  UNL     1      32.328  19.100   1.525  1.00  0.00    -0.037 A 
HETATM    9  C8  UNL     1      33.364  19.829   0.993  1.00  0.00     0.025 A 
HETATM   10  C9  UNL     1      33.142  21.185   1.241  1.00  0.00     0.088 A 
HETATM   11  N1  UNL     1      31.983  21.249   1.916  1.00  0.00    -0.375 N 
HETATM   12  C10 UNL     1      31.480  20.016   2.096  1.00  0.00     0.095 A 
ATOM     13  H1  UNL     1      31.546  22.110   2.246  1.00  0.00     0.164 HD
ENDBRANCH   7   8
ENDBRANCH   4   7
BRANCH   1  14
HETATM   14  O1  UNL     1      29.529  15.692  -3.100  1.00  0.00    -0.356 OA
HETATM   15  C1  UNL     1      29.803  14.369  -3.514  1.00  0.00     0.210 C 
ENDBRANCH   1  14
TORSDOF 3
ENDMDL
MODEL 4
REMARK VINA RESULT: -7.743876504      1.144      1.476
REMARK  3 active torsions:
REMARK  status: ('A' for Active; 'I' for Inactive)
REMARK    1  A    between atoms: O1_2  and  C2_3 
REMARK    2  A    between atoms: C5_6  and  C6_7 
REMARK    3  A    between atoms: C6_7  and  C7_8 
ROOT
HETATM    1  C2  UNL     1      30.171  16.131  -1.961  1.00  0.00     0.068 A 
HETATM    2  C3  UNL     1      29.477  16.237  -0.759  1.00  0.00     0.037 A 
HETATM    3  C4  UNL     1      30.120  16.714   0.368  1.00  0.00     0.010 A 
HETATM    4  C5  UNL     1      31.440  17.091   0.340  1.00  0.00    -0.054 A 
HETATM    5  C11 UNL     1      32.109  16.979  -0.855  1.00  0.00     0.010 A 
HETATM    6  C12 UNL     1      31.497  16.506  -2.004  1.00  0.00     0.037 A 
ENDROOT
BRANCH   4   7
HETATM    7  C6  UNL     1      32.125  17.594   1.522  1.00  0.00     0.078 C 
BRANCH   7   8
HETATM    8  C7  UNL     1      32.313  19.055   1.539  1.00  0.00    -0.037 A 
HETATM    9  C8  UNL     1      33.341  19.773   0.976  1.00  0.00     0.025 A 
HETATM   10  C9  UNL     1      33.137  21.132   1.224  1.00  0.00     0.088 A 
HETATM   11  N1  UNL     1      31.996  21.208   1.929  1.00  0.00    -0.375 N 
HETATM   12  C10 UNL     1      31.488  19.980   2.128  1.00  0.00     0.095 A 
ATOM     13  H1  UNL     1      31.575  22.075   2.266  1.00  0.00     0.164 HD
ENDBRANCH   7   8
ENDBRANCH   4   7
BRANCH   1  14
HETATM   14  O1  UNL     1      29.522  15.653  -3.087  1.00  0.00    -0.356 OA
HETATM   15  C1  UNL     1      29.808  14.338  -3.519  1.00  0.00     0.210 C 
ENDBRANCH   1  14
TORSDOF 3
ENDMDL
MODEL 5
REMARK VINA RESULT: -7.628621451      1.293      1.603
REMARK  3 active torsions:
REMARK  status: ('A' for Active; 'I' for Inactive)
REMARK    1  A    between atoms: O1_2  and  C2_3 
REMARK    2  A    between atoms: C5_6  and  C6_7 
REMARK    3  A    between atoms: C6_7  and  C7_8 
ROOT
HETATM    1  C2  UNL     1      30.185  16.254  -1.898  1.00  0.00     0.068 A 
HETATM    2  C3  UNL     1      29.488  16.522  -0.723  1.00  0.00     0.037 A 
HETATM    3  C4  UNL     1      30.155  17.045   0.369  1.00  0.00     0.010 A 
HETATM    4  C5  UNL     1      31.500  17.314   0.332  1.00  0.00    -0.054 A 
HETATM    5  C11 UNL     1      32.172  17.043  -0.836  1.00  0.00     0.010 A 
HETATM    6  C12 UNL     1      31.537  16.518  -1.950  1.00  0.00     0.037 A 
ENDROOT
BRANCH   4   7
HETATM    7  C6  UNL     1      32.211  17.865   1.477  1.00  0.00     0.078 C 
BRANCH   7   8
HETATM    8  C7  UNL     1      32.513  19.302   1.370  1.00  0.00    -0.037 A 
HETATM    9  C8  UNL     1      31.727  20.356   1.770  1.00  0.00     0.025 A 
HETATM   10  C9  UNL     1      32.387  21.553   1.486  1.00  0.00     0.088 A 
HETATM   11  N1  UNL     1      33.554  21.201   0.921  1.00  0.00    -0.375 N 
HETATM   12  C10 UNL     1      33.649  19.864   0.842  1.00  0.00     0.095 A 
ATOM     13  H1  UNL     1      34.266  21.857   0.598  1.00  0.00     0.164 HD
ENDBRANCH   7   8
ENDBRANCH   4   7
BRANCH   1  14
HETATM   14  O1  UNL     1      29.513  15.730  -2.990  1.00  0.00    -0.356 OA
HETATM   15  C1  UNL     1      29.790  14.398  -3.371  1.00  0.00     0.210 C 
ENDBRANCH   1  14
TORSDOF 3
ENDMDL
