MODEL 1
REMARK VINA RESULT: -8.794445920      0.000      0.000
REMARK  4 active torsions:
REMARK  status: ('A' for Active; 'I' for Inactive)
REMARK    1  A    between atoms: N1_1  and  C1_5 
REMARK    2  A    between atoms: C1_5  and  C2_6 
REMARK    3  A    between atoms: C1_5  and  C9_13 
REMARK    4  A    between atoms: C2_6  and  C3_7 
ROOT
HETATM    1  C1  UNL     1      32.031  17.780   1.136  1.00  0.00     0.220 C 
ENDROOT
BRANCH   1   2
HETATM    2  N1  UNL     1      32.181  17.233   2.445  1.00  0.00    -0.071 N 
ATOM      3  H13 UNL     1      33.044  17.557   2.883  1.00  0.00     0.275 HD
ATOM      4  H12 UNL     1      31.506  17.640   3.094  1.00  0.00     0.275 HD
ATOM      5  H11 UNL     1      32.127  16.215   2.449  1.00  0.00     0.275 HD
ENDBRANCH   1   2
BRANCH   1   6
HETATM    6  C2  UNL     1      30.585  17.773   0.669  1.00  0.00     0.076 C 
BRANCH   6   7
HETATM    7  C3  UNL     1      30.355  16.890  -0.473  1.00  0.00    -0.056 A 
HETATM    8  C4  UNL     1      31.079  17.023  -1.629  1.00  0.00     0.007 A 
HETATM    9  C5  UNL     1      30.814  16.159  -2.669  1.00  0.00     0.001 A 
HETATM   10  C6  UNL     1      29.828  15.174  -2.539  1.00  0.00     0.000 A 
HETATM   11  C7  UNL     1      29.113  15.055  -1.381  1.00  0.00     0.001 A 
HETATM   12  C8  UNL     1      29.369  15.903  -0.349  1.00  0.00     0.007 A 
ENDBRANCH   6   7
ENDBRANCH   1   6
BRANCH   1  13
HETATM   13  C9  UNL     1      32.496  19.194   1.040  1.00  0.00    -0.028 A 
HETATM   14  C10 UNL     1      33.790  19.521   0.681  1.00  0.00     0.009 A 
HETATM   15  C11 UNL     1      34.220  20.836   0.592  1.00  0.00     0.001 A 
HETATM   16  C12 UNL     1      33.361  21.877   0.861  1.00  0.00     0.000 A 
HETATM   17  C13 UNL     1      32.067  21.568   1.220  1.00  0.00     0.001 A 
HETATM   18  C14 UNL     1      31.651  20.254   1.304  1.00  0.00     0.009 A 
ENDBRANCH   1  13
TORSDOF 4
ENDMDL
MODEL 2
REMARK VINA RESULT: -8.770633545      3.916      6.327
REMARK  4 active torsions:
REMARK  status: ('A' for Active; 'I' for Inactive)
REMARK    1  A    between atoms: N1_1  and  C1_5 
REMARK    2  A    between atoms: C1_5  and  C2_6 
REMARK    3  A    between atoms: C1_5  and  C9_13 
REMARK    4  A    between atoms: C2_6  and  C3_7 
ROOT
HETATM    1  C1  UNL     1      28.277  13.938  -1.983  1.00  0.00     0.220 C 
ENDROOT
BRANCH   1   2
HETATM    2  N1  UNL     1      26.983  14.439  -2.315  1.00  0.00    -0.071 N 
ATOM      3  H13 UNL     1      26.973  15.459  -2.315  1.00  0.00     0.275 HD
ATOM      4  H12 UNL     1      26.765  14.274  -3.298  1.00  0.00     0.275 HD
ATOM      5  H11 UNL     1      26.254  14.064  -1.707  1.00  0.00     0.275 HD
ENDBRANCH   1   2
BRANCH   1   6
HETATM    6  C2  UNL     1      28.870  13.089  -3.095  1.00  0.00     0.076 C 
BRANCH   6   7
HETATM    7  C3  UNL     1      28.273  11.758  -3.182  1.00  0.00    -0.056 A 
HETATM    8  C4  UNL     1      27.539  11.241  -2.146  1.00  0.00     0.007 A 
HETATM    9  C5  UNL     1      27.002   9.980  -2.290  1.00  0.00     0.001 A 
HETATM   10  C6  UNL     1      27.207   9.253  -3.469  1.00  0.00     0.000 A 
HETATM   11  C7  UNL     1      27.942   9.781  -4.493  1.00  0.00     0.001 A 
HETATM   12  C8  UNL     1      28.475  11.025  -4.359  1.00  0.00     0.007 A 
ENDBRANCH   6   7
ENDBRANCH   1   6
BRANCH   1  13
HETATM   13  C9  UNL     1      29.266  15.019  -1.707  1.00  0.00    -0.028 A 
HETATM   14  C10 UNL     1      30.147  15.475  -2.669  1.00  0.00     0.009 A 
HETATM   15  C11 UNL     1      31.066  16.480  -2.409  1.00  0.00     0.001 A 
HETATM   16  C12 UNL     1      31.135  17.068  -1.167  1.00  0.00     0.000 A 
HETATM   17  C13 UNL     1      30.263  16.624  -0.195  1.00  0.00     0.001 A 
HETATM   18  C14 UNL     1      29.352  15.623  -0.467  1.00  0.00     0.009 A 
ENDBRANCH   1  13
TORSDOF 4
ENDMDL
MODEL 3
REMARK VINA RESULT: -8.750517969      0.049      1.244
REMARK  4 active torsions:
REMARK  status: ('A' for Active; 'I' for Inactive)
REMARK    1  A    between atoms: N1_1  and  C1_5 
REMARK    2  A    between atoms: C1_5  and  C2_6 
REMARK    3  A    between atoms: C1_5  and  C9_13 
REMARK    4  A    between atoms: C2_6  and  C3_7 
ROOT
HETATM    1  C1  UNL     1      32.018  17.782   1.127  1.00  0.00     0.220 C 
ENDROOT
BRANCH   1   2
HETATM    2  N1  UNL     1      32.194  17.210   2.422  1.00  0.00    -0.071 N 
ATOM      3  H13 UNL     1      31.629  17.696   3.119  1.00  0.00     0.275 HD
ATOM      4  H12 UNL     1      31.764  16.286   2.478  1.00  0.00     0.275 HD
ATOM      5  H11 UNL     1      33.175  17.178   2.701  1.00  0.00     0.275 HD
ENDBRANCH   1   2
BRANCH   1   6
HETATM    6  C2  UNL     1      30.562  17.783   0.689  1.00  0.00     0.076 C 
BRANCH   6   7
HETATM    7  C3  UNL     1      30.298  16.874  -0.425  1.00  0.00    -0.056 A 
HETATM    8  C4  UNL     1      29.344  15.895  -0.329  1.00  0.00     0.007 A 
HETATM    9  C5  UNL     1      29.142  15.071  -1.416  1.00  0.00     0.001 A 
HETATM   10  C6  UNL     1      29.898  15.238  -2.582  1.00  0.00     0.000 A 
HETATM   11  C7  UNL     1      30.846  16.219  -2.662  1.00  0.00     0.001 A 
HETATM   12  C8  UNL     1      31.051  17.037  -1.595  1.00  0.00     0.007 A 
ENDBRANCH   6   7
ENDBRANCH   1   6
BRANCH   1  13
HETATM   13  C9  UNL     1      32.480  19.198   1.048  1.00  0.00    -0.028 A 
HETATM   14  C10 UNL     1      33.773  19.532   0.694  1.00  0.00     0.009 A 
HETATM   15  C11 UNL     1      34.201  20.849   0.622  1.00  0.00     0.001 A 
HETATM   16  C12 UNL     1      33.340  21.885   0.903  1.00  0.00     0.000 A 
HETATM   17  C13 UNL     1      32.046  21.569   1.257  1.00  0.00     0.001 A 
HETATM   18  C14 UNL     1      31.632  20.253   1.325  1.00  0.00     0.009 A 
ENDBRANCH   1  13
TORSDOF 4
ENDMDL
MODEL 4
REMARK VINA RESULT: -8.735639291      2.973      5.090
REMARK  4 active torsions:
REMARK  status: ('A' for Active; 'I' for Inactive)
REMARK    1  A    between atoms: N1_1  and  C1_5 
REMARK    2  A    between atoms: C1_5  and  C2_6 
REMARK    3  A    between atoms: C1_5  and  C9_13 
REMARK    4  A    between atoms: C2_6  and  C3_7 
ROOT
HETATM    1  C1  UNL     1      29.042  15.713  -2.387  1.00  0.00     0.220 C 
ENDROOT
BRANCH   1   2
HETATM    2  N1  UNL     1      28.585  16.652  -3.360  1.00  0.00    -0.071 N 
ATOM      3  H13 UNL     1      29.343  17.263  -3.665  1.00  0.00     0.275 HD
ATOM      4  H12 UNL     1      28.379  16.192  -4.247  1.00  0.00     0.275 HD
ATOM      5  H11 UNL     1      27.786  17.194  -3.031  1.00  0.00     0.275 HD
ENDBRANCH   1   2
BRANCH   1   6
HETATM    6  C2  UNL     1      29.697  14.497  -3.021  1.00  0.00     0.076 C 
BRANCH   6   7
HETATM    7  C3  UNL     1      28.909  13.276  -2.870  1.00  0.00    -0.056 A 
HETATM    8  C4  UNL     1      28.174  13.042  -1.737  1.00  0.00     0.007 A 
HETATM    9  C5  UNL     1      27.452  11.871  -1.657  1.00  0.00     0.001 A 
HETATM   10  C6  UNL     1      27.475  10.949  -2.711  1.00  0.00     0.000 A 
HETATM   11  C7  UNL     1      28.213  11.197  -3.834  1.00  0.00     0.001 A 
HETATM   12  C8  UNL     1      28.928  12.350  -3.922  1.00  0.00     0.007 A 
ENDBRANCH   6   7
ENDBRANCH   1   6
BRANCH   1  13
HETATM   13  C9  UNL     1      30.047  16.290  -1.448  1.00  0.00    -0.028 A 
HETATM   14  C10 UNL     1      29.717  16.675  -0.163  1.00  0.00     0.009 A 
HETATM   15  C11 UNL     1      30.653  17.211   0.708  1.00  0.00     0.001 A 
HETATM   16  C12 UNL     1      31.962  17.381   0.318  1.00  0.00     0.000 A 
HETATM   17  C13 UNL     1      32.307  17.002  -0.962  1.00  0.00     0.001 A 
HETATM   18  C14 UNL     1      31.365  16.468  -1.820  1.00  0.00     0.009 A 
ENDBRANCH   1  13
TORSDOF 4
ENDMDL
MODEL 5
REMARK VINA RESULT: -8.733546799      2.895      4.488
REMARK  4 active torsions:
REMARK  status: ('A' for Active; 'I' for Inactive)
REMARK    1  A    between atoms: N1_1  and  C1_5 
REMARK    2  A    between atoms: C1_5  and  C2_6 
REMARK    3  A    between atoms: C1_5  and  C9_13 
REMARK    4  A    between atoms: C2_6  and  C3_7 
ROOT
HETATM    1  C1  UNL     1      32.838  22.158   0.902  1.00  0.00     0.220 C 
ENDROOT
BRANCH   1   2
HETATM    2  N1  UNL     1      32.071  23.359   0.980  1.00  0.00    -0.071 N 
ATOM      3  H13 UNL     1      31.815  23.692   0.051  1.00  0.00     0.275 HD
ATOM      4  H12 UNL     1      31.138  23.176   1.351  1.00  0.00     0.275 HD
ATOM      5  H11 UNL     1      32.545  24.087   1.515  1.00  0.00     0.275 HD
ENDBRANCH   1   2
BRANCH   1   6
HETATM    6  C2  UNL     1      32.070  21.024   0.244  1.00  0.00     0.076 C 
BRANCH   6   7
HETATM    7  C3  UNL     1      32.096  19.786   1.021  1.00  0.00    -0.056 A 
HETATM    8  C4  UNL     1      32.470  19.785   2.340  1.00  0.00     0.007 A 
HETATM    9  C5  UNL     1      32.472  18.584   3.017  1.00  0.00     0.001 A 
HETATM   10  C6  UNL     1      32.101  17.402   2.366  1.00  0.00     0.000 A 
HETATM   11  C7  UNL     1      31.731  17.419   1.050  1.00  0.00     0.001 A 
HETATM   12  C8  UNL     1      31.725  18.599   0.375  1.00  0.00     0.007 A 
ENDBRANCH   6   7
ENDBRANCH   1   6
BRANCH   1  13
HETATM   13  C9  UNL     1      34.097  22.321   0.120  1.00  0.00    -0.028 A 
HETATM   14  C10 UNL     1      35.222  21.557   0.367  1.00  0.00     0.009 A 
HETATM   15  C11 UNL     1      36.392  21.712  -0.362  1.00  0.00     0.001 A 
HETATM   16  C12 UNL     1      36.475  22.644  -1.371  1.00  0.00     0.000 A 
HETATM   17  C13 UNL     1      35.362  23.414  -1.630  1.00  0.00     0.001 A 
HETATM   18  C14 UNL     1      34.202  23.250  -0.898  1.00  0.00     0.009 A 
ENDBRANCH   1  13
TORSDOF 4
ENDMDL
