MODEL 1
REMARK VINA RESULT: -9.088811476      0.000      0.000
REMARK  6 active torsions:
REMARK  status: ('A' for Active; 'I' for Inactive)
REMARK    1  A    between atoms: C3_3  and  C4_4 
REMARK    2  A    between atoms: C5_5  and  C6_6 
REMARK    3  A    between atoms: C6_6  and  C7_7 
REMARK    4  A    between atoms: C7_7  and  C8_8 
REMARK    5  A    between atoms: C8_8  and  C9_9 
REMARK    6  A    between atoms: C12_12  and  O1_13 
ROOT
HETATM    1  C1  UNL     1      36.482  22.989  -0.929  1.00  0.00     0.113 C 
HETATM    2  C2  UNL     1      35.542  22.029  -0.317  1.00  0.00    -0.097 C 
HETATM    3  C3  UNL     1      34.782  21.226   0.180  1.00  0.00    -0.015 C 
ENDROOT
BRANCH   3   4
HETATM    4  C4  UNL     1      33.911  20.271   0.753  1.00  0.00    -0.015 C 
HETATM    5  C5  UNL     1      33.174  19.443   1.263  1.00  0.00    -0.092 C 
BRANCH   5   6
HETATM    6  C6  UNL     1      32.311  18.446   1.891  1.00  0.00     0.095 C 
BRANCH   6   7
HETATM    7  C7  UNL     1      32.083  17.337   0.890  1.00  0.00     0.017 C 
BRANCH   7   8
HETATM    8  C8  UNL     1      31.269  17.909  -0.247  1.00  0.00     0.039 C 
BRANCH   8   9
HETATM    9  C9  UNL     1      30.606  16.816  -0.963  1.00  0.00    -0.058 A 
HETATM   10  C10 UNL     1      29.684  16.049  -0.314  1.00  0.00     0.010 A 
HETATM   11  C11 UNL     1      29.047  15.017  -0.954  1.00  0.00     0.037 A 
HETATM   12  C12 UNL     1      29.331  14.738  -2.281  1.00  0.00     0.065 A 
HETATM   13  C13 UNL     1      30.259  15.503  -2.949  1.00  0.00     0.037 A 
HETATM   14  C14 UNL     1      30.890  16.538  -2.284  1.00  0.00     0.010 A 
BRANCH  12  15
HETATM   15  O1  UNL     1      28.647  13.682  -2.861  1.00  0.00    -0.361 OA
ATOM     16  H1  UNL     1      29.035  12.818  -2.776  1.00  0.00     0.217 HD
ENDBRANCH  12  15
ENDBRANCH   8   9
ENDBRANCH   7   8
ENDBRANCH   6   7
ENDBRANCH   5   6
ENDBRANCH   3   4
TORSDOF 6
ENDMDL
MODEL 2
REMARK VINA RESULT: -9.042745143      0.284      1.258
REMARK  6 active torsions:
REMARK  status: ('A' for Active; 'I' for Inactive)
REMARK    1  A    between atoms: C3_3  and  C4_4 
REMARK    2  A    between atoms: C5_5  and  C6_6 
REMARK    3  A    between atoms: C6_6  and  C7_7 
REMARK    4  A    between atoms: C7_7  and  C8_8 
REMARK    5  A    between atoms: C8_8  and  C9_9 
REMARK    6  A    between atoms: C12_12  and  O1_13 
ROOT
HETATM    1  C1  UNL     1      36.516  23.036  -0.755  1.00  0.00     0.113 C 
HETATM    2  C2  UNL     1      35.607  22.011  -0.204  1.00  0.00    -0.097 C 
HETATM    3  C3  UNL     1      34.853  21.167   0.230  1.00  0.00    -0.015 C 
ENDROOT
BRANCH   3   4
HETATM    4  C4  UNL     1      33.967  20.177   0.713  1.00  0.00    -0.015 C 
HETATM    5  C5  UNL     1      33.187  19.331   1.118  1.00  0.00    -0.092 C 
BRANCH   5   6
HETATM    6  C6  UNL     1      32.234  18.329   1.589  1.00  0.00     0.095 C 
BRANCH   6   7
HETATM    7  C7  UNL     1      32.087  17.287   0.505  1.00  0.00     0.017 C 
BRANCH   7   8
HETATM    8  C8  UNL     1      31.033  17.778  -0.459  1.00  0.00     0.039 C 
BRANCH   8   9
HETATM    9  C9  UNL     1      30.406  16.627  -1.116  1.00  0.00    -0.058 A 
HETATM   10  C10 UNL     1      30.738  16.324  -2.403  1.00  0.00     0.010 A 
HETATM   11  C11 UNL     1      30.171  15.256  -3.047  1.00  0.00     0.037 A 
HETATM   12  C12 UNL     1      29.244  14.460  -2.394  1.00  0.00     0.065 A 
HETATM   13  C13 UNL     1      28.899  14.753  -1.094  1.00  0.00     0.037 A 
HETATM   14  C14 UNL     1      29.484  15.835  -0.464  1.00  0.00     0.010 A 
BRANCH  12  15
HETATM   15  O1  UNL     1      28.714  13.397  -3.107  1.00  0.00    -0.361 OA
ATOM     16  H1  UNL     1      28.510  12.608  -2.618  1.00  0.00     0.217 HD
ENDBRANCH  12  15
ENDBRANCH   8   9
ENDBRANCH   7   8
ENDBRANCH   6   7
ENDBRANCH   5   6
ENDBRANCH   3   4
TORSDOF 6
ENDMDL
MODEL 3
REMARK VINA RESULT: -8.749330502      3.524      8.199
REMARK  6 active torsions:
REMARK  status: ('A' for Active; 'I' for Inactive)
REMARK    1  A    between atoms: C3_3  and  C4_4 
REMARK    2  A    between atoms: C5_5  and  C6_6 
REMARK    3  A    between atoms: C6_6  and  C7_7 
REMARK    4  A    between atoms: C7_7  and  C8_8 
REMARK    5  A    between atoms: C8_8  and  C9_9 
REMARK    6  A    between atoms: C12_12  and  O1_13 
ROOT
HETATM    1  C1  UNL     1      26.908   9.973  -2.359  1.00  0.00     0.113 C 
HETATM    2  C2  UNL     1      27.450  11.339  -2.210  1.00  0.00    -0.097 C 
HETATM    3  C3  UNL     1      27.910  12.454  -2.098  1.00  0.00    -0.015 C 
ENDROOT
BRANCH   3   4
HETATM    4  C4  UNL     1      28.468  13.748  -1.980  1.00  0.00    -0.015 C 
HETATM    5  C5  UNL     1      28.956  14.863  -1.899  1.00  0.00    -0.092 C 
BRANCH   5   6
HETATM    6  C6  UNL     1      29.550  16.196  -1.825  1.00  0.00     0.095 C 
BRANCH   6   7
HETATM    7  C7  UNL     1      30.102  16.378  -0.431  1.00  0.00     0.017 C 
BRANCH   7   8
HETATM    8  C8  UNL     1      31.488  16.966  -0.564  1.00  0.00     0.039 C 
BRANCH   8   9
HETATM    9  C9  UNL     1      31.740  17.865   0.566  1.00  0.00    -0.058 A 
HETATM   10  C10 UNL     1      32.055  17.342   1.785  1.00  0.00     0.010 A 
HETATM   11  C11 UNL     1      32.295  18.154   2.863  1.00  0.00     0.037 A 
HETATM   12  C12 UNL     1      32.222  19.531   2.728  1.00  0.00     0.065 A 
HETATM   13  C13 UNL     1      31.905  20.074   1.504  1.00  0.00     0.037 A 
HETATM   14  C14 UNL     1      31.666  19.236   0.431  1.00  0.00     0.010 A 
BRANCH  12  15
HETATM   15  O1  UNL     1      32.479  20.287   3.860  1.00  0.00    -0.361 OA
ATOM     16  H1  UNL     1      31.727  20.583   4.360  1.00  0.00     0.217 HD
ENDBRANCH  12  15
ENDBRANCH   8   9
ENDBRANCH   7   8
ENDBRANCH   6   7
ENDBRANCH   5   6
ENDBRANCH   3   4
TORSDOF 6
ENDMDL
MODEL 4
REMARK VINA RESULT: -8.729116757      3.541      8.264
REMARK  6 active torsions:
REMARK  status: ('A' for Active; 'I' for Inactive)
REMARK    1  A    between atoms: C3_3  and  C4_4 
REMARK    2  A    between atoms: C5_5  and  C6_6 
REMARK    3  A    between atoms: C6_6  and  C7_7 
REMARK    4  A    between atoms: C7_7  and  C8_8 
REMARK    5  A    between atoms: C8_8  and  C9_9 
REMARK    6  A    between atoms: C12_12  and  O1_13 
ROOT
HETATM    1  C1  UNL     1      26.894   9.920  -2.374  1.00  0.00     0.113 C 
HETATM    2  C2  UNL     1      27.431  11.287  -2.219  1.00  0.00    -0.097 C 
HETATM    3  C3  UNL     1      27.886  12.404  -2.105  1.00  0.00    -0.015 C 
ENDROOT
BRANCH   3   4
HETATM    4  C4  UNL     1      28.436  13.702  -1.987  1.00  0.00    -0.015 C 
HETATM    5  C5  UNL     1      28.917  14.821  -1.906  1.00  0.00    -0.092 C 
BRANCH   5   6
HETATM    6  C6  UNL     1      29.499  16.158  -1.834  1.00  0.00     0.095 C 
BRANCH   6   7
HETATM    7  C7  UNL     1      30.082  16.333  -0.451  1.00  0.00     0.017 C 
BRANCH   7   8
HETATM    8  C8  UNL     1      31.442  16.973  -0.608  1.00  0.00     0.039 C 
BRANCH   8   9
HETATM    9  C9  UNL     1      31.715  17.815   0.561  1.00  0.00    -0.058 A 
HETATM   10  C10 UNL     1      31.624  19.171   0.448  1.00  0.00     0.010 A 
HETATM   11  C11 UNL     1      31.874  19.987   1.521  1.00  0.00     0.037 A 
HETATM   12  C12 UNL     1      32.225  19.443   2.745  1.00  0.00     0.065 A 
HETATM   13  C13 UNL     1      32.322  18.076   2.874  1.00  0.00     0.037 A 
HETATM   14  C14 UNL     1      32.066  17.272   1.779  1.00  0.00     0.010 A 
BRANCH  12  15
HETATM   15  O1  UNL     1      32.462  20.329   3.783  1.00  0.00    -0.361 OA
ATOM     16  H1  UNL     1      32.776  21.195   3.547  1.00  0.00     0.217 HD
ENDBRANCH  12  15
ENDBRANCH   8   9
ENDBRANCH   7   8
ENDBRANCH   6   7
ENDBRANCH   5   6
ENDBRANCH   3   4
TORSDOF 6
ENDMDL
MODEL 5
REMARK VINA RESULT: -8.418422702      3.193      5.400
REMARK  6 active torsions:
REMARK  status: ('A' for Active; 'I' for Inactive)
REMARK    1  A    between atoms: C3_3  and  C4_4 
REMARK    2  A    between atoms: C5_5  and  C6_6 
REMARK    3  A    between atoms: C6_6  and  C7_7 
REMARK    4  A    between atoms: C7_7  and  C8_8 
REMARK    5  A    between atoms: C8_8  and  C9_9 
REMARK    6  A    between atoms: C12_12  and  O1_13 
ROOT
HETATM    1  C1  UNL     1      32.442  18.300   2.656  1.00  0.00     0.113 C 
HETATM    2  C2  UNL     1      31.849  17.789   1.404  1.00  0.00    -0.097 C 
HETATM    3  C3  UNL     1      31.381  17.359   0.372  1.00  0.00    -0.015 C 
ENDROOT
BRANCH   3   4
HETATM    4  C4  UNL     1      30.854  16.844  -0.836  1.00  0.00    -0.015 C 
HETATM    5  C5  UNL     1      30.391  16.419  -1.881  1.00  0.00    -0.092 C 
BRANCH   5   6
HETATM    6  C6  UNL     1      29.825  15.933  -3.136  1.00  0.00     0.095 C 
BRANCH   6   7
HETATM    7  C7  UNL     1      29.820  14.423  -3.085  1.00  0.00     0.017 C 
BRANCH   7   8
HETATM    8  C8  UNL     1      28.668  14.001  -2.203  1.00  0.00     0.039 C 
BRANCH   8   9
HETATM    9  C9  UNL     1      28.253  12.643  -2.568  1.00  0.00    -0.058 A 
HETATM   10  C10 UNL     1      27.485  11.919  -1.704  1.00  0.00     0.010 A 
HETATM   11  C11 UNL     1      27.081  10.647  -2.014  1.00  0.00     0.037 A 
HETATM   12  C12 UNL     1      27.449  10.072  -3.220  1.00  0.00     0.065 A 
HETATM   13  C13 UNL     1      28.223  10.791  -4.102  1.00  0.00     0.037 A 
HETATM   14  C14 UNL     1      28.620  12.072  -3.769  1.00  0.00     0.010 A 
BRANCH  12  15
HETATM   15  O1  UNL     1      27.003   8.784  -3.465  1.00  0.00    -0.361 OA
ATOM     16  H1  UNL     1      26.522   8.354  -2.766  1.00  0.00     0.217 HD
ENDBRANCH  12  15
ENDBRANCH   8   9
ENDBRANCH   7   8
ENDBRANCH   6   7
ENDBRANCH   5   6
ENDBRANCH   3   4
TORSDOF 6
ENDMDL
