MODEL 1
REMARK VINA RESULT: -9.016651746      0.000      0.000
REMARK  3 active torsions:
REMARK  status: ('A' for Active; 'I' for Inactive)
REMARK    1  A    between atoms: C2_2  and  C3_3 
REMARK    2  A    between atoms: C5_5  and  C6_6 
REMARK    3  A    between atoms: C6_6  and  C8_8 
ROOT
HETATM    1  C3  UNL     1      32.940  21.303   1.022  1.00  0.00     0.049 A 
HETATM    2  C4  UNL     1      33.089  19.958   0.706  1.00  0.00     0.062 A 
HETATM    3  C5  UNL     1      32.064  19.225   1.256  1.00  0.00     0.060 A 
HETATM    4  N1  UNL     1      31.303  20.156   1.905  1.00  0.00    -0.299 N 
ATOM      5  H1  UNL     1      30.452  19.950   2.426  1.00  0.00     0.187 HD
HETATM    6  N2  UNL     1      31.822  21.353   1.761  1.00  0.00    -0.300 N 
ATOM      7  H2  UNL     1      31.428  22.205   2.158  1.00  0.00     0.187 HD
ENDROOT
BRANCH   3   8
HETATM    8  C6  UNL     1      31.754  17.803   1.206  1.00  0.00    -0.007 C 
HETATM    9  C7  UNL     1      32.075  17.076   2.295  1.00  0.00     0.026 C 
BRANCH   8  10
HETATM   10  C8  UNL     1      31.143  17.131   0.074  1.00  0.00    -0.025 A 
HETATM   11  C9  UNL     1      29.871  16.637   0.145  1.00  0.00     0.012 A 
HETATM   12  C10 UNL     1      29.290  16.013  -0.970  1.00  0.00     0.001 A 
HETATM   13  C11 UNL     1      29.974  15.881  -2.150  1.00  0.00     0.000 A 
HETATM   14  C12 UNL     1      31.246  16.366  -2.238  1.00  0.00     0.001 A 
HETATM   15  C13 UNL     1      31.820  16.987  -1.124  1.00  0.00     0.012 A 
ENDBRANCH   8  10
ENDBRANCH   3   8
BRANCH   1  16
HETATM   16  C2  UNL     1      33.814  22.399   0.630  1.00  0.00     0.021 C 
HETATM   17  C1  UNL     1      34.651  22.264  -0.375  1.00  0.00     0.013 C 
ENDBRANCH   1  16
TORSDOF 3
ENDMDL
MODEL 2
REMARK VINA RESULT: -9.000090439      0.045      1.217
REMARK  3 active torsions:
REMARK  status: ('A' for Active; 'I' for Inactive)
REMARK    1  A    between atoms: C2_2  and  C3_3 
REMARK    2  A    between atoms: C5_5  and  C6_6 
REMARK    3  A    between atoms: C6_6  and  C8_8 
ROOT
HETATM    1  C3  UNL     1      32.946  21.302   1.015  1.00  0.00     0.049 A 
HETATM    2  C4  UNL     1      33.094  19.961   0.686  1.00  0.00     0.062 A 
HETATM    3  C5  UNL     1      32.065  19.224   1.223  1.00  0.00     0.060 A 
HETATM    4  N1  UNL     1      31.303  20.151   1.877  1.00  0.00    -0.299 N 
ATOM      5  H1  UNL     1      30.449  19.941   2.393  1.00  0.00     0.187 HD
HETATM    6  N2  UNL     1      31.824  21.347   1.749  1.00  0.00    -0.300 N 
ATOM      7  H2  UNL     1      31.430  22.196   2.152  1.00  0.00     0.187 HD
ENDROOT
BRANCH   3   8
HETATM    8  C6  UNL     1      31.751  17.804   1.157  1.00  0.00    -0.007 C 
HETATM    9  C7  UNL     1      32.062  17.066   2.242  1.00  0.00     0.026 C 
BRANCH   8  10
HETATM   10  C8  UNL     1      31.148  17.144   0.014  1.00  0.00    -0.025 A 
HETATM   11  C9  UNL     1      31.830  16.994  -1.160  1.00  0.00     0.012 A 
HETATM   12  C10 UNL     1      31.237  16.330  -2.245  1.00  0.00     0.001 A 
HETATM   13  C11 UNL     1      29.969  15.818  -2.160  1.00  0.00     0.000 A 
HETATM   14  C12 UNL     1      29.272  15.958  -0.996  1.00  0.00     0.001 A 
HETATM   15  C13 UNL     1      29.868  16.621   0.081  1.00  0.00     0.012 A 
ENDBRANCH   8  10
ENDBRANCH   3   8
BRANCH   1  16
HETATM   16  C2  UNL     1      33.825  22.400   0.638  1.00  0.00     0.021 C 
HETATM   17  C1  UNL     1      34.691  22.262  -0.341  1.00  0.00     0.013 C 
ENDBRANCH   1  16
TORSDOF 3
ENDMDL
MODEL 3
REMARK VINA RESULT: -8.901523640      1.359      5.911
REMARK  3 active torsions:
REMARK  status: ('A' for Active; 'I' for Inactive)
REMARK    1  A    between atoms: C2_2  and  C3_3 
REMARK    2  A    between atoms: C5_5  and  C6_6 
REMARK    3  A    between atoms: C6_6  and  C8_8 
ROOT
HETATM    1  C3  UNL     1      31.830  18.597   1.417  1.00  0.00     0.049 A 
HETATM    2  C4  UNL     1      32.425  19.529   0.576  1.00  0.00     0.062 A 
HETATM    3  C5  UNL     1      32.335  20.788   1.123  1.00  0.00     0.060 A 
HETATM    4  N1  UNL     1      31.676  20.588   2.303  1.00  0.00    -0.299 N 
ATOM      5  H1  UNL     1      31.439  21.324   2.968  1.00  0.00     0.187 HD
HETATM    6  N2  UNL     1      31.390  19.318   2.460  1.00  0.00    -0.300 N 
ATOM      7  H2  UNL     1      30.900  18.931   3.265  1.00  0.00     0.187 HD
ENDROOT
BRANCH   3   8
HETATM    8  C6  UNL     1      32.808  22.084   0.656  1.00  0.00    -0.007 C 
HETATM    9  C7  UNL     1      32.024  23.146   0.926  1.00  0.00     0.026 C 
BRANCH   8  10
HETATM   10  C8  UNL     1      34.043  22.296  -0.076  1.00  0.00    -0.025 A 
HETATM   11  C9  UNL     1      34.116  23.204  -1.095  1.00  0.00     0.012 A 
HETATM   12  C10 UNL     1      35.327  23.413  -1.773  1.00  0.00     0.001 A 
HETATM   13  C11 UNL     1      36.460  22.719  -1.438  1.00  0.00     0.000 A 
HETATM   14  C12 UNL     1      36.406  21.808  -0.424  1.00  0.00     0.001 A 
HETATM   15  C13 UNL     1      35.197  21.604   0.248  1.00  0.00     0.012 A 
ENDBRANCH   8  10
ENDBRANCH   3   8
BRANCH   1  16
HETATM   16  C2  UNL     1      31.718  17.163   1.199  1.00  0.00     0.021 C 
HETATM   17  C1  UNL     1      31.189  16.691   0.091  1.00  0.00     0.013 C 
ENDBRANCH   1  16
TORSDOF 3
ENDMDL
MODEL 4
REMARK VINA RESULT: -8.864144294      1.680      5.605
REMARK  3 active torsions:
REMARK  status: ('A' for Active; 'I' for Inactive)
REMARK    1  A    between atoms: C2_2  and  C3_3 
REMARK    2  A    between atoms: C5_5  and  C6_6 
REMARK    3  A    between atoms: C6_6  and  C8_8 
ROOT
HETATM    1  C3  UNL     1      30.608  16.520  -1.228  1.00  0.00     0.049 A 
HETATM    2  C4  UNL     1      31.693  17.219  -0.713  1.00  0.00     0.062 A 
HETATM    3  C5  UNL     1      31.362  17.786   0.495  1.00  0.00     0.060 A 
HETATM    4  N1  UNL     1      30.063  17.412   0.690  1.00  0.00    -0.299 N 
ATOM      5  H1  UNL     1      29.501  17.665   1.502  1.00  0.00     0.187 HD
HETATM    6  N2  UNL     1      29.640  16.681  -0.313  1.00  0.00    -0.300 N 
ATOM      7  H2  UNL     1      28.702  16.289  -0.388  1.00  0.00     0.187 HD
ENDROOT
BRANCH   3   8
HETATM    8  C6  UNL     1      32.134  18.588   1.433  1.00  0.00    -0.007 C 
HETATM    9  C7  UNL     1      32.329  18.064   2.659  1.00  0.00     0.026 C 
BRANCH   8  10
HETATM   10  C8  UNL     1      32.687  19.898   1.139  1.00  0.00    -0.025 A 
HETATM   11  C9  UNL     1      33.954  20.038   0.646  1.00  0.00     0.012 A 
HETATM   12  C10 UNL     1      34.459  21.312   0.344  1.00  0.00     0.001 A 
HETATM   13  C11 UNL     1      33.706  22.441   0.533  1.00  0.00     0.000 A 
HETATM   14  C12 UNL     1      32.440  22.320   1.026  1.00  0.00     0.001 A 
HETATM   15  C13 UNL     1      31.941  21.049   1.325  1.00  0.00     0.012 A 
ENDBRANCH   8  10
ENDBRANCH   3   8
BRANCH   1  16
HETATM   16  C2  UNL     1      30.553  15.784  -2.482  1.00  0.00     0.021 C 
HETATM   17  C1  UNL     1      29.664  14.831  -2.663  1.00  0.00     0.013 C 
ENDBRANCH   1  16
TORSDOF 3
ENDMDL
MODEL 5
REMARK VINA RESULT: -8.793398182      1.641      5.508
REMARK  3 active torsions:
REMARK  status: ('A' for Active; 'I' for Inactive)
REMARK    1  A    between atoms: C2_2  and  C3_3 
REMARK    2  A    between atoms: C5_5  and  C6_6 
REMARK    3  A    between atoms: C6_6  and  C8_8 
ROOT
HETATM    1  C3  UNL     1      30.621  16.604  -1.153  1.00  0.00     0.049 A 
HETATM    2  C4  UNL     1      31.700  17.333  -0.670  1.00  0.00     0.062 A 
HETATM    3  C5  UNL     1      31.383  17.904   0.540  1.00  0.00     0.060 A 
HETATM    4  N1  UNL     1      30.098  17.501   0.768  1.00  0.00    -0.299 N 
ATOM      5  H1  UNL     1      29.548  17.750   1.590  1.00  0.00     0.187 HD
HETATM    6  N2  UNL     1      29.670  16.751  -0.219  1.00  0.00    -0.300 N 
ATOM      7  H2  UNL     1      28.740  16.335  -0.269  1.00  0.00     0.187 HD
ENDROOT
BRANCH   3   8
HETATM    8  C6  UNL     1      32.157  18.734   1.453  1.00  0.00    -0.007 C 
HETATM    9  C7  UNL     1      32.341  18.253   2.698  1.00  0.00     0.026 C 
BRANCH   8  10
HETATM   10  C8  UNL     1      32.721  20.028   1.114  1.00  0.00    -0.025 A 
HETATM   11  C9  UNL     1      32.019  21.183   1.317  1.00  0.00     0.012 A 
HETATM   12  C10 UNL     1      32.594  22.425   1.007  1.00  0.00     0.001 A 
HETATM   13  C11 UNL     1      33.862  22.516   0.496  1.00  0.00     0.000 A 
HETATM   14  C12 UNL     1      34.577  21.374   0.286  1.00  0.00     0.001 A 
HETATM   15  C13 UNL     1      34.000  20.139   0.596  1.00  0.00     0.012 A 
ENDBRANCH   8  10
ENDBRANCH   3   8
BRANCH   1  16
HETATM   16  C2  UNL     1      30.556  15.854  -2.399  1.00  0.00     0.021 C 
HETATM   17  C1  UNL     1      29.611  14.961  -2.596  1.00  0.00     0.013 C 
ENDBRANCH   1  16
TORSDOF 3
ENDMDL
