MODEL 1
REMARK VINA RESULT: -7.425153514      0.000      0.000
REMARK  17 active torsions:
REMARK  status: ('A' for Active; 'I' for Inactive)
REMARK    1  A    between atoms: C2_2  and  C22_35 
REMARK    2  A    between atoms: C3_3  and  C4_4 
REMARK    3  A    between atoms: C4_4  and  C5_5 
REMARK    4  A    between atoms: C6_6  and  O1_7 
REMARK    5  A    between atoms: O1_7  and  C7_8 
REMARK    6  A    between atoms: C8_9  and  O2_10 
REMARK    7  A    between atoms: C9_12  and  O3_13 
REMARK    8  A    between atoms: C10_15  and  O4_16 
REMARK    9  A    between atoms: C11_18  and  O5_19 
REMARK   10  A    between atoms: C12_21  and  O6_23 
REMARK   11  A    between atoms: C20_31  and  O7_33 
REMARK   12  A    between atoms: N1_37  and  O8_39 
REMARK   13  A    between atoms: O8_39  and  C24_40 
REMARK   14  A    between atoms: C24_40  and  C25_41 
REMARK   15  A    between atoms: C25_41  and  O9_42 
REMARK   16  A    between atoms: C25_41  and  C26_44 
REMARK   17  A    between atoms: C26_44  and  O10_45 
ROOT
HETATM    1  C5  UNL     1     -29.309   5.182 -29.414  1.00  0.00     0.053 C 
HETATM    2  C6  UNL     1     -30.781   5.444 -29.605  1.00  0.00     0.137 C 
HETATM    3  C14 UNL     1     -31.224   4.759 -30.881  1.00  0.00     0.044 C 
HETATM    4  C15 UNL     1     -32.350   5.392 -31.616  1.00  0.00     0.015 C 
HETATM    5  C16 UNL     1     -32.297   4.620 -32.934  1.00  0.00     0.028 C 
HETATM    6  C17 UNL     1     -30.820   4.543 -33.101  1.00  0.00    -0.023 C 
HETATM    7  C18 UNL     1     -30.194   4.626 -31.905  1.00  0.00    -0.074 C 
HETATM    8  C19 UNL     1     -28.741   4.578 -31.704  1.00  0.00     0.072 C 
HETATM    9  C20 UNL     1     -28.425   5.536 -30.551  1.00  0.00     0.064 C 
HETATM   10  C21 UNL     1     -26.973   5.154 -30.212  1.00  0.00     0.046 C 
ENDROOT
BRANCH   2  11
HETATM   11  O1  UNL     1     -31.244   6.698 -29.619  1.00  0.00    -0.374 OA
BRANCH  11  12
HETATM   12  C7  UNL     1     -31.925   7.295 -28.638  1.00  0.00     0.190 C 
HETATM   13  C8  UNL     1     -31.101   8.458 -28.129  1.00  0.00     0.181 C 
HETATM   14  C9  UNL     1     -31.839   9.775 -28.056  1.00  0.00     0.180 C 
HETATM   15  C10 UNL     1     -33.111   9.700 -27.284  1.00  0.00     0.181 C 
HETATM   16  C11 UNL     1     -33.698   8.346 -27.363  1.00  0.00     0.186 C 
HETATM   17  C12 UNL     1     -33.376   7.582 -28.667  1.00  0.00     0.111 C 
HETATM   18  C13 UNL     1     -34.027   8.283 -29.762  1.00  0.00     0.051 C 
BRANCH  13  19
HETATM   19  O2  UNL     1     -29.975   8.714 -28.931  1.00  0.00    -0.390 OA
ATOM     20  H2  UNL     1     -29.711   9.625 -28.909  1.00  0.00     0.210 HD
ENDBRANCH  13  19
BRANCH  14  21
HETATM   21  O3  UNL     1     -31.909  10.456 -29.256  1.00  0.00    -0.390 OA
ATOM     22  H3  UNL     1     -32.761  10.430 -29.672  1.00  0.00     0.210 HD
ENDBRANCH  14  21
BRANCH  15  23
HETATM   23  O4  UNL     1     -33.978  10.747 -27.628  1.00  0.00    -0.390 OA
ATOM     24  H4  UNL     1     -34.397  11.116 -26.859  1.00  0.00     0.210 HD
ENDBRANCH  15  23
BRANCH  16  25
HETATM   25  O5  UNL     1     -35.078   8.442 -27.207  1.00  0.00    -0.390 OA
ATOM     26  H5  UNL     1     -35.265   8.912 -26.403  1.00  0.00     0.210 HD
ENDBRANCH  16  25
BRANCH  17  27
HETATM   27  O6  UNL     1     -34.130   6.382 -28.449  1.00  0.00    -0.385 OA
ATOM     28  H6  UNL     1     -35.056   6.540 -28.590  1.00  0.00     0.210 HD
ENDBRANCH  17  27
ENDBRANCH  11  12
ENDBRANCH   2  11
BRANCH   1  29
HETATM   29  C4  UNL     1     -28.687   5.321 -28.101  1.00  0.00     0.037 C 
BRANCH  29  30
HETATM   30  C3  UNL     1     -29.617   4.979 -26.998  1.00  0.00    -0.018 C 
HETATM   31  C2  UNL     1     -29.994   5.654 -25.977  1.00  0.00    -0.042 C 
HETATM   32  C1  UNL     1     -29.527   7.025 -25.681  1.00  0.00     0.050 C 
BRANCH  31  33
HETATM   33  C22 UNL     1     -30.951   5.102 -24.987  1.00  0.00     0.034 C 
HETATM   34  C23 UNL     1     -31.395   5.944 -23.837  1.00  0.00     0.070 C 
HETATM   35  N1  UNL     1     -31.421   3.914 -25.077  1.00  0.00    -0.271 N 
ATOM     36  H1  UNL     1     -31.118   3.339 -25.862  1.00  0.00     0.194 HD
BRANCH  35  37
HETATM   37  O8  UNL     1     -32.297   3.374 -24.192  1.00  0.00    -0.278 OA
BRANCH  37  38
HETATM   38  C24 UNL     1     -32.063   2.073 -23.709  1.00  0.00     0.235 C 
BRANCH  38  39
HETATM   39  C25 UNL     1     -31.284   2.143 -22.408  1.00  0.00     0.167 C 
BRANCH  39  40
HETATM   40  O9  UNL     1     -30.164   2.934 -22.531  1.00  0.00    -0.391 OA
ATOM     41  H9  UNL     1     -29.788   3.141 -21.684  1.00  0.00     0.210 HD
ENDBRANCH  39  40
BRANCH  39  42
HETATM   42  C26 UNL     1     -30.924   0.733 -21.946  1.00  0.00     0.198 C 
BRANCH  42  43
HETATM   43  O10 UNL     1     -29.741   0.804 -21.224  1.00  0.00    -0.398 OA
ATOM     44  H10 UNL     1     -29.087   0.285 -21.677  1.00  0.00     0.209 HD
ENDBRANCH  42  43
ENDBRANCH  39  42
ENDBRANCH  38  39
ENDBRANCH  37  38
ENDBRANCH  35  37
ENDBRANCH  31  33
ENDBRANCH  29  30
ENDBRANCH   1  29
BRANCH   9  45
HETATM   45  O7  UNL     1     -28.395   6.834 -30.957  1.00  0.00    -0.389 OA
ATOM     46  H7  UNL     1     -27.598   7.157 -31.360  1.00  0.00     0.210 HD
ENDBRANCH   9  45
TORSDOF 17
ENDMDL
MODEL 2
REMARK VINA RESULT: -7.130417892      1.987      3.363
REMARK  17 active torsions:
REMARK  status: ('A' for Active; 'I' for Inactive)
REMARK    1  A    between atoms: C2_2  and  C22_35 
REMARK    2  A    between atoms: C3_3  and  C4_4 
REMARK    3  A    between atoms: C4_4  and  C5_5 
REMARK    4  A    between atoms: C6_6  and  O1_7 
REMARK    5  A    between atoms: O1_7  and  C7_8 
REMARK    6  A    between atoms: C8_9  and  O2_10 
REMARK    7  A    between atoms: C9_12  and  O3_13 
REMARK    8  A    between atoms: C10_15  and  O4_16 
REMARK    9  A    between atoms: C11_18  and  O5_19 
REMARK   10  A    between atoms: C12_21  and  O6_23 
REMARK   11  A    between atoms: C20_31  and  O7_33 
REMARK   12  A    between atoms: N1_37  and  O8_39 
REMARK   13  A    between atoms: O8_39  and  C24_40 
REMARK   14  A    between atoms: C24_40  and  C25_41 
REMARK   15  A    between atoms: C25_41  and  O9_42 
REMARK   16  A    between atoms: C25_41  and  C26_44 
REMARK   17  A    between atoms: C26_44  and  O10_45 
ROOT
HETATM    1  C5  UNL     1     -32.452   5.162 -30.558  1.00  0.00     0.053 C 
HETATM    2  C6  UNL     1     -33.425   5.739 -29.562  1.00  0.00     0.137 C 
HETATM    3  C14 UNL     1     -34.789   5.137 -29.826  1.00  0.00     0.044 C 
HETATM    4  C15 UNL     1     -35.963   5.986 -29.492  1.00  0.00     0.015 C 
HETATM    5  C16 UNL     1     -37.086   5.190 -30.155  1.00  0.00     0.028 C 
HETATM    6  C17 UNL     1     -36.380   4.784 -31.402  1.00  0.00    -0.023 C 
HETATM    7  C18 UNL     1     -35.042   4.755 -31.210  1.00  0.00    -0.074 C 
HETATM    8  C19 UNL     1     -34.049   4.391 -32.229  1.00  0.00     0.072 C 
HETATM    9  C20 UNL     1     -32.826   5.283 -31.988  1.00  0.00     0.064 C 
HETATM   10  C21 UNL     1     -31.759   4.598 -32.859  1.00  0.00     0.046 C 
ENDROOT
BRANCH   2  11
HETATM   11  O1  UNL     1     -33.564   7.063 -29.447  1.00  0.00    -0.374 OA
BRANCH  11  12
HETATM   12  C7  UNL     1     -32.756   7.883 -28.771  1.00  0.00     0.190 C 
HETATM   13  C8  UNL     1     -32.333   9.003 -29.698  1.00  0.00     0.181 C 
HETATM   14  C9  UNL     1     -32.527  10.394 -29.142  1.00  0.00     0.180 C 
HETATM   15  C10 UNL     1     -31.891  10.594 -27.810  1.00  0.00     0.181 C 
HETATM   16  C11 UNL     1     -31.838   9.325 -27.054  1.00  0.00     0.186 C 
HETATM   17  C12 UNL     1     -32.978   8.335 -27.381  1.00  0.00     0.111 C 
HETATM   18  C13 UNL     1     -34.224   8.931 -26.927  1.00  0.00     0.051 C 
BRANCH  13  19
HETATM   19  O2  UNL     1     -33.041   8.992 -30.913  1.00  0.00    -0.390 OA
ATOM     20  H2  UNL     1     -32.830   8.238 -31.450  1.00  0.00     0.210 HD
ENDBRANCH  13  19
BRANCH  14  21
HETATM   21  O3  UNL     1     -33.813  10.885 -29.269  1.00  0.00    -0.390 OA
ATOM     22  H3  UNL     1     -34.493  10.267 -29.030  1.00  0.00     0.210 HD
ENDBRANCH  14  21
BRANCH  15  23
HETATM   23  O4  UNL     1     -32.471  11.672 -27.125  1.00  0.00    -0.390 OA
ATOM     24  H4  UNL     1     -33.099  11.373 -26.478  1.00  0.00     0.210 HD
ENDBRANCH  15  23
BRANCH  16  25
HETATM   25  O5  UNL     1     -31.843   9.611 -25.691  1.00  0.00    -0.390 OA
ATOM     26  H5  UNL     1     -31.070   9.229 -25.293  1.00  0.00     0.210 HD
ENDBRANCH  16  25
BRANCH  17  27
HETATM   27  O6  UNL     1     -32.671   7.283 -26.456  1.00  0.00    -0.385 OA
ATOM     28  H6  UNL     1     -31.739   7.260 -26.276  1.00  0.00     0.210 HD
ENDBRANCH  17  27
ENDBRANCH  11  12
ENDBRANCH   2  11
BRANCH   1  29
HETATM   29  C4  UNL     1     -31.015   5.191 -30.307  1.00  0.00     0.037 C 
BRANCH  29  30
HETATM   30  C3  UNL     1     -30.684   4.898 -28.892  1.00  0.00    -0.018 C 
HETATM   31  C2  UNL     1     -30.028   5.574 -28.024  1.00  0.00    -0.042 C 
HETATM   32  C1  UNL     1     -29.422   6.893 -28.299  1.00  0.00     0.050 C 
BRANCH  31  33
HETATM   33  C22 UNL     1     -29.819   5.076 -26.642  1.00  0.00     0.034 C 
HETATM   34  C23 UNL     1     -28.762   4.057 -26.374  1.00  0.00     0.070 C 
HETATM   35  N1  UNL     1     -30.520   5.488 -25.652  1.00  0.00    -0.271 N 
ATOM     36  H1  UNL     1     -31.242   6.183 -25.834  1.00  0.00     0.194 HD
BRANCH  35  37
HETATM   37  O8  UNL     1     -30.359   5.056 -24.375  1.00  0.00    -0.278 OA
BRANCH  37  38
HETATM   38  C24 UNL     1     -31.500   4.753 -23.610  1.00  0.00     0.235 C 
BRANCH  38  39
HETATM   39  C25 UNL     1     -31.406   3.330 -23.090  1.00  0.00     0.167 C 
BRANCH  39  40
HETATM   40  O9  UNL     1     -30.140   3.043 -22.630  1.00  0.00    -0.391 OA
ATOM     41  H9  UNL     1     -29.508   3.026 -23.338  1.00  0.00     0.210 HD
ENDBRANCH  39  40
BRANCH  39  42
HETATM   42  C26 UNL     1     -31.839   2.353 -24.180  1.00  0.00     0.198 C 
BRANCH  42  43
HETATM   43  O10 UNL     1     -32.230   3.089 -25.289  1.00  0.00    -0.398 OA
ATOM     44  H10 UNL     1     -32.639   3.890 -24.983  1.00  0.00     0.209 HD
ENDBRANCH  42  43
ENDBRANCH  39  42
ENDBRANCH  38  39
ENDBRANCH  37  38
ENDBRANCH  35  37
ENDBRANCH  31  33
ENDBRANCH  29  30
ENDBRANCH   1  29
BRANCH   9  45
HETATM   45  O7  UNL     1     -32.995   6.532 -32.501  1.00  0.00    -0.389 OA
ATOM     46  H7  UNL     1     -33.874   6.803 -32.737  1.00  0.00     0.210 HD
ENDBRANCH   9  45
TORSDOF 17
ENDMDL
MODEL 3
REMARK VINA RESULT: -6.928387578      1.923      3.315
REMARK  17 active torsions:
REMARK  status: ('A' for Active; 'I' for Inactive)
REMARK    1  A    between atoms: C2_2  and  C22_35 
REMARK    2  A    between atoms: C3_3  and  C4_4 
REMARK    3  A    between atoms: C4_4  and  C5_5 
REMARK    4  A    between atoms: C6_6  and  O1_7 
REMARK    5  A    between atoms: O1_7  and  C7_8 
REMARK    6  A    between atoms: C8_9  and  O2_10 
REMARK    7  A    between atoms: C9_12  and  O3_13 
REMARK    8  A    between atoms: C10_15  and  O4_16 
REMARK    9  A    between atoms: C11_18  and  O5_19 
REMARK   10  A    between atoms: C12_21  and  O6_23 
REMARK   11  A    between atoms: C20_31  and  O7_33 
REMARK   12  A    between atoms: N1_37  and  O8_39 
REMARK   13  A    between atoms: O8_39  and  C24_40 
REMARK   14  A    between atoms: C24_40  and  C25_41 
REMARK   15  A    between atoms: C25_41  and  O9_42 
REMARK   16  A    between atoms: C25_41  and  C26_44 
REMARK   17  A    between atoms: C26_44  and  O10_45 
ROOT
HETATM    1  C5  UNL     1     -31.220   4.914 -32.689  1.00  0.00     0.053 C 
HETATM    2  C6  UNL     1     -32.488   5.201 -31.926  1.00  0.00     0.137 C 
HETATM    3  C14 UNL     1     -33.661   4.735 -32.762  1.00  0.00     0.044 C 
HETATM    4  C15 UNL     1     -34.937   5.479 -32.586  1.00  0.00     0.015 C 
HETATM    5  C16 UNL     1     -35.746   4.936 -33.763  1.00  0.00     0.028 C 
HETATM    6  C17 UNL     1     -34.666   4.891 -34.788  1.00  0.00    -0.023 C 
HETATM    7  C18 UNL     1     -33.452   4.776 -34.204  1.00  0.00    -0.074 C 
HETATM    8  C19 UNL     1     -32.172   4.699 -34.920  1.00  0.00     0.072 C 
HETATM    9  C20 UNL     1     -31.147   5.454 -34.068  1.00  0.00     0.064 C 
HETATM   10  C21 UNL     1     -29.819   5.025 -34.718  1.00  0.00     0.046 C 
ENDROOT
BRANCH   2  11
HETATM   11  O1  UNL     1     -32.747   6.438 -31.491  1.00  0.00    -0.374 OA
BRANCH  11  12
HETATM   12  C7  UNL     1     -32.372   6.954 -30.318  1.00  0.00     0.190 C 
HETATM   13  C8  UNL     1     -31.685   8.277 -30.579  1.00  0.00     0.181 C 
HETATM   14  C9  UNL     1     -32.207   9.435 -29.762  1.00  0.00     0.180 C 
HETATM   15  C10 UNL     1     -32.219   9.170 -28.297  1.00  0.00     0.181 C 
HETATM   16  C11 UNL     1     -32.393   7.728 -28.022  1.00  0.00     0.186 C 
HETATM   17  C12 UNL     1     -33.202   6.965 -29.095  1.00  0.00     0.111 C 
HETATM   18  C13 UNL     1     -34.565   7.468 -29.061  1.00  0.00     0.051 C 
BRANCH  13  19
HETATM   19  O2  UNL     1     -31.802   8.690 -31.918  1.00  0.00    -0.390 OA
ATOM     20  H2  UNL     1     -31.616   9.615 -32.031  1.00  0.00     0.210 HD
ENDBRANCH  13  19
BRANCH  14  21
HETATM   21  O3  UNL     1     -33.349  10.023 -30.271  1.00  0.00    -0.390 OA
ATOM     22  H3  UNL     1     -33.387  10.965 -30.164  1.00  0.00     0.210 HD
ENDBRANCH  14  21
BRANCH  15  23
HETATM   23  O4  UNL     1     -33.119  10.016 -27.633  1.00  0.00    -0.390 OA
ATOM     24  H4  UNL     1     -34.002   9.913 -27.968  1.00  0.00     0.210 HD
ENDBRANCH  15  23
BRANCH  16  25
HETATM   25  O5  UNL     1     -33.002   7.576 -26.780  1.00  0.00    -0.390 OA
ATOM     26  H5  UNL     1     -33.332   6.688 -26.705  1.00  0.00     0.210 HD
ENDBRANCH  16  25
BRANCH  17  27
HETATM   27  O6  UNL     1     -33.238   5.659 -28.500  1.00  0.00    -0.385 OA
ATOM     28  H6  UNL     1     -33.550   5.017 -29.127  1.00  0.00     0.210 HD
ENDBRANCH  17  27
ENDBRANCH  11  12
ENDBRANCH   2  11
BRANCH   1  29
HETATM   29  C4  UNL     1     -29.934   4.835 -32.003  1.00  0.00     0.037 C 
BRANCH  29  30
HETATM   30  C3  UNL     1     -30.083   4.782 -30.529  1.00  0.00    -0.018 C 
HETATM   31  C2  UNL     1     -29.306   5.175 -29.590  1.00  0.00    -0.042 C 
HETATM   32  C1  UNL     1     -27.993   5.812 -29.825  1.00  0.00     0.050 C 
BRANCH  31  33
HETATM   33  C22 UNL     1     -29.669   5.020 -28.160  1.00  0.00     0.034 C 
HETATM   34  C23 UNL     1     -28.710   5.455 -27.102  1.00  0.00     0.070 C 
HETATM   35  N1  UNL     1     -30.787   4.519 -27.788  1.00  0.00    -0.271 N 
ATOM     36  H1  UNL     1     -31.442   4.222 -28.510  1.00  0.00     0.194 HD
BRANCH  35  37
HETATM   37  O8  UNL     1     -31.154   4.361 -26.490  1.00  0.00    -0.278 OA
BRANCH  37  38
HETATM   38  C24 UNL     1     -30.929   3.120 -25.865  1.00  0.00     0.235 C 
BRANCH  38  39
HETATM   39  C25 UNL     1     -31.217   3.234 -24.380  1.00  0.00     0.167 C 
BRANCH  39  40
HETATM   40  O9  UNL     1     -32.405   2.621 -24.048  1.00  0.00    -0.391 OA
ATOM     41  H9  UNL     1     -32.711   2.895 -23.191  1.00  0.00     0.210 HD
ENDBRANCH  39  40
BRANCH  39  42
HETATM   42  C26 UNL     1     -31.211   4.703 -23.964  1.00  0.00     0.198 C 
BRANCH  42  43
HETATM   43  O10 UNL     1     -32.528   5.114 -23.810  1.00  0.00    -0.398 OA
ATOM     44  H10 UNL     1     -32.526   5.946 -23.353  1.00  0.00     0.209 HD
ENDBRANCH  42  43
ENDBRANCH  39  42
ENDBRANCH  38  39
ENDBRANCH  37  38
ENDBRANCH  35  37
ENDBRANCH  31  33
ENDBRANCH  29  30
ENDBRANCH   1  29
BRANCH   9  45
HETATM   45  O7  UNL     1     -31.235   6.801 -34.233  1.00  0.00    -0.389 OA
ATOM     46  H7  UNL     1     -30.894   7.176 -35.035  1.00  0.00     0.210 HD
ENDBRANCH   9  45
TORSDOF 17
ENDMDL
MODEL 4
REMARK VINA RESULT: -6.904138479      1.367      1.972
REMARK  17 active torsions:
REMARK  status: ('A' for Active; 'I' for Inactive)
REMARK    1  A    between atoms: C2_2  and  C22_35 
REMARK    2  A    between atoms: C3_3  and  C4_4 
REMARK    3  A    between atoms: C4_4  and  C5_5 
REMARK    4  A    between atoms: C6_6  and  O1_7 
REMARK    5  A    between atoms: O1_7  and  C7_8 
REMARK    6  A    between atoms: C8_9  and  O2_10 
REMARK    7  A    between atoms: C9_12  and  O3_13 
REMARK    8  A    between atoms: C10_15  and  O4_16 
REMARK    9  A    between atoms: C11_18  and  O5_19 
REMARK   10  A    between atoms: C12_21  and  O6_23 
REMARK   11  A    between atoms: C20_31  and  O7_33 
REMARK   12  A    between atoms: N1_37  and  O8_39 
REMARK   13  A    between atoms: O8_39  and  C24_40 
REMARK   14  A    between atoms: C24_40  and  C25_41 
REMARK   15  A    between atoms: C25_41  and  O9_42 
REMARK   16  A    between atoms: C25_41  and  C26_44 
REMARK   17  A    between atoms: C26_44  and  O10_45 
ROOT
HETATM    1  C5  UNL     1     -31.302   5.288 -29.664  1.00  0.00     0.053 C 
HETATM    2  C6  UNL     1     -32.595   5.967 -29.292  1.00  0.00     0.137 C 
HETATM    3  C14 UNL     1     -33.683   5.455 -30.211  1.00  0.00     0.044 C 
HETATM    4  C15 UNL     1     -34.795   6.395 -30.511  1.00  0.00     0.015 C 
HETATM    5  C16 UNL     1     -35.490   5.657 -31.654  1.00  0.00     0.028 C 
HETATM    6  C17 UNL     1     -34.287   5.159 -32.377  1.00  0.00    -0.023 C 
HETATM    7  C18 UNL     1     -33.234   5.042 -31.536  1.00  0.00    -0.074 C 
HETATM    8  C19 UNL     1     -31.895   4.573 -31.916  1.00  0.00     0.072 C 
HETATM    9  C20 UNL     1     -30.895   5.385 -31.086  1.00  0.00     0.064 C 
HETATM   10  C21 UNL     1     -29.591   4.596 -31.304  1.00  0.00     0.046 C 
ENDROOT
BRANCH   2  11
HETATM   11  O1  UNL     1     -32.668   7.301 -29.256  1.00  0.00    -0.374 OA
BRANCH  11  12
HETATM   12  C7  UNL     1     -32.258   8.085 -28.256  1.00  0.00     0.190 C 
HETATM   13  C8  UNL     1     -31.287   9.101 -28.817  1.00  0.00     0.181 C 
HETATM   14  C9  UNL     1     -31.592  10.536 -28.457  1.00  0.00     0.180 C 
HETATM   15  C10 UNL     1     -31.743  10.760 -26.992  1.00  0.00     0.181 C 
HETATM   16  C11 UNL     1     -32.241   9.542 -26.320  1.00  0.00     0.186 C 
HETATM   17  C12 UNL     1     -33.134   8.642 -27.203  1.00  0.00     0.111 C 
HETATM   18  C13 UNL     1     -34.356   9.376 -27.489  1.00  0.00     0.051 C 
BRANCH  13  19
HETATM   19  O2  UNL     1     -31.236   9.079 -30.222  1.00  0.00    -0.390 OA
ATOM     20  H2  UNL     1     -30.471   8.622 -30.551  1.00  0.00     0.210 HD
ENDBRANCH  13  19
BRANCH  14  21
HETATM   21  O3  UNL     1     -32.549  11.133 -29.255  1.00  0.00    -0.390 OA
ATOM     22  H3  UNL     1     -32.309  11.993 -29.577  1.00  0.00     0.210 HD
ENDBRANCH  14  21
BRANCH  15  23
HETATM   23  O4  UNL     1     -32.475  11.928 -26.729  1.00  0.00    -0.390 OA
ATOM     24  H4  UNL     1     -32.191  12.645 -27.283  1.00  0.00     0.210 HD
ENDBRANCH  15  23
BRANCH  16  25
HETATM   25  O5  UNL     1     -32.939   9.912 -25.173  1.00  0.00    -0.390 OA
ATOM     26  H5  UNL     1     -33.779   9.470 -25.168  1.00  0.00     0.210 HD
ENDBRANCH  16  25
BRANCH  17  27
HETATM   27  O6  UNL     1     -33.485   7.626 -26.252  1.00  0.00    -0.385 OA
ATOM     28  H6  UNL     1     -32.794   7.520 -25.609  1.00  0.00     0.210 HD
ENDBRANCH  17  27
ENDBRANCH  11  12
ENDBRANCH   2  11
BRANCH   1  29
HETATM   29  C4  UNL     1     -30.190   5.225 -28.722  1.00  0.00     0.037 C 
BRANCH  29  30
HETATM   30  C3  UNL     1     -30.643   5.002 -27.328  1.00  0.00    -0.018 C 
HETATM   31  C2  UNL     1     -30.415   5.661 -26.253  1.00  0.00    -0.042 C 
HETATM   32  C1  UNL     1     -29.577   6.877 -26.199  1.00  0.00     0.050 C 
BRANCH  31  33
HETATM   33  C22 UNL     1     -30.986   5.247 -24.948  1.00  0.00     0.034 C 
HETATM   34  C23 UNL     1     -30.954   6.192 -23.793  1.00  0.00     0.070 C 
HETATM   35  N1  UNL     1     -31.513   4.094 -24.766  1.00  0.00    -0.271 N 
ATOM     36  H1  UNL     1     -31.535   3.448 -25.554  1.00  0.00     0.194 HD
BRANCH  35  37
HETATM   37  O8  UNL     1     -32.045   3.679 -23.587  1.00  0.00    -0.278 OA
BRANCH  37  38
HETATM   38  C24 UNL     1     -31.982   2.314 -23.255  1.00  0.00     0.235 C 
BRANCH  38  39
HETATM   39  C25 UNL     1     -31.011   2.110 -22.106  1.00  0.00     0.167 C 
BRANCH  39  40
HETATM   40  O9  UNL     1     -29.836   2.798 -22.310  1.00  0.00    -0.391 OA
ATOM     41  H9  UNL     1     -29.290   2.371 -22.960  1.00  0.00     0.210 HD
ENDBRANCH  39  40
BRANCH  39  42
HETATM   42  C26 UNL     1     -30.758   0.618 -21.902  1.00  0.00     0.198 C 
BRANCH  42  43
HETATM   43  O10 UNL     1     -29.602   0.476 -21.147  1.00  0.00    -0.398 OA
ATOM     44  H10 UNL     1     -29.607  -0.391 -20.760  1.00  0.00     0.209 HD
ENDBRANCH  42  43
ENDBRANCH  39  42
ENDBRANCH  38  39
ENDBRANCH  37  38
ENDBRANCH  35  37
ENDBRANCH  31  33
ENDBRANCH  29  30
ENDBRANCH   1  29
BRANCH   9  45
HETATM   45  O7  UNL     1     -30.683   6.624 -31.607  1.00  0.00    -0.389 OA
ATOM     46  H7  UNL     1     -30.671   6.714 -32.553  1.00  0.00     0.210 HD
ENDBRANCH   9  45
TORSDOF 17
ENDMDL
MODEL 5
REMARK VINA RESULT: -6.856277803      1.546      2.145
REMARK  17 active torsions:
REMARK  status: ('A' for Active; 'I' for Inactive)
REMARK    1  A    between atoms: C2_2  and  C22_35 
REMARK    2  A    between atoms: C3_3  and  C4_4 
REMARK    3  A    between atoms: C4_4  and  C5_5 
REMARK    4  A    between atoms: C6_6  and  O1_7 
REMARK    5  A    between atoms: O1_7  and  C7_8 
REMARK    6  A    between atoms: C8_9  and  O2_10 
REMARK    7  A    between atoms: C9_12  and  O3_13 
REMARK    8  A    between atoms: C10_15  and  O4_16 
REMARK    9  A    between atoms: C11_18  and  O5_19 
REMARK   10  A    between atoms: C12_21  and  O6_23 
REMARK   11  A    between atoms: C20_31  and  O7_33 
REMARK   12  A    between atoms: N1_37  and  O8_39 
REMARK   13  A    between atoms: O8_39  and  C24_40 
REMARK   14  A    between atoms: C24_40  and  C25_41 
REMARK   15  A    between atoms: C25_41  and  O9_42 
REMARK   16  A    between atoms: C25_41  and  C26_44 
REMARK   17  A    between atoms: C26_44  and  O10_45 
ROOT
HETATM    1  C5  UNL     1     -30.796   5.560 -29.816  1.00  0.00     0.053 C 
HETATM    2  C6  UNL     1     -32.221   5.988 -29.578  1.00  0.00     0.137 C 
HETATM    3  C14 UNL     1     -33.132   5.052 -30.344  1.00  0.00     0.044 C 
HETATM    4  C15 UNL     1     -34.419   5.624 -30.822  1.00  0.00     0.015 C 
HETATM    5  C16 UNL     1     -34.888   4.515 -31.763  1.00  0.00     0.028 C 
HETATM    6  C17 UNL     1     -33.580   4.162 -32.380  1.00  0.00    -0.023 C 
HETATM    7  C18 UNL     1     -32.557   4.476 -31.553  1.00  0.00    -0.074 C 
HETATM    8  C19 UNL     1     -31.135   4.257 -31.846  1.00  0.00     0.072 C 
HETATM    9  C20 UNL     1     -30.374   5.437 -31.232  1.00  0.00     0.064 C 
HETATM   10  C21 UNL     1     -28.919   4.942 -31.294  1.00  0.00     0.046 C 
ENDROOT
BRANCH   2  11
HETATM   11  O1  UNL     1     -32.599   7.245 -29.834  1.00  0.00    -0.374 OA
BRANCH  11  12
HETATM   12  C7  UNL     1     -32.603   8.257 -28.964  1.00  0.00     0.190 C 
HETATM   13  C8  UNL     1     -31.919   9.442 -29.612  1.00  0.00     0.181 C 
HETATM   14  C9  UNL     1     -32.700  10.734 -29.556  1.00  0.00     0.180 C 
HETATM   15  C10 UNL     1     -33.130  11.108 -28.180  1.00  0.00     0.181 C 
HETATM   16  C11 UNL     1     -33.323   9.906 -27.342  1.00  0.00     0.186 C 
HETATM   17  C12 UNL     1     -33.754   8.644 -28.121  1.00  0.00     0.111 C 
HETATM   18  C13 UNL     1     -35.086   8.886 -28.653  1.00  0.00     0.051 C 
BRANCH  13  19
HETATM   19  O2  UNL     1     -31.655   9.232 -30.977  1.00  0.00    -0.390 OA
ATOM     20  H2  UNL     1     -31.381   8.341 -31.162  1.00  0.00     0.210 HD
ENDBRANCH  13  19
BRANCH  14  21
HETATM   21  O3  UNL     1     -33.664  10.860 -30.538  1.00  0.00    -0.390 OA
ATOM     22  H3  UNL     1     -33.574  10.246 -31.257  1.00  0.00     0.210 HD
ENDBRANCH  14  21
BRANCH  15  23
HETATM   23  O4  UNL     1     -34.215  11.996 -28.209  1.00  0.00    -0.390 OA
ATOM     24  H4  UNL     1     -33.995  12.825 -27.801  1.00  0.00     0.210 HD
ENDBRANCH  15  23
BRANCH  16  25
HETATM   25  O5  UNL     1     -34.263  10.191 -26.355  1.00  0.00    -0.390 OA
ATOM     26  H5  UNL     1     -34.011   9.748 -25.553  1.00  0.00     0.210 HD
ENDBRANCH  16  25
BRANCH  17  27
HETATM   27  O6  UNL     1     -33.914   7.720 -27.035  1.00  0.00    -0.385 OA
ATOM     28  H6  UNL     1     -34.790   7.781 -26.672  1.00  0.00     0.210 HD
ENDBRANCH  17  27
ENDBRANCH  11  12
ENDBRANCH   2  11
BRANCH   1  29
HETATM   29  C4  UNL     1     -29.730   5.961 -28.903  1.00  0.00     0.037 C 
BRANCH  29  30
HETATM   30  C3  UNL     1     -30.177   5.981 -27.489  1.00  0.00    -0.018 C 
HETATM   31  C2  UNL     1     -30.171   6.921 -26.618  1.00  0.00    -0.042 C 
HETATM   32  C1  UNL     1     -29.667   8.284 -26.886  1.00  0.00     0.050 C 
BRANCH  31  33
HETATM   33  C22 UNL     1     -30.679   6.710 -25.240  1.00  0.00     0.034 C 
HETATM   34  C23 UNL     1     -31.412   7.810 -24.546  1.00  0.00     0.070 C 
HETATM   35  N1  UNL     1     -30.513   5.608 -24.609  1.00  0.00    -0.271 N 
ATOM     36  H1  UNL     1     -30.012   4.857 -25.083  1.00  0.00     0.194 HD
BRANCH  35  37
HETATM   37  O8  UNL     1     -30.962   5.378 -23.349  1.00  0.00    -0.278 OA
BRANCH  37  38
HETATM   38  C24 UNL     1     -32.008   4.457 -23.156  1.00  0.00     0.235 C 
BRANCH  38  39
HETATM   39  C25 UNL     1     -31.443   3.053 -23.057  1.00  0.00     0.167 C 
BRANCH  39  40
HETATM   40  O9  UNL     1     -30.094   3.069 -22.782  1.00  0.00    -0.391 OA
ATOM     41  H9  UNL     1     -29.804   3.933 -22.511  1.00  0.00     0.210 HD
ENDBRANCH  39  40
BRANCH  39  42
HETATM   42  C26 UNL     1     -31.741   2.284 -24.342  1.00  0.00     0.198 C 
BRANCH  42  43
HETATM   43  O10 UNL     1     -32.156   3.195 -25.304  1.00  0.00    -0.398 OA
ATOM     44  H10 UNL     1     -31.407   3.415 -25.845  1.00  0.00     0.209 HD
ENDBRANCH  42  43
ENDBRANCH  39  42
ENDBRANCH  38  39
ENDBRANCH  37  38
ENDBRANCH  35  37
ENDBRANCH  31  33
ENDBRANCH  29  30
ENDBRANCH   1  29
BRANCH   9  45
HETATM   45  O7  UNL     1     -30.434   6.548 -32.015  1.00  0.00    -0.389 OA
ATOM     46  H7  UNL     1     -29.780   6.649 -32.697  1.00  0.00     0.210 HD
ENDBRANCH   9  45
TORSDOF 17
ENDMDL
