MODEL 1
REMARK VINA RESULT: -7.902636190      0.000      0.000
REMARK  17 active torsions:
REMARK  status: ('A' for Active; 'I' for Inactive)
REMARK    1  A    between atoms: C2_2  and  C4_4 
REMARK    2  A    between atoms: C6_6  and  C7_7 
REMARK    3  A    between atoms: C7_7  and  O1_8 
REMARK    4  A    between atoms: C7_7  and  C8_10 
REMARK    5  A    between atoms: C8_10  and  O2_12 
REMARK    6  A    between atoms: C10_15  and  O4_16 
REMARK    7  A    between atoms: C11_18  and  C12_19 
REMARK    8  A    between atoms: C12_19  and  C13_20 
REMARK    9  A    between atoms: C14_21  and  C15_22 
REMARK   10  A    between atoms: C14_21  and  C17_26 
REMARK   11  A    between atoms: C15_22  and  C16_23 
REMARK   12  A    between atoms: C16_23  and  O5_24 
REMARK   13  A    between atoms: C17_26  and  O6_27 
REMARK   14  A    between atoms: C17_26  and  C18_29 
REMARK   15  A    between atoms: C20_32  and  O8_33 
REMARK   16  A    between atoms: C21_35  and  O9_36 
REMARK   17  A    between atoms: C24_40  and  O10_42 
ROOT
HETATM    1  C13 UNL     1     -33.442   8.777 -23.942  1.00  0.00    -0.018 C 
HETATM    2  C14 UNL     1     -34.163   9.841 -23.694  1.00  0.00    -0.051 C 
ENDROOT
BRANCH   2   3
HETATM    3  C15 UNL     1     -34.067  11.016 -24.575  1.00  0.00     0.062 C 
BRANCH   3   4
HETATM    4  C16 UNL     1     -34.429  12.259 -23.770  1.00  0.00     0.168 C 
BRANCH   4   5
HETATM    5  O5  UNL     1     -33.707  13.374 -24.163  1.00  0.00    -0.401 OA
ATOM      6  H5  UNL     1     -33.974  14.162 -23.704  1.00  0.00     0.209 HD
ENDBRANCH   4   5
ENDBRANCH   3   4
ENDBRANCH   2   3
BRANCH   2   7
HETATM    7  C17 UNL     1     -35.061   9.807 -22.504  1.00  0.00     0.176 C 
BRANCH   7   8
HETATM    8  O6  UNL     1     -34.474   9.026 -21.532  1.00  0.00    -0.389 OA
ATOM      9  H6  UNL     1     -34.259   8.182 -21.910  1.00  0.00     0.210 HD
ENDBRANCH   7   8
BRANCH   7  10
HETATM   10  C18 UNL     1     -36.482   9.487 -22.779  1.00  0.00     0.164 C 
HETATM   11  O7  UNL     1     -36.726   8.967 -24.037  1.00  0.00    -0.379 OA
HETATM   12  C19 UNL     1     -37.929   8.296 -23.981  1.00  0.00     0.209 C 
HETATM   13  C20 UNL     1     -37.774   7.530 -22.662  1.00  0.00     0.114 C 
HETATM   14  C21 UNL     1     -39.073   7.011 -22.180  1.00  0.00     0.155 C 
HETATM   15  C26 UNL     1     -37.049   8.472 -21.786  1.00  0.00     0.090 C 
HETATM   16  C22 UNL     1     -39.829   7.923 -21.271  1.00  0.00     0.038 C 
HETATM   17  C23 UNL     1     -38.907   8.237 -20.108  1.00  0.00     0.040 C 
HETATM   18  C24 UNL     1     -37.765   9.060 -20.653  1.00  0.00     0.063 C 
HETATM   19  C25 UNL     1     -38.333  10.455 -20.904  1.00  0.00     0.046 C 
BRANCH  13  20
HETATM   20  O8  UNL     1     -36.978   6.406 -22.988  1.00  0.00    -0.384 OA
ATOM     21  H8  UNL     1     -37.207   6.201 -23.887  1.00  0.00     0.210 HD
ENDBRANCH  13  20
BRANCH  14  22
HETATM   22  O9  UNL     1     -39.905   6.677 -23.247  1.00  0.00    -0.392 OA
ATOM     23  H9  UNL     1     -40.403   7.431 -23.541  1.00  0.00     0.210 HD
ENDBRANCH  14  22
BRANCH  18  24
HETATM   24  O10 UNL     1     -36.878   9.227 -19.560  1.00  0.00    -0.390 OA
ATOM     25  H10 UNL     1     -36.797  10.168 -19.450  1.00  0.00     0.210 HD
ENDBRANCH  18  24
ENDBRANCH   7  10
ENDBRANCH   2   7
BRANCH   1  26
HETATM   26  C12 UNL     1     -32.482   8.506 -25.011  1.00  0.00     0.071 C 
BRANCH  26  27
HETATM   27  C11 UNL     1     -31.475   7.450 -24.714  1.00  0.00     0.121 C 
HETATM   28  C4  UNL     1     -30.252   7.433 -25.533  1.00  0.00     0.034 C 
HETATM   29  C5  UNL     1     -29.883   5.944 -25.622  1.00  0.00     0.080 C 
HETATM   30  C6  UNL     1     -30.868   5.420 -24.579  1.00  0.00     0.197 C 
HETATM   31  O3  UNL     1     -30.509   5.952 -23.372  1.00  0.00    -0.320 OA
HETATM   32  O11 UNL     1     -32.011   6.152 -24.986  1.00  0.00    -0.336 OA
HETATM   33  C10 UNL     1     -31.128   7.229 -23.281  1.00  0.00     0.295 C 
BRANCH  28  34
HETATM   34  C2  UNL     1     -30.241   8.095 -26.848  1.00  0.00    -0.015 C 
HETATM   35  C1  UNL     1     -29.752   7.307 -28.008  1.00  0.00     0.010 C 
HETATM   36  C3  UNL     1     -29.322   9.321 -26.727  1.00  0.00     0.010 C 
ENDBRANCH  28  34
BRANCH  30  37
HETATM   37  C7  UNL     1     -31.088   3.961 -24.620  1.00  0.00     0.209 C 
BRANCH  37  38
HETATM   38  O1  UNL     1     -30.105   3.342 -25.356  1.00  0.00    -0.388 OA
ATOM     39  H1  UNL     1     -30.271   2.408 -25.421  1.00  0.00     0.210 HD
ENDBRANCH  37  38
BRANCH  37  40
HETATM   40  C8  UNL     1     -31.285   3.359 -23.271  1.00  0.00     0.148 C 
HETATM   41  C9  UNL     1     -31.953   1.992 -23.427  1.00  0.00     0.042 C 
BRANCH  40  42
HETATM   42  O2  UNL     1     -30.039   3.136 -22.692  1.00  0.00    -0.393 OA
ATOM     43  H2  UNL     1     -29.920   3.745 -21.973  1.00  0.00     0.210 HD
ENDBRANCH  40  42
ENDBRANCH  37  40
ENDBRANCH  30  37
BRANCH  33  44
HETATM   44  O4  UNL     1     -32.247   6.977 -22.480  1.00  0.00    -0.368 OA
ATOM     45  H4  UNL     1     -32.897   7.576 -22.829  1.00  0.00     0.212 HD
ENDBRANCH  33  44
ENDBRANCH  26  27
ENDBRANCH   1  26
TORSDOF 17
ENDMDL
MODEL 2
REMARK VINA RESULT: -7.875701654      1.591      2.344
REMARK  17 active torsions:
REMARK  status: ('A' for Active; 'I' for Inactive)
REMARK    1  A    between atoms: C2_2  and  C4_4 
REMARK    2  A    between atoms: C6_6  and  C7_7 
REMARK    3  A    between atoms: C7_7  and  O1_8 
REMARK    4  A    between atoms: C7_7  and  C8_10 
REMARK    5  A    between atoms: C8_10  and  O2_12 
REMARK    6  A    between atoms: C10_15  and  O4_16 
REMARK    7  A    between atoms: C11_18  and  C12_19 
REMARK    8  A    between atoms: C12_19  and  C13_20 
REMARK    9  A    between atoms: C14_21  and  C15_22 
REMARK   10  A    between atoms: C14_21  and  C17_26 
REMARK   11  A    between atoms: C15_22  and  C16_23 
REMARK   12  A    between atoms: C16_23  and  O5_24 
REMARK   13  A    between atoms: C17_26  and  O6_27 
REMARK   14  A    between atoms: C17_26  and  C18_29 
REMARK   15  A    between atoms: C20_32  and  O8_33 
REMARK   16  A    between atoms: C21_35  and  O9_36 
REMARK   17  A    between atoms: C24_40  and  O10_42 
ROOT
HETATM    1  C13 UNL     1     -33.758   8.389 -23.655  1.00  0.00    -0.018 C 
HETATM    2  C14 UNL     1     -34.717   9.227 -23.351  1.00  0.00    -0.051 C 
ENDROOT
BRANCH   2   3
HETATM    3  C15 UNL     1     -34.763  10.554 -23.983  1.00  0.00     0.062 C 
BRANCH   3   4
HETATM    4  C16 UNL     1     -35.417  10.419 -25.353  1.00  0.00     0.168 C 
BRANCH   4   5
HETATM    5  O5  UNL     1     -36.799  10.366 -25.279  1.00  0.00    -0.401 OA
ATOM      6  H5  UNL     1     -37.187   9.920 -26.023  1.00  0.00     0.209 HD
ENDBRANCH   4   5
ENDBRANCH   3   4
ENDBRANCH   2   3
BRANCH   2   7
HETATM    7  C17 UNL     1     -35.734   8.781 -22.355  1.00  0.00     0.176 C 
BRANCH   7   8
HETATM    8  O6  UNL     1     -36.209   7.545 -22.735  1.00  0.00    -0.389 OA
ATOM      9  H6  UNL     1     -36.060   7.436 -23.666  1.00  0.00     0.210 HD
ENDBRANCH   7   8
BRANCH   7  10
HETATM   10  C18 UNL     1     -36.785   9.771 -22.020  1.00  0.00     0.164 C 
HETATM   11  O7  UNL     1     -38.034   9.490 -22.542  1.00  0.00    -0.379 OA
HETATM   12  C19 UNL     1     -38.961  10.179 -21.790  1.00  0.00     0.209 C 
HETATM   13  C20 UNL     1     -38.451   9.900 -20.371  1.00  0.00     0.114 C 
HETATM   14  C21 UNL     1     -39.055  10.823 -19.385  1.00  0.00     0.155 C 
HETATM   15  C26 UNL     1     -36.981   9.919 -20.511  1.00  0.00     0.090 C 
HETATM   16  C22 UNL     1     -38.294  12.085 -19.141  1.00  0.00     0.038 C 
HETATM   17  C23 UNL     1     -36.899  11.674 -18.712  1.00  0.00     0.040 C 
HETATM   18  C24 UNL     1     -36.238  11.025 -19.904  1.00  0.00     0.063 C 
HETATM   19  C25 UNL     1     -35.880  12.160 -20.858  1.00  0.00     0.046 C 
BRANCH  13  20
HETATM   20  O8  UNL     1     -38.926   8.603 -20.064  1.00  0.00    -0.384 OA
ATOM     21  H8  UNL     1     -38.144   8.094 -19.886  1.00  0.00     0.210 HD
ENDBRANCH  13  20
BRANCH  14  22
HETATM   22  O9  UNL     1     -40.355  11.166 -19.753  1.00  0.00    -0.392 OA
ATOM     23  H9  UNL     1     -40.456  12.109 -19.809  1.00  0.00     0.210 HD
ENDBRANCH  14  22
BRANCH  18  24
HETATM   24  O10 UNL     1     -34.990  10.556 -19.422  1.00  0.00    -0.390 OA
ATOM     25  H10 UNL     1     -34.841   9.736 -19.880  1.00  0.00     0.210 HD
ENDBRANCH  18  24
ENDBRANCH   7  10
ENDBRANCH   2   7
BRANCH   1  26
HETATM   26  C12 UNL     1     -32.632   8.528 -24.577  1.00  0.00     0.071 C 
BRANCH  26  27
HETATM   27  C11 UNL     1     -31.570   7.491 -24.450  1.00  0.00     0.121 C 
HETATM   28  C4  UNL     1     -30.441   7.562 -25.391  1.00  0.00     0.034 C 
HETATM   29  C5  UNL     1     -30.041   6.093 -25.606  1.00  0.00     0.080 C 
HETATM   30  C6  UNL     1     -30.895   5.479 -24.499  1.00  0.00     0.197 C 
HETATM   31  O3  UNL     1     -30.425   5.955 -23.307  1.00  0.00    -0.320 OA
HETATM   32  O11 UNL     1     -32.095   6.193 -24.740  1.00  0.00    -0.336 OA
HETATM   33  C10 UNL     1     -31.067   7.203 -23.076  1.00  0.00     0.295 C 
BRANCH  28  34
HETATM   34  C2  UNL     1     -30.587   8.295 -26.659  1.00  0.00    -0.015 C 
HETATM   35  C1  UNL     1     -30.545   7.507 -27.917  1.00  0.00     0.010 C 
HETATM   36  C3  UNL     1     -29.431   9.306 -26.731  1.00  0.00     0.010 C 
ENDBRANCH  28  34
BRANCH  30  37
HETATM   37  C7  UNL     1     -31.077   4.018 -24.602  1.00  0.00     0.209 C 
BRANCH  37  38
HETATM   38  O1  UNL     1     -30.054   3.451 -25.326  1.00  0.00    -0.388 OA
ATOM     39  H1  UNL     1     -29.304   3.278 -24.769  1.00  0.00     0.210 HD
ENDBRANCH  37  38
BRANCH  37  40
HETATM   40  C8  UNL     1     -31.305   3.360 -23.285  1.00  0.00     0.148 C 
HETATM   41  C9  UNL     1     -31.967   2.000 -23.513  1.00  0.00     0.042 C 
BRANCH  40  42
HETATM   42  O2  UNL     1     -30.073   3.114 -22.685  1.00  0.00    -0.393 OA
ATOM     43  H2  UNL     1     -29.591   3.930 -22.625  1.00  0.00     0.210 HD
ENDBRANCH  40  42
ENDBRANCH  37  40
ENDBRANCH  30  37
BRANCH  33  44
HETATM   44  O4  UNL     1     -32.087   6.869 -22.180  1.00  0.00    -0.368 OA
ATOM     45  H4  UNL     1     -32.488   7.710 -21.991  1.00  0.00     0.212 HD
ENDBRANCH  33  44
ENDBRANCH  26  27
ENDBRANCH   1  26
TORSDOF 17
ENDMDL
MODEL 3
REMARK VINA RESULT: -7.762680266      1.666      3.239
REMARK  17 active torsions:
REMARK  status: ('A' for Active; 'I' for Inactive)
REMARK    1  A    between atoms: C2_2  and  C4_4 
REMARK    2  A    between atoms: C6_6  and  C7_7 
REMARK    3  A    between atoms: C7_7  and  O1_8 
REMARK    4  A    between atoms: C7_7  and  C8_10 
REMARK    5  A    between atoms: C8_10  and  O2_12 
REMARK    6  A    between atoms: C10_15  and  O4_16 
REMARK    7  A    between atoms: C11_18  and  C12_19 
REMARK    8  A    between atoms: C12_19  and  C13_20 
REMARK    9  A    between atoms: C14_21  and  C15_22 
REMARK   10  A    between atoms: C14_21  and  C17_26 
REMARK   11  A    between atoms: C15_22  and  C16_23 
REMARK   12  A    between atoms: C16_23  and  O5_24 
REMARK   13  A    between atoms: C17_26  and  O6_27 
REMARK   14  A    between atoms: C17_26  and  C18_29 
REMARK   15  A    between atoms: C20_32  and  O8_33 
REMARK   16  A    between atoms: C21_35  and  O9_36 
REMARK   17  A    between atoms: C24_40  and  O10_42 
ROOT
HETATM    1  C13 UNL     1     -33.272   9.092 -23.514  1.00  0.00    -0.018 C 
HETATM    2  C14 UNL     1     -34.485   9.495 -23.233  1.00  0.00    -0.051 C 
ENDROOT
BRANCH   2   3
HETATM    3  C15 UNL     1     -35.544   9.409 -24.251  1.00  0.00     0.062 C 
BRANCH   3   4
HETATM    4  C16 UNL     1     -36.094   7.988 -24.263  1.00  0.00     0.168 C 
BRANCH   4   5
HETATM    5  O5  UNL     1     -36.191   7.445 -22.991  1.00  0.00    -0.401 OA
ATOM      6  H5  UNL     1     -36.495   8.076 -22.348  1.00  0.00     0.209 HD
ENDBRANCH   4   5
ENDBRANCH   3   4
ENDBRANCH   2   3
BRANCH   2   7
HETATM    7  C17 UNL     1     -34.736  10.034 -21.864  1.00  0.00     0.176 C 
BRANCH   7   8
HETATM    8  O6  UNL     1     -34.297   9.110 -20.941  1.00  0.00    -0.389 OA
ATOM      9  H6  UNL     1     -34.689   8.268 -21.144  1.00  0.00     0.210 HD
ENDBRANCH   7   8
BRANCH   7  10
HETATM   10  C18 UNL     1     -36.100  10.555 -21.617  1.00  0.00     0.164 C 
HETATM   11  O7  UNL     1     -37.011   9.612 -21.175  1.00  0.00    -0.379 OA
HETATM   12  C19 UNL     1     -38.037  10.289 -20.551  1.00  0.00     0.209 C 
HETATM   13  C20 UNL     1     -37.250  11.303 -19.712  1.00  0.00     0.114 C 
HETATM   14  C21 UNL     1     -38.121  12.394 -19.221  1.00  0.00     0.155 C 
HETATM   15  C26 UNL     1     -36.112  11.675 -20.576  1.00  0.00     0.090 C 
HETATM   16  C22 UNL     1     -38.216  13.586 -20.116  1.00  0.00     0.038 C 
HETATM   17  C23 UNL     1     -36.799  14.081 -20.330  1.00  0.00     0.040 C 
HETATM   18  C24 UNL     1     -36.075  13.028 -21.134  1.00  0.00     0.063 C 
HETATM   19  C25 UNL     1     -36.601  13.151 -22.561  1.00  0.00     0.046 C 
BRANCH  13  20
HETATM   20  O8  UNL     1     -36.823  10.576 -18.575  1.00  0.00    -0.384 OA
ATOM     21  H8  UNL     1     -37.197  11.041 -17.836  1.00  0.00     0.210 HD
ENDBRANCH  13  20
BRANCH  14  22
HETATM   22  O9  UNL     1     -39.413  11.931 -18.978  1.00  0.00    -0.392 OA
ATOM     23  H9  UNL     1     -39.515  11.667 -18.071  1.00  0.00     0.210 HD
ENDBRANCH  14  22
BRANCH  18  24
HETATM   24  O10 UNL     1     -34.733  13.479 -21.207  1.00  0.00    -0.390 OA
ATOM     25  H10 UNL     1     -34.588  13.954 -20.397  1.00  0.00     0.210 HD
ENDBRANCH  18  24
ENDBRANCH   7  10
ENDBRANCH   2   7
BRANCH   1  26
HETATM   26  C12 UNL     1     -32.719   8.527 -24.743  1.00  0.00     0.071 C 
BRANCH  26  27
HETATM   27  C11 UNL     1     -31.627   7.531 -24.555  1.00  0.00     0.121 C 
HETATM   28  C4  UNL     1     -30.454   7.638 -25.437  1.00  0.00     0.034 C 
HETATM   29  C5  UNL     1     -29.991   6.185 -25.621  1.00  0.00     0.080 C 
HETATM   30  C6  UNL     1     -30.878   5.544 -24.556  1.00  0.00     0.197 C 
HETATM   31  O3  UNL     1     -30.487   6.044 -23.344  1.00  0.00    -0.320 OA
HETATM   32  O11 UNL     1     -32.089   6.212 -24.862  1.00  0.00    -0.336 OA
HETATM   33  C10 UNL     1     -31.185   7.268 -23.155  1.00  0.00     0.295 C 
BRANCH  28  34
HETATM   34  C2  UNL     1     -30.563   8.360 -26.716  1.00  0.00    -0.015 C 
HETATM   35  C1  UNL     1     -30.390   7.574 -27.964  1.00  0.00     0.010 C 
HETATM   36  C3  UNL     1     -29.468   9.439 -26.718  1.00  0.00     0.010 C 
ENDBRANCH  28  34
BRANCH  30  37
HETATM   37  C7  UNL     1     -31.001   4.078 -24.658  1.00  0.00     0.209 C 
BRANCH  37  38
HETATM   38  O1  UNL     1     -29.918   3.544 -25.319  1.00  0.00    -0.388 OA
ATOM     39  H1  UNL     1     -29.204   3.377 -24.714  1.00  0.00     0.210 HD
ENDBRANCH  37  38
BRANCH  37  40
HETATM   40  C8  UNL     1     -31.280   3.419 -23.351  1.00  0.00     0.148 C 
HETATM   41  C9  UNL     1     -31.934   2.060 -23.606  1.00  0.00     0.042 C 
BRANCH  40  42
HETATM   42  O2  UNL     1     -30.072   3.171 -22.705  1.00  0.00    -0.393 OA
ATOM     43  H2  UNL     1     -30.082   2.285 -22.363  1.00  0.00     0.210 HD
ENDBRANCH  40  42
ENDBRANCH  37  40
ENDBRANCH  30  37
BRANCH  33  44
HETATM   44  O4  UNL     1     -32.237   6.901 -22.309  1.00  0.00    -0.368 OA
ATOM     45  H4  UNL     1     -32.791   7.673 -22.311  1.00  0.00     0.212 HD
ENDBRANCH  33  44
ENDBRANCH  26  27
ENDBRANCH   1  26
TORSDOF 17
ENDMDL
MODEL 4
REMARK VINA RESULT: -7.604975270      1.374      2.690
REMARK  17 active torsions:
REMARK  status: ('A' for Active; 'I' for Inactive)
REMARK    1  A    between atoms: C2_2  and  C4_4 
REMARK    2  A    between atoms: C6_6  and  C7_7 
REMARK    3  A    between atoms: C7_7  and  O1_8 
REMARK    4  A    between atoms: C7_7  and  C8_10 
REMARK    5  A    between atoms: C8_10  and  O2_12 
REMARK    6  A    between atoms: C10_15  and  O4_16 
REMARK    7  A    between atoms: C11_18  and  C12_19 
REMARK    8  A    between atoms: C12_19  and  C13_20 
REMARK    9  A    between atoms: C14_21  and  C15_22 
REMARK   10  A    between atoms: C14_21  and  C17_26 
REMARK   11  A    between atoms: C15_22  and  C16_23 
REMARK   12  A    between atoms: C16_23  and  O5_24 
REMARK   13  A    between atoms: C17_26  and  O6_27 
REMARK   14  A    between atoms: C17_26  and  C18_29 
REMARK   15  A    between atoms: C20_32  and  O8_33 
REMARK   16  A    between atoms: C21_35  and  O9_36 
REMARK   17  A    between atoms: C24_40  and  O10_42 
ROOT
HETATM    1  C13 UNL     1     -33.754   8.291 -24.103  1.00  0.00    -0.018 C 
HETATM    2  C14 UNL     1     -34.589   9.165 -23.601  1.00  0.00    -0.051 C 
ENDROOT
BRANCH   2   3
HETATM    3  C15 UNL     1     -34.293  10.603 -23.695  1.00  0.00     0.062 C 
BRANCH   3   4
HETATM    4  C16 UNL     1     -35.068  11.185 -24.871  1.00  0.00     0.168 C 
BRANCH   4   5
HETATM    5  O5  UNL     1     -36.265  11.766 -24.482  1.00  0.00    -0.401 OA
ATOM      6  H5  UNL     1     -36.766  12.096 -25.219  1.00  0.00     0.209 HD
ENDBRANCH   4   5
ENDBRANCH   3   4
ENDBRANCH   2   3
BRANCH   2   7
HETATM    7  C17 UNL     1     -35.823   8.645 -22.944  1.00  0.00     0.176 C 
BRANCH   7   8
HETATM    8  O6  UNL     1     -36.878   8.785 -23.818  1.00  0.00    -0.389 OA
ATOM      9  H6  UNL     1     -37.096   7.929 -24.170  1.00  0.00     0.210 HD
ENDBRANCH   7   8
BRANCH   7  10
HETATM   10  C18 UNL     1     -36.084   9.147 -21.575  1.00  0.00     0.164 C 
HETATM   11  O7  UNL     1     -34.988   9.709 -20.944  1.00  0.00    -0.379 OA
HETATM   12  C19 UNL     1     -35.462  10.527 -19.942  1.00  0.00     0.209 C 
HETATM   13  C20 UNL     1     -36.600  11.252 -20.671  1.00  0.00     0.114 C 
HETATM   14  C21 UNL     1     -37.510  11.928 -19.720  1.00  0.00     0.155 C 
HETATM   15  C26 UNL     1     -37.178  10.215 -21.549  1.00  0.00     0.090 C 
HETATM   16  C22 UNL     1     -38.668  11.109 -19.252  1.00  0.00     0.038 C 
HETATM   17  C23 UNL     1     -39.416  10.666 -20.495  1.00  0.00     0.040 C 
HETATM   18  C24 UNL     1     -38.517   9.710 -21.240  1.00  0.00     0.063 C 
HETATM   19  C25 UNL     1     -38.546   8.403 -20.453  1.00  0.00     0.046 C 
BRANCH  13  20
HETATM   20  O8  UNL     1     -35.960  12.268 -21.419  1.00  0.00    -0.384 OA
ATOM     21  H8  UNL     1     -35.881  11.910 -22.295  1.00  0.00     0.210 HD
ENDBRANCH  13  20
BRANCH  14  22
HETATM   22  O9  UNL     1     -36.817  12.378 -18.598  1.00  0.00    -0.392 OA
ATOM     23  H9  UNL     1     -37.399  12.825 -17.994  1.00  0.00     0.210 HD
ENDBRANCH  14  22
BRANCH  18  24
HETATM   24  O10 UNL     1     -39.207   9.418 -22.444  1.00  0.00    -0.390 OA
ATOM     25  H10 UNL     1     -40.125   9.562 -22.243  1.00  0.00     0.210 HD
ENDBRANCH  18  24
ENDBRANCH   7  10
ENDBRANCH   2   7
BRANCH   1  26
HETATM   26  C12 UNL     1     -32.481   8.481 -24.796  1.00  0.00     0.071 C 
BRANCH  26  27
HETATM   27  C11 UNL     1     -31.471   7.406 -24.585  1.00  0.00     0.121 C 
HETATM   28  C4  UNL     1     -30.295   7.400 -25.470  1.00  0.00     0.034 C 
HETATM   29  C5  UNL     1     -29.949   5.911 -25.620  1.00  0.00     0.080 C 
HETATM   30  C6  UNL     1     -30.881   5.367 -24.539  1.00  0.00     0.197 C 
HETATM   31  O3  UNL     1     -30.449   5.862 -23.340  1.00  0.00    -0.320 OA
HETATM   32  O11 UNL     1     -32.036   6.122 -24.861  1.00  0.00    -0.336 OA
HETATM   33  C10 UNL     1     -31.048   7.142 -23.179  1.00  0.00     0.295 C 
BRANCH  28  34
HETATM   34  C2  UNL     1     -30.349   8.098 -26.765  1.00  0.00    -0.015 C 
HETATM   35  C1  UNL     1     -29.958   7.331 -27.975  1.00  0.00     0.010 C 
HETATM   36  C3  UNL     1     -29.389   9.295 -26.671  1.00  0.00     0.010 C 
ENDBRANCH  28  34
BRANCH  30  37
HETATM   37  C7  UNL     1     -31.119   3.913 -24.608  1.00  0.00     0.209 C 
BRANCH  37  38
HETATM   38  O1  UNL     1     -30.143   3.295 -25.356  1.00  0.00    -0.388 OA
ATOM     39  H1  UNL     1     -30.091   3.679 -26.223  1.00  0.00     0.210 HD
ENDBRANCH  37  38
BRANCH  37  40
HETATM   40  C8  UNL     1     -31.324   3.288 -23.271  1.00  0.00     0.148 C 
HETATM   41  C9  UNL     1     -31.954   1.906 -23.456  1.00  0.00     0.042 C 
BRANCH  40  42
HETATM   42  O2  UNL     1     -30.083   3.089 -22.672  1.00  0.00    -0.393 OA
ATOM     43  H2  UNL     1     -30.180   3.164 -21.730  1.00  0.00     0.210 HD
ENDBRANCH  40  42
ENDBRANCH  37  40
ENDBRANCH  30  37
BRANCH  33  44
HETATM   44  O4  UNL     1     -32.124   6.879 -22.325  1.00  0.00    -0.368 OA
ATOM     45  H4  UNL     1     -32.520   7.735 -22.212  1.00  0.00     0.212 HD
ENDBRANCH  33  44
ENDBRANCH  26  27
ENDBRANCH   1  26
TORSDOF 17
ENDMDL
MODEL 5
REMARK VINA RESULT: -7.526617927      1.553      2.491
REMARK  17 active torsions:
REMARK  status: ('A' for Active; 'I' for Inactive)
REMARK    1  A    between atoms: C2_2  and  C4_4 
REMARK    2  A    between atoms: C6_6  and  C7_7 
REMARK    3  A    between atoms: C7_7  and  O1_8 
REMARK    4  A    between atoms: C7_7  and  C8_10 
REMARK    5  A    between atoms: C8_10  and  O2_12 
REMARK    6  A    between atoms: C10_15  and  O4_16 
REMARK    7  A    between atoms: C11_18  and  C12_19 
REMARK    8  A    between atoms: C12_19  and  C13_20 
REMARK    9  A    between atoms: C14_21  and  C15_22 
REMARK   10  A    between atoms: C14_21  and  C17_26 
REMARK   11  A    between atoms: C15_22  and  C16_23 
REMARK   12  A    between atoms: C16_23  and  O5_24 
REMARK   13  A    between atoms: C17_26  and  O6_27 
REMARK   14  A    between atoms: C17_26  and  C18_29 
REMARK   15  A    between atoms: C20_32  and  O8_33 
REMARK   16  A    between atoms: C21_35  and  O9_36 
REMARK   17  A    between atoms: C24_40  and  O10_42 
ROOT
HETATM    1  C13 UNL     1     -33.817   8.221 -24.488  1.00  0.00    -0.018 C 
HETATM    2  C14 UNL     1     -34.954   8.579 -25.029  1.00  0.00    -0.051 C 
ENDROOT
BRANCH   2   3
HETATM    3  C15 UNL     1     -34.962   9.435 -26.226  1.00  0.00     0.062 C 
BRANCH   3   4
HETATM    4  C16 UNL     1     -34.598   8.584 -27.436  1.00  0.00     0.168 C 
BRANCH   4   5
HETATM    5  O5  UNL     1     -35.660   7.815 -27.884  1.00  0.00    -0.401 OA
ATOM      6  H5  UNL     1     -36.209   7.504 -27.173  1.00  0.00     0.209 HD
ENDBRANCH   4   5
ENDBRANCH   3   4
ENDBRANCH   2   3
BRANCH   2   7
HETATM    7  C17 UNL     1     -36.209   8.092 -24.388  1.00  0.00     0.176 C 
BRANCH   7   8
HETATM    8  O6  UNL     1     -37.027   7.566 -25.364  1.00  0.00    -0.389 OA
ATOM      9  H6  UNL     1     -37.752   8.162 -25.506  1.00  0.00     0.210 HD
ENDBRANCH   7   8
BRANCH   7  10
HETATM   10  C18 UNL     1     -36.877   9.046 -23.471  1.00  0.00     0.164 C 
HETATM   11  O7  UNL     1     -38.252   9.112 -23.603  1.00  0.00    -0.379 OA
HETATM   12  C19 UNL     1     -38.755   9.633 -22.431  1.00  0.00     0.209 C 
HETATM   13  C20 UNL     1     -37.947   8.847 -21.391  1.00  0.00     0.114 C 
HETATM   14  C21 UNL     1     -38.032   9.470 -20.052  1.00  0.00     0.155 C 
HETATM   15  C26 UNL     1     -36.609   8.721 -22.002  1.00  0.00     0.090 C 
HETATM   16  C22 UNL     1     -36.971  10.476 -19.747  1.00  0.00     0.038 C 
HETATM   17  C23 UNL     1     -35.641   9.772 -19.932  1.00  0.00     0.040 C 
HETATM   18  C24 UNL     1     -35.499   9.465 -21.403  1.00  0.00     0.063 C 
HETATM   19  C25 UNL     1     -35.175  10.793 -22.082  1.00  0.00     0.046 C 
BRANCH  13  20
HETATM   20  O8  UNL     1     -38.597   7.592 -21.302  1.00  0.00    -0.384 OA
ATOM     21  H8  UNL     1     -38.363   7.141 -22.105  1.00  0.00     0.210 HD
ENDBRANCH  13  20
BRANCH  14  22
HETATM   22  O9  UNL     1     -39.272  10.078 -19.861  1.00  0.00    -0.392 OA
ATOM     23  H9  UNL     1     -39.977   9.517 -20.163  1.00  0.00     0.210 HD
ENDBRANCH  14  22
BRANCH  18  24
HETATM   24  O10 UNL     1     -34.304   8.709 -21.508  1.00  0.00    -0.390 OA
ATOM     25  H10 UNL     1     -33.817   9.114 -22.217  1.00  0.00     0.210 HD
ENDBRANCH  18  24
ENDBRANCH   7  10
ENDBRANCH   2   7
BRANCH   1  26
HETATM   26  C12 UNL     1     -32.442   8.530 -24.874  1.00  0.00     0.071 C 
BRANCH  26  27
HETATM   27  C11 UNL     1     -31.453   7.440 -24.645  1.00  0.00     0.121 C 
HETATM   28  C4  UNL     1     -30.269   7.406 -25.520  1.00  0.00     0.034 C 
HETATM   29  C5  UNL     1     -29.948   5.910 -25.655  1.00  0.00     0.080 C 
HETATM   30  C6  UNL     1     -30.899   5.392 -24.578  1.00  0.00     0.197 C 
HETATM   31  O3  UNL     1     -30.469   5.889 -23.379  1.00  0.00    -0.320 OA
HETATM   32  O11 UNL     1     -32.038   6.163 -24.917  1.00  0.00    -0.336 OA
HETATM   33  C10 UNL     1     -31.047   7.179 -23.234  1.00  0.00     0.295 C 
BRANCH  28  34
HETATM   34  C2  UNL     1     -30.299   8.095 -26.821  1.00  0.00    -0.015 C 
HETATM   35  C1  UNL     1     -29.832   7.336 -28.009  1.00  0.00     0.010 C 
HETATM   36  C3  UNL     1     -29.391   9.328 -26.698  1.00  0.00     0.010 C 
ENDBRANCH  28  34
BRANCH  30  37
HETATM   37  C7  UNL     1     -31.162   3.941 -24.637  1.00  0.00     0.209 C 
BRANCH  37  38
HETATM   38  O1  UNL     1     -30.205   3.303 -25.393  1.00  0.00    -0.388 OA
ATOM     39  H1  UNL     1     -30.524   3.142 -26.273  1.00  0.00     0.210 HD
ENDBRANCH  37  38
BRANCH  37  40
HETATM   40  C8  UNL     1     -31.362   3.326 -23.295  1.00  0.00     0.148 C 
HETATM   41  C9  UNL     1     -31.996   1.944 -23.468  1.00  0.00     0.042 C 
BRANCH  40  42
HETATM   42  O2  UNL     1     -30.119   3.128 -22.700  1.00  0.00    -0.393 OA
ATOM     43  H2  UNL     1     -29.725   3.973 -22.521  1.00  0.00     0.210 HD
ENDBRANCH  40  42
ENDBRANCH  37  40
ENDBRANCH  30  37
BRANCH  33  44
HETATM   44  O4  UNL     1     -32.135   6.942 -22.388  1.00  0.00    -0.368 OA
ATOM     45  H4  UNL     1     -31.724   6.838 -21.537  1.00  0.00     0.212 HD
ENDBRANCH  33  44
ENDBRANCH  26  27
ENDBRANCH   1  26
TORSDOF 17
ENDMDL
