MODEL 1
REMARK VINA RESULT: -6.237562206      0.000      0.000
REMARK  15 active torsions:
REMARK  status: ('A' for Active; 'I' for Inactive)
REMARK    1  A    between atoms: C2_2  and  O1_3 
REMARK    2  A    between atoms: C2_2  and  C3_5 
REMARK    3  A    between atoms: C4_6  and  O2_7 
REMARK    4  A    between atoms: O2_7  and  C5_8 
REMARK    5  A    between atoms: C8_11  and  O3_12 
REMARK    6  A    between atoms: C9_14  and  C10_15 
REMARK    7  A    between atoms: C10_15  and  O4_16 
REMARK    8  A    between atoms: O4_16  and  C11_17 
REMARK    9  A    between atoms: C12_19  and  C13_20 
REMARK   10  A    between atoms: C13_20  and  O6_21 
REMARK   11  A    between atoms: C17_26  and  O7_27 
REMARK   12  A    between atoms: C18_29  and  O8_30 
REMARK   13  A    between atoms: C20_33  and  C21_34 
REMARK   14  A    between atoms: C21_34  and  O9_35 
REMARK   15  A    between atoms: C25_40  and  O10_42 
ROOT
HETATM    1  C5  UNL     1     -35.189   9.819 -24.454  1.00  0.00     0.062 C 
HETATM    2  C6  UNL     1     -34.999  11.274 -24.918  1.00  0.00     0.046 C 
HETATM    3  C7  UNL     1     -34.822   8.968 -25.658  1.00  0.00     0.070 C 
HETATM    4  C8  UNL     1     -33.378   8.869 -25.953  1.00  0.00     0.129 C 
HETATM    5  C9  UNL     1     -32.458   8.982 -24.749  1.00  0.00     0.067 C 
HETATM    6  C18 UNL     1     -33.266   8.501 -23.554  1.00  0.00     0.129 C 
HETATM    7  C19 UNL     1     -34.274   9.625 -23.297  1.00  0.00     0.070 C 
ENDROOT
BRANCH   1   8
HETATM    8  O2  UNL     1     -36.527   9.551 -24.227  1.00  0.00    -0.374 OA
BRANCH   8   9
HETATM    9  C4  UNL     1     -37.034   9.950 -23.011  1.00  0.00     0.138 C 
HETATM   10  C3  UNL     1     -37.828  11.205 -23.062  1.00  0.00     0.078 C 
HETATM   11  C25 UNL     1     -38.373  11.463 -21.672  1.00  0.00     0.066 C 
HETATM   12  C23 UNL     1     -39.229  10.377 -21.149  1.00  0.00     0.017 C 
HETATM   13  C26 UNL     1     -37.183  11.646 -20.752  1.00  0.00     0.047 C 
HETATM   14  C22 UNL     1     -38.892   8.999 -21.553  1.00  0.00     0.016 C 
HETATM   15  C24 UNL     1     -39.298  10.550 -19.623  1.00  0.00     0.013 C 
HETATM   16  C20 UNL     1     -37.600   8.801 -22.275  1.00  0.00     0.039 C 
BRANCH  10  17
HETATM   17  C2  UNL     1     -38.865  11.404 -24.069  1.00  0.00     0.123 C 
HETATM   18  C1  UNL     1     -38.639  12.496 -25.072  1.00  0.00     0.040 C 
BRANCH  17  19
HETATM   19  O1  UNL     1     -39.346  10.287 -24.738  1.00  0.00    -0.395 OA
ATOM     20  H1  UNL     1     -38.805   9.541 -24.503  1.00  0.00     0.210 HD
ENDBRANCH  17  19
ENDBRANCH  10  17
BRANCH  11  21
HETATM   21  O10 UNL     1     -39.113  12.658 -21.650  1.00  0.00    -0.389 OA
ATOM     22  H10 UNL     1     -40.006  12.488 -21.377  1.00  0.00     0.210 HD
ENDBRANCH  11  21
BRANCH  16  23
HETATM   23  C21 UNL     1     -37.755   7.542 -23.130  1.00  0.00     0.171 C 
BRANCH  23  24
HETATM   24  O9  UNL     1     -36.666   6.714 -23.118  1.00  0.00    -0.400 OA
ATOM     25  H9  UNL     1     -36.679   6.058 -22.430  1.00  0.00     0.209 HD
ENDBRANCH  23  24
ENDBRANCH  16  23
ENDBRANCH   8   9
ENDBRANCH   1   8
BRANCH   4  26
HETATM   26  O3  UNL     1     -33.120   7.607 -26.517  1.00  0.00    -0.395 OA
ATOM     27  H3  UNL     1     -33.662   6.962 -26.076  1.00  0.00     0.210 HD
ENDBRANCH   4  26
BRANCH   6  28
HETATM   28  O8  UNL     1     -33.898   7.286 -23.798  1.00  0.00    -0.395 OA
ATOM     29  H8  UNL     1     -34.139   6.837 -22.997  1.00  0.00     0.210 HD
ENDBRANCH   6  28
BRANCH   5  30
HETATM   30  C10 UNL     1     -31.257   8.113 -24.871  1.00  0.00     0.180 C 
BRANCH  30  31
HETATM   31  O4  UNL     1     -31.192   7.186 -23.861  1.00  0.00    -0.358 OA
BRANCH  31  32
HETATM   32  C11 UNL     1     -30.752   5.931 -24.225  1.00  0.00     0.289 C 
HETATM   33  O5  UNL     1     -31.214   5.632 -25.551  1.00  0.00    -0.351 OA
HETATM   34  C12 UNL     1     -30.532   4.506 -25.972  1.00  0.00     0.148 C 
HETATM   35  C14 UNL     1     -30.886   3.285 -25.149  1.00  0.00     0.041 C 
HETATM   36  C15 UNL     1     -30.787   3.536 -23.679  1.00  0.00     0.018 C 
HETATM   37  C16 UNL     1     -31.568   2.490 -22.933  1.00  0.00     0.012 C 
HETATM   38  C17 UNL     1     -31.401   4.888 -23.360  1.00  0.00     0.177 C 
BRANCH  34  39
HETATM   39  C13 UNL     1     -30.937   4.212 -27.409  1.00  0.00     0.196 C 
BRANCH  39  40
HETATM   40  O6  UNL     1     -31.721   5.264 -27.888  1.00  0.00    -0.398 OA
ATOM     41  H6  UNL     1     -32.242   4.955 -28.619  1.00  0.00     0.209 HD
ENDBRANCH  39  40
ENDBRANCH  34  39
BRANCH  38  42
HETATM   42  O7  UNL     1     -32.750   4.825 -23.763  1.00  0.00    -0.390 OA
ATOM     43  H7  UNL     1     -32.935   3.909 -23.931  1.00  0.00     0.210 HD
ENDBRANCH  38  42
ENDBRANCH  31  32
ENDBRANCH  30  31
ENDBRANCH   5  30
TORSDOF 15
ENDMDL
MODEL 2
REMARK VINA RESULT: -6.059915807      4.320      8.421
REMARK  15 active torsions:
REMARK  status: ('A' for Active; 'I' for Inactive)
REMARK    1  A    between atoms: C2_2  and  O1_3 
REMARK    2  A    between atoms: C2_2  and  C3_5 
REMARK    3  A    between atoms: C4_6  and  O2_7 
REMARK    4  A    between atoms: O2_7  and  C5_8 
REMARK    5  A    between atoms: C8_11  and  O3_12 
REMARK    6  A    between atoms: C9_14  and  C10_15 
REMARK    7  A    between atoms: C10_15  and  O4_16 
REMARK    8  A    between atoms: O4_16  and  C11_17 
REMARK    9  A    between atoms: C12_19  and  C13_20 
REMARK   10  A    between atoms: C13_20  and  O6_21 
REMARK   11  A    between atoms: C17_26  and  O7_27 
REMARK   12  A    between atoms: C18_29  and  O8_30 
REMARK   13  A    between atoms: C20_33  and  C21_34 
REMARK   14  A    between atoms: C21_34  and  O9_35 
REMARK   15  A    between atoms: C25_40  and  O10_42 
ROOT
HETATM    1  C5  UNL     1     -30.224   5.549 -30.929  1.00  0.00     0.062 C 
HETATM    2  C6  UNL     1     -29.346   4.453 -31.560  1.00  0.00     0.046 C 
HETATM    3  C7  UNL     1     -31.018   4.843 -29.843  1.00  0.00     0.070 C 
HETATM    4  C8  UNL     1     -30.263   4.501 -28.621  1.00  0.00     0.129 C 
HETATM    5  C9  UNL     1     -29.110   5.432 -28.285  1.00  0.00     0.067 C 
HETATM    6  C18 UNL     1     -29.467   6.780 -28.891  1.00  0.00     0.129 C 
HETATM    7  C19 UNL     1     -29.291   6.580 -30.399  1.00  0.00     0.070 C 
ENDROOT
BRANCH   1   8
HETATM    8  O2  UNL     1     -31.175   5.990 -31.832  1.00  0.00    -0.374 OA
BRANCH   8   9
HETATM    9  C4  UNL     1     -32.491   5.803 -31.474  1.00  0.00     0.138 C 
HETATM   10  C3  UNL     1     -33.173   7.031 -30.987  1.00  0.00     0.078 C 
HETATM   11  C25 UNL     1     -34.619   6.675 -30.711  1.00  0.00     0.066 C 
HETATM   12  C23 UNL     1     -35.349   6.160 -31.889  1.00  0.00     0.017 C 
HETATM   13  C26 UNL     1     -34.622   5.622 -29.622  1.00  0.00     0.047 C 
HETATM   14  C22 UNL     1     -34.579   5.364 -32.863  1.00  0.00     0.016 C 
HETATM   15  C24 UNL     1     -36.590   5.419 -31.364  1.00  0.00     0.013 C 
HETATM   16  C20 UNL     1     -33.193   4.971 -32.472  1.00  0.00     0.039 C 
BRANCH  10  17
HETATM   17  C2  UNL     1     -33.080   8.289 -31.719  1.00  0.00     0.123 C 
HETATM   18  C1  UNL     1     -32.353   9.416 -31.047  1.00  0.00     0.040 C 
BRANCH  17  19
HETATM   19  O1  UNL     1     -32.681   8.241 -33.048  1.00  0.00    -0.395 OA
ATOM     20  H1  UNL     1     -32.012   7.571 -33.136  1.00  0.00     0.210 HD
ENDBRANCH  17  19
ENDBRANCH  10  17
BRANCH  11  21
HETATM   21  O10 UNL     1     -35.312   7.795 -30.218  1.00  0.00    -0.389 OA
ATOM     22  H10 UNL     1     -36.022   7.520 -29.650  1.00  0.00     0.210 HD
ENDBRANCH  11  21
BRANCH  16  23
HETATM   23  C21 UNL     1     -32.404   4.771 -33.768  1.00  0.00     0.171 C 
BRANCH  23  24
HETATM   24  O9  UNL     1     -32.266   5.902 -34.525  1.00  0.00    -0.400 OA
ATOM     25  H9  UNL     1     -33.081   6.358 -34.702  1.00  0.00     0.209 HD
ENDBRANCH  23  24
ENDBRANCH  16  23
ENDBRANCH   8   9
ENDBRANCH   1   8
BRANCH   4  26
HETATM   26  O3  UNL     1     -31.138   4.560 -27.521  1.00  0.00    -0.395 OA
ATOM     27  H3  UNL     1     -30.632   4.757 -26.741  1.00  0.00     0.210 HD
ENDBRANCH   4  26
BRANCH   6  28
HETATM   28  O8  UNL     1     -30.760   7.178 -28.569  1.00  0.00    -0.395 OA
ATOM     29  H8  UNL     1     -31.009   7.984 -29.007  1.00  0.00     0.210 HD
ENDBRANCH   6  28
BRANCH   5  30
HETATM   30  C10 UNL     1     -28.941   5.618 -26.819  1.00  0.00     0.180 C 
BRANCH  30  31
HETATM   31  O4  UNL     1     -29.439   6.825 -26.395  1.00  0.00    -0.358 OA
BRANCH  31  32
HETATM   32  C11 UNL     1     -30.122   6.806 -25.198  1.00  0.00     0.289 C 
HETATM   33  O5  UNL     1     -30.748   5.525 -25.028  1.00  0.00    -0.351 OA
HETATM   34  C12 UNL     1     -31.180   5.457 -23.717  1.00  0.00     0.148 C 
HETATM   35  C14 UNL     1     -32.268   6.468 -23.422  1.00  0.00     0.041 C 
HETATM   36  C15 UNL     1     -31.905   7.848 -23.868  1.00  0.00     0.018 C 
HETATM   37  C16 UNL     1     -33.147   8.688 -23.980  1.00  0.00     0.012 C 
HETATM   38  C17 UNL     1     -31.267   7.778 -25.243  1.00  0.00     0.177 C 
BRANCH  34  39
HETATM   39  C13 UNL     1     -31.774   4.077 -23.481  1.00  0.00     0.196 C 
BRANCH  39  40
HETATM   40  O6  UNL     1     -32.171   3.534 -24.705  1.00  0.00    -0.398 OA
ATOM     41  H6  UNL     1     -32.931   2.980 -24.568  1.00  0.00     0.209 HD
ENDBRANCH  39  40
ENDBRANCH  34  39
BRANCH  38  42
HETATM   42  O7  UNL     1     -32.227   7.216 -26.107  1.00  0.00    -0.390 OA
ATOM     43  H7  UNL     1     -32.251   6.286 -25.911  1.00  0.00     0.210 HD
ENDBRANCH  38  42
ENDBRANCH  31  32
ENDBRANCH  30  31
ENDBRANCH   5  30
TORSDOF 15
ENDMDL
MODEL 3
REMARK VINA RESULT: -6.027286138      5.130     10.139
REMARK  15 active torsions:
REMARK  status: ('A' for Active; 'I' for Inactive)
REMARK    1  A    between atoms: C2_2  and  O1_3 
REMARK    2  A    between atoms: C2_2  and  C3_5 
REMARK    3  A    between atoms: C4_6  and  O2_7 
REMARK    4  A    between atoms: O2_7  and  C5_8 
REMARK    5  A    between atoms: C8_11  and  O3_12 
REMARK    6  A    between atoms: C9_14  and  C10_15 
REMARK    7  A    between atoms: C10_15  and  O4_16 
REMARK    8  A    between atoms: O4_16  and  C11_17 
REMARK    9  A    between atoms: C12_19  and  C13_20 
REMARK   10  A    between atoms: C13_20  and  O6_21 
REMARK   11  A    between atoms: C17_26  and  O7_27 
REMARK   12  A    between atoms: C18_29  and  O8_30 
REMARK   13  A    between atoms: C20_33  and  C21_34 
REMARK   14  A    between atoms: C21_34  and  O9_35 
REMARK   15  A    between atoms: C25_40  and  O10_42 
ROOT
HETATM    1  C5  UNL     1     -30.729   5.827 -31.080  1.00  0.00     0.062 C 
HETATM    2  C6  UNL     1     -29.965   4.720 -31.828  1.00  0.00     0.046 C 
HETATM    3  C7  UNL     1     -31.474   5.112 -29.966  1.00  0.00     0.070 C 
HETATM    4  C8  UNL     1     -30.645   4.673 -28.825  1.00  0.00     0.129 C 
HETATM    5  C9  UNL     1     -29.420   5.527 -28.543  1.00  0.00     0.067 C 
HETATM    6  C18 UNL     1     -29.749   6.918 -29.058  1.00  0.00     0.129 C 
HETATM    7  C19 UNL     1     -29.703   6.783 -30.582  1.00  0.00     0.070 C 
ENDROOT
BRANCH   1   8
HETATM    8  O2  UNL     1     -31.722   6.360 -31.883  1.00  0.00    -0.374 OA
BRANCH   8   9
HETATM    9  C4  UNL     1     -31.486   6.347 -33.238  1.00  0.00     0.138 C 
HETATM   10  C3  UNL     1     -32.221   5.287 -33.978  1.00  0.00     0.078 C 
HETATM   11  C25 UNL     1     -31.914   5.456 -35.451  1.00  0.00     0.066 C 
HETATM   12  C23 UNL     1     -32.299   6.774 -36.000  1.00  0.00     0.017 C 
HETATM   13  C26 UNL     1     -30.422   5.260 -35.625  1.00  0.00     0.047 C 
HETATM   14  C22 UNL     1     -32.193   7.937 -35.098  1.00  0.00     0.016 C 
HETATM   15  C24 UNL     1     -31.518   6.964 -37.311  1.00  0.00     0.013 C 
HETATM   16  C20 UNL     1     -31.509   7.718 -33.789  1.00  0.00     0.039 C 
BRANCH  10  17
HETATM   17  C2  UNL     1     -33.647   5.069 -33.767  1.00  0.00     0.123 C 
HETATM   18  C1  UNL     1     -34.049   3.782 -33.109  1.00  0.00     0.040 C 
BRANCH  17  19
HETATM   19  O1  UNL     1     -34.388   6.099 -33.205  1.00  0.00    -0.395 OA
ATOM     20  H1  UNL     1     -34.021   6.926 -33.495  1.00  0.00     0.210 HD
ENDBRANCH  17  19
ENDBRANCH  10  17
BRANCH  11  21
HETATM   21  O10 UNL     1     -32.562   4.459 -36.203  1.00  0.00    -0.389 OA
ATOM     22  H10 UNL     1     -31.923   3.894 -36.621  1.00  0.00     0.210 HD
ENDBRANCH  11  21
BRANCH  16  23
HETATM   23  C21 UNL     1     -32.065   8.759 -32.816  1.00  0.00     0.171 C 
BRANCH  23  24
HETATM   24  O9  UNL     1     -33.409   8.652 -32.581  1.00  0.00    -0.400 OA
ATOM     25  H9  UNL     1     -33.735   9.229 -31.900  1.00  0.00     0.209 HD
ENDBRANCH  23  24
ENDBRANCH  16  23
ENDBRANCH   8   9
ENDBRANCH   1   8
BRANCH   4  26
HETATM   26  O3  UNL     1     -31.426   4.724 -27.656  1.00  0.00    -0.395 OA
ATOM     27  H3  UNL     1     -30.897   4.429 -26.925  1.00  0.00     0.210 HD
ENDBRANCH   4  26
BRANCH   6  28
HETATM   28  O8  UNL     1     -30.989   7.367 -28.616  1.00  0.00    -0.395 OA
ATOM     29  H8  UNL     1     -31.623   6.663 -28.546  1.00  0.00     0.210 HD
ENDBRANCH   6  28
BRANCH   5  30
HETATM   30  C10 UNL     1     -29.127   5.633 -27.089  1.00  0.00     0.180 C 
BRANCH  30  31
HETATM   31  O4  UNL     1     -29.533   6.838 -26.571  1.00  0.00    -0.358 OA
BRANCH  31  32
HETATM   32  C11 UNL     1     -30.129   6.788 -25.329  1.00  0.00     0.289 C 
HETATM   33  O5  UNL     1     -30.766   5.513 -25.158  1.00  0.00    -0.351 OA
HETATM   34  C12 UNL     1     -31.105   5.406 -23.823  1.00  0.00     0.148 C 
HETATM   35  C14 UNL     1     -32.149   6.423 -23.417  1.00  0.00     0.041 C 
HETATM   36  C15 UNL     1     -31.793   7.812 -23.840  1.00  0.00     0.018 C 
HETATM   37  C16 UNL     1     -33.023   8.676 -23.835  1.00  0.00     0.012 C 
HETATM   38  C17 UNL     1     -31.255   7.779 -25.259  1.00  0.00     0.177 C 
BRANCH  34  39
HETATM   39  C13 UNL     1     -31.706   4.028 -23.591  1.00  0.00     0.196 C 
BRANCH  39  40
HETATM   40  O6  UNL     1     -32.114   3.495 -24.817  1.00  0.00    -0.398 OA
ATOM     41  H6  UNL     1     -31.680   2.660 -24.952  1.00  0.00     0.209 HD
ENDBRANCH  39  40
ENDBRANCH  34  39
BRANCH  38  42
HETATM   42  O7  UNL     1     -32.285   7.264 -26.071  1.00  0.00    -0.390 OA
ATOM     43  H7  UNL     1     -31.975   7.325 -26.967  1.00  0.00     0.210 HD
ENDBRANCH  38  42
ENDBRANCH  31  32
ENDBRANCH  30  31
ENDBRANCH   5  30
TORSDOF 15
ENDMDL
MODEL 4
REMARK VINA RESULT: -5.969548885      4.809      8.784
REMARK  15 active torsions:
REMARK  status: ('A' for Active; 'I' for Inactive)
REMARK    1  A    between atoms: C2_2  and  O1_3 
REMARK    2  A    between atoms: C2_2  and  C3_5 
REMARK    3  A    between atoms: C4_6  and  O2_7 
REMARK    4  A    between atoms: O2_7  and  C5_8 
REMARK    5  A    between atoms: C8_11  and  O3_12 
REMARK    6  A    between atoms: C9_14  and  C10_15 
REMARK    7  A    between atoms: C10_15  and  O4_16 
REMARK    8  A    between atoms: O4_16  and  C11_17 
REMARK    9  A    between atoms: C12_19  and  C13_20 
REMARK   10  A    between atoms: C13_20  and  O6_21 
REMARK   11  A    between atoms: C17_26  and  O7_27 
REMARK   12  A    between atoms: C18_29  and  O8_30 
REMARK   13  A    between atoms: C20_33  and  C21_34 
REMARK   14  A    between atoms: C21_34  and  O9_35 
REMARK   15  A    between atoms: C25_40  and  O10_42 
ROOT
HETATM    1  C5  UNL     1     -31.681   5.494 -31.057  1.00  0.00     0.062 C 
HETATM    2  C6  UNL     1     -30.597   5.410 -32.148  1.00  0.00     0.046 C 
HETATM    3  C7  UNL     1     -31.221   4.538 -29.968  1.00  0.00     0.070 C 
HETATM    4  C8  UNL     1     -30.099   5.014 -29.134  1.00  0.00     0.129 C 
HETATM    5  C9  UNL     1     -30.010   6.522 -28.960  1.00  0.00     0.067 C 
HETATM    6  C18 UNL     1     -31.428   7.048 -29.117  1.00  0.00     0.129 C 
HETATM    7  C19 UNL     1     -31.722   6.913 -30.614  1.00  0.00     0.070 C 
ENDROOT
BRANCH   1   8
HETATM    8  O2  UNL     1     -32.873   4.960 -31.513  1.00  0.00    -0.374 OA
BRANCH   8   9
HETATM    9  C4  UNL     1     -33.797   5.856 -32.000  1.00  0.00     0.138 C 
HETATM   10  C3  UNL     1     -33.872   5.913 -33.484  1.00  0.00     0.078 C 
HETATM   11  C25 UNL     1     -34.978   6.880 -33.853  1.00  0.00     0.066 C 
HETATM   12  C23 UNL     1     -36.307   6.507 -33.323  1.00  0.00     0.017 C 
HETATM   13  C26 UNL     1     -34.587   8.238 -33.308  1.00  0.00     0.047 C 
HETATM   14  C22 UNL     1     -36.344   5.827 -32.014  1.00  0.00     0.016 C 
HETATM   15  C24 UNL     1     -37.180   7.772 -33.361  1.00  0.00     0.013 C 
HETATM   16  C20 UNL     1     -35.064   5.766 -31.246  1.00  0.00     0.039 C 
BRANCH  10  17
HETATM   17  C2  UNL     1     -33.960   4.696 -34.284  1.00  0.00     0.123 C 
HETATM   18  C1  UNL     1     -32.852   4.444 -35.263  1.00  0.00     0.040 C 
BRANCH  17  19
HETATM   19  O1  UNL     1     -34.245   3.506 -33.630  1.00  0.00    -0.395 OA
ATOM     20  H1  UNL     1     -33.666   3.429 -32.880  1.00  0.00     0.210 HD
ENDBRANCH  17  19
ENDBRANCH  10  17
BRANCH  11  21
HETATM   21  O10 UNL     1     -35.078   6.998 -35.251  1.00  0.00    -0.389 OA
ATOM     22  H10 UNL     1     -35.657   7.715 -35.481  1.00  0.00     0.210 HD
ENDBRANCH  11  21
BRANCH  16  23
HETATM   23  C21 UNL     1     -35.149   4.540 -30.335  1.00  0.00     0.171 C 
BRANCH  23  24
HETATM   24  O9  UNL     1     -34.790   4.775 -29.036  1.00  0.00    -0.400 OA
ATOM     25  H9  UNL     1     -35.266   4.257 -28.397  1.00  0.00     0.209 HD
ENDBRANCH  23  24
ENDBRANCH  16  23
ENDBRANCH   8   9
ENDBRANCH   1   8
BRANCH   4  26
HETATM   26  O3  UNL     1     -30.246   4.485 -27.839  1.00  0.00    -0.395 OA
ATOM     27  H3  UNL     1     -30.155   3.541 -27.886  1.00  0.00     0.210 HD
ENDBRANCH   4  26
BRANCH   6  28
HETATM   28  O8  UNL     1     -32.343   6.341 -28.345  1.00  0.00    -0.395 OA
ATOM     29  H8  UNL     1     -33.105   6.861 -28.121  1.00  0.00     0.210 HD
ENDBRANCH   6  28
BRANCH   5  30
HETATM   30  C10 UNL     1     -29.525   6.907 -27.608  1.00  0.00     0.180 C 
BRANCH  30  31
HETATM   31  O4  UNL     1     -30.441   7.675 -26.935  1.00  0.00    -0.358 OA
BRANCH  31  32
HETATM   32  C11 UNL     1     -30.645   7.346 -25.612  1.00  0.00     0.289 C 
HETATM   33  O5  UNL     1     -31.063   5.976 -25.522  1.00  0.00    -0.351 OA
HETATM   34  C12 UNL     1     -30.988   5.617 -24.189  1.00  0.00     0.148 C 
HETATM   35  C14 UNL     1     -31.975   6.385 -23.335  1.00  0.00     0.041 C 
HETATM   36  C15 UNL     1     -31.907   7.860 -23.568  1.00  0.00     0.018 C 
HETATM   37  C16 UNL     1     -33.169   8.510 -23.073  1.00  0.00     0.012 C 
HETATM   38  C17 UNL     1     -31.803   8.127 -25.059  1.00  0.00     0.177 C 
BRANCH  34  39
HETATM   39  C13 UNL     1     -31.345   4.143 -24.070  1.00  0.00     0.196 C 
BRANCH  39  40
HETATM   40  O6  UNL     1     -30.223   3.435 -23.633  1.00  0.00    -0.398 OA
ATOM     41  H6  UNL     1     -30.504   2.729 -23.061  1.00  0.00     0.209 HD
ENDBRANCH  39  40
ENDBRANCH  34  39
BRANCH  38  42
HETATM   42  O7  UNL     1     -32.962   7.585 -25.650  1.00  0.00    -0.390 OA
ATOM     43  H7  UNL     1     -33.699   7.953 -25.177  1.00  0.00     0.210 HD
ENDBRANCH  38  42
ENDBRANCH  31  32
ENDBRANCH  30  31
ENDBRANCH   5  30
TORSDOF 15
ENDMDL
MODEL 5
REMARK VINA RESULT: -5.924597893      4.779      9.389
REMARK  15 active torsions:
REMARK  status: ('A' for Active; 'I' for Inactive)
REMARK    1  A    between atoms: C2_2  and  O1_3 
REMARK    2  A    between atoms: C2_2  and  C3_5 
REMARK    3  A    between atoms: C4_6  and  O2_7 
REMARK    4  A    between atoms: O2_7  and  C5_8 
REMARK    5  A    between atoms: C8_11  and  O3_12 
REMARK    6  A    between atoms: C9_14  and  C10_15 
REMARK    7  A    between atoms: C10_15  and  O4_16 
REMARK    8  A    between atoms: O4_16  and  C11_17 
REMARK    9  A    between atoms: C12_19  and  C13_20 
REMARK   10  A    between atoms: C13_20  and  O6_21 
REMARK   11  A    between atoms: C17_26  and  O7_27 
REMARK   12  A    between atoms: C18_29  and  O8_30 
REMARK   13  A    between atoms: C20_33  and  C21_34 
REMARK   14  A    between atoms: C21_34  and  O9_35 
REMARK   15  A    between atoms: C25_40  and  O10_42 
ROOT
HETATM    1  C5  UNL     1     -30.538   5.434 -30.933  1.00  0.00     0.062 C 
HETATM    2  C6  UNL     1     -29.298   4.880 -31.659  1.00  0.00     0.046 C 
HETATM    3  C7  UNL     1     -30.782   4.474 -29.780  1.00  0.00     0.070 C 
HETATM    4  C8  UNL     1     -29.847   4.592 -28.643  1.00  0.00     0.129 C 
HETATM    5  C9  UNL     1     -29.271   5.981 -28.415  1.00  0.00     0.067 C 
HETATM    6  C18 UNL     1     -30.296   6.958 -28.968  1.00  0.00     0.129 C 
HETATM    7  C19 UNL     1     -30.185   6.809 -30.488  1.00  0.00     0.070 C 
ENDROOT
BRANCH   1   8
HETATM    8  O2  UNL     1     -31.662   5.319 -31.731  1.00  0.00    -0.374 OA
BRANCH   8   9
HETATM    9  C4  UNL     1     -32.159   6.488 -32.260  1.00  0.00     0.138 C 
HETATM   10  C3  UNL     1     -31.668   6.797 -33.628  1.00  0.00     0.078 C 
HETATM   11  C25 UNL     1     -32.362   8.062 -34.091  1.00  0.00     0.066 C 
HETATM   12  C23 UNL     1     -33.836   7.964 -34.124  1.00  0.00     0.017 C 
HETATM   13  C26 UNL     1     -31.957   9.169 -33.139  1.00  0.00     0.047 C 
HETATM   14  C22 UNL     1     -34.479   7.117 -33.101  1.00  0.00     0.016 C 
HETATM   15  C24 UNL     1     -34.386   9.401 -34.137  1.00  0.00     0.013 C 
HETATM   16  C20 UNL     1     -33.608   6.607 -32.000  1.00  0.00     0.039 C 
BRANCH  10  17
HETATM   17  C2  UNL     1     -31.677   5.788 -34.681  1.00  0.00     0.123 C 
HETATM   18  C1  UNL     1     -30.346   5.371 -35.235  1.00  0.00     0.040 C 
BRANCH  17  19
HETATM   19  O1  UNL     1     -32.446   4.650 -34.486  1.00  0.00    -0.395 OA
ATOM     20  H1  UNL     1     -33.292   4.915 -34.144  1.00  0.00     0.210 HD
ENDBRANCH  17  19
ENDBRANCH  10  17
BRANCH  11  21
HETATM   21  O10 UNL     1     -31.915   8.423 -35.374  1.00  0.00    -0.389 OA
ATOM     22  H10 UNL     1     -32.475   8.041 -36.039  1.00  0.00     0.210 HD
ENDBRANCH  11  21
BRANCH  16  23
HETATM   23  C21 UNL     1     -34.248   5.315 -31.488  1.00  0.00     0.171 C 
BRANCH  23  24
HETATM   24  O9  UNL     1     -34.244   4.287 -32.391  1.00  0.00    -0.400 OA
ATOM     25  H9  UNL     1     -33.377   3.978 -32.630  1.00  0.00     0.209 HD
ENDBRANCH  23  24
ENDBRANCH  16  23
ENDBRANCH   8   9
ENDBRANCH   1   8
BRANCH   4  26
HETATM   26  O3  UNL     1     -30.533   4.262 -27.461  1.00  0.00    -0.395 OA
ATOM     27  H3  UNL     1     -31.145   4.960 -27.260  1.00  0.00     0.210 HD
ENDBRANCH   4  26
BRANCH   6  28
HETATM   28  O8  UNL     1     -31.583   6.687 -28.515  1.00  0.00    -0.395 OA
ATOM     29  H8  UNL     1     -32.246   6.924 -29.151  1.00  0.00     0.210 HD
ENDBRANCH   6  28
BRANCH   5  30
HETATM   30  C10 UNL     1     -29.080   6.284 -26.971  1.00  0.00     0.180 C 
BRANCH  30  31
HETATM   31  O4  UNL     1     -29.935   7.266 -26.537  1.00  0.00    -0.358 OA
BRANCH  31  32
HETATM   32  C11 UNL     1     -30.445   7.100 -25.267  1.00  0.00     0.289 C 
HETATM   33  O5  UNL     1     -30.983   5.776 -25.140  1.00  0.00    -0.351 OA
HETATM   34  C12 UNL     1     -31.228   5.565 -23.796  1.00  0.00     0.148 C 
HETATM   35  C14 UNL     1     -32.309   6.481 -23.264  1.00  0.00     0.041 C 
HETATM   36  C15 UNL     1     -32.074   7.914 -23.617  1.00  0.00     0.018 C 
HETATM   37  C16 UNL     1     -33.356   8.687 -23.483  1.00  0.00     0.012 C 
HETATM   38  C17 UNL     1     -31.628   8.004 -25.066  1.00  0.00     0.177 C 
BRANCH  34  39
HETATM   39  C13 UNL     1     -31.720   4.137 -23.618  1.00  0.00     0.196 C 
BRANCH  39  40
HETATM   40  O6  UNL     1     -32.061   3.612 -24.866  1.00  0.00    -0.398 OA
ATOM     41  H6  UNL     1     -32.999   3.697 -24.994  1.00  0.00     0.209 HD
ENDBRANCH  39  40
ENDBRANCH  34  39
BRANCH  38  42
HETATM   42  O7  UNL     1     -32.672   7.467 -25.845  1.00  0.00    -0.390 OA
ATOM     43  H7  UNL     1     -32.412   6.580 -26.063  1.00  0.00     0.210 HD
ENDBRANCH  38  42
ENDBRANCH  31  32
ENDBRANCH  30  31
ENDBRANCH   5  30
TORSDOF 15
ENDMDL
