MODEL 1
REMARK VINA RESULT: -7.898045596      0.000      0.000
REMARK  5 active torsions:
REMARK  status: ('A' for Active; 'I' for Inactive)
REMARK    1  A    between atoms: C11_11  and  O1_12 
REMARK    2  A    between atoms: C12_14  and  C13_15 
REMARK    3  A    between atoms: C18_22  and  C19_23 
REMARK    4  A    between atoms: C19_23  and  C20_24 
REMARK    5  A    between atoms: C20_24  and  N2_25 
ROOT
HETATM    1  C1  UNL     1     -21.739 -39.026  -5.838  1.00  0.00     0.025 C 
HETATM    2  C2  UNL     1     -23.081 -38.270  -5.934  1.00  0.00     0.011 C 
HETATM    3  C3  UNL     1     -22.810 -36.937  -6.468  1.00  0.00    -0.016 C 
HETATM    4  C4  UNL     1     -23.177 -35.693  -5.794  1.00  0.00    -0.024 C 
HETATM    5  C5  UNL     1     -22.879 -35.382  -4.427  1.00  0.00     0.024 C 
HETATM    6  C6  UNL     1     -22.188 -36.512  -3.617  1.00  0.00     0.017 C 
HETATM    7  C7  UNL     1     -23.232 -37.557  -3.543  1.00  0.00    -0.018 C 
HETATM    8  C8  UNL     1     -23.614 -38.312  -4.547  1.00  0.00    -0.070 C 
HETATM    9  C9  UNL     1     -24.688 -39.269  -4.211  1.00  0.00     0.037 C 
HETATM   10  C10 UNL     1     -25.848 -38.971  -5.153  1.00  0.00     0.037 C 
HETATM   11  C11 UNL     1     -25.430 -38.874  -6.593  1.00  0.00     0.132 C 
HETATM   12  C12 UNL     1     -23.969 -39.171  -6.754  1.00  0.00     0.119 C 
HETATM   13  C14 UNL     1     -21.825 -35.879  -2.309  1.00  0.00     0.014 C 
HETATM   14  C15 UNL     1     -22.181 -34.489  -2.479  1.00  0.00    -0.005 C 
HETATM   15  C16 UNL     1     -21.348 -33.405  -1.972  1.00  0.00     0.006 C 
HETATM   16  C17 UNL     1     -21.860 -32.250  -2.825  1.00  0.00     0.006 C 
HETATM   17  C18 UNL     1     -22.532 -32.893  -4.038  1.00  0.00    -0.004 C 
HETATM   18  C21 UNL     1     -22.022 -34.265  -4.015  1.00  0.00    -0.029 C 
HETATM   19  C22 UNL     1     -20.592 -34.464  -4.404  1.00  0.00     0.016 C 
ENDROOT
BRANCH  17  20
HETATM   20  C19 UNL     1     -22.481 -32.080  -5.249  1.00  0.00     0.032 C 
BRANCH  20  21
HETATM   21  C20 UNL     1     -23.702 -31.458  -5.787  1.00  0.00     0.230 C 
BRANCH  21  22
HETATM   22  N2  UNL     1     -24.723 -32.518  -5.904  1.00  0.00    -0.079 N 
ATOM     23  H23 UNL     1     -24.450 -33.387  -5.443  1.00  0.00     0.274 HD
ATOM     24  H22 UNL     1     -25.558 -32.331  -5.349  1.00  0.00     0.274 HD
ATOM     25  H21 UNL     1     -24.923 -32.640  -6.896  1.00  0.00     0.274 HD
ENDBRANCH  21  22
ENDBRANCH  20  21
ENDBRANCH  17  20
BRANCH  12  26
HETATM   26  C13 UNL     1     -23.524 -39.375  -8.132  1.00  0.00     0.239 C 
HETATM   27  N1  UNL     1     -23.018 -40.564  -8.663  1.00  0.00    -0.062 NA
HETATM   28  O2  UNL     1     -23.598 -38.386  -8.929  1.00  0.00    -0.276 OA
ENDBRANCH  12  26
BRANCH  11  29
HETATM   29  O1  UNL     1     -25.812 -37.676  -7.187  1.00  0.00    -0.395 OA
ATOM     30  H1  UNL     1     -26.098 -37.784  -8.087  1.00  0.00     0.210 HD
ENDBRANCH  11  29
TORSDOF 5
ENDMDL
MODEL 2
REMARK VINA RESULT: -7.699305396      2.301      6.250
REMARK  5 active torsions:
REMARK  status: ('A' for Active; 'I' for Inactive)
REMARK    1  A    between atoms: C11_11  and  O1_12 
REMARK    2  A    between atoms: C12_14  and  C13_15 
REMARK    3  A    between atoms: C18_22  and  C19_23 
REMARK    4  A    between atoms: C19_23  and  C20_24 
REMARK    5  A    between atoms: C20_24  and  N2_25 
ROOT
HETATM    1  C1  UNL     1     -24.475 -33.764  -4.043  1.00  0.00     0.025 C 
HETATM    2  C2  UNL     1     -23.198 -34.413  -4.620  1.00  0.00     0.011 C 
HETATM    3  C3  UNL     1     -23.584 -35.662  -5.272  1.00  0.00    -0.016 C 
HETATM    4  C4  UNL     1     -23.025 -36.970  -4.936  1.00  0.00    -0.024 C 
HETATM    5  C5  UNL     1     -22.930 -37.505  -3.610  1.00  0.00     0.024 C 
HETATM    6  C6  UNL     1     -23.389 -36.557  -2.470  1.00  0.00     0.017 C 
HETATM    7  C7  UNL     1     -22.383 -35.473  -2.509  1.00  0.00    -0.018 C 
HETATM    8  C8  UNL     1     -22.305 -34.551  -3.440  1.00  0.00    -0.070 C 
HETATM    9  C9  UNL     1     -21.196 -33.594  -3.252  1.00  0.00     0.037 C 
HETATM   10  C10 UNL     1     -20.336 -33.672  -4.508  1.00  0.00     0.037 C 
HETATM   11  C11 UNL     1     -21.132 -33.572  -5.778  1.00  0.00     0.132 C 
HETATM   12  C12 UNL     1     -22.586 -33.344  -5.488  1.00  0.00     0.119 C 
HETATM   13  C14 UNL     1     -23.367 -37.404  -1.235  1.00  0.00     0.014 C 
HETATM   14  C15 UNL     1     -23.049 -38.727  -1.720  1.00  0.00    -0.005 C 
HETATM   15  C16 UNL     1     -23.692 -39.925  -1.193  1.00  0.00     0.006 C 
HETATM   16  C17 UNL     1     -23.415 -40.902  -2.330  1.00  0.00     0.006 C 
HETATM   17  C18 UNL     1     -23.114 -40.041  -3.556  1.00  0.00    -0.004 C 
HETATM   18  C21 UNL     1     -23.621 -38.722  -3.171  1.00  0.00    -0.029 C 
HETATM   19  C22 UNL     1     -25.106 -38.553  -3.123  1.00  0.00     0.016 C 
ENDROOT
BRANCH  17  20
HETATM   20  C19 UNL     1     -23.483 -40.659  -4.825  1.00  0.00     0.032 C 
BRANCH  20  21
HETATM   21  C20 UNL     1     -23.527 -42.125  -4.961  1.00  0.00     0.230 C 
BRANCH  21  22
HETATM   22  N2  UNL     1     -24.765 -42.463  -5.690  1.00  0.00    -0.079 N 
ATOM     23  H23 UNL     1     -25.326 -43.171  -5.215  1.00  0.00     0.274 HD
ATOM     24  H22 UNL     1     -25.456 -41.714  -5.672  1.00  0.00     0.274 HD
ATOM     25  H21 UNL     1     -24.498 -42.735  -6.635  1.00  0.00     0.274 HD
ENDBRANCH  21  22
ENDBRANCH  20  21
ENDBRANCH  17  20
BRANCH  12  26
HETATM   26  C13 UNL     1     -23.396 -32.958  -6.642  1.00  0.00     0.239 C 
HETATM   27  N1  UNL     1     -24.353 -31.940  -6.671  1.00  0.00    -0.062 NA
HETATM   28  O2  UNL     1     -23.225 -33.603  -7.726  1.00  0.00    -0.276 OA
ENDBRANCH  12  26
BRANCH  11  29
HETATM   29  O1  UNL     1     -20.909 -34.639  -6.642  1.00  0.00    -0.395 OA
ATOM     30  H1  UNL     1     -21.713 -35.032  -6.960  1.00  0.00     0.210 HD
ENDBRANCH  11  29
TORSDOF 5
ENDMDL
MODEL 3
REMARK VINA RESULT: -7.425649316      3.934      6.111
REMARK  5 active torsions:
REMARK  status: ('A' for Active; 'I' for Inactive)
REMARK    1  A    between atoms: C11_11  and  O1_12 
REMARK    2  A    between atoms: C12_14  and  C13_15 
REMARK    3  A    between atoms: C18_22  and  C19_23 
REMARK    4  A    between atoms: C19_23  and  C20_24 
REMARK    5  A    between atoms: C20_24  and  N2_25 
ROOT
HETATM    1  C1  UNL     1     -24.615 -31.975  -8.250  1.00  0.00     0.025 C 
HETATM    2  C2  UNL     1     -23.087 -32.198  -8.276  1.00  0.00     0.011 C 
HETATM    3  C3  UNL     1     -22.801 -33.434  -7.552  1.00  0.00    -0.016 C 
HETATM    4  C4  UNL     1     -21.898 -33.523  -6.406  1.00  0.00    -0.024 C 
HETATM    5  C5  UNL     1     -21.948 -32.672  -5.254  1.00  0.00     0.024 C 
HETATM    6  C6  UNL     1     -23.000 -31.531  -5.309  1.00  0.00     0.017 C 
HETATM    7  C7  UNL     1     -22.497 -30.662  -6.395  1.00  0.00    -0.018 C 
HETATM    8  C8  UNL     1     -22.536 -30.956  -7.674  1.00  0.00    -0.070 C 
HETATM    9  C9  UNL     1     -21.951 -29.921  -8.551  1.00  0.00     0.037 C 
HETATM   10  C10 UNL     1     -20.836 -30.599  -9.340  1.00  0.00     0.037 C 
HETATM   11  C11 UNL     1     -21.264 -31.890  -9.978  1.00  0.00     0.132 C 
HETATM   12  C12 UNL     1     -22.721 -32.156  -9.737  1.00  0.00     0.119 C 
HETATM   13  C14 UNL     1     -22.976 -30.922  -3.941  1.00  0.00     0.014 C 
HETATM   14  C15 UNL     1     -22.076 -31.769  -3.193  1.00  0.00    -0.005 C 
HETATM   15  C16 UNL     1     -22.335 -32.152  -1.810  1.00  0.00     0.006 C 
HETATM   16  C17 UNL     1     -21.437 -33.378  -1.698  1.00  0.00     0.006 C 
HETATM   17  C18 UNL     1     -21.180 -33.841  -3.131  1.00  0.00    -0.004 C 
HETATM   18  C21 UNL     1     -22.222 -33.154  -3.896  1.00  0.00    -0.029 C 
HETATM   19  C22 UNL     1     -23.623 -33.651  -3.735  1.00  0.00     0.016 C 
ENDROOT
BRANCH  17  20
HETATM   20  C19 UNL     1     -20.958 -35.277  -3.263  1.00  0.00     0.032 C 
BRANCH  20  21
HETATM   21  C20 UNL     1     -21.583 -36.223  -2.324  1.00  0.00     0.230 C 
BRANCH  21  22
HETATM   22  N2  UNL     1     -22.464 -37.109  -3.110  1.00  0.00    -0.079 N 
ATOM     23  H23 UNL     1     -23.429 -37.109  -2.779  1.00  0.00     0.274 HD
ATOM     24  H22 UNL     1     -22.647 -36.758  -4.050  1.00  0.00     0.274 HD
ATOM     25  H21 UNL     1     -22.042 -38.038  -3.108  1.00  0.00     0.274 HD
ENDBRANCH  21  22
ENDBRANCH  20  21
ENDBRANCH  17  20
BRANCH  12  26
HETATM   26  C13 UNL     1     -23.296 -33.233 -10.541  1.00  0.00     0.239 C 
HETATM   27  N1  UNL     1     -23.077 -34.600 -10.360  1.00  0.00    -0.062 NA
HETATM   28  O2  UNL     1     -24.069 -32.906 -11.499  1.00  0.00    -0.276 OA
ENDBRANCH  12  26
BRANCH  11  29
HETATM   29  O1  UNL     1     -20.449 -32.961  -9.631  1.00  0.00    -0.395 OA
ATOM     30  H1  UNL     1     -20.925 -33.665  -9.207  1.00  0.00     0.210 HD
ENDBRANCH  11  29
TORSDOF 5
ENDMDL
MODEL 4
REMARK VINA RESULT: -7.369731384      1.020      1.032
REMARK  5 active torsions:
REMARK  status: ('A' for Active; 'I' for Inactive)
REMARK    1  A    between atoms: C11_11  and  O1_12 
REMARK    2  A    between atoms: C12_14  and  C13_15 
REMARK    3  A    between atoms: C18_22  and  C19_23 
REMARK    4  A    between atoms: C19_23  and  C20_24 
REMARK    5  A    between atoms: C20_24  and  N2_25 
ROOT
HETATM    1  C1  UNL     1     -21.772 -38.548  -5.378  1.00  0.00     0.025 C 
HETATM    2  C2  UNL     1     -23.144 -37.873  -5.591  1.00  0.00     0.011 C 
HETATM    3  C3  UNL     1     -22.916 -36.594  -6.258  1.00  0.00    -0.016 C 
HETATM    4  C4  UNL     1     -23.362 -35.304  -5.732  1.00  0.00    -0.024 C 
HETATM    5  C5  UNL     1     -23.122 -34.834  -4.400  1.00  0.00     0.024 C 
HETATM    6  C6  UNL     1     -22.407 -35.837  -3.454  1.00  0.00     0.017 C 
HETATM    7  C7  UNL     1     -23.404 -36.918  -3.296  1.00  0.00    -0.018 C 
HETATM    8  C8  UNL     1     -23.718 -37.794  -4.222  1.00  0.00    -0.070 C 
HETATM    9  C9  UNL     1     -24.757 -38.760  -3.814  1.00  0.00     0.037 C 
HETATM   10  C10 UNL     1     -25.899 -38.622  -4.814  1.00  0.00     0.037 C 
HETATM   11  C11 UNL     1     -25.440 -38.658  -6.245  1.00  0.00     0.132 C 
HETATM   12  C12 UNL     1     -23.962 -38.899  -6.332  1.00  0.00     0.119 C 
HETATM   13  C14 UNL     1     -22.116 -35.051  -2.213  1.00  0.00     0.014 C 
HETATM   14  C15 UNL     1     -22.529 -33.706  -2.541  1.00  0.00    -0.005 C 
HETATM   15  C16 UNL     1     -21.763 -32.534  -2.132  1.00  0.00     0.006 C 
HETATM   16  C17 UNL     1     -22.300 -31.504  -3.119  1.00  0.00     0.006 C 
HETATM   17  C18 UNL     1     -22.903 -32.304  -4.273  1.00  0.00    -0.004 C 
HETATM   18  C21 UNL     1     -22.331 -33.640  -4.087  1.00  0.00    -0.029 C 
HETATM   19  C22 UNL     1     -20.882 -33.809  -4.414  1.00  0.00     0.016 C 
ENDROOT
BRANCH  17  20
HETATM   20  C19 UNL     1     -22.850 -31.624  -5.562  1.00  0.00     0.032 C 
BRANCH  20  21
HETATM   21  C20 UNL     1     -23.962 -31.743  -6.519  1.00  0.00     0.230 C 
BRANCH  21  22
HETATM   22  N2  UNL     1     -23.594 -30.967  -7.721  1.00  0.00    -0.079 N 
ATOM     23  H23 UNL     1     -23.451 -29.976  -7.527  1.00  0.00     0.274 HD
ATOM     24  H22 UNL     1     -22.654 -31.173  -8.056  1.00  0.00     0.274 HD
ATOM     25  H21 UNL     1     -24.313 -31.136  -8.424  1.00  0.00     0.274 HD
ENDBRANCH  21  22
ENDBRANCH  20  21
ENDBRANCH  17  20
BRANCH  12  26
HETATM   26  C13 UNL     1     -23.465 -39.227  -7.667  1.00  0.00     0.239 C 
HETATM   27  N1  UNL     1     -23.617 -38.445  -8.815  1.00  0.00    -0.062 NA
HETATM   28  O2  UNL     1     -22.835 -40.324  -7.810  1.00  0.00    -0.276 OA
ENDBRANCH  12  26
BRANCH  11  29
HETATM   29  O1  UNL     1     -25.857 -37.551  -6.975  1.00  0.00    -0.395 OA
ATOM     30  H1  UNL     1     -26.594 -37.103  -6.578  1.00  0.00     0.210 HD
ENDBRANCH  11  29
TORSDOF 5
ENDMDL
MODEL 5
REMARK VINA RESULT: -7.349395925      3.932      5.543
REMARK  5 active torsions:
REMARK  status: ('A' for Active; 'I' for Inactive)
REMARK    1  A    between atoms: C11_11  and  O1_12 
REMARK    2  A    between atoms: C12_14  and  C13_15 
REMARK    3  A    between atoms: C18_22  and  C19_23 
REMARK    4  A    between atoms: C19_23  and  C20_24 
REMARK    5  A    between atoms: C20_24  and  N2_25 
ROOT
HETATM    1  C1  UNL     1     -20.233 -33.887  -8.948  1.00  0.00     0.025 C 
HETATM    2  C2  UNL     1     -21.452 -33.026  -8.551  1.00  0.00     0.011 C 
HETATM    3  C3  UNL     1     -21.082 -32.238  -7.377  1.00  0.00    -0.016 C 
HETATM    4  C4  UNL     1     -21.809 -32.263  -6.109  1.00  0.00    -0.024 C 
HETATM    5  C5  UNL     1     -22.172 -33.451  -5.396  1.00  0.00     0.024 C 
HETATM    6  C6  UNL     1     -21.822 -34.790  -6.100  1.00  0.00     0.017 C 
HETATM    7  C7  UNL     1     -22.701 -34.785  -7.288  1.00  0.00    -0.018 C 
HETATM    8  C8  UNL     1     -22.537 -34.020  -8.343  1.00  0.00    -0.070 C 
HETATM    9  C9  UNL     1     -23.567 -34.199  -9.386  1.00  0.00     0.037 C 
HETATM   10  C10 UNL     1     -24.211 -32.834  -9.602  1.00  0.00     0.037 C 
HETATM   11  C11 UNL     1     -23.209 -31.731  -9.796  1.00  0.00     0.132 C 
HETATM   12  C12 UNL     1     -21.808 -32.268  -9.803  1.00  0.00     0.119 C 
HETATM   13  C14 UNL     1     -22.127 -35.848  -5.084  1.00  0.00     0.014 C 
HETATM   14  C15 UNL     1     -22.483 -35.106  -3.897  1.00  0.00    -0.005 C 
HETATM   15  C16 UNL     1     -22.052 -35.514  -2.565  1.00  0.00     0.006 C 
HETATM   16  C17 UNL     1     -22.226 -34.200  -1.811  1.00  0.00     0.006 C 
HETATM   17  C18 UNL     1     -22.238 -33.105  -2.877  1.00  0.00    -0.004 C 
HETATM   18  C21 UNL     1     -21.680 -33.777  -4.053  1.00  0.00    -0.029 C 
HETATM   19  C22 UNL     1     -20.215 -34.073  -4.034  1.00  0.00     0.016 C 
ENDROOT
BRANCH  17  20
HETATM   20  C19 UNL     1     -21.723 -31.820  -2.417  1.00  0.00     0.032 C 
BRANCH  20  21
HETATM   21  C20 UNL     1     -22.626 -30.670  -2.242  1.00  0.00     0.230 C 
BRANCH  21  22
HETATM   22  N2  UNL     1     -23.556 -30.660  -3.389  1.00  0.00    -0.079 N 
ATOM     23  H23 UNL     1     -23.890 -31.591  -3.639  1.00  0.00     0.274 HD
ATOM     24  H22 UNL     1     -24.462 -30.250  -3.164  1.00  0.00     0.274 HD
ATOM     25  H21 UNL     1     -23.085 -30.187  -4.160  1.00  0.00     0.274 HD
ENDBRANCH  21  22
ENDBRANCH  20  21
ENDBRANCH  17  20
BRANCH  12  26
HETATM   26  C13 UNL     1     -20.785 -31.328 -10.259  1.00  0.00     0.239 C 
HETATM   27  N1  UNL     1     -20.513 -30.077  -9.702  1.00  0.00    -0.062 NA
HETATM   28  O2  UNL     1     -20.072 -31.670 -11.257  1.00  0.00    -0.276 OA
ENDBRANCH  12  26
BRANCH  11  29
HETATM   29  O1  UNL     1     -23.385 -30.678  -8.906  1.00  0.00    -0.395 OA
ATOM     30  H1  UNL     1     -24.278 -30.606  -8.591  1.00  0.00     0.210 HD
ENDBRANCH  11  29
TORSDOF 5
ENDMDL
