MODEL 1
REMARK VINA RESULT: -8.699282184      0.000      0.000
REMARK  3 active torsions:
REMARK  status: ('A' for Active; 'I' for Inactive)
REMARK    1  A    between atoms: C2_2  and  C3_3 
REMARK    2  A    between atoms: C8_13  and  O3_14 
REMARK    3  A    between atoms: C11_18  and  C12_19 
ROOT
HETATM    1  C1  UNL     1     -22.098 -33.253  -0.621  1.00  0.00     0.027 C 
HETATM    2  C2  UNL     1     -21.848 -33.218  -2.116  1.00  0.00     0.049 C 
HETATM    3  C4  UNL     1     -20.391 -33.269  -2.448  1.00  0.00     0.021 C 
HETATM    4  C5  UNL     1     -20.241 -34.147  -3.670  1.00  0.00     0.008 C 
HETATM    5  C6  UNL     1     -21.671 -34.444  -4.120  1.00  0.00     0.022 C 
HETATM    6  C7  UNL     1     -21.678 -35.792  -4.778  1.00  0.00     0.203 C 
HETATM    7  N1  UNL     1     -21.897 -35.864  -6.177  1.00  0.00    -0.037 N 
ATOM      8  H11 UNL     1     -21.118 -36.061  -6.806  1.00  0.00     0.281 HD
ATOM      9  H12 UNL     1     -22.110 -35.018  -6.705  1.00  0.00     0.281 HD
HETATM   10  C8  UNL     1     -22.930 -36.867  -5.962  1.00  0.00     0.231 C 
HETATM   11  C9  UNL     1     -22.473 -38.287  -5.917  1.00  0.00     0.075 C 
HETATM   12  C10 UNL     1     -23.335 -39.191  -5.107  1.00  0.00     0.011 C 
HETATM   13  C11 UNL     1     -24.581 -39.651  -5.808  1.00  0.00     0.080 C 
HETATM   14  C13 UNL     1     -25.736 -39.411  -4.847  1.00  0.00     0.015 C 
HETATM   15  C14 UNL     1     -25.251 -38.331  -3.912  1.00  0.00     0.011 C 
HETATM   16  C15 UNL     1     -23.791 -38.602  -3.795  1.00  0.00    -0.035 C 
HETATM   17  C16 UNL     1     -23.591 -39.626  -2.692  1.00  0.00     0.016 C 
HETATM   18  C17 UNL     1     -22.961 -37.406  -3.507  1.00  0.00     0.005 C 
HETATM   19  C18 UNL     1     -23.296 -36.711  -2.204  1.00  0.00     0.006 C 
HETATM   20  C19 UNL     1     -22.176 -35.680  -2.000  1.00  0.00     0.007 C 
HETATM   21  C20 UNL     1     -22.410 -34.431  -2.809  1.00  0.00     0.010 C 
HETATM   22  C21 UNL     1     -23.084 -36.357  -4.580  1.00  0.00     0.085 C 
ENDROOT
BRANCH   2  23
HETATM   23  C3  UNL     1     -22.430 -31.972  -2.714  1.00  0.00     0.181 C 
HETATM   24  O1  UNL     1     -23.223 -31.979  -3.687  1.00  0.00    -0.647 OA
HETATM   25  O2  UNL     1     -22.098 -30.728  -2.192  1.00  0.00    -0.647 OA
ENDBRANCH   2  23
BRANCH  10  26
HETATM   26  O3  UNL     1     -24.040 -36.644  -6.805  1.00  0.00    -0.364 OA
ATOM     27  H3  UNL     1     -24.853 -36.663  -6.313  1.00  0.00     0.212 HD
ENDBRANCH  10  26
BRANCH  13  28
HETATM   28  C12 UNL     1     -24.567 -41.106  -6.098  1.00  0.00     0.235 C 
HETATM   29  N2  UNL     1     -25.098 -41.550  -7.328  1.00  0.00    -0.062 NA
HETATM   30  O4  UNL     1     -24.099 -41.953  -5.282  1.00  0.00    -0.276 OA
ENDBRANCH  13  28
TORSDOF 3
ENDMDL
MODEL 2
REMARK VINA RESULT: -8.676842716      1.937      7.033
REMARK  3 active torsions:
REMARK  status: ('A' for Active; 'I' for Inactive)
REMARK    1  A    between atoms: C2_2  and  C3_3 
REMARK    2  A    between atoms: C8_13  and  O3_14 
REMARK    3  A    between atoms: C11_18  and  C12_19 
ROOT
HETATM    1  C1  UNL     1     -23.471 -41.672  -4.661  1.00  0.00     0.027 C 
HETATM    2  C2  UNL     1     -23.542 -40.693  -5.817  1.00  0.00     0.049 C 
HETATM    3  C4  UNL     1     -24.932 -40.543  -6.345  1.00  0.00     0.021 C 
HETATM    4  C5  UNL     1     -25.127 -39.081  -6.683  1.00  0.00     0.008 C 
HETATM    5  C6  UNL     1     -23.749 -38.447  -6.496  1.00  0.00     0.022 C 
HETATM    6  C7  UNL     1     -23.949 -37.019  -6.083  1.00  0.00     0.203 C 
HETATM    7  N1  UNL     1     -23.598 -35.992  -6.996  1.00  0.00    -0.037 N 
ATOM      8  H11 UNL     1     -24.327 -35.480  -7.493  1.00  0.00     0.281 HD
ATOM      9  H12 UNL     1     -23.158 -36.228  -7.885  1.00  0.00     0.281 HD
HETATM   10  C8  UNL     1     -22.825 -35.332  -5.953  1.00  0.00     0.231 C 
HETATM   11  C9  UNL     1     -23.569 -34.369  -5.090  1.00  0.00     0.075 C 
HETATM   12  C10 UNL     1     -23.007 -34.201  -3.722  1.00  0.00     0.011 C 
HETATM   13  C11 UNL     1     -21.815 -33.291  -3.649  1.00  0.00     0.080 C 
HETATM   14  C13 UNL     1     -20.747 -34.033  -2.857  1.00  0.00     0.015 C 
HETATM   15  C14 UNL     1     -21.097 -35.494  -3.000  1.00  0.00     0.011 C 
HETATM   16  C15 UNL     1     -22.585 -35.491  -3.061  1.00  0.00    -0.035 C 
HETATM   17  C16 UNL     1     -23.113 -35.518  -1.639  1.00  0.00     0.016 C 
HETATM   18  C17 UNL     1     -23.176 -36.620  -3.823  1.00  0.00     0.005 C 
HETATM   19  C18 UNL     1     -22.849 -37.989  -3.266  1.00  0.00     0.006 C 
HETATM   20  C19 UNL     1     -23.746 -38.963  -4.044  1.00  0.00     0.007 C 
HETATM   21  C20 UNL     1     -23.171 -39.296  -5.395  1.00  0.00     0.010 C 
HETATM   22  C21 UNL     1     -22.721 -36.636  -5.258  1.00  0.00     0.085 C 
ENDROOT
BRANCH   2  23
HETATM   23  C3  UNL     1     -22.653 -41.143  -6.938  1.00  0.00     0.181 C 
HETATM   24  O1  UNL     1     -21.442 -40.823  -7.029  1.00  0.00    -0.647 OA
HETATM   25  O2  UNL     1     -23.158 -41.954  -7.945  1.00  0.00    -0.647 OA
ENDBRANCH   2  23
BRANCH  10  26
HETATM   26  O3  UNL     1     -21.608 -34.831  -6.462  1.00  0.00    -0.364 OA
ATOM     27  H3  UNL     1     -21.277 -34.122  -5.923  1.00  0.00     0.212 HD
ENDBRANCH  10  26
BRANCH  13  28
HETATM   28  C12 UNL     1     -22.098 -32.039  -2.905  1.00  0.00     0.235 C 
HETATM   29  N2  UNL     1     -21.490 -31.856  -1.645  1.00  0.00    -0.062 NA
HETATM   30  O4  UNL     1     -22.862 -31.140  -3.361  1.00  0.00    -0.276 OA
ENDBRANCH  13  28
TORSDOF 3
ENDMDL
MODEL 3
REMARK VINA RESULT: -8.442955359      1.962      6.932
REMARK  3 active torsions:
REMARK  status: ('A' for Active; 'I' for Inactive)
REMARK    1  A    between atoms: C2_2  and  C3_3 
REMARK    2  A    between atoms: C8_13  and  O3_14 
REMARK    3  A    between atoms: C11_18  and  C12_19 
ROOT
HETATM    1  C1  UNL     1     -23.250 -41.168  -3.941  1.00  0.00     0.027 C 
HETATM    2  C2  UNL     1     -23.467 -40.233  -5.114  1.00  0.00     0.049 C 
HETATM    3  C4  UNL     1     -24.903 -40.165  -5.525  1.00  0.00     0.021 C 
HETATM    4  C5  UNL     1     -25.197 -38.726  -5.887  1.00  0.00     0.008 C 
HETATM    5  C6  UNL     1     -23.842 -38.022  -5.838  1.00  0.00     0.022 C 
HETATM    6  C7  UNL     1     -24.077 -36.592  -5.451  1.00  0.00     0.203 C 
HETATM    7  N1  UNL     1     -23.856 -35.581  -6.419  1.00  0.00    -0.037 N 
ATOM      8  H11 UNL     1     -24.649 -35.120  -6.866  1.00  0.00     0.281 HD
ATOM      9  H12 UNL     1     -23.482 -35.825  -7.336  1.00  0.00     0.281 HD
HETATM   10  C8  UNL     1     -23.031 -34.852  -5.467  1.00  0.00     0.231 C 
HETATM   11  C9  UNL     1     -23.746 -33.896  -4.571  1.00  0.00     0.075 C 
HETATM   12  C10 UNL     1     -23.080 -33.657  -3.261  1.00  0.00     0.011 C 
HETATM   13  C11 UNL     1     -21.932 -32.690  -3.318  1.00  0.00     0.080 C 
HETATM   14  C13 UNL     1     -20.766 -33.355  -2.600  1.00  0.00     0.015 C 
HETATM   15  C14 UNL     1     -21.053 -34.834  -2.670  1.00  0.00     0.011 C 
HETATM   16  C15 UNL     1     -22.540 -34.903  -2.603  1.00  0.00    -0.035 C 
HETATM   17  C16 UNL     1     -22.943 -34.909  -1.140  1.00  0.00     0.016 C 
HETATM   18  C17 UNL     1     -23.136 -36.083  -3.278  1.00  0.00     0.005 C 
HETATM   19  C18 UNL     1     -22.695 -37.416  -2.712  1.00  0.00     0.006 C 
HETATM   20  C19 UNL     1     -23.606 -38.456  -3.381  1.00  0.00     0.007 C 
HETATM   21  C20 UNL     1     -23.132 -38.807  -4.767  1.00  0.00     0.010 C 
HETATM   22  C21 UNL     1     -22.804 -36.125  -4.746  1.00  0.00     0.085 C 
ENDROOT
BRANCH   2  23
HETATM   23  C3  UNL     1     -22.655 -40.677  -6.294  1.00  0.00     0.181 C 
HETATM   24  O1  UNL     1     -22.916 -41.705  -6.965  1.00  0.00    -0.647 OA
HETATM   25  O2  UNL     1     -21.548 -39.938  -6.695  1.00  0.00    -0.647 OA
ENDBRANCH   2  23
BRANCH  10  26
HETATM   26  O3  UNL     1     -21.888 -34.311  -6.092  1.00  0.00    -0.364 OA
ATOM     27  H3  UNL     1     -21.882 -33.363  -6.034  1.00  0.00     0.212 HD
ENDBRANCH  10  26
BRANCH  13  28
HETATM   28  C12 UNL     1     -22.213 -31.429  -2.588  1.00  0.00     0.235 C 
HETATM   29  N2  UNL     1     -22.937 -30.417  -3.254  1.00  0.00    -0.062 NA
HETATM   30  O4  UNL     1     -21.825 -31.235  -1.400  1.00  0.00    -0.276 OA
ENDBRANCH  13  28
TORSDOF 3
ENDMDL
MODEL 4
REMARK VINA RESULT: -8.252355054      4.912      6.452
REMARK  3 active torsions:
REMARK  status: ('A' for Active; 'I' for Inactive)
REMARK    1  A    between atoms: C2_2  and  C3_3 
REMARK    2  A    between atoms: C8_13  and  O3_14 
REMARK    3  A    between atoms: C11_18  and  C12_19 
ROOT
HETATM    1  C1  UNL     1     -21.180 -34.863   1.060  1.00  0.00     0.027 C 
HETATM    2  C2  UNL     1     -21.596 -33.409   0.954  1.00  0.00     0.049 C 
HETATM    3  C4  UNL     1     -20.457 -32.475   1.205  1.00  0.00     0.021 C 
HETATM    4  C5  UNL     1     -20.599 -31.324   0.233  1.00  0.00     0.008 C 
HETATM    5  C6  UNL     1     -21.948 -31.550  -0.449  1.00  0.00     0.022 C 
HETATM    6  C7  UNL     1     -21.866 -30.984  -1.836  1.00  0.00     0.203 C 
HETATM    7  N1  UNL     1     -22.620 -29.823  -2.142  1.00  0.00    -0.037 N 
ATOM      8  H11 UNL     1     -22.154 -28.920  -2.231  1.00  0.00     0.281 HD
ATOM      9  H12 UNL     1     -23.253 -29.427  -1.447  1.00  0.00     0.281 HD
HETATM   10  C8  UNL     1     -23.157 -30.486  -3.322  1.00  0.00     0.231 C 
HETATM   11  C9  UNL     1     -22.359 -30.349  -4.576  1.00  0.00     0.075 C 
HETATM   12  C10 UNL     1     -22.526 -31.470  -5.542  1.00  0.00     0.011 C 
HETATM   13  C11 UNL     1     -23.776 -31.392  -6.371  1.00  0.00     0.080 C 
HETATM   14  C13 UNL     1     -24.442 -32.758  -6.284  1.00  0.00     0.015 C 
HETATM   15  C14 UNL     1     -23.923 -33.368  -5.007  1.00  0.00     0.011 C 
HETATM   16  C15 UNL     1     -22.533 -32.839  -4.908  1.00  0.00    -0.035 C 
HETATM   17  C16 UNL     1     -21.624 -33.760  -5.701  1.00  0.00     0.016 C 
HETATM   18  C17 UNL     1     -22.014 -32.716  -3.523  1.00  0.00     0.005 C 
HETATM   19  C18 UNL     1     -21.950 -34.022  -2.761  1.00  0.00     0.006 C 
HETATM   20  C19 UNL     1     -21.170 -33.698  -1.477  1.00  0.00     0.007 C 
HETATM   21  C20 UNL     1     -22.047 -33.052  -0.437  1.00  0.00     0.010 C 
HETATM   22  C21 UNL     1     -22.852 -31.787  -2.684  1.00  0.00     0.085 C 
ENDROOT
BRANCH   2  23
HETATM   23  C3  UNL     1     -22.687 -33.105   1.938  1.00  0.00     0.181 C 
HETATM   24  O1  UNL     1     -22.938 -31.947   2.354  1.00  0.00    -0.647 OA
HETATM   25  O2  UNL     1     -23.479 -34.130   2.438  1.00  0.00    -0.647 OA
ENDBRANCH   2  23
BRANCH  10  26
HETATM   26  O3  UNL     1     -24.532 -30.209  -3.480  1.00  0.00    -0.364 OA
ATOM     27  H3  UNL     1     -24.849 -29.641  -2.787  1.00  0.00     0.212 HD
ENDBRANCH  10  26
BRANCH  13  28
HETATM   28  C12 UNL     1     -23.493 -31.150  -7.807  1.00  0.00     0.235 C 
HETATM   29  N2  UNL     1     -24.402 -31.651  -8.763  1.00  0.00    -0.062 NA
HETATM   30  O4  UNL     1     -22.469 -30.516  -8.197  1.00  0.00    -0.276 OA
ENDBRANCH  13  28
TORSDOF 3
ENDMDL
MODEL 5
REMARK VINA RESULT: -8.209982175      4.321      6.753
REMARK  3 active torsions:
REMARK  status: ('A' for Active; 'I' for Inactive)
REMARK    1  A    between atoms: C2_2  and  C3_3 
REMARK    2  A    between atoms: C8_13  and  O3_14 
REMARK    3  A    between atoms: C11_18  and  C12_19 
ROOT
HETATM    1  C1  UNL     1     -20.795 -35.900  -2.738  1.00  0.00     0.027 C 
HETATM    2  C2  UNL     1     -21.842 -34.805  -2.663  1.00  0.00     0.049 C 
HETATM    3  C4  UNL     1     -21.377 -33.631  -1.863  1.00  0.00     0.021 C 
HETATM    4  C5  UNL     1     -21.879 -32.387  -2.562  1.00  0.00     0.008 C 
HETATM    5  C6  UNL     1     -22.789 -32.901  -3.678  1.00  0.00     0.022 C 
HETATM    6  C7  UNL     1     -22.735 -31.918  -4.809  1.00  0.00     0.203 C 
HETATM    7  N1  UNL     1     -23.888 -31.143  -5.091  1.00  0.00    -0.037 N 
ATOM      8  H11 UNL     1     -23.916 -30.157  -4.831  1.00  0.00     0.281 HD
ATOM      9  H12 UNL     1     -24.751 -31.304  -4.573  1.00  0.00     0.281 HD
HETATM   10  C8  UNL     1     -23.798 -31.523  -6.494  1.00  0.00     0.231 C 
HETATM   11  C9  UNL     1     -22.950 -30.654  -7.360  1.00  0.00     0.075 C 
HETATM   12  C10 UNL     1     -22.361 -31.343  -8.542  1.00  0.00     0.011 C 
HETATM   13  C11 UNL     1     -23.307 -31.510  -9.696  1.00  0.00     0.080 C 
HETATM   14  C13 UNL     1     -23.221 -32.968 -10.122  1.00  0.00     0.015 C 
HETATM   15  C14 UNL     1     -22.720 -33.705  -8.905  1.00  0.00     0.011 C 
HETATM   16  C15 UNL     1     -21.815 -32.719  -8.250  1.00  0.00    -0.035 C 
HETATM   17  C16 UNL     1     -20.441 -32.854  -8.880  1.00  0.00     0.016 C 
HETATM   18  C17 UNL     1     -21.695 -32.871  -6.779  1.00  0.00     0.005 C 
HETATM   19  C18 UNL     1     -21.144 -34.208  -6.331  1.00  0.00     0.006 C 
HETATM   20  C19 UNL     1     -20.880 -34.049  -4.826  1.00  0.00     0.007 C 
HETATM   21  C20 UNL     1     -22.138 -34.217  -4.017  1.00  0.00     0.010 C 
HETATM   22  C21 UNL     1     -23.021 -32.715  -6.082  1.00  0.00     0.085 C 
ENDROOT
BRANCH   2  23
HETATM   23  C3  UNL     1     -23.105 -35.331  -2.047  1.00  0.00     0.181 C 
HETATM   24  O1  UNL     1     -23.956 -36.001  -2.681  1.00  0.00    -0.647 OA
HETATM   25  O2  UNL     1     -23.381 -35.085  -0.708  1.00  0.00    -0.647 OA
ENDBRANCH   2  23
BRANCH  10  26
HETATM   26  O3  UNL     1     -25.074 -31.802  -7.028  1.00  0.00    -0.364 OA
ATOM     27  H3  UNL     1     -25.207 -32.737  -7.126  1.00  0.00     0.212 HD
ENDBRANCH  10  26
BRANCH  13  28
HETATM   28  C12 UNL     1     -22.914 -30.701 -10.877  1.00  0.00     0.235 C 
HETATM   29  N2  UNL     1     -21.684 -30.009 -10.836  1.00  0.00    -0.062 NA
HETATM   30  O4  UNL     1     -23.642 -30.612 -11.907  1.00  0.00    -0.276 OA
ENDBRANCH  13  28
TORSDOF 3
ENDMDL
