MODEL 1
REMARK VINA RESULT: -7.725522045      0.000      0.000
REMARK  7 active torsions:
REMARK  status: ('A' for Active; 'I' for Inactive)
REMARK    1  A    between atoms: C1_2  and  N1_3 
REMARK    2  A    between atoms: C1_2  and  N4_22 
REMARK    3  A    between atoms: N1_3  and  N2_5 
REMARK    4  A    between atoms: N2_5  and  C2_7 
REMARK    5  A    between atoms: C2_7  and  N3_9 
REMARK    6  A    between atoms: N3_9  and  C3_11 
REMARK    7  A    between atoms: N4_22  and  C13_24 
ROOT
HETATM    1  C2  UNL     1     -22.834 -34.620  -6.329  1.00  0.00     0.186 C 
HETATM    2  S2  UNL     1     -21.316 -34.338  -5.783  1.00  0.00    -0.040 SA
ENDROOT
BRANCH   1   3
HETATM    3  N2  UNL     1     -23.607 -33.530  -6.765  1.00  0.00    -0.274 N 
ATOM      4  H2  UNL     1     -23.679 -33.330  -7.763  1.00  0.00     0.189 HD
BRANCH   3   5
HETATM    5  N1  UNL     1     -24.278 -32.717  -5.847  1.00  0.00    -0.274 N 
ATOM      6  H1  UNL     1     -25.175 -33.004  -5.452  1.00  0.00     0.189 HD
BRANCH   5   7
HETATM    7  C1  UNL     1     -23.686 -31.487  -5.477  1.00  0.00     0.186 C 
HETATM    8  S1  UNL     1     -23.019 -30.539  -6.618  1.00  0.00    -0.040 SA
BRANCH   7   9
HETATM    9  N4  UNL     1     -23.682 -31.081  -4.130  1.00  0.00    -0.361 N 
ATOM     10  H4  UNL     1     -24.526 -30.678  -3.723  1.00  0.00     0.162 HD
BRANCH   9  11
HETATM   11  C13 UNL     1     -22.510 -31.224  -3.327  1.00  0.00     0.083 C 
HETATM   12  C14 UNL     1     -22.610 -30.437  -2.028  1.00  0.00     0.025 C 
HETATM   13  C15 UNL     1     -21.496 -31.050  -1.214  1.00  0.00     0.002 C 
HETATM   14  C16 UNL     1     -21.363 -32.476  -1.690  1.00  0.00     0.002 C 
HETATM   15  C17 UNL     1     -22.451 -32.650  -2.755  1.00  0.00     0.025 C 
ENDBRANCH   9  11
ENDBRANCH   7   9
ENDBRANCH   5   7
ENDBRANCH   3   5
ENDBRANCH   1   3
BRANCH   1  16
HETATM   16  N3  UNL     1     -23.337 -35.932  -6.353  1.00  0.00    -0.361 N 
ATOM     17  H3  UNL     1     -23.379 -36.426  -7.245  1.00  0.00     0.162 HD
BRANCH  16  18
HETATM   18  C3  UNL     1     -23.798 -36.609  -5.160  1.00  0.00     0.090 C 
HETATM   19  C4  UNL     1     -25.062 -37.355  -5.429  1.00  0.00     0.057 C 
HETATM   20  C5  UNL     1     -25.308 -38.602  -4.670  1.00  0.00     0.124 C 
HETATM   21  C6  UNL     1     -25.002 -38.524  -3.209  1.00  0.00     0.037 C 
HETATM   22  O1  UNL     1     -24.772 -39.738  -5.280  1.00  0.00    -0.381 OA
HETATM   23  C7  UNL     1     -23.615 -38.857  -2.803  1.00  0.00    -0.009 C 
HETATM   24  C8  UNL     1     -23.170 -40.106  -3.526  1.00  0.00     0.036 C 
HETATM   25  C12 UNL     1     -22.711 -37.711  -3.191  1.00  0.00     0.011 C 
HETATM   26  C9  UNL     1     -23.427 -39.896  -4.976  1.00  0.00     0.122 C 
HETATM   27  C10 UNL     1     -22.643 -38.751  -5.497  1.00  0.00     0.038 C 
HETATM   28  C11 UNL     1     -22.677 -37.503  -4.683  1.00  0.00     0.011 C 
ENDBRANCH  16  18
ENDBRANCH   1  16
TORSDOF 7
ENDMDL
MODEL 2
REMARK VINA RESULT: -7.720019468      3.820      5.510
REMARK  7 active torsions:
REMARK  status: ('A' for Active; 'I' for Inactive)
REMARK    1  A    between atoms: C1_2  and  N1_3 
REMARK    2  A    between atoms: C1_2  and  N4_22 
REMARK    3  A    between atoms: N1_3  and  N2_5 
REMARK    4  A    between atoms: N2_5  and  C2_7 
REMARK    5  A    between atoms: C2_7  and  N3_9 
REMARK    6  A    between atoms: N3_9  and  C3_11 
REMARK    7  A    between atoms: N4_22  and  C13_24 
ROOT
HETATM    1  C2  UNL     1     -22.834 -37.467  -2.292  1.00  0.00     0.186 C 
HETATM    2  S2  UNL     1     -23.821 -38.774  -2.272  1.00  0.00    -0.040 SA
ENDROOT
BRANCH   1   3
HETATM    3  N2  UNL     1     -22.404 -36.928  -1.068  1.00  0.00    -0.274 N 
ATOM      4  H2  UNL     1     -21.506 -37.217  -0.678  1.00  0.00     0.189 HD
BRANCH   3   5
HETATM    5  N1  UNL     1     -23.191 -36.001  -0.379  1.00  0.00    -0.274 N 
ATOM      6  H1  UNL     1     -24.135 -35.780  -0.696  1.00  0.00     0.189 HD
BRANCH   5   7
HETATM    7  C1  UNL     1     -22.649 -35.377   0.769  1.00  0.00     0.186 C 
HETATM    8  S1  UNL     1     -23.213 -35.771   2.243  1.00  0.00    -0.040 SA
BRANCH   7   9
HETATM    9  N4  UNL     1     -21.619 -34.428   0.638  1.00  0.00    -0.361 N 
ATOM     10  H4  UNL     1     -20.653 -34.705   0.810  1.00  0.00     0.162 HD
BRANCH   9  11
HETATM   11  C13 UNL     1     -21.911 -33.080   0.267  1.00  0.00     0.083 C 
HETATM   12  C14 UNL     1     -20.939 -32.093   0.895  1.00  0.00     0.025 C 
HETATM   13  C15 UNL     1     -21.183 -30.854   0.068  1.00  0.00     0.002 C 
HETATM   14  C16 UNL     1     -21.614 -31.339  -1.296  1.00  0.00     0.002 C 
HETATM   15  C17 UNL     1     -21.564 -32.868  -1.216  1.00  0.00     0.025 C 
ENDBRANCH   9  11
ENDBRANCH   7   9
ENDBRANCH   5   7
ENDBRANCH   3   5
ENDBRANCH   1   3
BRANCH   1  16
HETATM   16  N3  UNL     1     -22.438 -36.908  -3.520  1.00  0.00    -0.361 N 
ATOM     17  H3  UNL     1     -22.133 -37.533  -4.267  1.00  0.00     0.162 HD
BRANCH  16  18
HETATM   18  C3  UNL     1     -22.445 -35.482  -3.763  1.00  0.00     0.090 C 
HETATM   19  C4  UNL     1     -21.102 -35.014  -4.214  1.00  0.00     0.057 C 
HETATM   20  C5  UNL     1     -21.044 -33.867  -5.147  1.00  0.00     0.124 C 
HETATM   21  C6  UNL     1     -21.950 -32.728  -4.808  1.00  0.00     0.037 C 
HETATM   22  O1  UNL     1     -21.116 -34.240  -6.491  1.00  0.00    -0.381 OA
HETATM   23  C7  UNL     1     -23.321 -32.782  -5.369  1.00  0.00    -0.009 C 
HETATM   24  C8  UNL     1     -23.250 -33.185  -6.823  1.00  0.00     0.036 C 
HETATM   25  C12 UNL     1     -24.115 -33.816  -4.607  1.00  0.00     0.011 C 
HETATM   26  C9  UNL     1     -22.430 -34.422  -6.902  1.00  0.00     0.122 C 
HETATM   27  C10 UNL     1     -23.059 -35.529  -6.141  1.00  0.00     0.038 C 
HETATM   28  C11 UNL     1     -23.537 -35.198  -4.769  1.00  0.00     0.011 C 
ENDBRANCH  16  18
ENDBRANCH   1  16
TORSDOF 7
ENDMDL
MODEL 3
REMARK VINA RESULT: -7.709476132      3.929      6.684
REMARK  7 active torsions:
REMARK  status: ('A' for Active; 'I' for Inactive)
REMARK    1  A    between atoms: C1_2  and  N1_3 
REMARK    2  A    between atoms: C1_2  and  N4_22 
REMARK    3  A    between atoms: N1_3  and  N2_5 
REMARK    4  A    between atoms: N2_5  and  C2_7 
REMARK    5  A    between atoms: C2_7  and  N3_9 
REMARK    6  A    between atoms: N3_9  and  C3_11 
REMARK    7  A    between atoms: N4_22  and  C13_24 
ROOT
HETATM    1  C2  UNL     1     -21.522 -32.235  -0.426  1.00  0.00     0.186 C 
HETATM    2  S2  UNL     1     -21.008 -30.936   0.428  1.00  0.00    -0.040 SA
ENDROOT
BRANCH   1   3
HETATM    3  N2  UNL     1     -22.189 -33.269   0.254  1.00  0.00    -0.274 N 
ATOM      4  H2  UNL     1     -23.192 -33.193   0.426  1.00  0.00     0.189 HD
BRANCH   3   5
HETATM    5  N1  UNL     1     -21.494 -34.398   0.698  1.00  0.00    -0.274 N 
ATOM      6  H1  UNL     1     -20.488 -34.361   0.860  1.00  0.00     0.189 HD
BRANCH   5   7
HETATM    7  C1  UNL     1     -22.219 -35.593   0.915  1.00  0.00     0.186 C 
HETATM    8  S1  UNL     1     -23.247 -35.694   2.171  1.00  0.00    -0.040 SA
BRANCH   7   9
HETATM    9  N4  UNL     1     -22.059 -36.685   0.043  1.00  0.00    -0.361 N 
ATOM     10  H4  UNL     1     -21.123 -36.962  -0.252  1.00  0.00     0.162 HD
BRANCH   9  11
HETATM   11  C13 UNL     1     -23.193 -37.411  -0.434  1.00  0.00     0.083 C 
HETATM   12  C14 UNL     1     -23.036 -37.819  -1.891  1.00  0.00     0.025 C 
HETATM   13  C15 UNL     1     -24.110 -38.870  -2.031  1.00  0.00     0.002 C 
HETATM   14  C16 UNL     1     -24.262 -39.500  -0.667  1.00  0.00     0.002 C 
HETATM   15  C17 UNL     1     -23.223 -38.803   0.217  1.00  0.00     0.025 C 
ENDBRANCH   9  11
ENDBRANCH   7   9
ENDBRANCH   5   7
ENDBRANCH   3   5
ENDBRANCH   1   3
BRANCH   1  16
HETATM   16  N3  UNL     1     -21.290 -32.298  -1.811  1.00  0.00    -0.361 N 
ATOM     17  H3  UNL     1     -20.378 -32.017  -2.169  1.00  0.00     0.162 HD
BRANCH  16  18
HETATM   18  C3  UNL     1     -22.298 -32.748  -2.747  1.00  0.00     0.090 C 
HETATM   19  C4  UNL     1     -22.454 -31.773  -3.866  1.00  0.00     0.057 C 
HETATM   20  C5  UNL     1     -22.831 -32.299  -5.197  1.00  0.00     0.124 C 
HETATM   21  C6  UNL     1     -23.921 -33.322  -5.189  1.00  0.00     0.037 C 
HETATM   22  O1  UNL     1     -21.736 -32.675  -5.977  1.00  0.00    -0.381 OA
HETATM   23  C7  UNL     1     -23.502 -34.736  -5.036  1.00  0.00    -0.009 C 
HETATM   24  C8  UNL     1     -22.322 -35.006  -5.939  1.00  0.00     0.036 C 
HETATM   25  C12 UNL     1     -23.090 -34.965  -3.602  1.00  0.00     0.011 C 
HETATM   26  C9  UNL     1     -21.304 -33.957  -5.667  1.00  0.00     0.122 C 
HETATM   27  C10 UNL     1     -20.839 -34.018  -4.260  1.00  0.00     0.038 C 
HETATM   28  C11 UNL     1     -21.898 -34.127  -3.218  1.00  0.00     0.011 C 
ENDBRANCH  16  18
ENDBRANCH   1  16
TORSDOF 7
ENDMDL
MODEL 4
REMARK VINA RESULT: -7.609103166      3.692      4.663
REMARK  7 active torsions:
REMARK  status: ('A' for Active; 'I' for Inactive)
REMARK    1  A    between atoms: C1_2  and  N1_3 
REMARK    2  A    between atoms: C1_2  and  N4_22 
REMARK    3  A    between atoms: N1_3  and  N2_5 
REMARK    4  A    between atoms: N2_5  and  C2_7 
REMARK    5  A    between atoms: C2_7  and  N3_9 
REMARK    6  A    between atoms: N3_9  and  C3_11 
REMARK    7  A    between atoms: N4_22  and  C13_24 
ROOT
HETATM    1  C2  UNL     1     -22.698 -35.579   0.173  1.00  0.00     0.186 C 
HETATM    2  S2  UNL     1     -23.229 -37.018   0.746  1.00  0.00    -0.040 SA
ENDROOT
BRANCH   1   3
HETATM    3  N2  UNL     1     -22.482 -34.529   1.082  1.00  0.00    -0.274 N 
ATOM      4  H2  UNL     1     -23.213 -34.281   1.749  1.00  0.00     0.189 HD
BRANCH   3   5
HETATM    5  N1  UNL     1     -21.276 -33.821   1.082  1.00  0.00    -0.274 N 
ATOM      6  H1  UNL     1     -20.386 -34.306   1.201  1.00  0.00     0.189 HD
BRANCH   5   7
HETATM    7  C1  UNL     1     -21.319 -32.418   0.914  1.00  0.00     0.186 C 
HETATM    8  S1  UNL     1     -21.686 -31.466   2.181  1.00  0.00    -0.040 SA
BRANCH   7   9
HETATM    9  N4  UNL     1     -21.035 -31.847  -0.340  1.00  0.00    -0.361 N 
ATOM     10  H4  UNL     1     -20.124 -31.420  -0.505  1.00  0.00     0.162 HD
BRANCH   9  11
HETATM   11  C13 UNL     1     -22.009 -31.858  -1.385  1.00  0.00     0.083 C 
HETATM   12  C14 UNL     1     -22.301 -30.458  -1.906  1.00  0.00     0.025 C 
HETATM   13  C15 UNL     1     -23.004 -30.758  -3.208  1.00  0.00     0.002 C 
HETATM   14  C16 UNL     1     -22.448 -32.075  -3.692  1.00  0.00     0.002 C 
HETATM   15  C17 UNL     1     -21.397 -32.477  -2.652  1.00  0.00     0.025 C 
ENDBRANCH   9  11
ENDBRANCH   7   9
ENDBRANCH   5   7
ENDBRANCH   3   5
ENDBRANCH   1   3
BRANCH   1  16
HETATM   16  N3  UNL     1     -22.469 -35.416  -1.205  1.00  0.00    -0.361 N 
ATOM     17  H3  UNL     1     -21.741 -34.769  -1.508  1.00  0.00     0.162 HD
BRANCH  16  18
HETATM   18  C3  UNL     1     -23.227 -36.132  -2.208  1.00  0.00     0.090 C 
HETATM   19  C4  UNL     1     -24.014 -35.186  -3.052  1.00  0.00     0.057 C 
HETATM   20  C5  UNL     1     -24.254 -35.552  -4.466  1.00  0.00     0.124 C 
HETATM   21  C6  UNL     1     -24.656 -36.973  -4.693  1.00  0.00     0.037 C 
HETATM   22  O1  UNL     1     -23.242 -35.127  -5.329  1.00  0.00    -0.381 OA
HETATM   23  C7  UNL     1     -23.558 -37.949  -4.897  1.00  0.00    -0.009 C 
HETATM   24  C8  UNL     1     -22.546 -37.367  -5.855  1.00  0.00     0.036 C 
HETATM   25  C12 UNL     1     -22.890 -38.208  -3.568  1.00  0.00     0.011 C 
HETATM   26  C9  UNL     1     -22.178 -36.018  -5.348  1.00  0.00     0.122 C 
HETATM   27  C10 UNL     1     -21.554 -36.105  -4.006  1.00  0.00     0.038 C 
HETATM   28  C11 UNL     1     -22.251 -36.963  -3.008  1.00  0.00     0.011 C 
ENDBRANCH  16  18
ENDBRANCH   1  16
TORSDOF 7
ENDMDL
MODEL 5
REMARK VINA RESULT: -7.602083597      0.937      1.500
REMARK  7 active torsions:
REMARK  status: ('A' for Active; 'I' for Inactive)
REMARK    1  A    between atoms: C1_2  and  N1_3 
REMARK    2  A    between atoms: C1_2  and  N4_22 
REMARK    3  A    between atoms: N1_3  and  N2_5 
REMARK    4  A    between atoms: N2_5  and  C2_7 
REMARK    5  A    between atoms: C2_7  and  N3_9 
REMARK    6  A    between atoms: N3_9  and  C3_11 
REMARK    7  A    between atoms: N4_22  and  C13_24 
ROOT
HETATM    1  C2  UNL     1     -22.752 -34.221  -6.853  1.00  0.00     0.186 C 
HETATM    2  S2  UNL     1     -21.261 -33.941  -6.236  1.00  0.00    -0.040 SA
ENDROOT
BRANCH   1   3
HETATM    3  N2  UNL     1     -23.583 -33.123  -7.132  1.00  0.00    -0.274 N 
ATOM      4  H2  UNL     1     -23.708 -32.816  -8.097  1.00  0.00     0.189 HD
BRANCH   3   5
HETATM    5  N1  UNL     1     -24.242 -32.446  -6.101  1.00  0.00    -0.274 N 
ATOM      6  H1  UNL     1     -25.122 -32.798  -5.724  1.00  0.00     0.189 HD
BRANCH   5   7
HETATM    7  C1  UNL     1     -23.661 -31.260  -5.595  1.00  0.00     0.186 C 
HETATM    8  S1  UNL     1     -22.961 -30.206  -6.617  1.00  0.00    -0.040 SA
BRANCH   7   9
HETATM    9  N4  UNL     1     -23.695 -30.989  -4.215  1.00  0.00    -0.361 N 
ATOM     10  H4  UNL     1     -24.563 -30.670  -3.786  1.00  0.00     0.162 HD
BRANCH   9  11
HETATM   11  C13 UNL     1     -22.529 -31.156  -3.408  1.00  0.00     0.083 C 
HETATM   12  C14 UNL     1     -22.664 -30.461  -2.061  1.00  0.00     0.025 C 
HETATM   13  C15 UNL     1     -21.543 -31.097  -1.276  1.00  0.00     0.002 C 
HETATM   14  C16 UNL     1     -21.366 -32.484  -1.844  1.00  0.00     0.002 C 
HETATM   15  C17 UNL     1     -22.437 -32.615  -2.932  1.00  0.00     0.025 C 
ENDBRANCH   9  11
ENDBRANCH   7   9
ENDBRANCH   5   7
ENDBRANCH   3   5
ENDBRANCH   1   3
BRANCH   1  16
HETATM   16  N3  UNL     1     -23.174 -35.540  -7.093  1.00  0.00    -0.361 N 
ATOM     17  H3  UNL     1     -23.567 -35.772  -8.005  1.00  0.00     0.162 HD
BRANCH  16  18
HETATM   18  C3  UNL     1     -23.072 -36.582  -6.093  1.00  0.00     0.090 C 
HETATM   19  C4  UNL     1     -24.066 -36.368  -5.001  1.00  0.00     0.057 C 
HETATM   20  C5  UNL     1     -24.621 -37.561  -4.324  1.00  0.00     0.124 C 
HETATM   21  C6  UNL     1     -23.620 -38.613  -3.972  1.00  0.00     0.037 C 
HETATM   22  O1  UNL     1     -25.757 -38.077  -4.951  1.00  0.00    -0.381 OA
HETATM   23  C7  UNL     1     -23.351 -39.644  -5.003  1.00  0.00    -0.009 C 
HETATM   24  C8  UNL     1     -24.660 -40.119  -5.587  1.00  0.00     0.036 C 
HETATM   25  C12 UNL     1     -22.516 -39.024  -6.099  1.00  0.00     0.011 C 
HETATM   26  C9  UNL     1     -25.423 -38.914  -6.007  1.00  0.00     0.122 C 
HETATM   27  C10 UNL     1     -24.693 -38.157  -7.053  1.00  0.00     0.038 C 
HETATM   28  C11 UNL     1     -23.247 -37.907  -6.798  1.00  0.00     0.011 C 
ENDBRANCH  16  18
ENDBRANCH   1  16
TORSDOF 7
ENDMDL
