MODEL 1
REMARK VINA RESULT: -7.664011742      0.000      0.000
REMARK  3 active torsions:
REMARK  status: ('A' for Active; 'I' for Inactive)
REMARK       I    between atoms: N1_2  and  C2_4 
REMARK       I    between atoms: C2_4  and  N2_6 
REMARK    1  A    between atoms: C9_13  and  N3_14 
REMARK       I    between atoms: N3_14  and  C10_16 
REMARK       I    between atoms: C10_16  and  N4_18 
REMARK    2  A    between atoms: N4_18  and  C11_20 
REMARK    3  A    between atoms: C18_27  and  O3_28 
ROOT
HETATM    1  C1  UNL     1     -23.441 -34.527 -10.003  1.00  0.00     0.151 C 
HETATM    2  N1  UNL     1     -23.582 -35.702  -9.142  1.00  0.00    -0.347 N 
ATOM      3  H1  UNL     1     -24.374 -35.775  -8.504  1.00  0.00     0.163 HD
HETATM    4  C2  UNL     1     -22.624 -36.726  -9.197  1.00  0.00     0.317 C 
HETATM    5  O1  UNL     1     -21.645 -36.619  -9.997  1.00  0.00    -0.247 OA
HETATM    6  N2  UNL     1     -22.716 -37.892  -8.376  1.00  0.00    -0.333 N 
HETATM    7  C3  UNL     1     -21.641 -38.821  -8.620  1.00  0.00     0.127 C 
HETATM    8  C4  UNL     1     -22.122 -40.205  -8.952  1.00  0.00     0.020 C 
HETATM    9  C5  UNL     1     -23.244 -40.646  -8.035  1.00  0.00     0.002 C 
HETATM   10  C6  UNL     1     -23.040 -40.146  -6.644  1.00  0.00     0.014 C 
HETATM   11  C7  UNL     1     -23.706 -38.833  -6.327  1.00  0.00     0.004 C 
HETATM   12  C8  UNL     1     -22.815 -38.142  -5.316  1.00  0.00     0.039 C 
HETATM   13  C9  UNL     1     -23.421 -36.971  -4.629  1.00  0.00     0.087 C 
HETATM   14  C16 UNL     1     -24.891 -37.110  -4.366  1.00  0.00     0.028 C 
HETATM   15  C17 UNL     1     -25.289 -38.583  -4.372  1.00  0.00     0.034 C 
HETATM   16  C18 UNL     1     -25.105 -39.064  -5.769  1.00  0.00     0.128 C 
HETATM   17  C19 UNL     1     -23.842 -37.900  -7.498  1.00  0.00     0.139 C 
ENDROOT
BRANCH  16  18
HETATM   18  O3  UNL     1     -25.398 -40.418  -5.923  1.00  0.00    -0.395 OA
ATOM     19  H3  UNL     1     -26.303 -40.483  -6.204  1.00  0.00     0.210 HD
ENDBRANCH  16  18
BRANCH  13  20
HETATM   20  N3  UNL     1     -22.760 -36.668  -3.367  1.00  0.00    -0.338 N 
HETATM   21  C10 UNL     1     -22.815 -35.367  -2.800  1.00  0.00     0.316 C 
HETATM   22  O2  UNL     1     -23.445 -34.459  -3.396  1.00  0.00    -0.247 OA
HETATM   23  N4  UNL     1     -22.176 -35.069  -1.576  1.00  0.00    -0.339 N 
ATOM     24  H4  UNL     1     -21.664 -35.805  -1.090  1.00  0.00     0.164 HD
ATOM     25  H3  UNL     1     -22.249 -37.404  -2.882  1.00  0.00     0.164 HD
BRANCH  23  26
HETATM   26  C11 UNL     1     -22.228 -33.766  -1.005  1.00  0.00     0.086 C 
HETATM   27  C12 UNL     1     -21.260 -32.796  -1.682  1.00  0.00     0.025 C 
HETATM   28  C13 UNL     1     -21.314 -31.630  -0.718  1.00  0.00     0.002 C 
HETATM   29  C14 UNL     1     -21.220 -32.308   0.619  1.00  0.00     0.002 C 
HETATM   30  C15 UNL     1     -21.657 -33.744   0.420  1.00  0.00     0.025 C 
ENDBRANCH  23  26
ENDBRANCH  13  20
TORSDOF 3
ENDMDL
MODEL 2
REMARK VINA RESULT: -7.652731729      3.673      5.866
REMARK  3 active torsions:
REMARK  status: ('A' for Active; 'I' for Inactive)
REMARK       I    between atoms: N1_2  and  C2_4 
REMARK       I    between atoms: C2_4  and  N2_6 
REMARK    1  A    between atoms: C9_13  and  N3_14 
REMARK       I    between atoms: N3_14  and  C10_16 
REMARK       I    between atoms: C10_16  and  N4_18 
REMARK    2  A    between atoms: N4_18  and  C11_20 
REMARK    3  A    between atoms: C18_27  and  O3_28 
ROOT
HETATM    1  C1  UNL     1     -19.213 -35.594  -9.659  1.00  0.00     0.151 C 
HETATM    2  N1  UNL     1     -20.220 -34.659  -9.153  1.00  0.00    -0.347 N 
ATOM      3  H1  UNL     1     -19.980 -34.000  -8.413  1.00  0.00     0.163 HD
HETATM    4  C2  UNL     1     -21.517 -34.673  -9.690  1.00  0.00     0.317 C 
HETATM    5  O1  UNL     1     -21.799 -35.499 -10.612  1.00  0.00    -0.247 OA
HETATM    6  N2  UNL     1     -22.536 -33.783  -9.231  1.00  0.00    -0.333 N 
HETATM    7  C3  UNL     1     -23.777 -33.955  -9.942  1.00  0.00     0.127 C 
HETATM    8  C4  UNL     1     -24.294 -32.680 -10.543  1.00  0.00     0.020 C 
HETATM    9  C5  UNL     1     -24.188 -31.518  -9.578  1.00  0.00     0.002 C 
HETATM   10  C6  UNL     1     -24.460 -31.948  -8.175  1.00  0.00     0.014 C 
HETATM   11  C7  UNL     1     -23.246 -32.333  -7.371  1.00  0.00     0.004 C 
HETATM   12  C8  UNL     1     -23.701 -33.413  -6.412  1.00  0.00     0.039 C 
HETATM   13  C9  UNL     1     -22.750 -33.731  -5.314  1.00  0.00     0.087 C 
HETATM   14  C16 UNL     1     -21.987 -32.545  -4.805  1.00  0.00     0.028 C 
HETATM   15  C17 UNL     1     -22.730 -31.256  -5.143  1.00  0.00     0.034 C 
HETATM   16  C18 UNL     1     -22.693 -31.125  -6.625  1.00  0.00     0.128 C 
HETATM   17  C19 UNL     1     -22.117 -32.913  -8.178  1.00  0.00     0.139 C 
ENDROOT
BRANCH  16  18
HETATM   18  O3  UNL     1     -23.373 -30.000  -7.091  1.00  0.00    -0.395 OA
ATOM     19  H3  UNL     1     -24.301 -30.201  -7.075  1.00  0.00     0.210 HD
ENDBRANCH  16  18
BRANCH  13  20
HETATM   20  N3  UNL     1     -23.407 -34.369  -4.182  1.00  0.00    -0.338 N 
HETATM   21  C10 UNL     1     -22.927 -35.594  -3.646  1.00  0.00     0.316 C 
HETATM   22  O2  UNL     1     -21.917 -36.138  -4.155  1.00  0.00    -0.247 OA
HETATM   23  N4  UNL     1     -23.562 -36.216  -2.548  1.00  0.00    -0.339 N 
ATOM     24  H4  UNL     1     -24.382 -35.776  -2.132  1.00  0.00     0.164 HD
ATOM     25  H3  UNL     1     -24.227 -33.928  -3.767  1.00  0.00     0.164 HD
BRANCH  23  26
HETATM   26  C11 UNL     1     -23.085 -37.443  -2.007  1.00  0.00     0.086 C 
HETATM   27  C12 UNL     1     -24.116 -38.566  -2.120  1.00  0.00     0.025 C 
HETATM   28  C13 UNL     1     -23.477 -39.619  -1.239  1.00  0.00     0.002 C 
HETATM   29  C14 UNL     1     -23.047 -38.823  -0.039  1.00  0.00     0.002 C 
HETATM   30  C15 UNL     1     -22.942 -37.378  -0.480  1.00  0.00     0.025 C 
ENDBRANCH  23  26
ENDBRANCH  13  20
TORSDOF 3
ENDMDL
MODEL 3
REMARK VINA RESULT: -7.630104497      1.000      1.211
REMARK  3 active torsions:
REMARK  status: ('A' for Active; 'I' for Inactive)
REMARK       I    between atoms: N1_2  and  C2_4 
REMARK       I    between atoms: C2_4  and  N2_6 
REMARK    1  A    between atoms: C9_13  and  N3_14 
REMARK       I    between atoms: N3_14  and  C10_16 
REMARK       I    between atoms: C10_16  and  N4_18 
REMARK    2  A    between atoms: N4_18  and  C11_20 
REMARK    3  A    between atoms: C18_27  and  O3_28 
ROOT
HETATM    1  C1  UNL     1     -23.370 -34.233  -9.531  1.00  0.00     0.151 C 
HETATM    2  N1  UNL     1     -23.597 -35.549  -8.932  1.00  0.00    -0.347 N 
ATOM      3  H1  UNL     1     -24.462 -35.737  -8.425  1.00  0.00     0.163 HD
HETATM    4  C2  UNL     1     -22.623 -36.551  -9.057  1.00  0.00     0.317 C 
HETATM    5  O1  UNL     1     -21.552 -36.301  -9.692  1.00  0.00    -0.247 OA
HETATM    6  N2  UNL     1     -22.796 -37.850  -8.489  1.00  0.00    -0.333 N 
HETATM    7  C3  UNL     1     -21.683 -38.724  -8.765  1.00  0.00     0.127 C 
HETATM    8  C4  UNL     1     -22.093 -40.016  -9.410  1.00  0.00     0.020 C 
HETATM    9  C5  UNL     1     -23.314 -40.616  -8.743  1.00  0.00     0.002 C 
HETATM   10  C6  UNL     1     -23.296 -40.389  -7.268  1.00  0.00     0.014 C 
HETATM   11  C7  UNL     1     -24.019 -39.156  -6.796  1.00  0.00     0.004 C 
HETATM   12  C8  UNL     1     -23.276 -38.674  -5.568  1.00  0.00     0.039 C 
HETATM   13  C9  UNL     1     -23.984 -37.650  -4.755  1.00  0.00     0.087 C 
HETATM   14  C16 UNL     1     -25.472 -37.826  -4.713  1.00  0.00     0.028 C 
HETATM   15  C17 UNL     1     -25.841 -39.269  -5.046  1.00  0.00     0.034 C 
HETATM   16  C18 UNL     1     -25.473 -39.479  -6.474  1.00  0.00     0.128 C 
HETATM   17  C19 UNL     1     -24.024 -38.016  -7.778  1.00  0.00     0.139 C 
ENDROOT
BRANCH  16  18
HETATM   18  O3  UNL     1     -25.720 -40.777  -6.917  1.00  0.00    -0.395 OA
ATOM     19  H3  UNL     1     -26.292 -41.191  -6.281  1.00  0.00     0.210 HD
ENDBRANCH  16  18
BRANCH  13  20
HETATM   20  N3  UNL     1     -23.492 -37.596  -3.386  1.00  0.00    -0.338 N 
HETATM   21  C10 UNL     1     -23.522 -36.387  -2.640  1.00  0.00     0.316 C 
HETATM   22  O2  UNL     1     -23.980 -35.345  -3.169  1.00  0.00    -0.247 OA
HETATM   23  N4  UNL     1     -23.047 -36.330  -1.311  1.00  0.00    -0.339 N 
ATOM     24  H4  UNL     1     -22.674 -37.175  -0.879  1.00  0.00     0.164 HD
ATOM     25  H3  UNL     1     -23.120 -38.441  -2.955  1.00  0.00     0.164 HD
BRANCH  23  26
HETATM   26  C11 UNL     1     -23.074 -35.122  -0.559  1.00  0.00     0.086 C 
HETATM   27  C12 UNL     1     -21.723 -34.407  -0.560  1.00  0.00     0.025 C 
HETATM   28  C13 UNL     1     -21.960 -33.362   0.510  1.00  0.00     0.002 C 
HETATM   29  C14 UNL     1     -22.629 -34.155   1.597  1.00  0.00     0.002 C 
HETATM   30  C15 UNL     1     -23.223 -35.387   0.945  1.00  0.00     0.025 C 
ENDBRANCH  23  26
ENDBRANCH  13  20
TORSDOF 3
ENDMDL
MODEL 4
REMARK VINA RESULT: -7.491955969      3.093      7.134
REMARK  3 active torsions:
REMARK  status: ('A' for Active; 'I' for Inactive)
REMARK       I    between atoms: N1_2  and  C2_4 
REMARK       I    between atoms: C2_4  and  N2_6 
REMARK    1  A    between atoms: C9_13  and  N3_14 
REMARK       I    between atoms: N3_14  and  C10_16 
REMARK       I    between atoms: C10_16  and  N4_18 
REMARK    2  A    between atoms: N4_18  and  C11_20 
REMARK    3  A    between atoms: C18_27  and  O3_28 
ROOT
HETATM    1  C1  UNL     1     -19.863 -33.863  -9.487  1.00  0.00     0.151 C 
HETATM    2  N1  UNL     1     -20.435 -33.601  -8.165  1.00  0.00    -0.347 N 
ATOM      3  H1  UNL     1     -19.916 -33.855  -7.325  1.00  0.00     0.163 HD
HETATM    4  C2  UNL     1     -21.698 -32.999  -8.058  1.00  0.00     0.317 C 
HETATM    5  O1  UNL     1     -22.330 -32.688  -9.114  1.00  0.00    -0.247 OA
HETATM    6  N2  UNL     1     -22.300 -32.723  -6.792  1.00  0.00    -0.333 N 
HETATM    7  C3  UNL     1     -23.583 -32.079  -6.922  1.00  0.00     0.127 C 
HETATM    8  C4  UNL     1     -23.677 -30.792  -6.153  1.00  0.00     0.020 C 
HETATM    9  C5  UNL     1     -23.089 -30.922  -4.763  1.00  0.00     0.002 C 
HETATM   10  C6  UNL     1     -23.367 -32.266  -4.177  1.00  0.00     0.014 C 
HETATM   11  C7  UNL     1     -22.296 -33.300  -4.398  1.00  0.00     0.004 C 
HETATM   12  C8  UNL     1     -23.009 -34.633  -4.492  1.00  0.00     0.039 C 
HETATM   13  C9  UNL     1     -22.134 -35.832  -4.405  1.00  0.00     0.087 C 
HETATM   14  C16 UNL     1     -20.964 -35.668  -3.480  1.00  0.00     0.028 C 
HETATM   15  C17 UNL     1     -21.242 -34.556  -2.473  1.00  0.00     0.034 C 
HETATM   16  C18 UNL     1     -21.294 -33.287  -3.250  1.00  0.00     0.128 C 
HETATM   17  C19 UNL     1     -21.514 -33.133  -5.672  1.00  0.00     0.139 C 
ENDROOT
BRANCH  16  18
HETATM   18  O3  UNL     1     -21.580 -32.174  -2.459  1.00  0.00    -0.395 OA
ATOM     19  H3  UNL     1     -20.783 -31.662  -2.391  1.00  0.00     0.210 HD
ENDBRANCH  16  18
BRANCH  13  20
HETATM   20  N3  UNL     1     -22.868 -37.023  -4.003  1.00  0.00    -0.338 N 
HETATM   21  C10 UNL     1     -22.796 -38.223  -4.760  1.00  0.00     0.316 C 
HETATM   22  O2  UNL     1     -22.086 -38.260  -5.795  1.00  0.00    -0.247 OA
HETATM   23  N4  UNL     1     -23.507 -39.382  -4.374  1.00  0.00    -0.339 N 
ATOM     24  H4  UNL     1     -24.083 -39.354  -3.533  1.00  0.00     0.164 HD
ATOM     25  H3  UNL     1     -23.444 -36.995  -3.163  1.00  0.00     0.164 HD
BRANCH  23  26
HETATM   26  C11 UNL     1     -23.438 -40.586  -5.129  1.00  0.00     0.086 C 
HETATM   27  C12 UNL     1     -24.764 -40.920  -5.811  1.00  0.00     0.025 C 
HETATM   28  C13 UNL     1     -24.492 -42.336  -6.273  1.00  0.00     0.002 C 
HETATM   29  C14 UNL     1     -23.848 -42.954  -5.065  1.00  0.00     0.002 C 
HETATM   30  C15 UNL     1     -23.296 -41.820  -4.227  1.00  0.00     0.025 C 
ENDBRANCH  23  26
ENDBRANCH  13  20
TORSDOF 3
ENDMDL
MODEL 5
REMARK VINA RESULT: -7.372325412      1.217      1.541
REMARK  3 active torsions:
REMARK  status: ('A' for Active; 'I' for Inactive)
REMARK       I    between atoms: N1_2  and  C2_4 
REMARK       I    between atoms: C2_4  and  N2_6 
REMARK    1  A    between atoms: C9_13  and  N3_14 
REMARK       I    between atoms: N3_14  and  C10_16 
REMARK       I    between atoms: C10_16  and  N4_18 
REMARK    2  A    between atoms: N4_18  and  C11_20 
REMARK    3  A    between atoms: C18_27  and  O3_28 
ROOT
HETATM    1  C1  UNL     1     -22.478 -36.158 -10.768  1.00  0.00     0.151 C 
HETATM    2  N1  UNL     1     -22.817 -37.102  -9.702  1.00  0.00    -0.347 N 
ATOM      3  H1  UNL     1     -23.737 -37.067  -9.262  1.00  0.00     0.163 HD
HETATM    4  C2  UNL     1     -21.875 -38.057  -9.289  1.00  0.00     0.317 C 
HETATM    5  O1  UNL     1     -20.736 -38.088  -9.849  1.00  0.00    -0.247 OA
HETATM    6  N2  UNL     1     -22.157 -39.000  -8.253  1.00  0.00    -0.333 N 
HETATM    7  C3  UNL     1     -21.057 -39.900  -8.015  1.00  0.00     0.127 C 
HETATM    8  C4  UNL     1     -21.449 -41.346  -8.102  1.00  0.00     0.020 C 
HETATM    9  C5  UNL     1     -22.754 -41.620  -7.384  1.00  0.00     0.002 C 
HETATM   10  C6  UNL     1     -22.879 -40.796  -6.147  1.00  0.00     0.014 C 
HETATM   11  C7  UNL     1     -23.599 -39.484  -6.316  1.00  0.00     0.004 C 
HETATM   12  C8  UNL     1     -22.968 -38.526  -5.328  1.00  0.00     0.039 C 
HETATM   13  C9  UNL     1     -23.715 -37.260  -5.101  1.00  0.00     0.087 C 
HETATM   14  C16 UNL     1     -25.206 -37.414  -5.152  1.00  0.00     0.028 C 
HETATM   15  C17 UNL     1     -25.594 -38.866  -4.891  1.00  0.00     0.034 C 
HETATM   16  C18 UNL     1     -25.090 -39.653  -6.051  1.00  0.00     0.128 C 
HETATM   17  C19 UNL     1     -23.457 -38.861  -7.678  1.00  0.00     0.139 C 
ENDROOT
BRANCH  16  18
HETATM   18  O3  UNL     1     -25.341 -41.019  -5.935  1.00  0.00    -0.395 OA
ATOM     19  H3  UNL     1     -24.966 -41.308  -5.111  1.00  0.00     0.210 HD
ENDBRANCH  16  18
BRANCH  13  20
HETATM   20  N3  UNL     1     -23.366 -36.633  -3.834  1.00  0.00    -0.338 N 
HETATM   21  C10 UNL     1     -22.763 -35.348  -3.790  1.00  0.00     0.316 C 
HETATM   22  O2  UNL     1     -22.526 -34.739  -4.862  1.00  0.00    -0.247 OA
HETATM   23  N4  UNL     1     -22.422 -34.735  -2.563  1.00  0.00    -0.339 N 
ATOM     24  H4  UNL     1     -22.614 -35.228  -1.692  1.00  0.00     0.164 HD
ATOM     25  H3  UNL     1     -23.558 -37.126  -2.963  1.00  0.00     0.164 HD
BRANCH  23  26
HETATM   26  C11 UNL     1     -21.817 -33.448  -2.514  1.00  0.00     0.086 C 
HETATM   27  C12 UNL     1     -21.707 -32.912  -1.087  1.00  0.00     0.025 C 
HETATM   28  C13 UNL     1     -21.320 -31.474  -1.358  1.00  0.00     0.002 C 
HETATM   29  C14 UNL     1     -22.262 -31.086  -2.463  1.00  0.00     0.002 C 
HETATM   30  C15 UNL     1     -22.722 -32.368  -3.125  1.00  0.00     0.025 C 
ENDBRANCH  23  26
ENDBRANCH  13  20
TORSDOF 3
ENDMDL
