MODEL 1
REMARK VINA RESULT: -9.477160966      0.000      0.000
REMARK  16 active torsions:
REMARK  status: ('A' for Active; 'I' for Inactive)
REMARK    1  A    between atoms: C2_2  and  O1_3 
REMARK    2  A    between atoms: C2_2  and  C3_5 
REMARK    3  A    between atoms: C3_5  and  O2_6 
REMARK    4  A    between atoms: C3_5  and  C4_8 
REMARK    5  A    between atoms: C4_8  and  O3_9 
REMARK    6  A    between atoms: C4_8  and  C5_11 
REMARK    7  A    between atoms: C5_11  and  O4_12 
REMARK    8  A    between atoms: C5_11  and  C6_14 
REMARK    9  A    between atoms: C6_14  and  N1_15 
REMARK   10  A    between atoms: C8_19  and  N3_20 
REMARK   11  A    between atoms: C10_22  and  C11_23 
REMARK   12  A    between atoms: C13_25  and  O5_26 
REMARK   13  A    between atoms: C14_28  and  O6_29 
REMARK   14  A    between atoms: C15_31  and  O7_32 
REMARK   15  A    between atoms: C17_40  and  N7_41 
REMARK       I    between atoms: N8_47  and  C20_48 
REMARK       I    between atoms: C20_48  and  N9_50 
REMARK   16  A    between atoms: N9_50  and  N10_52 
ROOT
HETATM    1  N1  UNL     1      31.001  28.553  86.585  1.00  0.00    -0.259 N 
HETATM    2  C7  UNL     1      29.965  28.244  85.782  1.00  0.00     0.158 A 
HETATM    3  N2  UNL     1      28.678  28.683  85.644  1.00  0.00    -0.172 N 
ATOM      4  H2  UNL     1      28.352  29.413  86.277  1.00  0.00     0.186 HD
HETATM    5  C8  UNL     1      27.822  28.222  84.739  1.00  0.00     0.705 A 
HETATM    6  N6  UNL     1      28.212  27.264  83.890  1.00  0.00    -0.174 N 
ATOM      7  H6  UNL     1      27.569  26.897  83.189  1.00  0.00     0.186 HD
HETATM    8  C17 UNL     1      29.482  26.791  83.982  1.00  0.00     0.134 A 
HETATM    9  C18 UNL     1      30.367  27.265  84.913  1.00  0.00     0.124 A 
HETATM   10  C19 UNL     1      31.690  26.997  85.227  1.00  0.00     0.288 A 
HETATM   11  O8  UNL     1      32.375  26.143  84.622  1.00  0.00    -0.265 OA
HETATM   12  N8  UNL     1      32.055  27.797  86.251  1.00  0.00    -0.162 N 
HETATM   13  C20 UNL     1      33.362  27.798  86.789  1.00  0.00     0.363 C 
HETATM   14  O9  UNL     1      33.625  28.638  87.705  1.00  0.00    -0.243 OA
HETATM   15  N9  UNL     1      34.416  26.957  86.414  1.00  0.00    -0.256 N 
ATOM     16  H9  UNL     1      34.281  26.256  85.685  1.00  0.00     0.191 HD
ENDROOT
BRANCH   5  17
HETATM   17  N3  UNL     1      26.475  28.716  84.634  1.00  0.00    -0.079 N 
HETATM   18  C9  UNL     1      25.434  28.216  83.976  1.00  0.00     0.164 A 
HETATM   19  C10 UNL     1      24.330  29.023  84.152  1.00  0.00     0.074 A 
HETATM   20  N4  UNL     1      24.754  30.025  84.939  1.00  0.00    -0.281 N 
HETATM   21  N5  UNL     1      26.051  29.822  85.219  1.00  0.00    -0.000 NA
ATOM     22  H4  UNL     1      24.188  30.807  85.268  1.00  0.00     0.184 HD
BRANCH  19  23
HETATM   23  C11 UNL     1      22.993  28.841  83.608  1.00  0.00    -0.002 A 
HETATM   24  C12 UNL     1      22.814  28.356  82.329  1.00  0.00     0.053 A 
HETATM   25  C13 UNL     1      21.534  28.178  81.798  1.00  0.00     0.102 A 
HETATM   26  C14 UNL     1      20.431  28.491  82.556  1.00  0.00     0.132 A 
HETATM   27  C15 UNL     1      20.598  28.976  83.836  1.00  0.00     0.102 A 
HETATM   28  C16 UNL     1      21.870  29.142  84.338  1.00  0.00     0.053 A 
BRANCH  25  29
HETATM   29  O5  UNL     1      21.336  27.696  80.525  1.00  0.00    -0.358 OA
ATOM     30  H5  UNL     1      20.988  28.241  79.830  1.00  0.00     0.217 HD
ENDBRANCH  25  29
BRANCH  26  31
HETATM   31  O6  UNL     1      19.140  28.312  82.023  1.00  0.00    -0.356 OA
ATOM     32  H6  UNL     1      18.382  28.368  82.592  1.00  0.00     0.218 HD
ENDBRANCH  26  31
BRANCH  27  33
HETATM   33  O7  UNL     1      19.493  29.290  84.595  1.00  0.00    -0.358 OA
ATOM     34  H7  UNL     1      19.429  28.968  85.487  1.00  0.00     0.217 HD
ENDBRANCH  27  33
ENDBRANCH  19  23
ENDBRANCH   5  17
BRANCH   8  35
HETATM   35  N7  UNL     1      29.873  25.866  83.169  1.00  0.00    -0.384 N 
ATOM     36  H72 UNL     1      29.334  25.702  82.319  1.00  0.00     0.157 HD
ATOM     37  H71 UNL     1      30.708  25.325  83.393  1.00  0.00     0.157 HD
ENDBRANCH   8  35
BRANCH   1  38
HETATM   38  C6  UNL     1      30.981  29.516  87.644  1.00  0.00     0.186 C 
BRANCH  38  39
HETATM   39  C5  UNL     1      30.436  30.868  87.328  1.00  0.00     0.169 C 
BRANCH  39  40
HETATM   40  C4  UNL     1      31.236  32.038  87.822  1.00  0.00     0.179 C 
BRANCH  40  41
HETATM   41  C3  UNL     1      30.390  33.246  88.163  1.00  0.00     0.177 C 
BRANCH  41  42
HETATM   42  C2  UNL     1      31.169  34.501  87.995  1.00  0.00     0.145 C 
HETATM   43  C1  UNL     1      32.246  34.357  86.920  1.00  0.00     0.042 C 
BRANCH  42  44
HETATM   44  O1  UNL     1      31.761  34.849  89.215  1.00  0.00    -0.393 OA
ATOM     45  H1  UNL     1      32.435  35.502  89.070  1.00  0.00     0.210 HD
ENDBRANCH  42  44
ENDBRANCH  41  42
BRANCH  41  46
HETATM   46  O2  UNL     1      29.763  33.104  89.387  1.00  0.00    -0.390 OA
ATOM     47  H2  UNL     1      30.177  32.492  89.984  1.00  0.00     0.210 HD
ENDBRANCH  41  46
ENDBRANCH  40  41
BRANCH  40  48
HETATM   48  O3  UNL     1      32.053  31.647  88.878  1.00  0.00    -0.390 OA
ATOM     49  H3  UNL     1      32.892  32.094  88.872  1.00  0.00     0.210 HD
ENDBRANCH  40  48
ENDBRANCH  39  40
BRANCH  39  50
HETATM   50  O4  UNL     1      29.097  30.902  87.792  1.00  0.00    -0.391 OA
ATOM     51  H4  UNL     1      28.604  30.136  87.520  1.00  0.00     0.210 HD
ENDBRANCH  39  50
ENDBRANCH  38  39
ENDBRANCH   1  38
BRANCH  15  52
HETATM   52  N10 UNL     1      35.676  27.091  87.060  1.00  0.00    -0.341 N 
ATOM     53 2H10 UNL     1      36.442  27.551  86.569  1.00  0.00     0.177 HD
ATOM     54 1H10 UNL     1      35.793  26.724  88.004  1.00  0.00     0.177 HD
ENDBRANCH  15  52
TORSDOF 16
ENDMDL
MODEL 2
REMARK VINA RESULT: -9.227408111      0.853      1.778
REMARK  16 active torsions:
REMARK  status: ('A' for Active; 'I' for Inactive)
REMARK    1  A    between atoms: C2_2  and  O1_3 
REMARK    2  A    between atoms: C2_2  and  C3_5 
REMARK    3  A    between atoms: C3_5  and  O2_6 
REMARK    4  A    between atoms: C3_5  and  C4_8 
REMARK    5  A    between atoms: C4_8  and  O3_9 
REMARK    6  A    between atoms: C4_8  and  C5_11 
REMARK    7  A    between atoms: C5_11  and  O4_12 
REMARK    8  A    between atoms: C5_11  and  C6_14 
REMARK    9  A    between atoms: C6_14  and  N1_15 
REMARK   10  A    between atoms: C8_19  and  N3_20 
REMARK   11  A    between atoms: C10_22  and  C11_23 
REMARK   12  A    between atoms: C13_25  and  O5_26 
REMARK   13  A    between atoms: C14_28  and  O6_29 
REMARK   14  A    between atoms: C15_31  and  O7_32 
REMARK   15  A    between atoms: C17_40  and  N7_41 
REMARK       I    between atoms: N8_47  and  C20_48 
REMARK       I    between atoms: C20_48  and  N9_50 
REMARK   16  A    between atoms: N9_50  and  N10_52 
ROOT
HETATM    1  N1  UNL     1      31.140  28.236  86.786  1.00  0.00    -0.259 N 
HETATM    2  C7  UNL     1      30.124  28.042  85.923  1.00  0.00     0.158 A 
HETATM    3  N2  UNL     1      28.825  28.457  85.842  1.00  0.00    -0.172 N 
ATOM      4  H2  UNL     1      28.467  29.053  86.589  1.00  0.00     0.186 HD
HETATM    5  C8  UNL     1      27.996  28.137  84.856  1.00  0.00     0.705 A 
HETATM    6  N6  UNL     1      28.427  27.357  83.858  1.00  0.00    -0.174 N 
ATOM      7  H6  UNL     1      27.805  27.100  83.092  1.00  0.00     0.186 HD
HETATM    8  C17 UNL     1      29.712  26.915  83.886  1.00  0.00     0.134 A 
HETATM    9  C18 UNL     1      30.570  27.245  84.902  1.00  0.00     0.124 A 
HETATM   10  C19 UNL     1      31.897  26.968  85.187  1.00  0.00     0.288 A 
HETATM   11  O8  UNL     1      32.618  26.256  84.452  1.00  0.00    -0.265 OA
HETATM   12  N8  UNL     1      32.223  27.585  86.342  1.00  0.00    -0.162 N 
HETATM   13  C20 UNL     1      33.523  27.532  86.895  1.00  0.00     0.363 C 
HETATM   14  O9  UNL     1      33.746  28.204  87.949  1.00  0.00    -0.243 OA
HETATM   15  N9  UNL     1      34.609  26.804  86.395  1.00  0.00    -0.256 N 
ATOM     16  H9  UNL     1      34.507  26.239  85.552  1.00  0.00     0.191 HD
ENDROOT
BRANCH   5  17
HETATM   17  N3  UNL     1      26.634  28.599  84.816  1.00  0.00    -0.079 N 
HETATM   18  C9  UNL     1      25.620  28.195  84.059  1.00  0.00     0.164 A 
HETATM   19  C10 UNL     1      24.486  28.921  84.357  1.00  0.00     0.074 A 
HETATM   20  N4  UNL     1      24.865  29.775  85.321  1.00  0.00    -0.281 N 
HETATM   21  N5  UNL     1      26.164  29.566  85.584  1.00  0.00    -0.000 NA
ATOM     22  H4  UNL     1      24.267  30.466  85.776  1.00  0.00     0.184 HD
BRANCH  19  23
HETATM   23  C11 UNL     1      23.164  28.799  83.762  1.00  0.00    -0.002 A 
HETATM   24  C12 UNL     1      22.035  29.129  84.484  1.00  0.00     0.053 A 
HETATM   25  C13 UNL     1      20.761  29.016  83.921  1.00  0.00     0.102 A 
HETATM   26  C14 UNL     1      20.623  28.567  82.629  1.00  0.00     0.132 A 
HETATM   27  C15 UNL     1      21.744  28.235  81.899  1.00  0.00     0.102 A 
HETATM   28  C16 UNL     1      22.989  28.356  82.474  1.00  0.00     0.053 A 
BRANCH  25  29
HETATM   29  O5  UNL     1      19.625  29.340  84.625  1.00  0.00    -0.358 OA
ATOM     30  H5  UNL     1      19.254  28.757  85.277  1.00  0.00     0.217 HD
ENDBRANCH  25  29
BRANCH  26  31
HETATM   31  O6  UNL     1      19.341  28.452  82.061  1.00  0.00    -0.356 OA
ATOM     32  H6  UNL     1      19.106  27.670  81.576  1.00  0.00     0.218 HD
ENDBRANCH  26  31
BRANCH  27  33
HETATM   33  O7  UNL     1      21.605  27.786  80.604  1.00  0.00    -0.358 OA
ATOM     34  H7  UNL     1      22.366  27.465  80.134  1.00  0.00     0.217 HD
ENDBRANCH  27  33
ENDBRANCH  19  23
ENDBRANCH   5  17
BRANCH   8  35
HETATM   35  N7  UNL     1      30.144  26.162  82.931  1.00  0.00    -0.384 N 
ATOM     36  H72 UNL     1      30.085  26.507  81.972  1.00  0.00     0.157 HD
ATOM     37  H71 UNL     1      30.532  25.246  83.153  1.00  0.00     0.157 HD
ENDBRANCH   8  35
BRANCH   1  38
HETATM   38  C6  UNL     1      31.075  28.995  87.998  1.00  0.00     0.186 C 
BRANCH  38  39
HETATM   39  C5  UNL     1      31.413  30.445  87.915  1.00  0.00     0.169 C 
BRANCH  39  40
HETATM   40  C4  UNL     1      30.292  31.405  88.190  1.00  0.00     0.179 C 
BRANCH  40  41
HETATM   41  C3  UNL     1      30.595  32.825  87.762  1.00  0.00     0.177 C 
BRANCH  41  42
HETATM   42  C2  UNL     1      29.744  33.793  88.504  1.00  0.00     0.145 C 
HETATM   43  C1  UNL     1      30.518  35.059  88.871  1.00  0.00     0.042 C 
BRANCH  42  44
HETATM   44  O1  UNL     1      29.251  33.186  89.665  1.00  0.00    -0.393 OA
ATOM     45  H1  UNL     1      28.426  33.587  89.912  1.00  0.00     0.210 HD
ENDBRANCH  42  44
ENDBRANCH  41  42
BRANCH  41  46
HETATM   46  O2  UNL     1      30.577  32.962  86.387  1.00  0.00    -0.390 OA
ATOM     47  H2  UNL     1      30.890  32.207  85.903  1.00  0.00     0.210 HD
ENDBRANCH  41  46
ENDBRANCH  40  41
BRANCH  40  48
HETATM   48  O3  UNL     1      29.107  30.926  87.640  1.00  0.00    -0.390 OA
ATOM     49  H3  UNL     1      29.156  30.003  87.421  1.00  0.00     0.210 HD
ENDBRANCH  40  48
ENDBRANCH  39  40
BRANCH  39  50
HETATM   50  O4  UNL     1      32.008  30.667  86.648  1.00  0.00    -0.391 OA
ATOM     51  H4  UNL     1      32.469  29.901  86.329  1.00  0.00     0.210 HD
ENDBRANCH  39  50
ENDBRANCH  38  39
ENDBRANCH   1  38
BRANCH  15  52
HETATM   52  N10 UNL     1      35.856  26.861  87.076  1.00  0.00    -0.341 N 
ATOM     53 2H10 UNL     1      35.911  27.330  87.980  1.00  0.00     0.177 HD
ATOM     54 1H10 UNL     1      36.677  26.431  86.649  1.00  0.00     0.177 HD
ENDBRANCH  15  52
TORSDOF 16
ENDMDL
MODEL 3
REMARK VINA RESULT: -8.826783706      1.328      1.785
REMARK  16 active torsions:
REMARK  status: ('A' for Active; 'I' for Inactive)
REMARK    1  A    between atoms: C2_2  and  O1_3 
REMARK    2  A    between atoms: C2_2  and  C3_5 
REMARK    3  A    between atoms: C3_5  and  O2_6 
REMARK    4  A    between atoms: C3_5  and  C4_8 
REMARK    5  A    between atoms: C4_8  and  O3_9 
REMARK    6  A    between atoms: C4_8  and  C5_11 
REMARK    7  A    between atoms: C5_11  and  O4_12 
REMARK    8  A    between atoms: C5_11  and  C6_14 
REMARK    9  A    between atoms: C6_14  and  N1_15 
REMARK   10  A    between atoms: C8_19  and  N3_20 
REMARK   11  A    between atoms: C10_22  and  C11_23 
REMARK   12  A    between atoms: C13_25  and  O5_26 
REMARK   13  A    between atoms: C14_28  and  O6_29 
REMARK   14  A    between atoms: C15_31  and  O7_32 
REMARK   15  A    between atoms: C17_40  and  N7_41 
REMARK       I    between atoms: N8_47  and  C20_48 
REMARK       I    between atoms: C20_48  and  N9_50 
REMARK   16  A    between atoms: N9_50  and  N10_52 
ROOT
HETATM    1  N1  UNL     1      31.622  28.791  84.967  1.00  0.00    -0.259 N 
HETATM    2  C7  UNL     1      30.452  28.356  84.460  1.00  0.00     0.158 A 
HETATM    3  N2  UNL     1      29.140  28.712  84.599  1.00  0.00    -0.172 N 
ATOM      4  H2  UNL     1      28.920  29.478  85.236  1.00  0.00     0.186 HD
HETATM    5  C8  UNL     1      28.133  28.127  83.962  1.00  0.00     0.705 A 
HETATM    6  N6  UNL     1      28.383  27.118  83.120  1.00  0.00    -0.174 N 
ATOM      7  H6  UNL     1      27.622  26.656  82.621  1.00  0.00     0.186 HD
HETATM    8  C17 UNL     1      29.671  26.723  82.941  1.00  0.00     0.134 A 
HETATM    9  C18 UNL     1      30.711  27.325  83.596  1.00  0.00     0.124 A 
HETATM   10  C19 UNL     1      32.087  27.157  83.605  1.00  0.00     0.288 A 
HETATM   11  O8  UNL     1      32.672  26.289  82.921  1.00  0.00    -0.265 OA
HETATM   12  N8  UNL     1      32.621  28.064  84.450  1.00  0.00    -0.162 N 
HETATM   13  C20 UNL     1      34.014  28.182  84.660  1.00  0.00     0.363 C 
HETATM   14  O9  UNL     1      34.421  29.114  85.420  1.00  0.00    -0.243 OA
HETATM   15  N9  UNL     1      35.009  27.367  84.109  1.00  0.00    -0.256 N 
ATOM     16  H9  UNL     1      34.760  26.597  83.487  1.00  0.00     0.191 HD
ENDROOT
BRANCH   5  17
HETATM   17  N3  UNL     1      26.767  28.538  84.144  1.00  0.00    -0.079 N 
HETATM   18  C9  UNL     1      25.676  28.187  83.471  1.00  0.00     0.164 A 
HETATM   19  C10 UNL     1      24.571  28.829  83.990  1.00  0.00     0.074 A 
HETATM   20  N4  UNL     1      25.047  29.578  84.998  1.00  0.00    -0.281 N 
HETATM   21  N5  UNL     1      26.373  29.389  85.075  1.00  0.00    -0.000 NA
ATOM     22  H4  UNL     1      24.494  30.186  85.603  1.00  0.00     0.184 HD
BRANCH  19  23
HETATM   23  C11 UNL     1      23.188  28.727  83.550  1.00  0.00    -0.002 A 
HETATM   24  C12 UNL     1      22.886  28.310  82.270  1.00  0.00     0.053 A 
HETATM   25  C13 UNL     1      21.561  28.209  81.839  1.00  0.00     0.102 A 
HETATM   26  C14 UNL     1      20.537  28.531  82.697  1.00  0.00     0.132 A 
HETATM   27  C15 UNL     1      20.828  28.948  83.979  1.00  0.00     0.102 A 
HETATM   28  C16 UNL     1      22.141  29.038  84.382  1.00  0.00     0.053 A 
BRANCH  25  29
HETATM   29  O5  UNL     1      21.240  27.796  80.566  1.00  0.00    -0.358 OA
ATOM     30  H5  UNL     1      20.528  27.190  80.400  1.00  0.00     0.217 HD
ENDBRANCH  25  29
BRANCH  26  31
HETATM   31  O6  UNL     1      19.201  28.430  82.265  1.00  0.00    -0.356 OA
ATOM     32  H6  UNL     1      18.622  27.791  82.664  1.00  0.00     0.218 HD
ENDBRANCH  26  31
BRANCH  27  33
HETATM   33  O7  UNL     1      19.801  29.269  84.840  1.00  0.00    -0.358 OA
ATOM     34  H7  UNL     1      19.988  29.414  85.760  1.00  0.00     0.217 HD
ENDBRANCH  27  33
ENDBRANCH  19  23
ENDBRANCH   5  17
BRANCH   8  35
HETATM   35  N7  UNL     1      29.927  25.751  82.131  1.00  0.00    -0.384 N 
ATOM     36  H72 UNL     1      29.993  25.950  81.132  1.00  0.00     0.157 HD
ATOM     37  H71 UNL     1      30.059  24.811  82.504  1.00  0.00     0.157 HD
ENDBRANCH   8  35
BRANCH   1  38
HETATM   38  C6  UNL     1      31.780  29.843  85.925  1.00  0.00     0.186 C 
BRANCH  38  39
HETATM   39  C5  UNL     1      31.066  29.693  87.226  1.00  0.00     0.169 C 
BRANCH  39  40
HETATM   40  C4  UNL     1      29.805  30.493  87.387  1.00  0.00     0.179 C 
BRANCH  40  41
HETATM   41  C3  UNL     1      29.741  31.706  86.485  1.00  0.00     0.177 C 
BRANCH  41  42
HETATM   42  C2  UNL     1      29.923  32.956  87.269  1.00  0.00     0.145 C 
HETATM   43  C1  UNL     1      31.379  33.426  87.254  1.00  0.00     0.042 C 
BRANCH  42  44
HETATM   44  O1  UNL     1      29.509  32.743  88.589  1.00  0.00    -0.393 OA
ATOM     45  H1  UNL     1      30.260  32.766  89.169  1.00  0.00     0.210 HD
ENDBRANCH  42  44
ENDBRANCH  41  42
BRANCH  41  46
HETATM   46  O2  UNL     1      28.625  31.682  85.670  1.00  0.00    -0.390 OA
ATOM     47  H2  UNL     1      28.262  30.819  85.509  1.00  0.00     0.210 HD
ENDBRANCH  41  46
ENDBRANCH  40  41
BRANCH  40  48
HETATM   48  O3  UNL     1      28.694  29.667  87.245  1.00  0.00    -0.390 OA
ATOM     49  H3  UNL     1      28.342  29.385  88.081  1.00  0.00     0.210 HD
ENDBRANCH  40  48
ENDBRANCH  39  40
BRANCH  39  50
HETATM   50  O4  UNL     1      32.003  29.962  88.255  1.00  0.00    -0.391 OA
ATOM     51  H4  UNL     1      31.964  29.318  88.953  1.00  0.00     0.210 HD
ENDBRANCH  39  50
ENDBRANCH  38  39
ENDBRANCH   1  38
BRANCH  15  52
HETATM   52  N10 UNL     1      36.372  27.625  84.423  1.00  0.00    -0.341 N 
ATOM     53 2H10 UNL     1      36.604  28.075  85.309  1.00  0.00     0.177 HD
ATOM     54 1H10 UNL     1      37.097  27.355  83.759  1.00  0.00     0.177 HD
ENDBRANCH  15  52
TORSDOF 16
ENDMDL
MODEL 4
REMARK VINA RESULT: -8.790116321      1.295      1.758
REMARK  16 active torsions:
REMARK  status: ('A' for Active; 'I' for Inactive)
REMARK    1  A    between atoms: C2_2  and  O1_3 
REMARK    2  A    between atoms: C2_2  and  C3_5 
REMARK    3  A    between atoms: C3_5  and  O2_6 
REMARK    4  A    between atoms: C3_5  and  C4_8 
REMARK    5  A    between atoms: C4_8  and  O3_9 
REMARK    6  A    between atoms: C4_8  and  C5_11 
REMARK    7  A    between atoms: C5_11  and  O4_12 
REMARK    8  A    between atoms: C5_11  and  C6_14 
REMARK    9  A    between atoms: C6_14  and  N1_15 
REMARK   10  A    between atoms: C8_19  and  N3_20 
REMARK   11  A    between atoms: C10_22  and  C11_23 
REMARK   12  A    between atoms: C13_25  and  O5_26 
REMARK   13  A    between atoms: C14_28  and  O6_29 
REMARK   14  A    between atoms: C15_31  and  O7_32 
REMARK   15  A    between atoms: C17_40  and  N7_41 
REMARK       I    between atoms: N8_47  and  C20_48 
REMARK       I    between atoms: C20_48  and  N9_50 
REMARK   16  A    between atoms: N9_50  and  N10_52 
ROOT
HETATM    1  N1  UNL     1      31.115  27.129  86.127  1.00  0.00    -0.259 N 
HETATM    2  C7  UNL     1      30.109  27.239  85.238  1.00  0.00     0.158 A 
HETATM    3  N2  UNL     1      28.831  27.722  85.271  1.00  0.00    -0.172 N 
ATOM      4  H2  UNL     1      28.485  28.094  86.156  1.00  0.00     0.186 HD
HETATM    5  C8  UNL     1      28.009  27.739  84.229  1.00  0.00     0.705 A 
HETATM    6  N6  UNL     1      28.427  27.260  83.052  1.00  0.00    -0.174 N 
ATOM      7  H6  UNL     1      27.810  27.264  82.239  1.00  0.00     0.186 HD
HETATM    8  C17 UNL     1      29.690  26.768  82.960  1.00  0.00     0.134 A 
HETATM    9  C18 UNL     1      30.540  26.750  84.034  1.00  0.00     0.124 A 
HETATM   10  C19 UNL     1      31.849  26.339  84.236  1.00  0.00     0.288 A 
HETATM   11  O8  UNL     1      32.552  25.835  83.332  1.00  0.00    -0.265 OA
HETATM   12  N8  UNL     1      32.177  26.582  85.522  1.00  0.00    -0.162 N 
HETATM   13  C20 UNL     1      33.462  26.309  86.045  1.00  0.00     0.363 C 
HETATM   14  O9  UNL     1      33.693  26.638  87.249  1.00  0.00    -0.243 OA
HETATM   15  N9  UNL     1      34.525  25.705  85.364  1.00  0.00    -0.256 N 
ATOM     16  H9  UNL     1      34.416  25.412  84.393  1.00  0.00     0.191 HD
ENDROOT
BRANCH   5  17
HETATM   17  N3  UNL     1      26.671  28.258  84.314  1.00  0.00    -0.079 N 
HETATM   18  C9  UNL     1      25.587  27.936  83.617  1.00  0.00     0.164 A 
HETATM   19  C10 UNL     1      24.512  28.691  84.035  1.00  0.00     0.074 A 
HETATM   20  N4  UNL     1      24.997  29.478  85.009  1.00  0.00    -0.281 N 
HETATM   21  N5  UNL     1      26.301  29.202  85.162  1.00  0.00    -0.000 NA
ATOM     22  H4  UNL     1      24.466  30.168  85.541  1.00  0.00     0.184 HD
BRANCH  19  23
HETATM   23  C11 UNL     1      23.145  28.654  83.537  1.00  0.00    -0.002 A 
HETATM   24  C12 UNL     1      22.877  28.247  82.247  1.00  0.00     0.053 A 
HETATM   25  C13 UNL     1      21.567  28.208  81.760  1.00  0.00     0.102 A 
HETATM   26  C14 UNL     1      20.525  28.584  82.574  1.00  0.00     0.132 A 
HETATM   27  C15 UNL     1      20.782  28.993  83.866  1.00  0.00     0.102 A 
HETATM   28  C16 UNL     1      22.080  29.021  84.323  1.00  0.00     0.053 A 
BRANCH  25  29
HETATM   29  O5  UNL     1      21.280  27.804  80.477  1.00  0.00    -0.358 OA
ATOM     30  H5  UNL     1      20.491  28.082  80.028  1.00  0.00     0.217 HD
ENDBRANCH  25  29
BRANCH  26  31
HETATM   31  O6  UNL     1      19.206  28.545  82.086  1.00  0.00    -0.356 OA
ATOM     32  H6  UNL     1      18.483  28.779  82.657  1.00  0.00     0.218 HD
ENDBRANCH  26  31
BRANCH  27  33
HETATM   33  O7  UNL     1      19.737  29.368  84.681  1.00  0.00    -0.358 OA
ATOM     34  H7  UNL     1      18.919  29.656  84.294  1.00  0.00     0.217 HD
ENDBRANCH  27  33
ENDBRANCH  19  23
ENDBRANCH   5  17
BRANCH   8  35
HETATM   35  N7  UNL     1      30.108  26.302  81.831  1.00  0.00    -0.384 N 
ATOM     36  H72 UNL     1      29.540  25.604  81.349  1.00  0.00     0.157 HD
ATOM     37  H71 UNL     1      30.990  26.639  81.446  1.00  0.00     0.157 HD
ENDBRANCH   8  35
BRANCH   1  38
HETATM   38  C6  UNL     1      31.059  27.509  87.506  1.00  0.00     0.186 C 
BRANCH  38  39
HETATM   39  C5  UNL     1      31.284  28.948  87.828  1.00  0.00     0.169 C 
BRANCH  39  40
HETATM   40  C4  UNL     1      31.028  29.924  86.716  1.00  0.00     0.179 C 
BRANCH  40  41
HETATM   41  C3  UNL     1      30.015  30.991  87.072  1.00  0.00     0.177 C 
BRANCH  41  42
HETATM   42  C2  UNL     1      30.350  31.623  88.375  1.00  0.00     0.145 C 
HETATM   43  C1  UNL     1      29.394  32.769  88.710  1.00  0.00     0.042 C 
BRANCH  42  44
HETATM   44  O1  UNL     1      31.666  32.101  88.336  1.00  0.00    -0.393 OA
ATOM     45  H1  UNL     1      32.170  31.600  87.706  1.00  0.00     0.210 HD
ENDBRANCH  42  44
ENDBRANCH  41  42
BRANCH  41  46
HETATM   46  O2  UNL     1      28.718  30.524  86.964  1.00  0.00    -0.390 OA
ATOM     47  H2  UNL     1      28.322  30.630  86.107  1.00  0.00     0.210 HD
ENDBRANCH  41  46
ENDBRANCH  40  41
BRANCH  40  48
HETATM   48  O3  UNL     1      32.229  30.462  86.266  1.00  0.00    -0.390 OA
ATOM     49  H3  UNL     1      32.104  31.100  85.573  1.00  0.00     0.210 HD
ENDBRANCH  40  48
ENDBRANCH  39  40
BRANCH  39  50
HETATM   50  O4  UNL     1      32.597  29.063  88.348  1.00  0.00    -0.391 OA
ATOM     51  H4  UNL     1      32.697  28.604  89.174  1.00  0.00     0.210 HD
ENDBRANCH  39  50
ENDBRANCH  38  39
ENDBRANCH   1  38
BRANCH  15  52
HETATM   52  N10 UNL     1      35.759  25.504  86.041  1.00  0.00    -0.341 N 
ATOM     53 2H10 UNL     1      36.469  24.905  85.619  1.00  0.00     0.177 HD
ATOM     54 1H10 UNL     1      35.916  25.962  86.939  1.00  0.00     0.177 HD
ENDBRANCH  15  52
TORSDOF 16
ENDMDL
MODEL 5
REMARK VINA RESULT: -8.678809830      1.584      2.269
REMARK  16 active torsions:
REMARK  status: ('A' for Active; 'I' for Inactive)
REMARK    1  A    between atoms: C2_2  and  O1_3 
REMARK    2  A    between atoms: C2_2  and  C3_5 
REMARK    3  A    between atoms: C3_5  and  O2_6 
REMARK    4  A    between atoms: C3_5  and  C4_8 
REMARK    5  A    between atoms: C4_8  and  O3_9 
REMARK    6  A    between atoms: C4_8  and  C5_11 
REMARK    7  A    between atoms: C5_11  and  O4_12 
REMARK    8  A    between atoms: C5_11  and  C6_14 
REMARK    9  A    between atoms: C6_14  and  N1_15 
REMARK   10  A    between atoms: C8_19  and  N3_20 
REMARK   11  A    between atoms: C10_22  and  C11_23 
REMARK   12  A    between atoms: C13_25  and  O5_26 
REMARK   13  A    between atoms: C14_28  and  O6_29 
REMARK   14  A    between atoms: C15_31  and  O7_32 
REMARK   15  A    between atoms: C17_40  and  N7_41 
REMARK       I    between atoms: N8_47  and  C20_48 
REMARK       I    between atoms: C20_48  and  N9_50 
REMARK   16  A    between atoms: N9_50  and  N10_52 
ROOT
HETATM    1  N1  UNL     1      30.142  29.105  86.932  1.00  0.00    -0.259 N 
HETATM    2  C7  UNL     1      29.625  28.454  85.872  1.00  0.00     0.158 A 
HETATM    3  N2  UNL     1      28.527  28.614  85.075  1.00  0.00    -0.172 N 
ATOM      4  H2  UNL     1      27.895  29.388  85.283  1.00  0.00     0.186 HD
HETATM    5  C8  UNL     1      28.226  27.829  84.047  1.00  0.00     0.705 A 
HETATM    6  N6  UNL     1      29.030  26.804  83.743  1.00  0.00    -0.174 N 
ATOM      7  H6  UNL     1      28.816  26.189  82.958  1.00  0.00     0.186 HD
HETATM    8  C17 UNL     1      30.139  26.598  84.502  1.00  0.00     0.134 A 
HETATM    9  C18 UNL     1      30.451  27.407  85.562  1.00  0.00     0.124 A 
HETATM   10  C19 UNL     1      31.488  27.454  86.481  1.00  0.00     0.288 A 
HETATM   11  O8  UNL     1      32.431  26.632  86.488  1.00  0.00    -0.265 OA
HETATM   12  N8  UNL     1      31.277  28.501  87.307  1.00  0.00    -0.162 N 
HETATM   13  C20 UNL     1      32.177  28.850  88.340  1.00  0.00     0.363 C 
HETATM   14  O9  UNL     1      31.924  29.893  89.017  1.00  0.00    -0.243 OA
HETATM   15  N9  UNL     1      33.336  28.155  88.702  1.00  0.00    -0.256 N 
ATOM     16  H9  UNL     1      33.605  27.306  88.203  1.00  0.00     0.191 HD
ENDROOT
BRANCH   5  17
HETATM   17  N3  UNL     1      27.057  28.038  83.237  1.00  0.00    -0.079 N 
HETATM   18  C9  UNL     1      25.771  27.999  83.571  1.00  0.00     0.164 A 
HETATM   19  C10 UNL     1      24.986  28.261  82.469  1.00  0.00     0.074 A 
HETATM   20  N4  UNL     1      25.854  28.458  81.463  1.00  0.00    -0.281 N 
HETATM   21  N5  UNL     1      27.098  28.319  81.946  1.00  0.00    -0.000 NA
ATOM     22  H4  UNL     1      25.609  28.675  80.496  1.00  0.00     0.184 HD
BRANCH  19  23
HETATM   23  C11 UNL     1      23.534  28.315  82.397  1.00  0.00    -0.002 A 
HETATM   24  C12 UNL     1      22.777  28.453  83.542  1.00  0.00     0.053 A 
HETATM   25  C13 UNL     1      21.382  28.505  83.482  1.00  0.00     0.102 A 
HETATM   26  C14 UNL     1      20.747  28.417  82.267  1.00  0.00     0.132 A 
HETATM   27  C15 UNL     1      21.493  28.280  81.116  1.00  0.00     0.102 A 
HETATM   28  C16 UNL     1      22.867  28.232  81.199  1.00  0.00     0.053 A 
BRANCH  25  29
HETATM   29  O5  UNL     1      20.611  28.642  84.614  1.00  0.00    -0.358 OA
ATOM     30  H5  UNL     1      19.710  28.939  84.574  1.00  0.00     0.217 HD
ENDBRANCH  25  29
BRANCH  26  31
HETATM   31  O6  UNL     1      19.342  28.470  82.205  1.00  0.00    -0.356 OA
ATOM     32  H6  UNL     1      18.915  29.192  81.758  1.00  0.00     0.218 HD
ENDBRANCH  26  31
BRANCH  27  33
HETATM   33  O7  UNL     1      20.856  28.192  79.898  1.00  0.00    -0.358 OA
ATOM     34  H7  UNL     1      20.915  28.915  79.284  1.00  0.00     0.217 HD
ENDBRANCH  27  33
ENDBRANCH  19  23
ENDBRANCH   5  17
BRANCH   8  35
HETATM   35  N7  UNL     1      30.924  25.613  84.221  1.00  0.00    -0.384 N 
ATOM     36  H72 UNL     1      31.579  25.715  83.446  1.00  0.00     0.157 HD
ATOM     37  H71 UNL     1      30.874  24.760  84.778  1.00  0.00     0.157 HD
ENDBRANCH   8  35
BRANCH   1  38
HETATM   38  C6  UNL     1      29.565  30.246  87.577  1.00  0.00     0.186 C 
BRANCH  38  39
HETATM   39  C5  UNL     1      29.755  31.571  86.919  1.00  0.00     0.169 C 
BRANCH  39  40
HETATM   40  C4  UNL     1      29.644  32.775  87.809  1.00  0.00     0.179 C 
BRANCH  40  41
HETATM   41  C3  UNL     1      30.978  33.411  88.132  1.00  0.00     0.177 C 
BRANCH  41  42
HETATM   42  C2  UNL     1      30.802  34.833  88.532  1.00  0.00     0.145 C 
HETATM   43  C1  UNL     1      32.141  35.499  88.853  1.00  0.00     0.042 C 
BRANCH  42  44
HETATM   44  O1  UNL     1      29.960  34.902  89.648  1.00  0.00    -0.393 OA
ATOM     45  H1  UNL     1      29.086  34.619  89.408  1.00  0.00     0.210 HD
ENDBRANCH  42  44
ENDBRANCH  41  42
BRANCH  41  46
HETATM   46  O2  UNL     1      31.906  33.195  87.131  1.00  0.00    -0.390 OA
ATOM     47  H2  UNL     1      31.960  33.881  86.475  1.00  0.00     0.210 HD
ENDBRANCH  41  46
ENDBRANCH  40  41
BRANCH  40  48
HETATM   48  O3  UNL     1      28.738  33.684  87.271  1.00  0.00    -0.390 OA
ATOM     49  H3  UNL     1      28.617  34.447  87.825  1.00  0.00     0.210 HD
ENDBRANCH  40  48
ENDBRANCH  39  40
BRANCH  39  50
HETATM   50  O4  UNL     1      28.858  31.630  85.824  1.00  0.00    -0.391 OA
ATOM     51  H4  UNL     1      29.115  32.285  85.185  1.00  0.00     0.210 HD
ENDBRANCH  39  50
ENDBRANCH  38  39
ENDBRANCH   1  38
BRANCH  15  52
HETATM   52  N10 UNL     1      34.135  28.645  89.771  1.00  0.00    -0.341 N 
ATOM     53 2H10 UNL     1      34.041  29.619  90.060  1.00  0.00     0.177 HD
ATOM     54 1H10 UNL     1      34.792  28.015  90.232  1.00  0.00     0.177 HD
ENDBRANCH  15  52
TORSDOF 16
ENDMDL
