MODEL 1
REMARK VINA RESULT: -6.788338390      0.000      0.000
REMARK  11 active torsions:
REMARK  status: ('A' for Active; 'I' for Inactive)
REMARK    1  A    between atoms: C2_2  and  N1_3 
REMARK    2  A    between atoms: C2_2  and  C7_15 
REMARK    3  A    between atoms: N1_3  and  C3_6 
REMARK    4  A    between atoms: C3_6  and  C4_7 
REMARK    5  A    between atoms: C4_7  and  O1_8 
REMARK    6  A    between atoms: O1_8  and  C5_9 
REMARK    7  A    between atoms: C5_9  and  C6_10 
REMARK    8  A    between atoms: C6_10  and  N2_11 
REMARK    9  A    between atoms: C7_15  and  O2_16 
REMARK   10  A    between atoms: C7_15  and  C9_20 
REMARK   11  A    between atoms: O2_16  and  C8_17 
ROOT
HETATM    1  N1  UNL     1      19.166  -6.771  -4.786  1.00  0.00    -0.066 N 
ATOM      2  H11 UNL     1      18.475  -7.510  -4.918  1.00  0.00     0.277 HD
ATOM      3  H12 UNL     1      20.020  -7.324  -4.854  1.00  0.00     0.277 HD
ENDROOT
BRANCH   1   4
HETATM    4  C2  UNL     1      19.042  -6.184  -3.481  1.00  0.00     0.220 C 
HETATM    5  C1  UNL     1      20.060  -6.734  -2.511  1.00  0.00     0.043 C 
BRANCH   4   6
HETATM    6  C7  UNL     1      17.651  -6.462  -2.953  1.00  0.00     0.252 C 
BRANCH   6   7
HETATM    7  O2  UNL     1      17.730  -7.380  -1.843  1.00  0.00    -0.290 OA
BRANCH   7   8
HETATM    8  C8  UNL     1      17.191  -7.105  -0.618  1.00  0.00     0.373 C 
HETATM    9  N3  UNL     1      17.305  -8.083   0.404  1.00  0.00    -0.032 NA
HETATM   10  O3  UNL     1      16.617  -6.000  -0.445  1.00  0.00    -0.242 OA
ENDBRANCH   7   8
ENDBRANCH   6   7
BRANCH   6  11
HETATM   11  C9  UNL     1      16.747  -7.048  -3.972  1.00  0.00     0.262 C 
HETATM   12  N4  UNL     1      15.757  -6.313  -4.670  1.00  0.00    -0.060 NA
HETATM   13  O4  UNL     1      16.864  -8.281  -4.235  1.00  0.00    -0.274 OA
ENDBRANCH   6  11
ENDBRANCH   4   6
ENDBRANCH   1   4
BRANCH   1  14
HETATM   14  C3  UNL     1      19.094  -5.803  -5.860  1.00  0.00     0.259 C 
BRANCH  14  15
HETATM   15  C4  UNL     1      18.746  -6.407  -7.175  1.00  0.00     0.195 C 
BRANCH  15  16
HETATM   16  O1  UNL     1      19.887  -6.560  -7.940  1.00  0.00    -0.388 OA
BRANCH  16  17
HETATM   17  C5  UNL     1      20.327  -7.846  -8.104  1.00  0.00     0.195 C 
BRANCH  17  18
HETATM   18  C6  UNL     1      20.770  -8.010  -9.568  1.00  0.00     0.255 C 
BRANCH  18  19
HETATM   19  N2  UNL     1      21.551  -9.214  -9.738  1.00  0.00    -0.077 N 
ATOM     20  H23 UNL     1      22.060  -9.212 -10.622  1.00  0.00     0.274 HD
ATOM     21  H22 UNL     1      22.348  -9.239  -9.101  1.00  0.00     0.274 HD
ATOM     22  H21 UNL     1      20.965 -10.044  -9.642  1.00  0.00     0.274 HD
ENDBRANCH  18  19
ENDBRANCH  17  18
ENDBRANCH  16  17
ENDBRANCH  15  16
ENDBRANCH  14  15
ENDBRANCH   1  14
TORSDOF 11
ENDMDL
MODEL 2
REMARK VINA RESULT: -6.664365046      1.213      2.683
REMARK  11 active torsions:
REMARK  status: ('A' for Active; 'I' for Inactive)
REMARK    1  A    between atoms: C2_2  and  N1_3 
REMARK    2  A    between atoms: C2_2  and  C7_15 
REMARK    3  A    between atoms: N1_3  and  C3_6 
REMARK    4  A    between atoms: C3_6  and  C4_7 
REMARK    5  A    between atoms: C4_7  and  O1_8 
REMARK    6  A    between atoms: O1_8  and  C5_9 
REMARK    7  A    between atoms: C5_9  and  C6_10 
REMARK    8  A    between atoms: C6_10  and  N2_11 
REMARK    9  A    between atoms: C7_15  and  O2_16 
REMARK   10  A    between atoms: C7_15  and  C9_20 
REMARK   11  A    between atoms: O2_16  and  C8_17 
ROOT
HETATM    1  N1  UNL     1      19.466  -5.541  -4.464  1.00  0.00    -0.066 N 
ATOM      2  H11 UNL     1      20.113  -4.761  -4.579  1.00  0.00     0.277 HD
ATOM      3  H12 UNL     1      18.582  -5.042  -4.560  1.00  0.00     0.277 HD
ENDROOT
BRANCH   1   4
HETATM    4  C2  UNL     1      19.586  -6.115  -3.154  1.00  0.00     0.220 C 
HETATM    5  C1  UNL     1      20.756  -7.064  -3.055  1.00  0.00     0.043 C 
BRANCH   4   6
HETATM    6  C7  UNL     1      18.310  -6.863  -2.831  1.00  0.00     0.252 C 
BRANCH   6   7
HETATM    7  O2  UNL     1      17.208  -6.267  -3.545  1.00  0.00    -0.290 OA
BRANCH   7   8
HETATM    8  C8  UNL     1      16.297  -7.006  -4.246  1.00  0.00     0.373 C 
HETATM    9  N3  UNL     1      16.754  -8.150  -4.951  1.00  0.00    -0.032 NA
HETATM   10  O3  UNL     1      15.092  -6.645  -4.237  1.00  0.00    -0.242 OA
ENDBRANCH   7   8
ENDBRANCH   6   7
BRANCH   6  11
HETATM   11  C9  UNL     1      17.980  -6.856  -1.386  1.00  0.00     0.262 C 
HETATM   12  N4  UNL     1      18.451  -7.820  -0.461  1.00  0.00    -0.060 NA
HETATM   13  O4  UNL     1      17.230  -5.934  -0.949  1.00  0.00    -0.274 OA
ENDBRANCH   6  11
ENDBRANCH   4   6
ENDBRANCH   1   4
BRANCH   1  14
HETATM   14  C3  UNL     1      19.630  -6.505  -5.532  1.00  0.00     0.259 C 
BRANCH  14  15
HETATM   15  C4  UNL     1      19.242  -5.977  -6.868  1.00  0.00     0.195 C 
BRANCH  15  16
HETATM   16  O1  UNL     1      19.153  -7.014  -7.778  1.00  0.00    -0.388 OA
BRANCH  16  17
HETATM   17  C5  UNL     1      20.283  -7.773  -7.929  1.00  0.00     0.195 C 
BRANCH  17  18
HETATM   18  C6  UNL     1      20.646  -7.782  -9.423  1.00  0.00     0.255 C 
BRANCH  18  19
HETATM   19  N2  UNL     1      21.342  -9.000  -9.776  1.00  0.00    -0.077 N 
ATOM     20  H23 UNL     1      22.128  -9.179  -9.152  1.00  0.00     0.274 HD
ATOM     21  H22 UNL     1      20.784  -9.827  -9.564  1.00  0.00     0.274 HD
ATOM     22  H21 UNL     1      21.634  -8.981 -10.753  1.00  0.00     0.274 HD
ENDBRANCH  18  19
ENDBRANCH  17  18
ENDBRANCH  16  17
ENDBRANCH  15  16
ENDBRANCH  14  15
ENDBRANCH   1  14
TORSDOF 11
ENDMDL
MODEL 3
REMARK VINA RESULT: -6.652700204      1.521      3.073
REMARK  11 active torsions:
REMARK  status: ('A' for Active; 'I' for Inactive)
REMARK    1  A    between atoms: C2_2  and  N1_3 
REMARK    2  A    between atoms: C2_2  and  C7_15 
REMARK    3  A    between atoms: N1_3  and  C3_6 
REMARK    4  A    between atoms: C3_6  and  C4_7 
REMARK    5  A    between atoms: C4_7  and  O1_8 
REMARK    6  A    between atoms: O1_8  and  C5_9 
REMARK    7  A    between atoms: C5_9  and  C6_10 
REMARK    8  A    between atoms: C6_10  and  N2_11 
REMARK    9  A    between atoms: C7_15  and  O2_16 
REMARK   10  A    between atoms: C7_15  and  C9_20 
REMARK   11  A    between atoms: O2_16  and  C8_17 
ROOT
HETATM    1  N1  UNL     1      19.378  -5.635  -2.691  1.00  0.00    -0.066 N 
ATOM      2  H11 UNL     1      19.859  -4.753  -2.515  1.00  0.00     0.277 HD
ATOM      3  H12 UNL     1      18.447  -5.280  -2.907  1.00  0.00     0.277 HD
ENDROOT
BRANCH   1   4
HETATM    4  C2  UNL     1      19.352  -6.446  -1.505  1.00  0.00     0.220 C 
HETATM    5  C1  UNL     1      20.213  -7.678  -1.640  1.00  0.00     0.043 C 
BRANCH   4   6
HETATM    6  C7  UNL     1      17.923  -6.865  -1.235  1.00  0.00     0.252 C 
BRANCH   6   7
HETATM    7  O2  UNL     1      17.083  -6.455  -2.334  1.00  0.00    -0.290 OA
BRANCH   7   8
HETATM    8  C8  UNL     1      16.277  -7.326  -3.011  1.00  0.00     0.373 C 
HETATM    9  N3  UNL     1      15.007  -7.639  -2.459  1.00  0.00    -0.032 NA
HETATM   10  O3  UNL     1      16.690  -7.814  -4.094  1.00  0.00    -0.242 OA
ENDBRANCH   7   8
ENDBRANCH   6   7
BRANCH   6  11
HETATM   11  C9  UNL     1      17.370  -6.280   0.010  1.00  0.00     0.262 C 
HETATM   12  N4  UNL     1      17.844  -6.585   1.309  1.00  0.00    -0.060 NA
HETATM   13  O4  UNL     1      16.412  -5.457  -0.091  1.00  0.00    -0.274 OA
ENDBRANCH   6  11
ENDBRANCH   4   6
ENDBRANCH   1   4
BRANCH   1  14
HETATM   14  C3  UNL     1      19.949  -6.312  -3.836  1.00  0.00     0.259 C 
BRANCH  14  15
HETATM   15  C4  UNL     1      19.289  -5.954  -5.121  1.00  0.00     0.195 C 
BRANCH  15  16
HETATM   16  O1  UNL     1      19.477  -6.965  -6.046  1.00  0.00    -0.388 OA
BRANCH  16  17
HETATM   17  C5  UNL     1      19.359  -6.600  -7.360  1.00  0.00     0.195 C 
BRANCH  17  18
HETATM   18  C6  UNL     1      20.193  -7.583  -8.199  1.00  0.00     0.255 C 
BRANCH  18  19
HETATM   19  N2  UNL     1      20.275  -7.146  -9.574  1.00  0.00    -0.077 N 
ATOM     20  H23 UNL     1      19.371  -7.205 -10.043  1.00  0.00     0.274 HD
ATOM     21  H22 UNL     1      20.418  -6.138  -9.641  1.00  0.00     0.274 HD
ATOM     22  H21 UNL     1      20.996  -7.663 -10.077  1.00  0.00     0.274 HD
ENDBRANCH  18  19
ENDBRANCH  17  18
ENDBRANCH  16  17
ENDBRANCH  15  16
ENDBRANCH  14  15
ENDBRANCH   1  14
TORSDOF 11
ENDMDL
MODEL 4
REMARK VINA RESULT: -6.626049779      2.310      5.896
REMARK  11 active torsions:
REMARK  status: ('A' for Active; 'I' for Inactive)
REMARK    1  A    between atoms: C2_2  and  N1_3 
REMARK    2  A    between atoms: C2_2  and  C7_15 
REMARK    3  A    between atoms: N1_3  and  C3_6 
REMARK    4  A    between atoms: C3_6  and  C4_7 
REMARK    5  A    between atoms: C4_7  and  O1_8 
REMARK    6  A    between atoms: O1_8  and  C5_9 
REMARK    7  A    between atoms: C5_9  and  C6_10 
REMARK    8  A    between atoms: C6_10  and  N2_11 
REMARK    9  A    between atoms: C7_15  and  O2_16 
REMARK   10  A    between atoms: C7_15  and  C9_20 
REMARK   11  A    between atoms: O2_16  and  C8_17 
ROOT
HETATM    1  N1  UNL     1      19.431  -7.514  -2.700  1.00  0.00    -0.066 N 
ATOM      2  H11 UNL     1      19.345  -8.448  -3.102  1.00  0.00     0.277 HD
ATOM      3  H12 UNL     1      18.453  -7.338  -2.471  1.00  0.00     0.277 HD
ENDROOT
BRANCH   1   4
HETATM    4  C2  UNL     1      19.900  -6.578  -3.683  1.00  0.00     0.220 C 
HETATM    5  C1  UNL     1      20.511  -5.350  -3.053  1.00  0.00     0.043 C 
BRANCH   4   6
HETATM    6  C7  UNL     1      18.734  -6.163  -4.555  1.00  0.00     0.252 C 
BRANCH   6   7
HETATM    7  O2  UNL     1      17.711  -7.178  -4.508  1.00  0.00    -0.290 OA
BRANCH   7   8
HETATM    8  C8  UNL     1      16.427  -6.915  -4.124  1.00  0.00     0.373 C 
HETATM    9  N3  UNL     1      15.983  -7.408  -2.869  1.00  0.00    -0.032 NA
HETATM   10  O3  UNL     1      15.691  -6.247  -4.894  1.00  0.00    -0.242 OA
ENDBRANCH   7   8
ENDBRANCH   6   7
BRANCH   6  11
HETATM   11  C9  UNL     1      19.112  -5.953  -5.973  1.00  0.00     0.262 C 
HETATM   12  N4  UNL     1      19.385  -7.003  -6.884  1.00  0.00    -0.060 NA
HETATM   13  O4  UNL     1      19.199  -4.764  -6.398  1.00  0.00    -0.274 OA
ENDBRANCH   6  11
ENDBRANCH   4   6
ENDBRANCH   1   4
BRANCH   1  14
HETATM   14  C3  UNL     1      20.243  -7.544  -1.502  1.00  0.00     0.259 C 
BRANCH  14  15
HETATM   15  C4  UNL     1      19.443  -7.505  -0.248  1.00  0.00     0.195 C 
BRANCH  15  16
HETATM   16  O1  UNL     1      18.263  -8.206  -0.418  1.00  0.00    -0.388 OA
BRANCH  16  17
HETATM   17  C5  UNL     1      17.304  -8.000   0.536  1.00  0.00     0.195 C 
BRANCH  17  18
HETATM   18  C6  UNL     1      17.283  -6.497   0.866  1.00  0.00     0.255 C 
BRANCH  18  19
HETATM   19  N2  UNL     1      16.450  -5.777  -0.071  1.00  0.00    -0.077 N 
ATOM     20  H23 UNL     1      16.242  -6.336  -0.898  1.00  0.00     0.274 HD
ATOM     21  H22 UNL     1      15.499  -5.663   0.281  1.00  0.00     0.274 HD
ATOM     22  H21 UNL     1      16.871  -4.881  -0.317  1.00  0.00     0.274 HD
ENDBRANCH  18  19
ENDBRANCH  17  18
ENDBRANCH  16  17
ENDBRANCH  15  16
ENDBRANCH  14  15
ENDBRANCH   1  14
TORSDOF 11
ENDMDL
MODEL 5
REMARK VINA RESULT: -6.619820485      2.379      7.081
REMARK  11 active torsions:
REMARK  status: ('A' for Active; 'I' for Inactive)
REMARK    1  A    between atoms: C2_2  and  N1_3 
REMARK    2  A    between atoms: C2_2  and  C7_15 
REMARK    3  A    between atoms: N1_3  and  C3_6 
REMARK    4  A    between atoms: C3_6  and  C4_7 
REMARK    5  A    between atoms: C4_7  and  O1_8 
REMARK    6  A    between atoms: O1_8  and  C5_9 
REMARK    7  A    between atoms: C5_9  and  C6_10 
REMARK    8  A    between atoms: C6_10  and  N2_11 
REMARK    9  A    between atoms: C7_15  and  O2_16 
REMARK   10  A    between atoms: C7_15  and  C9_20 
REMARK   11  A    between atoms: O2_16  and  C8_17 
ROOT
HETATM    1  N1  UNL     1      17.682  -5.952  -1.702  1.00  0.00    -0.066 N 
ATOM      2  H11 UNL     1      16.801  -5.770  -2.182  1.00  0.00     0.277 HD
ATOM      3  H12 UNL     1      18.085  -5.016  -1.729  1.00  0.00     0.277 HD
ENDROOT
BRANCH   1   4
HETATM    4  C2  UNL     1      18.489  -6.876  -2.449  1.00  0.00     0.220 C 
HETATM    5  C1  UNL     1      19.949  -6.494  -2.438  1.00  0.00     0.043 C 
BRANCH   4   6
HETATM    6  C7  UNL     1      17.993  -6.909  -3.879  1.00  0.00     0.252 C 
BRANCH   6   7
HETATM    7  O2  UNL     1      18.402  -5.704  -4.559  1.00  0.00    -0.290 OA
BRANCH   7   8
HETATM    8  C8  UNL     1      19.005  -5.717  -5.785  1.00  0.00     0.373 C 
HETATM    9  N3  UNL     1      19.369  -6.970  -6.345  1.00  0.00    -0.032 NA
HETATM   10  O3  UNL     1      19.212  -4.622  -6.368  1.00  0.00    -0.242 OA
ENDBRANCH   7   8
ENDBRANCH   6   7
BRANCH   6  11
HETATM   11  C9  UNL     1      16.519  -7.018  -3.982  1.00  0.00     0.262 C 
HETATM   12  N4  UNL     1      15.738  -6.333  -4.946  1.00  0.00    -0.060 NA
HETATM   13  O4  UNL     1      15.917  -7.768  -3.159  1.00  0.00    -0.274 OA
ENDBRANCH   6  11
ENDBRANCH   4   6
ENDBRANCH   1   4
BRANCH   1  14
HETATM   14  C3  UNL     1      17.445  -6.370  -0.337  1.00  0.00     0.259 C 
BRANCH  14  15
HETATM   15  C4  UNL     1      17.544  -7.843  -0.145  1.00  0.00     0.195 C 
BRANCH  15  16
HETATM   16  O1  UNL     1      17.736  -8.133   1.193  1.00  0.00    -0.388 OA
BRANCH  16  17
HETATM   17  C5  UNL     1      17.407  -7.136   2.072  1.00  0.00     0.195 C 
BRANCH  17  18
HETATM   18  C6  UNL     1      16.873  -7.797   3.355  1.00  0.00     0.255 C 
BRANCH  18  19
HETATM   19  N2  UNL     1      15.845  -6.983   3.963  1.00  0.00    -0.077 N 
ATOM     20  H23 UNL     1      15.725  -7.204   4.952  1.00  0.00     0.274 HD
ATOM     21  H22 UNL     1      16.140  -6.011   4.056  1.00  0.00     0.274 HD
ATOM     22  H21 UNL     1      14.967  -7.063   3.450  1.00  0.00     0.274 HD
ENDBRANCH  18  19
ENDBRANCH  17  18
ENDBRANCH  16  17
ENDBRANCH  15  16
ENDBRANCH  14  15
ENDBRANCH   1  14
TORSDOF 11
ENDMDL
