MODEL 1
REMARK VINA RESULT: -7.125855529      0.000      0.000
REMARK  11 active torsions:
REMARK  status: ('A' for Active; 'I' for Inactive)
REMARK    1  A    between atoms: O1_2  and  C2_3 
REMARK    2  A    between atoms: C2_3  and  C3_4 
REMARK    3  A    between atoms: C3_4  and  N1_5 
REMARK    4  A    between atoms: N1_5  and  C4_8 
REMARK    5  A    between atoms: C4_8  and  C5_9 
REMARK       I    between atoms: C5_9  and  N2_11 
REMARK    6  A    between atoms: N2_11  and  C6_13 
REMARK    7  A    between atoms: C6_13  and  C7_14 
REMARK    8  A    between atoms: C7_14  and  O3_15 
REMARK    9  A    between atoms: C7_14  and  C8_17 
REMARK   10  A    between atoms: C7_14  and  C9_22 
REMARK   11  A    between atoms: C8_17  and  N3_18 
ROOT
HETATM    1  C5  UNL     1      16.775  -7.057  -4.382  1.00  0.00     0.243 C 
HETATM    2  O2  UNL     1      15.597  -6.663  -4.328  1.00  0.00    -0.272 OA
HETATM    3  N2  UNL     1      17.575  -7.375  -3.285  1.00  0.00    -0.356 N 
ATOM      4  H2  UNL     1      18.521  -7.693  -3.494  1.00  0.00     0.162 HD
ENDROOT
BRANCH   3   5
HETATM    5  C6  UNL     1      17.225  -7.306  -1.910  1.00  0.00     0.172 C 
BRANCH   5   6
HETATM    6  C7  UNL     1      18.005  -6.380  -1.033  1.00  0.00     0.175 C 
BRANCH   6   7
HETATM    7  O3  UNL     1      17.455  -5.130  -1.008  1.00  0.00    -0.377 OA
ATOM      8  H3  UNL     1      17.702  -4.655  -0.223  1.00  0.00     0.211 HD
ENDBRANCH   6   7
BRANCH   6   9
HETATM    9  C8  UNL     1      19.397  -6.243  -1.642  1.00  0.00     0.278 C 
BRANCH   9  10
HETATM   10  N3  UNL     1      20.357  -7.155  -1.110  1.00  0.00    -0.076 N 
ATOM     11  H33 UNL     1      20.023  -7.555  -0.234  1.00  0.00     0.274 HD
ATOM     12  H32 UNL     1      20.402  -7.999  -1.680  1.00  0.00     0.274 HD
ATOM     13  H31 UNL     1      21.287  -6.754  -0.989  1.00  0.00     0.274 HD
ENDBRANCH   9  10
ENDBRANCH   6   9
BRANCH   6  14
HETATM   14  C9  UNL     1      18.080  -6.996   0.315  1.00  0.00     0.269 C 
HETATM   15  N4  UNL     1      17.739  -8.352   0.470  1.00  0.00    -0.059 NA
HETATM   16  O4  UNL     1      18.442  -6.302   1.280  1.00  0.00    -0.273 OA
ENDBRANCH   6  14
ENDBRANCH   5   6
ENDBRANCH   3   5
BRANCH   1  17
HETATM   17  C4  UNL     1      17.355  -7.192  -5.766  1.00  0.00     0.334 C 
BRANCH  17  18
HETATM   18  N1  UNL     1      18.794  -7.168  -5.673  1.00  0.00    -0.065 N 
ATOM     19  H12 UNL     1      19.216  -8.085  -5.825  1.00  0.00     0.277 HD
ATOM     20  H11 UNL     1      19.128  -7.022  -4.720  1.00  0.00     0.277 HD
BRANCH  18  21
HETATM   21  C3  UNL     1      19.281  -6.163  -6.601  1.00  0.00     0.259 C 
BRANCH  21  22
HETATM   22  C2  UNL     1      19.296  -6.760  -8.009  1.00  0.00     0.194 C 
BRANCH  22  23
HETATM   23  O1  UNL     1      20.374  -7.612  -8.091  1.00  0.00    -0.394 OA
HETATM   24  C1  UNL     1      20.740  -7.900  -9.388  1.00  0.00     0.201 C 
ENDBRANCH  22  23
ENDBRANCH  21  22
ENDBRANCH  18  21
ENDBRANCH  17  18
ENDBRANCH   1  17
TORSDOF 11
ENDMDL
MODEL 2
REMARK VINA RESULT: -7.115061189      1.214      2.033
REMARK  11 active torsions:
REMARK  status: ('A' for Active; 'I' for Inactive)
REMARK    1  A    between atoms: O1_2  and  C2_3 
REMARK    2  A    between atoms: C2_3  and  C3_4 
REMARK    3  A    between atoms: C3_4  and  N1_5 
REMARK    4  A    between atoms: N1_5  and  C4_8 
REMARK    5  A    between atoms: C4_8  and  C5_9 
REMARK       I    between atoms: C5_9  and  N2_11 
REMARK    6  A    between atoms: N2_11  and  C6_13 
REMARK    7  A    between atoms: C6_13  and  C7_14 
REMARK    8  A    between atoms: C7_14  and  O3_15 
REMARK    9  A    between atoms: C7_14  and  C8_17 
REMARK   10  A    between atoms: C7_14  and  C9_22 
REMARK   11  A    between atoms: C8_17  and  N3_18 
ROOT
HETATM    1  C5  UNL     1      16.672  -6.973  -4.363  1.00  0.00     0.243 C 
HETATM    2  O2  UNL     1      15.468  -6.660  -4.369  1.00  0.00    -0.272 OA
HETATM    3  N2  UNL     1      17.421  -7.292  -3.231  1.00  0.00    -0.356 N 
ATOM      4  H2  UNL     1      18.399  -7.537  -3.392  1.00  0.00     0.162 HD
ENDROOT
BRANCH   3   5
HETATM    5  C6  UNL     1      16.981  -7.316  -1.880  1.00  0.00     0.172 C 
BRANCH   5   6
HETATM    6  C7  UNL     1      18.014  -7.227  -0.805  1.00  0.00     0.175 C 
BRANCH   6   7
HETATM    7  O3  UNL     1      18.333  -8.460  -0.311  1.00  0.00    -0.377 OA
ATOM      8  H3  UNL     1      17.672  -8.775   0.295  1.00  0.00     0.211 HD
ENDBRANCH   6   7
BRANCH   6   9
HETATM    9  C8  UNL     1      17.405  -6.430   0.345  1.00  0.00     0.278 C 
BRANCH   9  10
HETATM   10  N3  UNL     1      16.381  -5.521  -0.056  1.00  0.00    -0.076 N 
ATOM     11  H33 UNL     1      16.765  -4.586  -0.191  1.00  0.00     0.274 HD
ATOM     12  H32 UNL     1      16.077  -5.722  -1.008  1.00  0.00     0.274 HD
ATOM     13  H31 UNL     1      15.581  -5.491   0.576  1.00  0.00     0.274 HD
ENDBRANCH   9  10
ENDBRANCH   6   9
BRANCH   6  14
HETATM   14  C9  UNL     1      19.190  -6.519  -1.370  1.00  0.00     0.269 C 
HETATM   15  N4  UNL     1      20.407  -7.209  -1.507  1.00  0.00    -0.059 NA
HETATM   16  O4  UNL     1      19.075  -5.329  -1.712  1.00  0.00    -0.273 OA
ENDBRANCH   6  14
ENDBRANCH   5   6
ENDBRANCH   3   5
BRANCH   1  17
HETATM   17  C4  UNL     1      17.346  -6.999  -5.710  1.00  0.00     0.334 C 
BRANCH  17  18
HETATM   18  N1  UNL     1      18.771  -6.879  -5.521  1.00  0.00    -0.065 N 
ATOM     19  H12 UNL     1      19.208  -7.755  -5.232  1.00  0.00     0.277 HD
ATOM     20  H11 UNL     1      19.017  -6.328  -4.699  1.00  0.00     0.277 HD
BRANCH  18  21
HETATM   21  C3  UNL     1      19.336  -6.346  -6.747  1.00  0.00     0.259 C 
BRANCH  21  22
HETATM   22  C2  UNL     1      20.085  -7.466  -7.472  1.00  0.00     0.194 C 
BRANCH  22  23
HETATM   23  O1  UNL     1      19.940  -7.259  -8.825  1.00  0.00    -0.394 OA
HETATM   24  C1  UNL     1      20.804  -8.018  -9.584  1.00  0.00     0.201 C 
ENDBRANCH  22  23
ENDBRANCH  21  22
ENDBRANCH  18  21
ENDBRANCH  17  18
ENDBRANCH   1  17
TORSDOF 11
ENDMDL
MODEL 3
REMARK VINA RESULT: -6.992291294      2.119      3.151
REMARK  11 active torsions:
REMARK  status: ('A' for Active; 'I' for Inactive)
REMARK    1  A    between atoms: O1_2  and  C2_3 
REMARK    2  A    between atoms: C2_3  and  C3_4 
REMARK    3  A    between atoms: C3_4  and  N1_5 
REMARK    4  A    between atoms: N1_5  and  C4_8 
REMARK    5  A    between atoms: C4_8  and  C5_9 
REMARK       I    between atoms: C5_9  and  N2_11 
REMARK    6  A    between atoms: N2_11  and  C6_13 
REMARK    7  A    between atoms: C6_13  and  C7_14 
REMARK    8  A    between atoms: C7_14  and  O3_15 
REMARK    9  A    between atoms: C7_14  and  C8_17 
REMARK   10  A    between atoms: C7_14  and  C9_22 
REMARK   11  A    between atoms: C8_17  and  N3_18 
ROOT
HETATM    1  C5  UNL     1      20.386  -7.126  -1.810  1.00  0.00     0.243 C 
HETATM    2  O2  UNL     1      21.407  -7.485  -1.198  1.00  0.00    -0.272 OA
HETATM    3  N2  UNL     1      19.073  -7.422  -1.443  1.00  0.00    -0.356 N 
ATOM      4  H2  UNL     1      18.341  -7.047  -2.046  1.00  0.00     0.162 HD
ENDROOT
BRANCH   3   5
HETATM    5  C6  UNL     1      18.638  -8.187  -0.327  1.00  0.00     0.172 C 
BRANCH   5   6
HETATM    6  C7  UNL     1      17.413  -7.734   0.398  1.00  0.00     0.175 C 
BRANCH   6   7
HETATM    7  O3  UNL     1      16.668  -8.794   0.833  1.00  0.00    -0.377 OA
ATOM      8  H3  UNL     1      17.161  -9.605   0.800  1.00  0.00     0.211 HD
ENDBRANCH   6   7
BRANCH   6   9
HETATM    9  C8  UNL     1      16.553  -6.965  -0.599  1.00  0.00     0.278 C 
BRANCH   9  10
HETATM   10  N3  UNL     1      16.318  -5.605  -0.237  1.00  0.00    -0.076 N 
ATOM     11  H33 UNL     1      15.406  -5.297  -0.574  1.00  0.00     0.274 HD
ATOM     12  H32 UNL     1      16.168  -5.523   0.768  1.00  0.00     0.274 HD
ATOM     13  H31 UNL     1      17.048  -4.961  -0.542  1.00  0.00     0.274 HD
ENDBRANCH   9  10
ENDBRANCH   6   9
BRANCH   6  14
HETATM   14  C9  UNL     1      17.849  -6.851   1.508  1.00  0.00     0.269 C 
HETATM   15  N4  UNL     1      17.072  -6.783   2.678  1.00  0.00    -0.059 NA
HETATM   16  O4  UNL     1      18.894  -6.190   1.381  1.00  0.00    -0.273 OA
ENDBRANCH   6  14
ENDBRANCH   5   6
ENDBRANCH   3   5
BRANCH   1  17
HETATM   17  C4  UNL     1      20.623  -6.301  -3.048  1.00  0.00     0.334 C 
BRANCH  17  18
HETATM   18  N1  UNL     1      20.025  -6.970  -4.177  1.00  0.00    -0.065 N 
ATOM     19  H12 UNL     1      19.525  -7.820  -3.915  1.00  0.00     0.277 HD
ATOM     20  H11 UNL     1      20.714  -7.404  -4.792  1.00  0.00     0.277 HD
BRANCH  18  21
HETATM   21  C3  UNL     1      19.181  -6.010  -4.864  1.00  0.00     0.259 C 
BRANCH  21  22
HETATM   22  C2  UNL     1      18.921  -6.512  -6.286  1.00  0.00     0.194 C 
BRANCH  22  23
HETATM   23  O1  UNL     1      20.026  -7.229  -6.685  1.00  0.00    -0.394 OA
HETATM   24  C1  UNL     1      20.059  -7.463  -8.043  1.00  0.00     0.201 C 
ENDBRANCH  22  23
ENDBRANCH  21  22
ENDBRANCH  18  21
ENDBRANCH  17  18
ENDBRANCH   1  17
TORSDOF 11
ENDMDL
MODEL 4
REMARK VINA RESULT: -6.876748978      1.532      2.718
REMARK  11 active torsions:
REMARK  status: ('A' for Active; 'I' for Inactive)
REMARK    1  A    between atoms: O1_2  and  C2_3 
REMARK    2  A    between atoms: C2_3  and  C3_4 
REMARK    3  A    between atoms: C3_4  and  N1_5 
REMARK    4  A    between atoms: N1_5  and  C4_8 
REMARK    5  A    between atoms: C4_8  and  C5_9 
REMARK       I    between atoms: C5_9  and  N2_11 
REMARK    6  A    between atoms: N2_11  and  C6_13 
REMARK    7  A    between atoms: C6_13  and  C7_14 
REMARK    8  A    between atoms: C7_14  and  O3_15 
REMARK    9  A    between atoms: C7_14  and  C8_17 
REMARK   10  A    between atoms: C7_14  and  C9_22 
REMARK   11  A    between atoms: C8_17  and  N3_18 
ROOT
HETATM    1  C5  UNL     1      19.962  -6.237  -3.184  1.00  0.00     0.243 C 
HETATM    2  O2  UNL     1      20.771  -5.351  -2.857  1.00  0.00    -0.272 OA
HETATM    3  N2  UNL     1      19.359  -7.146  -2.316  1.00  0.00    -0.356 N 
ATOM      4  H2  UNL     1      18.708  -7.809  -2.738  1.00  0.00     0.162 HD
ENDROOT
BRANCH   3   5
HETATM    5  C6  UNL     1      19.546  -7.257  -0.912  1.00  0.00     0.172 C 
BRANCH   5   6
HETATM    6  C7  UNL     1      18.383  -6.956  -0.023  1.00  0.00     0.175 C 
BRANCH   6   7
HETATM    7  O3  UNL     1      18.741  -6.141   1.014  1.00  0.00    -0.377 OA
ATOM      8  H3  UNL     1      18.025  -6.019   1.626  1.00  0.00     0.211 HD
ENDBRANCH   6   7
BRANCH   6   9
HETATM    9  C8  UNL     1      17.923  -8.276   0.586  1.00  0.00     0.278 C 
BRANCH   9  10
HETATM   10  N3  UNL     1      16.898  -8.137   1.569  1.00  0.00    -0.076 N 
ATOM     11  H33 UNL     1      16.591  -9.053   1.898  1.00  0.00     0.274 HD
ATOM     12  H32 UNL     1      17.282  -7.762   2.436  1.00  0.00     0.274 HD
ATOM     13  H31 UNL     1      16.100  -7.582   1.261  1.00  0.00     0.274 HD
ENDBRANCH   9  10
ENDBRANCH   6   9
BRANCH   6  14
HETATM   14  C9  UNL     1      17.315  -6.366  -0.868  1.00  0.00     0.269 C 
HETATM   15  N4  UNL     1      16.325  -7.206  -1.409  1.00  0.00    -0.059 NA
HETATM   16  O4  UNL     1      17.316  -5.142  -1.079  1.00  0.00    -0.273 OA
ENDBRANCH   6  14
ENDBRANCH   5   6
ENDBRANCH   3   5
BRANCH   1  17
HETATM   17  C4  UNL     1      19.626  -6.304  -4.651  1.00  0.00     0.334 C 
BRANCH  17  18
HETATM   18  N1  UNL     1      18.366  -6.987  -4.812  1.00  0.00    -0.065 N 
ATOM     19  H12 UNL     1      17.632  -6.611  -4.210  1.00  0.00     0.277 HD
ATOM     20  H11 UNL     1      18.377  -7.935  -4.435  1.00  0.00     0.277 HD
BRANCH  18  21
HETATM   21  C3  UNL     1      18.016  -6.945  -6.220  1.00  0.00     0.259 C 
BRANCH  21  22
HETATM   22  C2  UNL     1      19.149  -6.261  -6.988  1.00  0.00     0.194 C 
BRANCH  22  23
HETATM   23  O1  UNL     1      19.234  -6.857  -8.225  1.00  0.00    -0.394 OA
HETATM   24  C1  UNL     1      20.314  -7.705  -8.344  1.00  0.00     0.201 C 
ENDBRANCH  22  23
ENDBRANCH  21  22
ENDBRANCH  18  21
ENDBRANCH  17  18
ENDBRANCH   1  17
TORSDOF 11
ENDMDL
MODEL 5
REMARK VINA RESULT: -6.820023379      1.525      2.103
REMARK  11 active torsions:
REMARK  status: ('A' for Active; 'I' for Inactive)
REMARK    1  A    between atoms: O1_2  and  C2_3 
REMARK    2  A    between atoms: C2_3  and  C3_4 
REMARK    3  A    between atoms: C3_4  and  N1_5 
REMARK    4  A    between atoms: N1_5  and  C4_8 
REMARK    5  A    between atoms: C4_8  and  C5_9 
REMARK       I    between atoms: C5_9  and  N2_11 
REMARK    6  A    between atoms: N2_11  and  C6_13 
REMARK    7  A    between atoms: C6_13  and  C7_14 
REMARK    8  A    between atoms: C7_14  and  O3_15 
REMARK    9  A    between atoms: C7_14  and  C8_17 
REMARK   10  A    between atoms: C7_14  and  C9_22 
REMARK   11  A    between atoms: C8_17  and  N3_18 
ROOT
HETATM    1  C5  UNL     1      17.113  -7.036  -4.349  1.00  0.00     0.243 C 
HETATM    2  O2  UNL     1      16.602  -8.162  -4.215  1.00  0.00    -0.272 OA
HETATM    3  N2  UNL     1      17.590  -6.232  -3.314  1.00  0.00    -0.356 N 
ATOM      4  H2  UNL     1      17.989  -5.334  -3.587  1.00  0.00     0.162 HD
ENDROOT
BRANCH   3   5
HETATM    5  C6  UNL     1      17.583  -6.519  -1.922  1.00  0.00     0.172 C 
BRANCH   5   6
HETATM    6  C7  UNL     1      18.657  -7.407  -1.384  1.00  0.00     0.175 C 
BRANCH   6   7
HETATM    7  O3  UNL     1      18.576  -8.667  -1.909  1.00  0.00    -0.377 OA
ATOM      8  H3  UNL     1      18.876  -9.323  -1.290  1.00  0.00     0.211 HD
ENDBRANCH   6   7
BRANCH   6   9
HETATM    9  C8  UNL     1      18.430  -7.536   0.119  1.00  0.00     0.278 C 
BRANCH   9  10
HETATM   10  N3  UNL     1      18.787  -6.371   0.862  1.00  0.00    -0.076 N 
ATOM     11  H33 UNL     1      18.060  -6.143   1.541  1.00  0.00     0.274 HD
ATOM     12  H32 UNL     1      19.559  -6.574   1.496  1.00  0.00     0.274 HD
ATOM     13  H31 UNL     1      19.003  -5.559   0.284  1.00  0.00     0.274 HD
ENDBRANCH   9  10
ENDBRANCH   6   9
BRANCH   6  14
HETATM   14  C9  UNL     1      19.960  -6.756  -1.665  1.00  0.00     0.269 C 
HETATM   15  N4  UNL     1      21.149  -7.479  -1.459  1.00  0.00    -0.059 NA
HETATM   16  O4  UNL     1      19.976  -5.584  -2.078  1.00  0.00    -0.273 OA
ENDBRANCH   6  14
ENDBRANCH   5   6
ENDBRANCH   3   5
BRANCH   1  17
HETATM   17  C4  UNL     1      17.208  -6.527  -5.764  1.00  0.00     0.334 C 
BRANCH  17  18
HETATM   18  N1  UNL     1      18.440  -5.790  -5.914  1.00  0.00    -0.065 N 
ATOM     19  H12 UNL     1      18.702  -5.282  -5.069  1.00  0.00     0.277 HD
ATOM     20  H11 UNL     1      18.347  -4.985  -6.533  1.00  0.00     0.277 HD
BRANCH  18  21
HETATM   21  C3  UNL     1      19.463  -6.723  -6.351  1.00  0.00     0.259 C 
BRANCH  21  22
HETATM   22  C2  UNL     1      19.447  -6.787  -7.880  1.00  0.00     0.194 C 
BRANCH  22  23
HETATM   23  O1  UNL     1      20.327  -7.772  -8.266  1.00  0.00    -0.394 OA
HETATM   24  C1  UNL     1      20.645  -7.720  -9.606  1.00  0.00     0.201 C 
ENDBRANCH  22  23
ENDBRANCH  21  22
ENDBRANCH  18  21
ENDBRANCH  17  18
ENDBRANCH   1  17
TORSDOF 11
ENDMDL
