MODEL 1
REMARK VINA RESULT: -6.707635112      0.000      0.000
REMARK  10 active torsions:
REMARK  status: ('A' for Active; 'I' for Inactive)
REMARK    1  A    between atoms: C1_2  and  O2_4 
REMARK    2  A    between atoms: O2_4  and  C2_5 
REMARK    3  A    between atoms: C2_5  and  C3_6 
REMARK    4  A    between atoms: C3_6  and  C4_7 
REMARK    5  A    between atoms: C4_7  and  N3_12 
REMARK    6  A    between atoms: C5_8  and  C6_9 
REMARK    7  A    between atoms: N3_12  and  C7_14 
REMARK    8  A    between atoms: C7_14  and  C8_15 
REMARK    9  A    between atoms: C8_15  and  C9_17 
REMARK   10  A    between atoms: C9_17  and  N4_18 
ROOT
HETATM    1  C4  UNL     1      17.892  -6.571   0.269  1.00  0.00     0.012 C 
HETATM    2  C5  UNL     1      18.099  -6.993   1.485  1.00  0.00     0.095 C 
ENDROOT
BRANCH   1   3
HETATM    3  C3  UNL     1      16.599  -6.331  -0.400  1.00  0.00     0.083 C 
BRANCH   3   4
HETATM    4  C2  UNL     1      16.386  -7.277  -1.566  1.00  0.00     0.186 C 
BRANCH   4   5
HETATM    5  O2  UNL     1      16.847  -6.773  -2.789  1.00  0.00    -0.306 OA
BRANCH   5   6
HETATM    6  C1  UNL     1      16.392  -7.101  -4.046  1.00  0.00     0.372 C 
HETATM    7  N1  UNL     1      16.977  -8.180  -4.806  1.00  0.00    -0.032 NA
HETATM    8  O1  UNL     1      15.444  -6.434  -4.523  1.00  0.00    -0.242 OA
ENDBRANCH   5   6
ENDBRANCH   4   5
ENDBRANCH   3   4
ENDBRANCH   1   3
BRANCH   1   9
HETATM    9  N3  UNL     1      19.076  -6.297  -0.540  1.00  0.00    -0.386 N 
ATOM     10  H3  UNL     1      19.221  -5.363  -0.924  1.00  0.00     0.159 HD
BRANCH   9  11
HETATM   11  C7  UNL     1      20.039  -7.332  -0.799  1.00  0.00     0.199 C 
BRANCH  11  12
HETATM   12  C8  UNL     1      20.624  -7.194  -2.152  1.00  0.00     0.169 C 
HETATM   13  O4  UNL     1      21.473  -7.982  -2.509  1.00  0.00    -0.294 OA
BRANCH  12  14
HETATM   14  C9  UNL     1      20.208  -6.123  -3.085  1.00  0.00     0.309 C 
BRANCH  14  15
HETATM   15  N4  UNL     1      19.771  -6.662  -4.335  1.00  0.00    -0.073 N 
ATOM     16  H43 UNL     1      19.715  -7.680  -4.303  1.00  0.00     0.274 HD
ATOM     17  H42 UNL     1      18.788  -6.455  -4.508  1.00  0.00     0.274 HD
ATOM     18  H41 UNL     1      20.362  -6.344  -5.103  1.00  0.00     0.274 HD
ENDBRANCH  14  15
ENDBRANCH  12  14
ENDBRANCH  11  12
ENDBRANCH   9  11
ENDBRANCH   1   9
BRANCH   2  19
HETATM   19  C6  UNL     1      17.128  -7.337   2.496  1.00  0.00     0.256 C 
HETATM   20  N2  UNL     1      16.663  -6.330   3.424  1.00  0.00    -0.058 NA
HETATM   21  O3  UNL     1      16.624  -8.461   2.662  1.00  0.00    -0.272 OA
ENDBRANCH   2  19
TORSDOF 10
ENDMDL
MODEL 2
REMARK VINA RESULT: -6.629562569      1.510      4.831
REMARK  10 active torsions:
REMARK  status: ('A' for Active; 'I' for Inactive)
REMARK    1  A    between atoms: C1_2  and  O2_4 
REMARK    2  A    between atoms: O2_4  and  C2_5 
REMARK    3  A    between atoms: C2_5  and  C3_6 
REMARK    4  A    between atoms: C3_6  and  C4_7 
REMARK    5  A    between atoms: C4_7  and  N3_12 
REMARK    6  A    between atoms: C5_8  and  C6_9 
REMARK    7  A    between atoms: N3_12  and  C7_14 
REMARK    8  A    between atoms: C7_14  and  C8_15 
REMARK    9  A    between atoms: C8_15  and  C9_17 
REMARK   10  A    between atoms: C9_17  and  N4_18 
ROOT
HETATM    1  C4  UNL     1      18.499  -6.458  -1.349  1.00  0.00     0.012 C 
HETATM    2  C5  UNL     1      19.539  -5.815  -1.802  1.00  0.00     0.095 C 
ENDROOT
BRANCH   1   3
HETATM    3  C3  UNL     1      17.767  -7.564  -1.992  1.00  0.00     0.083 C 
BRANCH   3   4
HETATM    4  C2  UNL     1      16.272  -7.305  -2.025  1.00  0.00     0.186 C 
BRANCH   4   5
HETATM    5  O2  UNL     1      15.738  -7.271  -3.320  1.00  0.00    -0.306 OA
BRANCH   5   6
HETATM    6  C1  UNL     1      16.340  -6.773  -4.453  1.00  0.00     0.372 C 
HETATM    7  N1  UNL     1      16.782  -7.641  -5.519  1.00  0.00    -0.032 NA
HETATM    8  O1  UNL     1      16.496  -5.533  -4.542  1.00  0.00    -0.242 OA
ENDBRANCH   5   6
ENDBRANCH   4   5
ENDBRANCH   3   4
ENDBRANCH   1   3
BRANCH   1   9
HETATM    9  N3  UNL     1      17.989  -6.042  -0.046  1.00  0.00    -0.386 N 
ATOM     10  H3  UNL     1      17.231  -5.361   0.007  1.00  0.00     0.159 HD
BRANCH   9  11
HETATM   11  C7  UNL     1      18.546  -6.583   1.164  1.00  0.00     0.199 C 
BRANCH  11  12
HETATM   12  C8  UNL     1      17.558  -7.419   1.881  1.00  0.00     0.169 C 
HETATM   13  O4  UNL     1      17.207  -8.469   1.387  1.00  0.00    -0.294 OA
BRANCH  12  14
HETATM   14  C9  UNL     1      16.982  -7.017   3.184  1.00  0.00     0.309 C 
BRANCH  14  15
HETATM   15  N4  UNL     1      15.908  -7.880   3.566  1.00  0.00    -0.073 N 
ATOM     16  H43 UNL     1      15.023  -7.576   3.161  1.00  0.00     0.274 HD
ATOM     17  H42 UNL     1      15.983  -8.792   3.117  1.00  0.00     0.274 HD
ATOM     18  H41 UNL     1      15.845  -7.966   4.581  1.00  0.00     0.274 HD
ENDBRANCH  14  15
ENDBRANCH  12  14
ENDBRANCH  11  12
ENDBRANCH   9  11
ENDBRANCH   1   9
BRANCH   2  19
HETATM   19  C6  UNL     1      20.247  -6.010  -3.045  1.00  0.00     0.256 C 
HETATM   20  N2  UNL     1      21.607  -6.504  -3.031  1.00  0.00    -0.058 NA
HETATM   21  O3  UNL     1      19.791  -5.790  -4.179  1.00  0.00    -0.272 OA
ENDBRANCH   2  19
TORSDOF 10
ENDMDL
MODEL 3
REMARK VINA RESULT: -6.625216657      1.540      1.590
REMARK  10 active torsions:
REMARK  status: ('A' for Active; 'I' for Inactive)
REMARK    1  A    between atoms: C1_2  and  O2_4 
REMARK    2  A    between atoms: O2_4  and  C2_5 
REMARK    3  A    between atoms: C2_5  and  C3_6 
REMARK    4  A    between atoms: C3_6  and  C4_7 
REMARK    5  A    between atoms: C4_7  and  N3_12 
REMARK    6  A    between atoms: C5_8  and  C6_9 
REMARK    7  A    between atoms: N3_12  and  C7_14 
REMARK    8  A    between atoms: C7_14  and  C8_15 
REMARK    9  A    between atoms: C8_15  and  C9_17 
REMARK   10  A    between atoms: C9_17  and  N4_18 
ROOT
HETATM    1  C4  UNL     1      18.152  -7.485  -0.840  1.00  0.00     0.012 C 
HETATM    2  C5  UNL     1      18.422  -7.817   0.391  1.00  0.00     0.095 C 
ENDROOT
BRANCH   1   3
HETATM    3  C3  UNL     1      17.055  -6.630  -1.328  1.00  0.00     0.083 C 
BRANCH   3   4
HETATM    4  C2  UNL     1      15.828  -7.444  -1.696  1.00  0.00     0.186 C 
BRANCH   4   5
HETATM    5  O2  UNL     1      15.468  -7.337  -3.046  1.00  0.00    -0.306 OA
BRANCH   5   6
HETATM    6  C1  UNL     1      16.310  -7.143  -4.116  1.00  0.00     0.372 C 
HETATM    7  N1  UNL     1      16.424  -5.858  -4.766  1.00  0.00    -0.032 NA
HETATM    8  O1  UNL     1      16.988  -8.117  -4.519  1.00  0.00    -0.242 OA
ENDBRANCH   5   6
ENDBRANCH   4   5
ENDBRANCH   3   4
ENDBRANCH   1   3
BRANCH   1   9
HETATM    9  N3  UNL     1      19.038  -8.017  -1.871  1.00  0.00    -0.386 N 
ATOM     10  H3  UNL     1      18.657  -8.602  -2.614  1.00  0.00     0.159 HD
BRANCH   9  11
HETATM   11  C7  UNL     1      20.446  -7.722  -1.849  1.00  0.00     0.199 C 
BRANCH  11  12
HETATM   12  C8  UNL     1      20.787  -6.662  -2.824  1.00  0.00     0.169 C 
HETATM   13  O4  UNL     1      21.939  -6.293  -2.913  1.00  0.00    -0.294 OA
BRANCH  12  14
HETATM   14  C9  UNL     1      19.769  -6.034  -3.695  1.00  0.00     0.309 C 
BRANCH  14  15
HETATM   15  N4  UNL     1      19.750  -6.637  -4.991  1.00  0.00    -0.073 N 
ATOM     16  H43 UNL     1      19.875  -5.943  -5.728  1.00  0.00     0.274 HD
ATOM     17  H42 UNL     1      20.588  -7.195  -5.156  1.00  0.00     0.274 HD
ATOM     18  H41 UNL     1      18.901  -7.185  -5.133  1.00  0.00     0.274 HD
ENDBRANCH  14  15
ENDBRANCH  12  14
ENDBRANCH  11  12
ENDBRANCH   9  11
ENDBRANCH   1   9
BRANCH   2  19
HETATM   19  C6  UNL     1      17.726  -7.442   1.598  1.00  0.00     0.256 C 
HETATM   20  N2  UNL     1      17.075  -8.456   2.401  1.00  0.00    -0.058 NA
HETATM   21  O3  UNL     1      17.619  -6.287   2.043  1.00  0.00    -0.272 OA
ENDBRANCH   2  19
TORSDOF 10
ENDMDL
MODEL 4
REMARK VINA RESULT: -6.572898476      1.654      1.828
REMARK  10 active torsions:
REMARK  status: ('A' for Active; 'I' for Inactive)
REMARK    1  A    between atoms: C1_2  and  O2_4 
REMARK    2  A    between atoms: O2_4  and  C2_5 
REMARK    3  A    between atoms: C2_5  and  C3_6 
REMARK    4  A    between atoms: C3_6  and  C4_7 
REMARK    5  A    between atoms: C4_7  and  N3_12 
REMARK    6  A    between atoms: C5_8  and  C6_9 
REMARK    7  A    between atoms: N3_12  and  C7_14 
REMARK    8  A    between atoms: C7_14  and  C8_15 
REMARK    9  A    between atoms: C8_15  and  C9_17 
REMARK   10  A    between atoms: C9_17  and  N4_18 
ROOT
HETATM    1  C4  UNL     1      17.633  -6.738  -0.643  1.00  0.00     0.012 C 
HETATM    2  C5  UNL     1      18.193  -6.534   0.516  1.00  0.00     0.095 C 
ENDROOT
BRANCH   1   3
HETATM    3  C3  UNL     1      16.578  -7.711  -0.982  1.00  0.00     0.083 C 
BRANCH   3   4
HETATM    4  C2  UNL     1      15.846  -7.326  -2.254  1.00  0.00     0.186 C 
BRANCH   4   5
HETATM    5  O2  UNL     1      16.513  -7.712  -3.424  1.00  0.00    -0.306 OA
BRANCH   5   6
HETATM    6  C1  UNL     1      16.595  -7.008  -4.603  1.00  0.00     0.372 C 
HETATM    7  N1  UNL     1      16.603  -5.564  -4.624  1.00  0.00    -0.032 NA
HETATM    8  O1  UNL     1      16.666  -7.655  -5.674  1.00  0.00    -0.242 OA
ENDBRANCH   5   6
ENDBRANCH   4   5
ENDBRANCH   3   4
ENDBRANCH   1   3
BRANCH   1   9
HETATM    9  N3  UNL     1      18.098  -5.907  -1.750  1.00  0.00    -0.386 N 
ATOM     10  H3  UNL     1      17.432  -5.575  -2.448  1.00  0.00     0.159 HD
BRANCH   9  11
HETATM   11  C7  UNL     1      19.486  -5.551  -1.864  1.00  0.00     0.199 C 
BRANCH  11  12
HETATM   12  C8  UNL     1      20.156  -6.341  -2.922  1.00  0.00     0.169 C 
HETATM   13  O4  UNL     1      19.947  -6.065  -4.084  1.00  0.00    -0.294 OA
BRANCH  12  14
HETATM   14  C9  UNL     1      21.073  -7.461  -2.610  1.00  0.00     0.309 C 
BRANCH  14  15
HETATM   15  N4  UNL     1      21.457  -7.450  -1.233  1.00  0.00    -0.073 N 
ATOM     16  H43 UNL     1      21.549  -8.396  -0.863  1.00  0.00     0.274 HD
ATOM     17  H42 UNL     1      22.422  -7.140  -1.116  1.00  0.00     0.274 HD
ATOM     18  H41 UNL     1      20.813  -6.890  -0.673  1.00  0.00     0.274 HD
ENDBRANCH  14  15
ENDBRANCH  12  14
ENDBRANCH  11  12
ENDBRANCH   9  11
ENDBRANCH   1   9
BRANCH   2  19
HETATM   19  C6  UNL     1      17.934  -7.201   1.770  1.00  0.00     0.256 C 
HETATM   20  N2  UNL     1      17.002  -6.625   2.715  1.00  0.00    -0.058 NA
HETATM   21  O3  UNL     1      18.452  -8.267   2.143  1.00  0.00    -0.272 OA
ENDBRANCH   2  19
TORSDOF 10
ENDMDL
MODEL 5
REMARK VINA RESULT: -6.465901946      1.645      5.279
REMARK  10 active torsions:
REMARK  status: ('A' for Active; 'I' for Inactive)
REMARK    1  A    between atoms: C1_2  and  O2_4 
REMARK    2  A    between atoms: O2_4  and  C2_5 
REMARK    3  A    between atoms: C2_5  and  C3_6 
REMARK    4  A    between atoms: C3_6  and  C4_7 
REMARK    5  A    between atoms: C4_7  and  N3_12 
REMARK    6  A    between atoms: C5_8  and  C6_9 
REMARK    7  A    between atoms: N3_12  and  C7_14 
REMARK    8  A    between atoms: C7_14  and  C8_15 
REMARK    9  A    between atoms: C8_15  and  C9_17 
REMARK   10  A    between atoms: C9_17  and  N4_18 
ROOT
HETATM    1  C4  UNL     1      18.627  -6.628  -1.622  1.00  0.00     0.012 C 
HETATM    2  C5  UNL     1      19.625  -6.920  -2.407  1.00  0.00     0.095 C 
ENDROOT
BRANCH   1   3
HETATM    3  C3  UNL     1      18.665  -6.329  -0.178  1.00  0.00     0.083 C 
BRANCH   3   4
HETATM    4  C2  UNL     1      17.327  -6.594   0.487  1.00  0.00     0.186 C 
BRANCH   4   5
HETATM    5  O2  UNL     1      17.401  -6.669   1.884  1.00  0.00    -0.306 OA
BRANCH   5   6
HETATM    6  C1  UNL     1      17.475  -7.810   2.651  1.00  0.00     0.372 C 
HETATM    7  N1  UNL     1      18.686  -8.592   2.729  1.00  0.00    -0.032 NA
HETATM    8  O1  UNL     1      16.455  -8.159   3.290  1.00  0.00    -0.242 OA
ENDBRANCH   5   6
ENDBRANCH   4   5
ENDBRANCH   3   4
ENDBRANCH   1   3
BRANCH   1   9
HETATM    9  N3  UNL     1      17.302  -6.587  -2.235  1.00  0.00    -0.386 N 
ATOM     10  H3  UNL     1      16.605  -5.928  -1.890  1.00  0.00     0.159 HD
BRANCH   9  11
HETATM   11  C7  UNL     1      16.973  -7.469  -3.322  1.00  0.00     0.199 C 
BRANCH  11  12
HETATM   12  C8  UNL     1      16.612  -6.707  -4.539  1.00  0.00     0.169 C 
HETATM   13  O4  UNL     1      15.450  -6.422  -4.732  1.00  0.00    -0.294 OA
BRANCH  12  14
HETATM   14  C9  UNL     1      17.624  -6.282  -5.533  1.00  0.00     0.309 C 
BRANCH  14  15
HETATM   15  N4  UNL     1      18.427  -7.384  -5.961  1.00  0.00    -0.073 N 
ATOM     16  H43 UNL     1      17.866  -8.225  -6.097  1.00  0.00     0.274 HD
ATOM     17  H42 UNL     1      18.756  -7.258  -6.918  1.00  0.00     0.274 HD
ATOM     18  H41 UNL     1      19.202  -7.550  -5.318  1.00  0.00     0.274 HD
ENDBRANCH  14  15
ENDBRANCH  12  14
ENDBRANCH  11  12
ENDBRANCH   9  11
ENDBRANCH   1   9
BRANCH   2  19
HETATM   19  C6  UNL     1      21.026  -7.029  -2.078  1.00  0.00     0.256 C 
HETATM   20  N2  UNL     1      22.015  -6.356  -2.892  1.00  0.00    -0.058 NA
HETATM   21  O3  UNL     1      21.498  -7.671  -1.124  1.00  0.00    -0.272 OA
ENDBRANCH   2  19
TORSDOF 10
ENDMDL
