MODEL 1
REMARK VINA RESULT: -7.448695499      0.000      0.000
REMARK  12 active torsions:
REMARK  status: ('A' for Active; 'I' for Inactive)
REMARK    1  A    between atoms: N1_1  and  C1_5 
REMARK    2  A    between atoms: C1_5  and  C2_6 
REMARK       I    between atoms: C2_6  and  N2_8 
REMARK    3  A    between atoms: N2_8  and  C3_10 
REMARK    4  A    between atoms: C3_10  and  O2_11 
REMARK    5  A    between atoms: C3_10  and  C4_13 
REMARK    6  A    between atoms: C4_13  and  C5_14 
REMARK    7  A    between atoms: C5_14  and  N3_15 
REMARK    8  A    between atoms: C5_14  and  C6_19 
REMARK       I    between atoms: C6_19  and  N4_21 
REMARK    9  A    between atoms: N4_21  and  C7_23 
REMARK   10  A    between atoms: C7_23  and  C8_24 
REMARK   11  A    between atoms: C8_24  and  C9_25 
REMARK   12  A    between atoms: C9_25  and  O4_26 
ROOT
HETATM    1  C5  UNL     1      17.628  -6.272  -3.823  1.00  0.00     0.282 C 
ENDROOT
BRANCH   1   2
HETATM    2  C4  UNL     1      17.780  -7.388  -2.745  1.00  0.00     0.126 C 
BRANCH   2   3
HETATM    3  C3  UNL     1      17.143  -6.923  -1.528  1.00  0.00     0.120 C 
BRANCH   3   4
HETATM    4  N2  UNL     1      17.802  -6.285  -0.465  1.00  0.00    -0.310 N 
HETATM    5  C2  UNL     1      18.248  -6.855   0.712  1.00  0.00     0.248 C 
HETATM    6  O1  UNL     1      18.864  -6.072   1.534  1.00  0.00    -0.271 OA
ATOM      7  H2  UNL     1      17.972  -5.285  -0.575  1.00  0.00     0.170 HD
BRANCH   5   8
HETATM    8  C1  UNL     1      18.082  -8.252   1.099  1.00  0.00     0.332 C 
BRANCH   8   9
HETATM    9  N1  UNL     1      16.665  -8.490   1.444  1.00  0.00    -0.071 N 
ATOM     10  H13 UNL     1      16.525  -8.617   2.447  1.00  0.00     0.274 HD
ATOM     11  H12 UNL     1      16.091  -7.656   1.325  1.00  0.00     0.274 HD
ATOM     12  H11 UNL     1      16.319  -9.281   0.900  1.00  0.00     0.274 HD
ENDBRANCH   8   9
ENDBRANCH   5   8
ENDBRANCH   3   4
BRANCH   3  13
HETATM   13  O2  UNL     1      15.849  -7.109  -1.401  1.00  0.00    -0.349 OA
ATOM     14  H2  UNL     1      15.509  -7.182  -0.517  1.00  0.00     0.219 HD
ENDBRANCH   3  13
ENDBRANCH   2   3
ENDBRANCH   1   2
BRANCH   1  15
HETATM   15  N3  UNL     1      16.327  -6.356  -4.361  1.00  0.00    -0.066 N 
ATOM     16  H33 UNL     1      16.327  -6.473  -5.374  1.00  0.00     0.275 HD
ATOM     17  H32 UNL     1      15.858  -7.229  -4.121  1.00  0.00     0.275 HD
ATOM     18  H31 UNL     1      15.806  -5.533  -4.060  1.00  0.00     0.275 HD
ENDBRANCH   1  15
BRANCH   1  19
HETATM   19  C6  UNL     1      18.770  -6.408  -4.731  1.00  0.00     0.248 C 
HETATM   20  O3  UNL     1      19.845  -5.824  -4.345  1.00  0.00    -0.271 OA
HETATM   21  N4  UNL     1      18.760  -7.106  -5.943  1.00  0.00    -0.359 N 
ATOM     22  H4  UNL     1      17.888  -7.555  -6.224  1.00  0.00     0.162 HD
BRANCH  21  23
HETATM   23  C7  UNL     1      19.905  -7.237  -6.833  1.00  0.00     0.125 C 
BRANCH  23  24
HETATM   24  C8  UNL     1      19.499  -6.975  -8.243  1.00  0.00     0.046 C 
BRANCH  24  25
HETATM   25  C9  UNL     1      20.518  -7.708  -9.128  1.00  0.00     0.165 C 
BRANCH  25  26
HETATM   26  O4  UNL     1      20.545  -7.080 -10.372  1.00  0.00    -0.401 OA
ATOM     27  H4  UNL     1      19.684  -7.162 -10.764  1.00  0.00     0.209 HD
ENDBRANCH  25  26
ENDBRANCH  24  25
ENDBRANCH  23  24
ENDBRANCH  21  23
ENDBRANCH   1  19
TORSDOF 12
ENDMDL
MODEL 2
REMARK VINA RESULT: -7.359733212      1.959      2.645
REMARK  12 active torsions:
REMARK  status: ('A' for Active; 'I' for Inactive)
REMARK    1  A    between atoms: N1_1  and  C1_5 
REMARK    2  A    between atoms: C1_5  and  C2_6 
REMARK       I    between atoms: C2_6  and  N2_8 
REMARK    3  A    between atoms: N2_8  and  C3_10 
REMARK    4  A    between atoms: C3_10  and  O2_11 
REMARK    5  A    between atoms: C3_10  and  C4_13 
REMARK    6  A    between atoms: C4_13  and  C5_14 
REMARK    7  A    between atoms: C5_14  and  N3_15 
REMARK    8  A    between atoms: C5_14  and  C6_19 
REMARK       I    between atoms: C6_19  and  N4_21 
REMARK    9  A    between atoms: N4_21  and  C7_23 
REMARK   10  A    between atoms: C7_23  and  C8_24 
REMARK   11  A    between atoms: C8_24  and  C9_25 
REMARK   12  A    between atoms: C9_25  and  O4_26 
ROOT
HETATM    1  C5  UNL     1      17.413  -6.136  -4.324  1.00  0.00     0.282 C 
ENDROOT
BRANCH   1   2
HETATM    2  C4  UNL     1      17.632  -7.266  -3.274  1.00  0.00     0.126 C 
BRANCH   2   3
HETATM    3  C3  UNL     1      18.209  -6.667  -2.086  1.00  0.00     0.120 C 
BRANCH   3   4
HETATM    4  N2  UNL     1      19.277  -7.205  -1.349  1.00  0.00    -0.310 N 
HETATM    5  C2  UNL     1      20.614  -7.229  -1.702  1.00  0.00     0.248 C 
HETATM    6  O1  UNL     1      21.427  -7.748  -0.843  1.00  0.00    -0.271 OA
ATOM      7  H2  UNL     1      19.040  -7.625  -0.451  1.00  0.00     0.170 HD
BRANCH   5   8
HETATM    8  C1  UNL     1      21.176  -6.724  -2.950  1.00  0.00     0.332 C 
BRANCH   8   9
HETATM    9  N1  UNL     1      21.067  -5.250  -2.965  1.00  0.00    -0.071 N 
ATOM     10  H13 UNL     1      20.740  -4.875  -2.074  1.00  0.00     0.274 HD
ATOM     11  H12 UNL     1      21.979  -4.794  -2.983  1.00  0.00     0.274 HD
ATOM     12  H11 UNL     1      20.476  -4.968  -3.746  1.00  0.00     0.274 HD
ENDBRANCH   8   9
ENDBRANCH   5   8
ENDBRANCH   3   4
BRANCH   3  13
HETATM   13  O2  UNL     1      17.702  -5.534  -1.659  1.00  0.00    -0.349 OA
ATOM     14  H2  UNL     1      16.763  -5.420  -1.751  1.00  0.00     0.219 HD
ENDBRANCH   3  13
ENDBRANCH   2   3
ENDBRANCH   1   2
BRANCH   1  15
HETATM   15  N3  UNL     1      16.101  -6.251  -4.826  1.00  0.00    -0.066 N 
ATOM     16  H33 UNL     1      15.627  -7.093  -4.501  1.00  0.00     0.275 HD
ATOM     17  H32 UNL     1      15.462  -5.568  -4.418  1.00  0.00     0.275 HD
ATOM     18  H31 UNL     1      16.143  -6.191  -5.843  1.00  0.00     0.275 HD
ENDBRANCH   1  15
BRANCH   1  19
HETATM   19  C6  UNL     1      18.532  -6.217  -5.266  1.00  0.00     0.248 C 
HETATM   20  O3  UNL     1      19.216  -5.140  -5.394  1.00  0.00    -0.271 OA
HETATM   21  N4  UNL     1      18.885  -7.350  -6.006  1.00  0.00    -0.359 N 
ATOM     22  H4  UNL     1      18.317  -8.189  -5.886  1.00  0.00     0.162 HD
BRANCH  21  23
HETATM   23  C7  UNL     1      20.004  -7.419  -6.935  1.00  0.00     0.125 C 
BRANCH  23  24
HETATM   24  C8  UNL     1      19.557  -7.060  -8.311  1.00  0.00     0.046 C 
BRANCH  24  25
HETATM   25  C9  UNL     1      20.548  -7.732  -9.274  1.00  0.00     0.165 C 
BRANCH  25  26
HETATM   26  O4  UNL     1      20.453  -7.096 -10.510  1.00  0.00    -0.401 OA
ATOM     27  H4  UNL     1      21.328  -6.854 -10.788  1.00  0.00     0.209 HD
ENDBRANCH  25  26
ENDBRANCH  24  25
ENDBRANCH  23  24
ENDBRANCH  21  23
ENDBRANCH   1  19
TORSDOF 12
ENDMDL
MODEL 3
REMARK VINA RESULT: -7.172694766      2.680      3.393
REMARK  12 active torsions:
REMARK  status: ('A' for Active; 'I' for Inactive)
REMARK    1  A    between atoms: N1_1  and  C1_5 
REMARK    2  A    between atoms: C1_5  and  C2_6 
REMARK       I    between atoms: C2_6  and  N2_8 
REMARK    3  A    between atoms: N2_8  and  C3_10 
REMARK    4  A    between atoms: C3_10  and  O2_11 
REMARK    5  A    between atoms: C3_10  and  C4_13 
REMARK    6  A    between atoms: C4_13  and  C5_14 
REMARK    7  A    between atoms: C5_14  and  N3_15 
REMARK    8  A    between atoms: C5_14  and  C6_19 
REMARK       I    between atoms: C6_19  and  N4_21 
REMARK    9  A    between atoms: N4_21  and  C7_23 
REMARK   10  A    between atoms: C7_23  and  C8_24 
REMARK   11  A    between atoms: C8_24  and  C9_25 
REMARK   12  A    between atoms: C9_25  and  O4_26 
ROOT
HETATM    1  C5  UNL     1      21.075  -7.334  -2.576  1.00  0.00     0.282 C 
ENDROOT
BRANCH   1   2
HETATM    2  C4  UNL     1      20.303  -7.389  -1.223  1.00  0.00     0.126 C 
BRANCH   2   3
HETATM    3  C3  UNL     1      18.896  -7.581  -1.518  1.00  0.00     0.120 C 
BRANCH   3   4
HETATM    4  N2  UNL     1      17.877  -6.661  -1.223  1.00  0.00    -0.310 N 
HETATM    5  C2  UNL     1      17.305  -6.406   0.009  1.00  0.00     0.248 C 
HETATM    6  O1  UNL     1      16.402  -5.484   0.045  1.00  0.00    -0.271 OA
ATOM      7  H2  UNL     1      17.517  -6.120  -2.009  1.00  0.00     0.170 HD
BRANCH   5   8
HETATM    8  C1  UNL     1      17.633  -7.084   1.259  1.00  0.00     0.332 C 
BRANCH   8   9
HETATM    9  N1  UNL     1      16.849  -8.334   1.348  1.00  0.00    -0.071 N 
ATOM     10  H13 UNL     1      16.907  -8.764   2.271  1.00  0.00     0.274 HD
ATOM     11  H12 UNL     1      15.844  -8.164   1.332  1.00  0.00     0.274 HD
ATOM     12  H11 UNL     1      17.148  -8.967   0.605  1.00  0.00     0.274 HD
ENDBRANCH   8   9
ENDBRANCH   5   8
ENDBRANCH   3   4
BRANCH   3  13
HETATM   13  O2  UNL     1      18.538  -8.698  -2.108  1.00  0.00    -0.349 OA
ATOM     14  H2  UNL     1      19.136  -9.433  -2.038  1.00  0.00     0.219 HD
ENDBRANCH   3  13
ENDBRANCH   2   3
ENDBRANCH   1   2
BRANCH   1  15
HETATM   15  N3  UNL     1      22.428  -7.052  -2.299  1.00  0.00    -0.066 N 
ATOM     16  H33 UNL     1      22.643  -7.096  -1.303  1.00  0.00     0.275 HD
ATOM     17  H32 UNL     1      23.056  -7.793  -2.609  1.00  0.00     0.275 HD
ATOM     18  H31 UNL     1      22.654  -6.146  -2.710  1.00  0.00     0.275 HD
ENDBRANCH   1  15
BRANCH   1  19
HETATM   19  C6  UNL     1      20.332  -6.418  -3.445  1.00  0.00     0.248 C 
HETATM   20  O3  UNL     1      20.354  -5.187  -3.084  1.00  0.00    -0.271 OA
HETATM   21  N4  UNL     1      19.628  -6.787  -4.596  1.00  0.00    -0.359 N 
ATOM     22  H4  UNL     1      19.626  -7.775  -4.852  1.00  0.00     0.162 HD
BRANCH  21  23
HETATM   23  C7  UNL     1      18.899  -5.864  -5.454  1.00  0.00     0.125 C 
BRANCH  23  24
HETATM   24  C8  UNL     1      17.673  -6.517  -5.994  1.00  0.00     0.046 C 
BRANCH  24  25
HETATM   25  C9  UNL     1      16.809  -6.883  -4.777  1.00  0.00     0.165 C 
BRANCH  25  26
HETATM   26  O4  UNL     1      16.948  -8.250  -4.540  1.00  0.00    -0.401 OA
ATOM     27  H4  UNL     1      17.874  -8.462  -4.562  1.00  0.00     0.209 HD
ENDBRANCH  25  26
ENDBRANCH  24  25
ENDBRANCH  23  24
ENDBRANCH  21  23
ENDBRANCH   1  19
TORSDOF 12
ENDMDL
MODEL 4
REMARK VINA RESULT: -7.075469301      1.699      1.981
REMARK  12 active torsions:
REMARK  status: ('A' for Active; 'I' for Inactive)
REMARK    1  A    between atoms: N1_1  and  C1_5 
REMARK    2  A    between atoms: C1_5  and  C2_6 
REMARK       I    between atoms: C2_6  and  N2_8 
REMARK    3  A    between atoms: N2_8  and  C3_10 
REMARK    4  A    between atoms: C3_10  and  O2_11 
REMARK    5  A    between atoms: C3_10  and  C4_13 
REMARK    6  A    between atoms: C4_13  and  C5_14 
REMARK    7  A    between atoms: C5_14  and  N3_15 
REMARK    8  A    between atoms: C5_14  and  C6_19 
REMARK       I    between atoms: C6_19  and  N4_21 
REMARK    9  A    between atoms: N4_21  and  C7_23 
REMARK   10  A    between atoms: C7_23  and  C8_24 
REMARK   11  A    between atoms: C8_24  and  C9_25 
REMARK   12  A    between atoms: C9_25  and  O4_26 
ROOT
HETATM    1  C5  UNL     1      19.757  -6.277  -3.210  1.00  0.00     0.282 C 
ENDROOT
BRANCH   1   2
HETATM    2  C4  UNL     1      18.653  -5.977  -2.152  1.00  0.00     0.126 C 
BRANCH   2   3
HETATM    3  C3  UNL     1      19.149  -6.396  -0.856  1.00  0.00     0.120 C 
BRANCH   3   4
HETATM    4  N2  UNL     1      18.512  -6.149   0.371  1.00  0.00    -0.310 N 
HETATM    5  C2  UNL     1      17.900  -7.069   1.201  1.00  0.00     0.248 C 
HETATM    6  O1  UNL     1      17.409  -6.612   2.305  1.00  0.00    -0.271 OA
ATOM      7  H2  UNL     1      18.500  -5.179   0.686  1.00  0.00     0.170 HD
BRANCH   5   8
HETATM    8  C1  UNL     1      17.764  -8.498   0.937  1.00  0.00     0.332 C 
BRANCH   8   9
HETATM    9  N1  UNL     1      16.346  -8.883   1.096  1.00  0.00    -0.071 N 
ATOM     10  H13 UNL     1      15.773  -8.119   1.452  1.00  0.00     0.274 HD
ATOM     11  H12 UNL     1      15.876  -9.008   0.200  1.00  0.00     0.274 HD
ATOM     12  H11 UNL     1      16.292  -9.716   1.682  1.00  0.00     0.274 HD
ENDBRANCH   8   9
ENDBRANCH   5   8
ENDBRANCH   3   4
BRANCH   3  13
HETATM   13  O2  UNL     1      20.281  -7.061  -0.816  1.00  0.00    -0.349 OA
ATOM     14  H2  UNL     1      20.956  -6.729  -0.236  1.00  0.00     0.219 HD
ENDBRANCH   3  13
ENDBRANCH   2   3
ENDBRANCH   1   2
BRANCH   1  15
HETATM   15  N3  UNL     1      20.760  -5.294  -3.089  1.00  0.00    -0.066 N 
ATOM     16  H33 UNL     1      20.737  -4.817  -2.188  1.00  0.00     0.275 HD
ATOM     17  H32 UNL     1      21.695  -5.694  -3.009  1.00  0.00     0.275 HD
ATOM     18  H31 UNL     1      20.672  -4.651  -3.876  1.00  0.00     0.275 HD
ENDBRANCH   1  15
BRANCH   1  19
HETATM   19  C6  UNL     1      19.074  -6.424  -4.498  1.00  0.00     0.248 C 
HETATM   20  O3  UNL     1      17.886  -5.943  -4.543  1.00  0.00    -0.271 OA
HETATM   21  N4  UNL     1      19.615  -7.034  -5.635  1.00  0.00    -0.359 N 
ATOM     22  H4  UNL     1      20.560  -7.411  -5.564  1.00  0.00     0.162 HD
BRANCH  21  23
HETATM   23  C7  UNL     1      18.927  -7.168  -6.911  1.00  0.00     0.125 C 
BRANCH  23  24
HETATM   24  C8  UNL     1      19.699  -6.490  -7.991  1.00  0.00     0.046 C 
BRANCH  24  25
HETATM   25  C9  UNL     1      20.354  -7.608  -8.816  1.00  0.00     0.165 C 
BRANCH  25  26
HETATM   26  O4  UNL     1      20.458  -7.170 -10.136  1.00  0.00    -0.401 OA
ATOM     27  H4  UNL     1      20.534  -7.933 -10.696  1.00  0.00     0.209 HD
ENDBRANCH  25  26
ENDBRANCH  24  25
ENDBRANCH  23  24
ENDBRANCH  21  23
ENDBRANCH   1  19
TORSDOF 12
ENDMDL
MODEL 5
REMARK VINA RESULT: -7.022433146      2.510      2.990
REMARK  12 active torsions:
REMARK  status: ('A' for Active; 'I' for Inactive)
REMARK    1  A    between atoms: N1_1  and  C1_5 
REMARK    2  A    between atoms: C1_5  and  C2_6 
REMARK       I    between atoms: C2_6  and  N2_8 
REMARK    3  A    between atoms: N2_8  and  C3_10 
REMARK    4  A    between atoms: C3_10  and  O2_11 
REMARK    5  A    between atoms: C3_10  and  C4_13 
REMARK    6  A    between atoms: C4_13  and  C5_14 
REMARK    7  A    between atoms: C5_14  and  N3_15 
REMARK    8  A    between atoms: C5_14  and  C6_19 
REMARK       I    between atoms: C6_19  and  N4_21 
REMARK    9  A    between atoms: N4_21  and  C7_23 
REMARK   10  A    between atoms: C7_23  and  C8_24 
REMARK   11  A    between atoms: C8_24  and  C9_25 
REMARK   12  A    between atoms: C9_25  and  O4_26 
ROOT
HETATM    1  C5  UNL     1      19.237  -6.495  -1.461  1.00  0.00     0.282 C 
ENDROOT
BRANCH   1   2
HETATM    2  C4  UNL     1      18.506  -7.871  -1.489  1.00  0.00     0.126 C 
BRANCH   2   3
HETATM    3  C3  UNL     1      17.821  -8.038  -0.221  1.00  0.00     0.120 C 
BRANCH   3   4
HETATM    4  N2  UNL     1      18.410  -8.528   0.956  1.00  0.00    -0.310 N 
HETATM    5  C2  UNL     1      18.142  -8.139   2.255  1.00  0.00     0.248 C 
HETATM    6  O1  UNL     1      18.786  -8.759   3.186  1.00  0.00    -0.271 OA
ATOM      7  H2  UNL     1      19.117  -9.254   0.839  1.00  0.00     0.170 HD
BRANCH   5   8
HETATM    8  C1  UNL     1      17.203  -7.097   2.656  1.00  0.00     0.332 C 
BRANCH   8   9
HETATM    9  N1  UNL     1      16.108  -7.711   3.438  1.00  0.00    -0.071 N 
ATOM     10  H13 UNL     1      16.320  -8.670   3.715  1.00  0.00     0.274 HD
ATOM     11  H12 UNL     1      16.024  -7.308   4.370  1.00  0.00     0.274 HD
ATOM     12  H11 UNL     1      15.241  -7.643   2.905  1.00  0.00     0.274 HD
ENDBRANCH   8   9
ENDBRANCH   5   8
ENDBRANCH   3   4
BRANCH   3  13
HETATM   13  O2  UNL     1      16.552  -7.708  -0.159  1.00  0.00    -0.349 OA
ATOM     14  H2  UNL     1      16.348  -6.780  -0.160  1.00  0.00     0.219 HD
ENDBRANCH   3  13
ENDBRANCH   2   3
ENDBRANCH   1   2
BRANCH   1  15
HETATM   15  N3  UNL     1      18.415  -5.573  -0.782  1.00  0.00    -0.066 N 
ATOM     16  H33 UNL     1      17.782  -6.023  -0.122  1.00  0.00     0.275 HD
ATOM     17  H32 UNL     1      18.931  -5.004  -0.112  1.00  0.00     0.275 HD
ATOM     18  H31 UNL     1      17.923  -5.013  -1.479  1.00  0.00     0.275 HD
ENDBRANCH   1  15
BRANCH   1  19
HETATM   19  C6  UNL     1      19.626  -6.200  -2.843  1.00  0.00     0.248 C 
HETATM   20  O3  UNL     1      20.675  -5.473  -2.971  1.00  0.00    -0.271 OA
HETATM   21  N4  UNL     1      18.950  -6.643  -3.985  1.00  0.00    -0.359 N 
ATOM     22  H4  UNL     1      18.116  -7.214  -3.849  1.00  0.00     0.162 HD
BRANCH  21  23
HETATM   23  C7  UNL     1      19.351  -6.346  -5.353  1.00  0.00     0.125 C 
BRANCH  23  24
HETATM   24  C8  UNL     1      18.363  -6.910  -6.316  1.00  0.00     0.046 C 
BRANCH  24  25
HETATM   25  C9  UNL     1      17.031  -7.008  -5.558  1.00  0.00     0.165 C 
BRANCH  25  26
HETATM   26  O4  UNL     1      16.830  -8.341  -5.201  1.00  0.00    -0.401 OA
ATOM     27  H4  UNL     1      16.409  -8.359  -4.350  1.00  0.00     0.209 HD
ENDBRANCH  25  26
ENDBRANCH  24  25
ENDBRANCH  23  24
ENDBRANCH  21  23
ENDBRANCH   1  19
TORSDOF 12
ENDMDL
