MODEL 1
REMARK VINA RESULT: -6.529974540      0.000      0.000
REMARK  11 active torsions:
REMARK  status: ('A' for Active; 'I' for Inactive)
REMARK    1  A    between atoms: C2_2  and  N1_3 
REMARK    2  A    between atoms: C2_2  and  C7_15 
REMARK    3  A    between atoms: N1_3  and  C3_6 
REMARK    4  A    between atoms: C3_6  and  C4_7 
REMARK    5  A    between atoms: C4_7  and  O1_8 
REMARK    6  A    between atoms: O1_8  and  C5_9 
REMARK    7  A    between atoms: C5_9  and  C6_10 
REMARK    8  A    between atoms: C6_10  and  N2_11 
REMARK    9  A    between atoms: C7_15  and  O2_16 
REMARK   10  A    between atoms: C7_15  and  C9_20 
REMARK   11  A    between atoms: O2_16  and  C8_17 
ROOT
HETATM    1  N1  UNL     1     -15.741  79.603   1.803  1.00  0.00    -0.066 N 
ATOM      2  H11 UNL     1     -15.918  78.599   1.791  1.00  0.00     0.277 HD
ATOM      3  H12 UNL     1     -16.698  79.942   1.896  1.00  0.00     0.277 HD
ENDROOT
BRANCH   1   4
HETATM    4  C2  UNL     1     -15.167  80.034   0.559  1.00  0.00     0.220 C 
HETATM    5  C1  UNL     1     -16.153  80.804  -0.285  1.00  0.00     0.043 C 
BRANCH   4   6
HETATM    6  C7  UNL     1     -14.698  78.817  -0.209  1.00  0.00     0.252 C 
BRANCH   6   7
HETATM    7  O2  UNL     1     -15.814  78.228  -0.908  1.00  0.00    -0.290 OA
BRANCH   7   8
HETATM    8  C8  UNL     1     -15.727  77.788  -2.199  1.00  0.00     0.373 C 
HETATM    9  N3  UNL     1     -16.353  78.555  -3.216  1.00  0.00    -0.032 NA
HETATM   10  O3  UNL     1     -15.097  76.726  -2.433  1.00  0.00    -0.242 OA
ENDBRANCH   7   8
ENDBRANCH   6   7
BRANCH   6  11
HETATM   11  C9  UNL     1     -14.097  77.776   0.659  1.00  0.00     0.262 C 
HETATM   12  N4  UNL     1     -14.774  76.605   1.078  1.00  0.00    -0.060 NA
HETATM   13  O4  UNL     1     -12.906  77.944   1.054  1.00  0.00    -0.274 OA
ENDBRANCH   6  11
ENDBRANCH   4   6
ENDBRANCH   1   4
BRANCH   1  14
HETATM   14  C3  UNL     1     -14.950  79.970   2.958  1.00  0.00     0.259 C 
BRANCH  14  15
HETATM   15  C4  UNL     1     -14.997  78.960   4.050  1.00  0.00     0.195 C 
BRANCH  15  16
HETATM   16  O1  UNL     1     -15.473  79.542   5.211  1.00  0.00    -0.388 OA
BRANCH  16  17
HETATM   17  C5  UNL     1     -16.797  79.889   5.204  1.00  0.00     0.195 C 
BRANCH  17  18
HETATM   18  C6  UNL     1     -17.206  80.211   6.651  1.00  0.00     0.255 C 
BRANCH  18  19
HETATM   19  N2  UNL     1     -18.644  80.172   6.801  1.00  0.00    -0.077 N 
ATOM     20  H23 UNL     1     -19.064  79.450   6.215  1.00  0.00     0.274 HD
ATOM     21  H22 UNL     1     -18.918  79.810   7.714  1.00  0.00     0.274 HD
ATOM     22  H21 UNL     1     -19.053  81.088   6.620  1.00  0.00     0.274 HD
ENDBRANCH  18  19
ENDBRANCH  17  18
ENDBRANCH  16  17
ENDBRANCH  15  16
ENDBRANCH  14  15
ENDBRANCH   1  14
TORSDOF 11
ENDMDL
MODEL 2
REMARK VINA RESULT: -6.495594237      3.472      7.468
REMARK  11 active torsions:
REMARK  status: ('A' for Active; 'I' for Inactive)
REMARK    1  A    between atoms: C2_2  and  N1_3 
REMARK    2  A    between atoms: C2_2  and  C7_15 
REMARK    3  A    between atoms: N1_3  and  C3_6 
REMARK    4  A    between atoms: C3_6  and  C4_7 
REMARK    5  A    between atoms: C4_7  and  O1_8 
REMARK    6  A    between atoms: O1_8  and  C5_9 
REMARK    7  A    between atoms: C5_9  and  C6_10 
REMARK    8  A    between atoms: C6_10  and  N2_11 
REMARK    9  A    between atoms: C7_15  and  O2_16 
REMARK   10  A    between atoms: C7_15  and  C9_20 
REMARK   11  A    between atoms: O2_16  and  C8_17 
ROOT
HETATM    1  N1  UNL     1     -16.210  79.051  -2.666  1.00  0.00    -0.066 N 
ATOM      2  H11 UNL     1     -15.323  79.525  -2.835  1.00  0.00     0.277 HD
ATOM      3  H12 UNL     1     -16.831  79.659  -3.199  1.00  0.00     0.277 HD
ENDROOT
BRANCH   1   4
HETATM    4  C2  UNL     1     -16.545  79.077  -1.270  1.00  0.00     0.220 C 
HETATM    5  C1  UNL     1     -17.339  80.307  -0.899  1.00  0.00     0.043 C 
BRANCH   4   6
HETATM    6  C7  UNL     1     -15.265  79.049  -0.462  1.00  0.00     0.252 C 
BRANCH   6   7
HETATM    7  O2  UNL     1     -15.317  77.965   0.487  1.00  0.00    -0.290 OA
BRANCH   7   8
HETATM    8  C8  UNL     1     -14.374  76.977   0.531  1.00  0.00     0.373 C 
HETATM    9  N3  UNL     1     -13.429  76.992   1.590  1.00  0.00    -0.032 NA
HETATM   10  O3  UNL     1     -14.382  76.095  -0.365  1.00  0.00    -0.242 OA
ENDBRANCH   7   8
ENDBRANCH   6   7
BRANCH   6  11
HETATM   11  C9  UNL     1     -15.021  80.306   0.286  1.00  0.00     0.262 C 
HETATM   12  N4  UNL     1     -14.593  81.515  -0.313  1.00  0.00    -0.060 NA
HETATM   13  O4  UNL     1     -15.203  80.299   1.539  1.00  0.00    -0.274 OA
ENDBRANCH   6  11
ENDBRANCH   4   6
ENDBRANCH   1   4
BRANCH   1  14
HETATM   14  C3  UNL     1     -16.193  77.716  -3.227  1.00  0.00     0.259 C 
BRANCH  14  15
HETATM   15  C4  UNL     1     -16.514  77.683  -4.679  1.00  0.00     0.195 C 
BRANCH  15  16
HETATM   16  O1  UNL     1     -15.760  76.709  -5.308  1.00  0.00    -0.388 OA
BRANCH  16  17
HETATM   17  C5  UNL     1     -15.451  76.948  -6.620  1.00  0.00     0.195 C 
BRANCH  17  18
HETATM   18  C6  UNL     1     -13.923  76.852  -6.768  1.00  0.00     0.255 C 
BRANCH  18  19
HETATM   19  N2  UNL     1     -13.363  78.127  -7.157  1.00  0.00    -0.077 N 
ATOM     20  H23 UNL     1     -13.024  78.112  -8.119  1.00  0.00     0.274 HD
ATOM     21  H22 UNL     1     -14.085  78.840  -7.258  1.00  0.00     0.274 HD
ATOM     22  H21 UNL     1     -12.634  78.418  -6.505  1.00  0.00     0.274 HD
ENDBRANCH  18  19
ENDBRANCH  17  18
ENDBRANCH  16  17
ENDBRANCH  15  16
ENDBRANCH  14  15
ENDBRANCH   1  14
TORSDOF 11
ENDMDL
MODEL 3
REMARK VINA RESULT: -6.435606414      1.168      1.291
REMARK  11 active torsions:
REMARK  status: ('A' for Active; 'I' for Inactive)
REMARK    1  A    between atoms: C2_2  and  N1_3 
REMARK    2  A    between atoms: C2_2  and  C7_15 
REMARK    3  A    between atoms: N1_3  and  C3_6 
REMARK    4  A    between atoms: C3_6  and  C4_7 
REMARK    5  A    between atoms: C4_7  and  O1_8 
REMARK    6  A    between atoms: O1_8  and  C5_9 
REMARK    7  A    between atoms: C5_9  and  C6_10 
REMARK    8  A    between atoms: C6_10  and  N2_11 
REMARK    9  A    between atoms: C7_15  and  O2_16 
REMARK   10  A    between atoms: C7_15  and  C9_20 
REMARK   11  A    between atoms: O2_16  and  C8_17 
ROOT
HETATM    1  N1  UNL     1     -15.494  78.712   1.962  1.00  0.00    -0.066 N 
ATOM      2  H11 UNL     1     -15.104  77.854   2.353  1.00  0.00     0.277 HD
ATOM      3  H12 UNL     1     -16.375  78.347   1.601  1.00  0.00     0.277 HD
ENDROOT
BRANCH   1   4
HETATM    4  C2  UNL     1     -14.671  79.206   0.894  1.00  0.00     0.220 C 
HETATM    5  C1  UNL     1     -15.205  80.493   0.314  1.00  0.00     0.043 C 
BRANCH   4   6
HETATM    6  C7  UNL     1     -14.608  78.158  -0.196  1.00  0.00     0.252 C 
BRANCH   6   7
HETATM    7  O2  UNL     1     -15.912  78.000  -0.791  1.00  0.00    -0.290 OA
BRANCH   7   8
HETATM    8  C8  UNL     1     -16.161  78.272  -2.106  1.00  0.00     0.373 C 
HETATM    9  N3  UNL     1     -16.006  77.226  -3.053  1.00  0.00    -0.032 NA
HETATM   10  O3  UNL     1     -16.518  79.435  -2.425  1.00  0.00    -0.242 OA
ENDBRANCH   7   8
ENDBRANCH   6   7
BRANCH   6  11
HETATM   11  C9  UNL     1     -14.162  76.832   0.295  1.00  0.00     0.262 C 
HETATM   12  N4  UNL     1     -13.521  76.623   1.541  1.00  0.00    -0.060 NA
HETATM   13  O4  UNL     1     -14.363  75.823  -0.443  1.00  0.00    -0.274 OA
ENDBRANCH   6  11
ENDBRANCH   4   6
ENDBRANCH   1   4
BRANCH   1  14
HETATM   14  C3  UNL     1     -15.731  79.689   3.003  1.00  0.00     0.259 C 
BRANCH  14  15
HETATM   15  C4  UNL     1     -14.777  79.582   4.140  1.00  0.00     0.195 C 
BRANCH  15  16
HETATM   16  O1  UNL     1     -15.469  79.549   5.337  1.00  0.00    -0.388 OA
BRANCH  16  17
HETATM   17  C5  UNL     1     -16.793  79.894   5.269  1.00  0.00     0.195 C 
BRANCH  17  18
HETATM   18  C6  UNL     1     -17.270  80.210   6.696  1.00  0.00     0.255 C 
BRANCH  18  19
HETATM   19  N2  UNL     1     -18.713  80.178   6.775  1.00  0.00    -0.077 N 
ATOM     20  H23 UNL     1     -19.131  79.837   5.909  1.00  0.00     0.274 HD
ATOM     21  H22 UNL     1     -19.040  79.444   7.404  1.00  0.00     0.274 HD
ATOM     22  H21 UNL     1     -19.083  81.092   7.038  1.00  0.00     0.274 HD
ENDBRANCH  18  19
ENDBRANCH  17  18
ENDBRANCH  16  17
ENDBRANCH  15  16
ENDBRANCH  14  15
ENDBRANCH   1  14
TORSDOF 11
ENDMDL
MODEL 4
REMARK VINA RESULT: -6.207834162      1.527      2.647
REMARK  11 active torsions:
REMARK  status: ('A' for Active; 'I' for Inactive)
REMARK    1  A    between atoms: C2_2  and  N1_3 
REMARK    2  A    between atoms: C2_2  and  C7_15 
REMARK    3  A    between atoms: N1_3  and  C3_6 
REMARK    4  A    between atoms: C3_6  and  C4_7 
REMARK    5  A    between atoms: C4_7  and  O1_8 
REMARK    6  A    between atoms: O1_8  and  C5_9 
REMARK    7  A    between atoms: C5_9  and  C6_10 
REMARK    8  A    between atoms: C6_10  and  N2_11 
REMARK    9  A    between atoms: C7_15  and  O2_16 
REMARK   10  A    between atoms: C7_15  and  C9_20 
REMARK   11  A    between atoms: O2_16  and  C8_17 
ROOT
HETATM    1  N1  UNL     1     -15.568  77.956   1.971  1.00  0.00    -0.066 N 
ATOM      2  H11 UNL     1     -16.066  77.094   2.191  1.00  0.00     0.277 HD
ATOM      3  H12 UNL     1     -16.319  78.472   1.512  1.00  0.00     0.277 HD
ENDROOT
BRANCH   1   4
HETATM    4  C2  UNL     1     -14.490  77.704   1.056  1.00  0.00     0.220 C 
HETATM    5  C1  UNL     1     -13.155  78.120   1.623  1.00  0.00     0.043 C 
BRANCH   4   6
HETATM    6  C7  UNL     1     -14.749  78.471  -0.223  1.00  0.00     0.252 C 
BRANCH   6   7
HETATM    7  O2  UNL     1     -15.885  79.342  -0.043  1.00  0.00    -0.290 OA
BRANCH   7   8
HETATM    8  C8  UNL     1     -15.866  80.662  -0.393  1.00  0.00     0.373 C 
HETATM    9  N3  UNL     1     -17.016  81.212  -1.018  1.00  0.00    -0.032 NA
HETATM   10  O3  UNL     1     -14.833  81.337  -0.148  1.00  0.00    -0.242 OA
ENDBRANCH   7   8
ENDBRANCH   6   7
BRANCH   6  11
HETATM   11  C9  UNL     1     -15.023  77.592  -1.385  1.00  0.00     0.262 C 
HETATM   12  N4  UNL     1     -16.010  77.857  -2.365  1.00  0.00    -0.060 NA
HETATM   13  O4  UNL     1     -14.333  76.537  -1.510  1.00  0.00    -0.274 OA
ENDBRANCH   6  11
ENDBRANCH   4   6
ENDBRANCH   1   4
BRANCH   1  14
HETATM   14  C3  UNL     1     -15.148  78.629   3.182  1.00  0.00     0.259 C 
BRANCH  14  15
HETATM   15  C4  UNL     1     -15.787  79.960   3.369  1.00  0.00     0.195 C 
BRANCH  15  16
HETATM   16  O1  UNL     1     -16.625  79.930   4.469  1.00  0.00    -0.388 OA
BRANCH  16  17
HETATM   17  C5  UNL     1     -16.024  79.660   5.669  1.00  0.00     0.195 C 
BRANCH  17  18
HETATM   18  C6  UNL     1     -16.848  80.346   6.772  1.00  0.00     0.255 C 
BRANCH  18  19
HETATM   19  N2  UNL     1     -18.263  80.146   6.558  1.00  0.00    -0.077 N 
ATOM     20  H23 UNL     1     -18.820  80.863   7.023  1.00  0.00     0.274 HD
ATOM     21  H22 UNL     1     -18.530  80.343   5.593  1.00  0.00     0.274 HD
ATOM     22  H21 UNL     1     -18.545  79.208   6.843  1.00  0.00     0.274 HD
ENDBRANCH  18  19
ENDBRANCH  17  18
ENDBRANCH  16  17
ENDBRANCH  15  16
ENDBRANCH  14  15
ENDBRANCH   1  14
TORSDOF 11
ENDMDL
MODEL 5
REMARK VINA RESULT: -6.205420282      2.253      6.552
REMARK  11 active torsions:
REMARK  status: ('A' for Active; 'I' for Inactive)
REMARK    1  A    between atoms: C2_2  and  N1_3 
REMARK    2  A    between atoms: C2_2  and  C7_15 
REMARK    3  A    between atoms: N1_3  and  C3_6 
REMARK    4  A    between atoms: C3_6  and  C4_7 
REMARK    5  A    between atoms: C4_7  and  O1_8 
REMARK    6  A    between atoms: O1_8  and  C5_9 
REMARK    7  A    between atoms: C5_9  and  C6_10 
REMARK    8  A    between atoms: C6_10  and  N2_11 
REMARK    9  A    between atoms: C7_15  and  O2_16 
REMARK   10  A    between atoms: C7_15  and  C9_20 
REMARK   11  A    between atoms: O2_16  and  C8_17 
ROOT
HETATM    1  N1  UNL     1     -16.536  79.340  -0.299  1.00  0.00    -0.066 N 
ATOM      2  H11 UNL     1     -17.521  79.539  -0.124  1.00  0.00     0.277 HD
ATOM      3  H12 UNL     1     -16.486  78.393   0.074  1.00  0.00     0.277 HD
ENDROOT
BRANCH   1   4
HETATM    4  C2  UNL     1     -15.695  80.229   0.454  1.00  0.00     0.220 C 
HETATM    5  C1  UNL     1     -14.830  81.085  -0.439  1.00  0.00     0.043 C 
BRANCH   4   6
HETATM    6  C7  UNL     1     -14.809  79.405   1.363  1.00  0.00     0.252 C 
BRANCH   6   7
HETATM    7  O2  UNL     1     -15.144  78.009   1.228  1.00  0.00    -0.290 OA
BRANCH   7   8
HETATM    8  C8  UNL     1     -14.202  77.041   1.021  1.00  0.00     0.373 C 
HETATM    9  N3  UNL     1     -14.375  76.152  -0.072  1.00  0.00    -0.032 NA
HETATM   10  O3  UNL     1     -13.221  76.976   1.805  1.00  0.00    -0.242 OA
ENDBRANCH   7   8
ENDBRANCH   6   7
BRANCH   6  11
HETATM   11  C9  UNL     1     -14.939  79.774   2.793  1.00  0.00     0.262 C 
HETATM   12  N4  UNL     1     -16.106  79.554   3.566  1.00  0.00    -0.060 NA
HETATM   13  O4  UNL     1     -13.949  80.321   3.361  1.00  0.00    -0.274 OA
ENDBRANCH   6  11
ENDBRANCH   4   6
ENDBRANCH   1   4
BRANCH   1  14
HETATM   14  C3  UNL     1     -16.255  79.349  -1.719  1.00  0.00     0.259 C 
BRANCH  14  15
HETATM   15  C4  UNL     1     -16.249  77.991  -2.327  1.00  0.00     0.195 C 
BRANCH  15  16
HETATM   16  O1  UNL     1     -16.250  78.091  -3.706  1.00  0.00    -0.388 OA
BRANCH  16  17
HETATM   17  C5  UNL     1     -15.977  76.936  -4.388  1.00  0.00     0.195 C 
BRANCH  17  18
HETATM   18  C6  UNL     1     -15.498  77.323  -5.798  1.00  0.00     0.255 C 
BRANCH  18  19
HETATM   19  N2  UNL     1     -14.802  76.222  -6.425  1.00  0.00    -0.077 N 
ATOM     20  H23 UNL     1     -14.813  75.387  -5.840  1.00  0.00     0.274 HD
ATOM     21  H22 UNL     1     -15.318  75.858  -7.226  1.00  0.00     0.274 HD
ATOM     22  H21 UNL     1     -13.852  76.492  -6.680  1.00  0.00     0.274 HD
ENDBRANCH  18  19
ENDBRANCH  17  18
ENDBRANCH  16  17
ENDBRANCH  15  16
ENDBRANCH  14  15
ENDBRANCH   1  14
TORSDOF 11
ENDMDL
