MODEL 1
REMARK VINA RESULT: -8.325463242      0.000      0.000
REMARK  8 active torsions:
REMARK  status: ('A' for Active; 'I' for Inactive)
REMARK    1  A    between atoms: C1_2  and  N1_3 
REMARK    2  A    between atoms: C1_2  and  N4_17 
REMARK    3  A    between atoms: N1_3  and  N2_5 
REMARK    4  A    between atoms: C2_7  and  C3_8 
REMARK    5  A    between atoms: C3_8  and  C4_9 
REMARK    6  A    between atoms: C4_9  and  C5_10 
REMARK    7  A    between atoms: C5_10  and  N3_11 
REMARK    8  A    between atoms: N4_17  and  C10_19 
ROOT
HETATM    1  N1  UNL     1     -22.193  20.243   0.783  1.00  0.00    -0.277 N 
ATOM      2  H1  UNL     1     -21.388  20.579   0.255  1.00  0.00     0.189 HD
ENDROOT
BRANCH   1   3
HETATM    3  C1  UNL     1     -21.957  19.663   2.037  1.00  0.00     0.187 C 
HETATM    4  S1  UNL     1     -20.787  18.474   2.035  1.00  0.00    -0.040 SA
BRANCH   3   5
HETATM    5  N4  UNL     1     -22.562  19.949   3.257  1.00  0.00    -0.357 N 
ATOM      6  H4  UNL     1     -22.032  20.567   3.872  1.00  0.00     0.162 HD
BRANCH   5   7
HETATM    7  C10 UNL     1     -23.822  19.502   3.776  1.00  0.00     0.117 C 
HETATM    8  C11 UNL     1     -24.217  20.490   4.942  1.00  0.00     0.109 C 
HETATM    9  C12 UNL     1     -23.694  19.876   6.085  1.00  0.00    -0.180 C 
HETATM   10  C13 UNL     1     -23.302  19.659   7.420  1.00  0.00     0.083 C 
HETATM   11  C14 UNL     1     -22.782  18.180   7.407  1.00  0.00     0.038 C 
HETATM   12  C15 UNL     1     -22.184  17.732   6.142  1.00  0.00    -0.026 C 
HETATM   13  C16 UNL     1     -22.902  17.333   4.937  1.00  0.00    -0.006 C 
HETATM   14  C17 UNL     1     -23.875  18.087   4.190  1.00  0.00    -0.001 C 
ENDBRANCH   5   7
ENDBRANCH   3   5
ENDBRANCH   1   3
BRANCH   1  15
HETATM   15  N2  UNL     1     -23.461  20.391   0.207  1.00  0.00    -0.314 N 
HETATM   16  C2  UNL     1     -24.134  21.484   0.290  1.00  0.00     0.080 C 
ATOM     17  H2  UNL     1     -23.866  19.602  -0.297  1.00  0.00     0.185 HD
BRANCH  16  18
HETATM   18  C3  UNL     1     -25.468  21.539  -0.354  1.00  0.00     0.048 C 
BRANCH  18  19
HETATM   19  C4  UNL     1     -26.532  21.873   0.681  1.00  0.00     0.035 C 
BRANCH  19  20
HETATM   20  C5  UNL     1     -25.915  22.528   1.901  1.00  0.00     0.273 C 
BRANCH  20  21
HETATM   21  N3  UNL     1     -26.766  22.373   3.067  1.00  0.00     0.092 N 
HETATM   22  C6  UNL     1     -27.753  23.417   3.172  1.00  0.00     0.298 C 
HETATM   23  C7  UNL     1     -28.612  23.087   4.395  1.00  0.00     0.198 C 
HETATM   24  O1  UNL     1     -29.294  21.897   4.254  1.00  0.00    -0.388 OA
HETATM   25  C8  UNL     1     -28.923  21.187   3.127  1.00  0.00     0.198 C 
HETATM   26  C9  UNL     1     -27.411  21.089   2.995  1.00  0.00     0.298 C 
ENDBRANCH  20  21
ENDBRANCH  19  20
ENDBRANCH  18  19
ENDBRANCH  16  18
ENDBRANCH   1  15
TORSDOF 8
ENDMDL
MODEL 2
REMARK VINA RESULT: -8.194503185      0.659      1.030
REMARK  8 active torsions:
REMARK  status: ('A' for Active; 'I' for Inactive)
REMARK    1  A    between atoms: C1_2  and  N1_3 
REMARK    2  A    between atoms: C1_2  and  N4_17 
REMARK    3  A    between atoms: N1_3  and  N2_5 
REMARK    4  A    between atoms: C2_7  and  C3_8 
REMARK    5  A    between atoms: C3_8  and  C4_9 
REMARK    6  A    between atoms: C4_9  and  C5_10 
REMARK    7  A    between atoms: C5_10  and  N3_11 
REMARK    8  A    between atoms: N4_17  and  C10_19 
ROOT
HETATM    1  N1  UNL     1     -22.218  20.228   0.780  1.00  0.00    -0.277 N 
ATOM      2  H1  UNL     1     -21.427  20.582   0.242  1.00  0.00     0.189 HD
ENDROOT
BRANCH   1   3
HETATM    3  C1  UNL     1     -21.955  19.668   2.037  1.00  0.00     0.187 C 
HETATM    4  S1  UNL     1     -20.745  18.519   2.039  1.00  0.00    -0.040 SA
BRANCH   3   5
HETATM    5  N4  UNL     1     -22.562  19.944   3.258  1.00  0.00    -0.357 N 
ATOM      6  H4  UNL     1     -22.041  20.571   3.872  1.00  0.00     0.162 HD
BRANCH   5   7
HETATM    7  C10 UNL     1     -23.814  19.477   3.780  1.00  0.00     0.117 C 
HETATM    8  C11 UNL     1     -24.223  20.459   4.946  1.00  0.00     0.109 C 
HETATM    9  C12 UNL     1     -23.689  19.854   6.088  1.00  0.00    -0.180 C 
HETATM   10  C13 UNL     1     -23.291  19.644   7.423  1.00  0.00     0.083 C 
HETATM   11  C14 UNL     1     -22.747  18.173   7.409  1.00  0.00     0.038 C 
HETATM   12  C15 UNL     1     -22.144  17.735   6.144  1.00  0.00    -0.026 C 
HETATM   13  C16 UNL     1     -22.857  17.324   4.940  1.00  0.00    -0.006 C 
HETATM   14  C17 UNL     1     -23.843  18.062   4.194  1.00  0.00    -0.001 C 
ENDBRANCH   5   7
ENDBRANCH   3   5
ENDBRANCH   1   3
BRANCH   1  15
HETATM   15  N2  UNL     1     -23.494  20.332   0.213  1.00  0.00    -0.314 N 
HETATM   16  C2  UNL     1     -24.115  21.453   0.110  1.00  0.00     0.080 C 
ATOM     17  H2  UNL     1     -23.948  19.486  -0.131  1.00  0.00     0.185 HD
BRANCH  16  18
HETATM   18  C3  UNL     1     -25.463  21.458  -0.505  1.00  0.00     0.048 C 
BRANCH  18  19
HETATM   19  C4  UNL     1     -26.436  22.227   0.376  1.00  0.00     0.035 C 
BRANCH  19  20
HETATM   20  C5  UNL     1     -26.662  21.506   1.690  1.00  0.00     0.273 C 
BRANCH  20  21
HETATM   21  N3  UNL     1     -27.557  22.256   2.554  1.00  0.00     0.092 N 
HETATM   22  C6  UNL     1     -28.465  21.406   3.279  1.00  0.00     0.298 C 
HETATM   23  C7  UNL     1     -29.288  22.319   4.190  1.00  0.00     0.198 C 
HETATM   24  O1  UNL     1     -28.510  22.971   5.123  1.00  0.00    -0.388 OA
HETATM   25  C8  UNL     1     -27.154  22.792   4.924  1.00  0.00     0.198 C 
HETATM   26  C9  UNL     1     -26.763  23.028   3.473  1.00  0.00     0.298 C 
ENDBRANCH  20  21
ENDBRANCH  19  20
ENDBRANCH  18  19
ENDBRANCH  16  18
ENDBRANCH   1  15
TORSDOF 8
ENDMDL
MODEL 3
REMARK VINA RESULT: -8.116178669      0.931      1.238
REMARK  8 active torsions:
REMARK  status: ('A' for Active; 'I' for Inactive)
REMARK    1  A    between atoms: C1_2  and  N1_3 
REMARK    2  A    between atoms: C1_2  and  N4_17 
REMARK    3  A    between atoms: N1_3  and  N2_5 
REMARK    4  A    between atoms: C2_7  and  C3_8 
REMARK    5  A    between atoms: C3_8  and  C4_9 
REMARK    6  A    between atoms: C4_9  and  C5_10 
REMARK    7  A    between atoms: C5_10  and  N3_11 
REMARK    8  A    between atoms: N4_17  and  C10_19 
ROOT
HETATM    1  N1  UNL     1     -21.196  20.736   2.065  1.00  0.00    -0.277 N 
ATOM      2  H1  UNL     1     -20.295  21.198   1.941  1.00  0.00     0.189 HD
ENDROOT
BRANCH   1   3
HETATM    3  C1  UNL     1     -21.197  19.428   2.567  1.00  0.00     0.187 C 
HETATM    4  S1  UNL     1     -20.544  18.293   1.532  1.00  0.00    -0.040 SA
BRANCH   3   5
HETATM    5  N4  UNL     1     -21.663  18.966   3.794  1.00  0.00    -0.357 N 
ATOM      6  H4  UNL     1     -21.022  19.089   4.578  1.00  0.00     0.162 HD
BRANCH   5   7
HETATM    7  C10 UNL     1     -22.914  18.342   4.117  1.00  0.00     0.117 C 
HETATM    8  C11 UNL     1     -23.986  19.495   4.236  1.00  0.00     0.109 C 
HETATM    9  C12 UNL     1     -23.966  19.824   5.595  1.00  0.00    -0.180 C 
HETATM   10  C13 UNL     1     -24.222  20.490   6.809  1.00  0.00     0.083 C 
HETATM   11  C14 UNL     1     -23.499  19.593   7.872  1.00  0.00     0.038 C 
HETATM   12  C15 UNL     1     -22.303  18.887   7.395  1.00  0.00    -0.026 C 
HETATM   13  C16 UNL     1     -22.278  17.679   6.577  1.00  0.00    -0.006 C 
HETATM   14  C17 UNL     1     -22.899  17.458   5.297  1.00  0.00    -0.001 C 
ENDBRANCH   5   7
ENDBRANCH   3   5
ENDBRANCH   1   3
BRANCH   1  15
HETATM   15  N2  UNL     1     -22.350  21.451   1.721  1.00  0.00    -0.314 N 
HETATM   16  C2  UNL     1     -23.217  21.003   0.884  1.00  0.00     0.080 C 
ATOM     17  H2  UNL     1     -22.508  22.363   2.151  1.00  0.00     0.185 HD
BRANCH  16  18
HETATM   18  C3  UNL     1     -24.405  21.837   0.587  1.00  0.00     0.048 C 
BRANCH  18  19
HETATM   19  C4  UNL     1     -25.533  21.500   1.551  1.00  0.00     0.035 C 
BRANCH  19  20
HETATM   20  C5  UNL     1     -25.661  22.560   2.627  1.00  0.00     0.273 C 
BRANCH  20  21
HETATM   21  N3  UNL     1     -26.721  22.233   3.564  1.00  0.00     0.092 N 
HETATM   22  C6  UNL     1     -27.632  23.329   3.771  1.00  0.00     0.298 C 
HETATM   23  C7  UNL     1     -28.723  22.819   4.716  1.00  0.00     0.198 C 
HETATM   24  O1  UNL     1     -29.452  21.784   4.171  1.00  0.00    -0.388 OA
HETATM   25  C8  UNL     1     -28.933  21.324   2.975  1.00  0.00     0.198 C 
HETATM   26  C9  UNL     1     -27.433  21.086   3.065  1.00  0.00     0.298 C 
ENDBRANCH  20  21
ENDBRANCH  19  20
ENDBRANCH  18  19
ENDBRANCH  16  18
ENDBRANCH   1  15
TORSDOF 8
ENDMDL
MODEL 4
REMARK VINA RESULT: -8.044432238      1.007      1.294
REMARK  8 active torsions:
REMARK  status: ('A' for Active; 'I' for Inactive)
REMARK    1  A    between atoms: C1_2  and  N1_3 
REMARK    2  A    between atoms: C1_2  and  N4_17 
REMARK    3  A    between atoms: N1_3  and  N2_5 
REMARK    4  A    between atoms: C2_7  and  C3_8 
REMARK    5  A    between atoms: C3_8  and  C4_9 
REMARK    6  A    between atoms: C4_9  and  C5_10 
REMARK    7  A    between atoms: C5_10  and  N3_11 
REMARK    8  A    between atoms: N4_17  and  C10_19 
ROOT
HETATM    1  N1  UNL     1     -22.806  19.790   0.960  1.00  0.00    -0.277 N 
ATOM      2  H1  UNL     1     -22.899  18.852   0.570  1.00  0.00     0.189 HD
ENDROOT
BRANCH   1   3
HETATM    3  C1  UNL     1     -22.201  19.919   2.217  1.00  0.00     0.187 C 
HETATM    4  S1  UNL     1     -20.547  19.693   2.210  1.00  0.00    -0.040 SA
BRANCH   3   5
HETATM    5  N4  UNL     1     -22.792  20.207   3.443  1.00  0.00    -0.357 N 
ATOM      6  H4  UNL     1     -22.315  20.916   4.001  1.00  0.00     0.162 HD
BRANCH   5   7
HETATM    7  C10 UNL     1     -23.973  19.651   4.038  1.00  0.00     0.117 C 
HETATM    8  C11 UNL     1     -24.234  20.449   5.375  1.00  0.00     0.109 C 
HETATM    9  C12 UNL     1     -23.567  19.694   6.345  1.00  0.00    -0.180 C 
HETATM   10  C13 UNL     1     -23.011  19.299   7.577  1.00  0.00     0.083 C 
HETATM   11  C14 UNL     1     -22.478  17.853   7.286  1.00  0.00     0.038 C 
HETATM   12  C15 UNL     1     -22.034  17.610   5.907  1.00  0.00    -0.026 C 
HETATM   13  C16 UNL     1     -22.890  17.367   4.751  1.00  0.00    -0.006 C 
HETATM   14  C17 UNL     1     -23.956  18.191   4.244  1.00  0.00    -0.001 C 
ENDBRANCH   5   7
ENDBRANCH   3   5
ENDBRANCH   1   3
BRANCH   1  15
HETATM   15  N2  UNL     1     -23.293  20.863   0.204  1.00  0.00    -0.314 N 
HETATM   16  C2  UNL     1     -24.520  21.244   0.254  1.00  0.00     0.080 C 
ATOM     17  H2  UNL     1     -22.650  21.361  -0.412  1.00  0.00     0.185 HD
BRANCH  16  18
HETATM   18  C3  UNL     1     -24.936  22.392  -0.586  1.00  0.00     0.048 C 
BRANCH  18  19
HETATM   19  C4  UNL     1     -26.432  22.628  -0.441  1.00  0.00     0.035 C 
BRANCH  19  20
HETATM   20  C5  UNL     1     -26.730  23.488   0.771  1.00  0.00     0.273 C 
BRANCH  20  21
HETATM   21  N3  UNL     1     -27.709  22.855   1.637  1.00  0.00     0.092 N 
HETATM   22  C6  UNL     1     -28.321  21.702   1.027  1.00  0.00     0.298 C 
HETATM   23  C7  UNL     1     -29.267  21.105   2.071  1.00  0.00     0.198 C 
HETATM   24  O1  UNL     1     -28.601  20.664   3.195  1.00  0.00    -0.388 OA
HETATM   25  C8  UNL     1     -27.263  21.010   3.206  1.00  0.00     0.198 C 
HETATM   26  C9  UNL     1     -27.058  22.478   2.864  1.00  0.00     0.298 C 
ENDBRANCH  20  21
ENDBRANCH  19  20
ENDBRANCH  18  19
ENDBRANCH  16  18
ENDBRANCH   1  15
TORSDOF 8
ENDMDL
MODEL 5
REMARK VINA RESULT: -8.036726052      1.224      1.432
REMARK  8 active torsions:
REMARK  status: ('A' for Active; 'I' for Inactive)
REMARK    1  A    between atoms: C1_2  and  N1_3 
REMARK    2  A    between atoms: C1_2  and  N4_17 
REMARK    3  A    between atoms: N1_3  and  N2_5 
REMARK    4  A    between atoms: C2_7  and  C3_8 
REMARK    5  A    between atoms: C3_8  and  C4_9 
REMARK    6  A    between atoms: C4_9  and  C5_10 
REMARK    7  A    between atoms: C5_10  and  N3_11 
REMARK    8  A    between atoms: N4_17  and  C10_19 
ROOT
HETATM    1  N1  UNL     1     -22.127  20.175   0.845  1.00  0.00    -0.277 N 
ATOM      2  H1  UNL     1     -21.389  20.605   0.288  1.00  0.00     0.189 HD
ENDROOT
BRANCH   1   3
HETATM    3  C1  UNL     1     -21.746  19.413   1.958  1.00  0.00     0.187 C 
HETATM    4  S1  UNL     1     -20.459  18.388   1.682  1.00  0.00    -0.040 SA
BRANCH   3   5
HETATM    5  N4  UNL     1     -22.294  19.404   3.237  1.00  0.00    -0.357 N 
ATOM      6  H4  UNL     1     -21.750  19.892   3.948  1.00  0.00     0.162 HD
BRANCH   5   7
HETATM    7  C10 UNL     1     -23.514  18.808   3.701  1.00  0.00     0.117 C 
HETATM    8  C11 UNL     1     -24.356  19.955   4.385  1.00  0.00     0.109 C 
HETATM    9  C12 UNL     1     -23.979  19.882   5.730  1.00  0.00    -0.180 C 
HETATM   10  C13 UNL     1     -23.853  20.194   7.098  1.00  0.00     0.083 C 
HETATM   11  C14 UNL     1     -23.042  18.981   7.671  1.00  0.00     0.038 C 
HETATM   12  C15 UNL     1     -22.100  18.353   6.736  1.00  0.00    -0.026 C 
HETATM   13  C16 UNL     1     -22.433  17.429   5.658  1.00  0.00    -0.006 C 
HETATM   14  C17 UNL     1     -23.355  17.626   4.570  1.00  0.00    -0.001 C 
ENDBRANCH   5   7
ENDBRANCH   3   5
ENDBRANCH   1   3
BRANCH   1  15
HETATM   15  N2  UNL     1     -23.453  20.384   0.448  1.00  0.00    -0.314 N 
HETATM   16  C2  UNL     1     -24.172  21.341   0.918  1.00  0.00     0.080 C 
ATOM     17  H2  UNL     1     -23.864  19.754  -0.241  1.00  0.00     0.185 HD
BRANCH  16  18
HETATM   18  C3  UNL     1     -25.566  21.478   0.433  1.00  0.00     0.048 C 
BRANCH  18  19
HETATM   19  C4  UNL     1     -26.533  21.442   1.608  1.00  0.00     0.035 C 
BRANCH  19  20
HETATM   20  C5  UNL     1     -26.437  22.714   2.427  1.00  0.00     0.273 C 
BRANCH  20  21
HETATM   21  N3  UNL     1     -26.590  22.438   3.844  1.00  0.00     0.092 N 
HETATM   22  C6  UNL     1     -25.866  23.372   4.669  1.00  0.00     0.298 C 
HETATM   23  C7  UNL     1     -26.175  23.004   6.121  1.00  0.00     0.198 C 
HETATM   24  O1  UNL     1     -27.512  23.145   6.428  1.00  0.00    -0.388 OA
HETATM   25  C8  UNL     1     -28.298  23.417   5.324  1.00  0.00     0.198 C 
HETATM   26  C9  UNL     1     -27.992  22.477   4.168  1.00  0.00     0.298 C 
ENDBRANCH  20  21
ENDBRANCH  19  20
ENDBRANCH  18  19
ENDBRANCH  16  18
ENDBRANCH   1  15
TORSDOF 8
ENDMDL
