MODEL 1
REMARK VINA RESULT: -8.305168821      0.000      0.000
REMARK  6 active torsions:
REMARK  status: ('A' for Active; 'I' for Inactive)
REMARK    1  A    between atoms: C2_2  and  C3_3 
REMARK    2  A    between atoms: C3_3  and  C4_4 
REMARK    3  A    between atoms: C4_4  and  C5_5 
REMARK    4  A    between atoms: C5_5  and  C6_6 
REMARK    5  A    between atoms: C6_6  and  N1_7 
REMARK    6  A    between atoms: N4_21  and  C16_22 
ROOT
HETATM    1  N1  UNL     1     -24.857  20.260   3.695  1.00  0.00    -0.380 N 
ATOM      2  H1  UNL     1     -25.224  19.543   3.070  1.00  0.00     0.160 HD
HETATM    3  C7  UNL     1     -25.580  21.278   3.936  1.00  0.00     0.073 C 
HETATM    4  C8  UNL     1     -25.267  22.453   4.811  1.00  0.00     0.078 C 
HETATM    5  C9  UNL     1     -26.540  23.287   4.767  1.00  0.00     0.041 C 
HETATM    6  C10 UNL     1     -27.153  22.912   3.475  1.00  0.00     0.066 C 
HETATM    7  C11 UNL     1     -26.594  23.586   2.272  1.00  0.00     0.034 C 
HETATM    8  C12 UNL     1     -27.616  23.339   1.213  1.00  0.00     0.006 C 
HETATM    9  C13 UNL     1     -28.862  22.827   1.880  1.00  0.00     0.044 C 
HETATM   10  C14 UNL     1     -28.618  23.107   3.366  1.00  0.00     0.139 A 
HETATM   11  N2  UNL     1     -29.414  22.284   4.208  1.00  0.00    -0.344 N 
ATOM     12  H2  UNL     1     -29.332  21.269   4.261  1.00  0.00     0.163 HD
HETATM   13  C15 UNL     1     -30.254  22.979   4.897  1.00  0.00     0.194 A 
HETATM   14  N3  UNL     1     -31.195  22.449   5.836  1.00  0.00    -0.063 NA
HETATM   15  N4  UNL     1     -30.125  24.361   4.601  1.00  0.00    -0.286 N 
HETATM   16  C19 UNL     1     -29.094  24.459   3.634  1.00  0.00     0.257 A 
HETATM   17  O1  UNL     1     -28.692  25.524   3.124  1.00  0.00    -0.270 OA
HETATM   18  N5  UNL     1     -26.874  21.477   3.384  1.00  0.00    -0.368 N 
ATOM     19  H5  UNL     1     -27.490  20.760   3.000  1.00  0.00     0.161 HD
ENDROOT
BRANCH  15  20
HETATM   20  C16 UNL     1     -30.917  25.445   5.196  1.00  0.00     0.087 C 
HETATM   21  C17 UNL     1     -30.072  26.195   6.231  1.00  0.00     0.032 C 
HETATM   22  C18 UNL     1     -31.355  26.448   4.175  1.00  0.00     0.032 C 
ENDBRANCH  15  20
BRANCH   1  23
HETATM   23  C6  UNL     1     -23.531  20.066   4.266  1.00  0.00     0.121 C 
BRANCH  23  24
HETATM   24  C5  UNL     1     -23.584  19.039   5.367  1.00  0.00     0.020 C 
BRANCH  24  25
HETATM   25  C4  UNL     1     -23.568  19.706   6.696  1.00  0.00     0.002 C 
BRANCH  25  26
HETATM   26  C3  UNL     1     -22.790  18.944   7.703  1.00  0.00    -0.000 C 
BRANCH  26  27
HETATM   27  C2  UNL     1     -21.935  17.905   7.017  1.00  0.00    -0.005 C 
HETATM   28  C1  UNL     1     -20.495  18.155   7.439  1.00  0.00     0.005 C 
ENDBRANCH  26  27
ENDBRANCH  25  26
ENDBRANCH  24  25
ENDBRANCH  23  24
ENDBRANCH   1  23
TORSDOF 6
ENDMDL
MODEL 2
REMARK VINA RESULT: -7.980916709      1.743      2.696
REMARK  6 active torsions:
REMARK  status: ('A' for Active; 'I' for Inactive)
REMARK    1  A    between atoms: C2_2  and  C3_3 
REMARK    2  A    between atoms: C3_3  and  C4_4 
REMARK    3  A    between atoms: C4_4  and  C5_5 
REMARK    4  A    between atoms: C5_5  and  C6_6 
REMARK    5  A    between atoms: C6_6  and  N1_7 
REMARK    6  A    between atoms: N4_21  and  C16_22 
ROOT
HETATM    1  N1  UNL     1     -22.502  19.945   2.825  1.00  0.00    -0.380 N 
ATOM      2  H1  UNL     1     -22.279  19.951   1.830  1.00  0.00     0.160 HD
HETATM    3  C7  UNL     1     -23.542  20.564   3.214  1.00  0.00     0.073 C 
HETATM    4  C8  UNL     1     -24.075  20.699   4.607  1.00  0.00     0.078 C 
HETATM    5  C9  UNL     1     -25.376  21.470   4.424  1.00  0.00     0.041 C 
HETATM    6  C10 UNL     1     -25.157  22.222   3.171  1.00  0.00     0.066 C 
HETATM    7  C11 UNL     1     -24.358  23.471   3.294  1.00  0.00     0.034 C 
HETATM    8  C12 UNL     1     -24.627  24.197   2.017  1.00  0.00     0.006 C 
HETATM    9  C13 UNL     1     -25.795  23.535   1.342  1.00  0.00     0.044 C 
HETATM   10  C14 UNL     1     -26.376  22.628   2.431  1.00  0.00     0.139 A 
HETATM   11  N2  UNL     1     -27.153  21.566   1.893  1.00  0.00    -0.344 N 
ATOM     12  H2  UNL     1     -26.777  20.823   1.304  1.00  0.00     0.163 HD
HETATM   13  C15 UNL     1     -28.391  21.660   2.239  1.00  0.00     0.194 A 
HETATM   14  N3  UNL     1     -29.428  20.749   1.862  1.00  0.00    -0.063 NA
HETATM   15  N4  UNL     1     -28.600  22.800   3.058  1.00  0.00    -0.286 N 
HETATM   16  C19 UNL     1     -27.334  23.424   3.189  1.00  0.00     0.257 A 
HETATM   17  O1  UNL     1     -27.115  24.465   3.841  1.00  0.00    -0.270 OA
HETATM   18  N5  UNL     1     -24.416  21.268   2.342  1.00  0.00    -0.368 N 
ATOM     19  H5  UNL     1     -24.509  21.135   1.335  1.00  0.00     0.161 HD
ENDROOT
BRANCH  15  20
HETATM   20  C16 UNL     1     -29.883  23.221   3.636  1.00  0.00     0.087 C 
HETATM   21  C17 UNL     1     -29.884  22.951   5.144  1.00  0.00     0.032 C 
HETATM   22  C18 UNL     1     -30.132  24.685   3.450  1.00  0.00     0.032 C 
ENDBRANCH  15  20
BRANCH   1  23
HETATM   23  C6  UNL     1     -21.613  19.226   3.728  1.00  0.00     0.121 C 
BRANCH  23  24
HETATM   24  C5  UNL     1     -22.216  17.897   4.103  1.00  0.00     0.020 C 
BRANCH  24  25
HETATM   25  C4  UNL     1     -22.284  17.761   5.582  1.00  0.00     0.002 C 
BRANCH  25  26
HETATM   26  C3  UNL     1     -21.220  18.531   6.272  1.00  0.00    -0.000 C 
BRANCH  26  27
HETATM   27  C2  UNL     1     -21.657  18.869   7.678  1.00  0.00    -0.005 C 
HETATM   28  C1  UNL     1     -23.138  19.208   7.622  1.00  0.00     0.005 C 
ENDBRANCH  26  27
ENDBRANCH  25  26
ENDBRANCH  24  25
ENDBRANCH  23  24
ENDBRANCH   1  23
TORSDOF 6
ENDMDL
MODEL 3
REMARK VINA RESULT: -7.840471747      1.448      1.776
REMARK  6 active torsions:
REMARK  status: ('A' for Active; 'I' for Inactive)
REMARK    1  A    between atoms: C2_2  and  C3_3 
REMARK    2  A    between atoms: C3_3  and  C4_4 
REMARK    3  A    between atoms: C4_4  and  C5_5 
REMARK    4  A    between atoms: C5_5  and  C6_6 
REMARK    5  A    between atoms: C6_6  and  N1_7 
REMARK    6  A    between atoms: N4_21  and  C16_22 
ROOT
HETATM    1  N1  UNL     1     -25.738  21.432   4.295  1.00  0.00    -0.380 N 
ATOM      2  H1  UNL     1     -26.097  20.696   3.688  1.00  0.00     0.160 HD
HETATM    3  C7  UNL     1     -26.541  22.339   4.684  1.00  0.00     0.073 C 
HETATM    4  C8  UNL     1     -26.257  23.512   5.569  1.00  0.00     0.078 C 
HETATM    5  C9  UNL     1     -27.618  24.175   5.740  1.00  0.00     0.041 C 
HETATM    6  C10 UNL     1     -28.353  23.769   4.524  1.00  0.00     0.066 C 
HETATM    7  C11 UNL     1     -28.055  24.552   3.294  1.00  0.00     0.034 C 
HETATM    8  C12 UNL     1     -29.176  24.211   2.369  1.00  0.00     0.006 C 
HETATM    9  C13 UNL     1     -30.244  23.519   3.169  1.00  0.00     0.044 C 
HETATM   10  C14 UNL     1     -29.833  23.776   4.622  1.00  0.00     0.139 A 
HETATM   11  N2  UNL     1     -30.395  22.827   5.519  1.00  0.00    -0.344 N 
ATOM     12  H2  UNL     1     -30.181  21.830   5.507  1.00  0.00     0.163 HD
HETATM   13  C15 UNL     1     -31.210  23.382   6.348  1.00  0.00     0.194 A 
HETATM   14  N3  UNL     1     -31.939  22.702   7.376  1.00  0.00    -0.063 NA
HETATM   15  N4  UNL     1     -31.296  24.779   6.112  1.00  0.00    -0.286 N 
HETATM   16  C19 UNL     1     -30.430  25.044   5.022  1.00  0.00     0.257 A 
HETATM   17  O1  UNL     1     -30.238  26.170   4.520  1.00  0.00    -0.270 OA
HETATM   18  N5  UNL     1     -27.915  22.387   4.321  1.00  0.00    -0.368 N 
ATOM     19  H5  UNL     1     -28.484  21.610   3.985  1.00  0.00     0.161 HD
ENDROOT
BRANCH  15  20
HETATM   20  C16 UNL     1     -32.126  25.730   6.863  1.00  0.00     0.087 C 
HETATM   21  C17 UNL     1     -31.263  26.899   7.347  1.00  0.00     0.032 C 
HETATM   22  C18 UNL     1     -33.221  26.308   6.023  1.00  0.00     0.032 C 
ENDBRANCH  15  20
BRANCH   1  23
HETATM   23  C6  UNL     1     -24.332  21.392   4.673  1.00  0.00     0.121 C 
BRANCH  23  24
HETATM   24  C5  UNL     1     -23.814  19.979   4.599  1.00  0.00     0.020 C 
BRANCH  24  25
HETATM   25  C4  UNL     1     -23.598  19.437   5.966  1.00  0.00     0.002 C 
BRANCH  25  26
HETATM   26  C3  UNL     1     -23.203  18.007   5.954  1.00  0.00    -0.000 C 
BRANCH  26  27
HETATM   27  C2  UNL     1     -22.432  17.674   7.209  1.00  0.00    -0.005 C 
HETATM   28  C1  UNL     1     -21.123  18.447   7.154  1.00  0.00     0.005 C 
ENDBRANCH  26  27
ENDBRANCH  25  26
ENDBRANCH  24  25
ENDBRANCH  23  24
ENDBRANCH   1  23
TORSDOF 6
ENDMDL
MODEL 4
REMARK VINA RESULT: -7.809481821      1.357      1.695
REMARK  6 active torsions:
REMARK  status: ('A' for Active; 'I' for Inactive)
REMARK    1  A    between atoms: C2_2  and  C3_3 
REMARK    2  A    between atoms: C3_3  and  C4_4 
REMARK    3  A    between atoms: C4_4  and  C5_5 
REMARK    4  A    between atoms: C5_5  and  C6_6 
REMARK    5  A    between atoms: C6_6  and  N1_7 
REMARK    6  A    between atoms: N4_21  and  C16_22 
ROOT
HETATM    1  N1  UNL     1     -23.851  19.614   3.541  1.00  0.00    -0.380 N 
ATOM      2  H1  UNL     1     -24.040  19.336   2.579  1.00  0.00     0.160 HD
HETATM    3  C7  UNL     1     -24.504  20.591   4.027  1.00  0.00     0.073 C 
HETATM    4  C8  UNL     1     -24.408  21.181   5.400  1.00  0.00     0.078 C 
HETATM    5  C9  UNL     1     -25.489  22.254   5.410  1.00  0.00     0.041 C 
HETATM    6  C10 UNL     1     -25.633  22.612   3.983  1.00  0.00     0.066 C 
HETATM    7  C11 UNL     1     -24.614  23.553   3.445  1.00  0.00     0.034 C 
HETATM    8  C12 UNL     1     -25.208  24.031   2.161  1.00  0.00     0.006 C 
HETATM    9  C13 UNL     1     -26.656  23.627   2.140  1.00  0.00     0.044 C 
HETATM   10  C14 UNL     1     -26.934  23.200   3.585  1.00  0.00     0.139 A 
HETATM   11  N2  UNL     1     -28.058  22.336   3.686  1.00  0.00    -0.344 N 
ATOM     12  H2  UNL     1     -28.104  21.404   3.274  1.00  0.00     0.163 HD
HETATM   13  C15 UNL     1     -29.013  22.876   4.363  1.00  0.00     0.194 A 
HETATM   14  N3  UNL     1     -30.277  22.266   4.644  1.00  0.00    -0.063 NA
HETATM   15  N4  UNL     1     -28.647  24.175   4.802  1.00  0.00    -0.286 N 
HETATM   16  C19 UNL     1     -27.334  24.395   4.318  1.00  0.00     0.257 A 
HETATM   17  O1  UNL     1     -26.669  25.435   4.503  1.00  0.00    -0.270 OA
HETATM   18  N5  UNL     1     -25.488  21.321   3.306  1.00  0.00    -0.368 N 
ATOM     19  H5  UNL     1     -25.994  21.008   2.477  1.00  0.00     0.161 HD
ENDROOT
BRANCH  15  20
HETATM   20  C16 UNL     1     -29.485  25.082   5.597  1.00  0.00     0.087 C 
HETATM   21  C17 UNL     1     -28.724  25.523   6.852  1.00  0.00     0.032 C 
HETATM   22  C18 UNL     1     -29.846  26.323   4.841  1.00  0.00     0.032 C 
ENDBRANCH  15  20
BRANCH   1  23
HETATM   23  C6  UNL     1     -22.845  18.873   4.290  1.00  0.00     0.121 C 
BRANCH  23  24
HETATM   24  C5  UNL     1     -23.484  17.720   5.019  1.00  0.00     0.020 C 
BRANCH  24  25
HETATM   25  C4  UNL     1     -22.744  17.430   6.275  1.00  0.00     0.002 C 
BRANCH  25  26
HETATM   26  C3  UNL     1     -22.866  18.523   7.270  1.00  0.00    -0.000 C 
BRANCH  26  27
HETATM   27  C2  UNL     1     -21.496  18.949   7.740  1.00  0.00    -0.005 C 
HETATM   28  C1  UNL     1     -20.531  17.825   7.398  1.00  0.00     0.005 C 
ENDBRANCH  26  27
ENDBRANCH  25  26
ENDBRANCH  24  25
ENDBRANCH  23  24
ENDBRANCH   1  23
TORSDOF 6
ENDMDL
MODEL 5
REMARK VINA RESULT: -7.618385554      1.432      1.706
REMARK  6 active torsions:
REMARK  status: ('A' for Active; 'I' for Inactive)
REMARK    1  A    between atoms: C2_2  and  C3_3 
REMARK    2  A    between atoms: C3_3  and  C4_4 
REMARK    3  A    between atoms: C4_4  and  C5_5 
REMARK    4  A    between atoms: C5_5  and  C6_6 
REMARK    5  A    between atoms: C6_6  and  N1_7 
REMARK    6  A    between atoms: N4_21  and  C16_22 
ROOT
HETATM    1  N1  UNL     1     -25.274  21.135   4.300  1.00  0.00    -0.380 N 
ATOM      2  H1  UNL     1     -25.557  20.566   3.502  1.00  0.00     0.160 HD
HETATM    3  C7  UNL     1     -26.080  22.022   4.725  1.00  0.00     0.073 C 
HETATM    4  C8  UNL     1     -25.896  22.972   5.868  1.00  0.00     0.078 C 
HETATM    5  C9  UNL     1     -27.223  23.716   5.937  1.00  0.00     0.041 C 
HETATM    6  C10 UNL     1     -27.743  23.623   4.557  1.00  0.00     0.066 C 
HETATM    7  C11 UNL     1     -27.175  24.595   3.583  1.00  0.00     0.034 C 
HETATM    8  C12 UNL     1     -28.124  24.546   2.431  1.00  0.00     0.006 C 
HETATM    9  C13 UNL     1     -29.361  23.818   2.878  1.00  0.00     0.044 C 
HETATM   10  C14 UNL     1     -29.211  23.752   4.401  1.00  0.00     0.139 A 
HETATM   11  N2  UNL     1     -29.986  22.707   4.975  1.00  0.00    -0.344 N 
ATOM     12  H2  UNL     1     -29.833  21.714   4.795  1.00  0.00     0.163 HD
HETATM   13  C15 UNL     1     -30.906  23.168   5.750  1.00  0.00     0.194 A 
HETATM   14  N3  UNL     1     -31.852  22.376   6.477  1.00  0.00    -0.063 NA
HETATM   15  N4  UNL     1     -30.864  24.586   5.794  1.00  0.00    -0.286 N 
HETATM   16  C19 UNL     1     -29.797  24.971   4.946  1.00  0.00     0.257 A 
HETATM   17  O1  UNL     1     -29.448  26.149   4.726  1.00  0.00    -0.270 OA
HETATM   18  N5  UNL     1     -27.357  22.270   4.152  1.00  0.00    -0.368 N 
ATOM     19  H5  UNL     1     -27.899  21.629   3.571  1.00  0.00     0.161 HD
ENDROOT
BRANCH  15  20
HETATM   20  C16 UNL     1     -31.761  25.449   6.573  1.00  0.00     0.087 C 
HETATM   21  C17 UNL     1     -30.958  26.588   7.210  1.00  0.00     0.032 C 
HETATM   22  C18 UNL     1     -32.818  26.078   5.720  1.00  0.00     0.032 C 
ENDBRANCH  15  20
BRANCH   1  23
HETATM   23  C6  UNL     1     -23.967  20.889   4.895  1.00  0.00     0.121 C 
BRANCH  23  24
HETATM   24  C5  UNL     1     -24.087  19.896   6.022  1.00  0.00     0.020 C 
BRANCH  24  25
HETATM   25  C4  UNL     1     -22.788  19.206   6.241  1.00  0.00     0.002 C 
BRANCH  25  26
HETATM   26  C3  UNL     1     -22.910  17.730   6.160  1.00  0.00    -0.000 C 
BRANCH  26  27
HETATM   27  C2  UNL     1     -23.460  17.331   4.811  1.00  0.00    -0.005 C 
HETATM   28  C1  UNL     1     -22.312  17.404   3.816  1.00  0.00     0.005 C 
ENDBRANCH  26  27
ENDBRANCH  25  26
ENDBRANCH  24  25
ENDBRANCH  23  24
ENDBRANCH   1  23
TORSDOF 6
ENDMDL
