MODEL 1
REMARK VINA RESULT: -8.028235671      0.000      0.000
REMARK  8 active torsions:
REMARK  status: ('A' for Active; 'I' for Inactive)
REMARK    1  A    between atoms: C2_2  and  C3_3 
REMARK    2  A    between atoms: C3_3  and  N1_4 
REMARK    3  A    between atoms: C3_3  and  C14_20 
REMARK       I    between atoms: N1_4  and  C4_6 
REMARK    4  A    between atoms: C4_6  and  C5_8 
REMARK    5  A    between atoms: C5_8  and  N2_9 
REMARK    6  A    between atoms: C5_8  and  C8_14 
REMARK       I    between atoms: N2_9  and  C6_11 
REMARK    7  A    between atoms: C14_20  and  O4_22 
REMARK    8  A    between atoms: O4_22  and  C15_23 
ROOT
HETATM    1  N1  UNL     1     -21.788  20.330   2.540  1.00  0.00    -0.345 N 
ATOM      2  H1  UNL     1     -21.411  20.548   3.462  1.00  0.00     0.163 HD
HETATM    3  C4  UNL     1     -23.185  20.242   2.368  1.00  0.00     0.241 C 
HETATM    4  O1  UNL     1     -23.585  19.962   1.166  1.00  0.00    -0.271 OA
ENDROOT
BRANCH   3   5
HETATM    5  C5  UNL     1     -24.202  20.429   3.400  1.00  0.00     0.180 C 
BRANCH   5   6
HETATM    6  N2  UNL     1     -24.014  21.783   3.947  1.00  0.00    -0.348 N 
HETATM    7  C6  UNL     1     -24.941  22.773   3.633  1.00  0.00     0.214 C 
HETATM    8  C7  UNL     1     -24.840  24.184   4.138  1.00  0.00     0.117 C 
HETATM    9  O2  UNL     1     -25.927  22.527   2.895  1.00  0.00    -0.274 OA
ATOM     10  H2  UNL     1     -23.215  21.993   4.547  1.00  0.00     0.163 HD
ENDBRANCH   5   6
BRANCH   5  11
HETATM   11  C8  UNL     1     -24.133  19.447   4.546  1.00  0.00     0.018 C 
HETATM   12  C9  UNL     1     -23.602  18.115   4.066  1.00  0.00     0.007 C 
HETATM   13  C10 UNL     1     -23.350  17.136   5.157  1.00  0.00     0.000 C 
HETATM   14  C11 UNL     1     -22.437  17.721   6.209  1.00  0.00     0.000 C 
HETATM   15  C12 UNL     1     -23.176  18.893   6.795  1.00  0.00     0.000 C 
HETATM   16  C13 UNL     1     -23.472  19.956   5.759  1.00  0.00     0.007 C 
ENDBRANCH   5  11
ENDBRANCH   3   5
BRANCH   1  17
HETATM   17  C3  UNL     1     -20.877  20.117   1.430  1.00  0.00     0.184 C 
BRANCH  17  18
HETATM   18  C2  UNL     1     -20.011  18.880   1.703  1.00  0.00     0.031 C 
HETATM   19  C1  UNL     1     -20.878  17.668   1.943  1.00  0.00     0.007 C 
ENDBRANCH  17  18
BRANCH  17  20
HETATM   20  C14 UNL     1     -19.998  21.275   1.158  1.00  0.00     0.282 C 
HETATM   21  O3  UNL     1     -18.821  21.062   0.772  1.00  0.00    -0.263 OA
BRANCH  20  22
HETATM   22  O4  UNL     1     -20.378  22.581   1.294  1.00  0.00    -0.310 OA
BRANCH  22  23
HETATM   23  C15 UNL     1     -21.169  23.307   0.407  1.00  0.00     0.060 C 
HETATM   24  C16 UNL     1     -22.471  23.768   1.004  1.00  0.00     0.045 C 
HETATM   25  C17 UNL     1     -21.488  22.553  -0.869  1.00  0.00     0.045 C 
HETATM   26  C18 UNL     1     -20.340  24.525  -0.027  1.00  0.00     0.045 C 
ENDBRANCH  22  23
ENDBRANCH  20  22
ENDBRANCH  17  20
ENDBRANCH   1  17
TORSDOF 8
ENDMDL
MODEL 2
REMARK VINA RESULT: -7.916543100      1.109      1.517
REMARK  8 active torsions:
REMARK  status: ('A' for Active; 'I' for Inactive)
REMARK    1  A    between atoms: C2_2  and  C3_3 
REMARK    2  A    between atoms: C3_3  and  N1_4 
REMARK    3  A    between atoms: C3_3  and  C14_20 
REMARK       I    between atoms: N1_4  and  C4_6 
REMARK    4  A    between atoms: C4_6  and  C5_8 
REMARK    5  A    between atoms: C5_8  and  N2_9 
REMARK    6  A    between atoms: C5_8  and  C8_14 
REMARK       I    between atoms: N2_9  and  C6_11 
REMARK    7  A    between atoms: C14_20  and  O4_22 
REMARK    8  A    between atoms: O4_22  and  C15_23 
ROOT
HETATM    1  N1  UNL     1     -22.124  20.680   2.563  1.00  0.00    -0.345 N 
ATOM      2  H1  UNL     1     -21.713  20.983   3.446  1.00  0.00     0.163 HD
HETATM    3  C4  UNL     1     -23.499  20.376   2.509  1.00  0.00     0.241 C 
HETATM    4  O1  UNL     1     -23.945  19.998   1.350  1.00  0.00    -0.271 OA
ENDROOT
BRANCH   3   5
HETATM    5  C5  UNL     1     -24.449  20.442   3.617  1.00  0.00     0.180 C 
BRANCH   5   6
HETATM    6  N2  UNL     1     -24.315  21.780   4.217  1.00  0.00    -0.348 N 
HETATM    7  C6  UNL     1     -25.429  22.615   4.261  1.00  0.00     0.214 C 
HETATM    8  C7  UNL     1     -25.398  23.996   4.850  1.00  0.00     0.117 C 
HETATM    9  O2  UNL     1     -26.536  22.243   3.798  1.00  0.00    -0.274 OA
ATOM     10  H2  UNL     1     -23.420  22.091   4.595  1.00  0.00     0.163 HD
ENDBRANCH   5   6
BRANCH   5  11
HETATM   11  C8  UNL     1     -24.229  19.416   4.705  1.00  0.00     0.018 C 
HETATM   12  C9  UNL     1     -23.602  18.166   4.130  1.00  0.00     0.007 C 
HETATM   13  C10 UNL     1     -23.203  17.164   5.153  1.00  0.00     0.000 C 
HETATM   14  C11 UNL     1     -22.295  17.782   6.191  1.00  0.00     0.000 C 
HETATM   15  C12 UNL     1     -23.109  18.848   6.874  1.00  0.00     0.000 C 
HETATM   16  C13 UNL     1     -23.556  19.927   5.911  1.00  0.00     0.007 C 
ENDBRANCH   5  11
ENDBRANCH   3   5
BRANCH   1  17
HETATM   17  C3  UNL     1     -21.280  20.569   1.387  1.00  0.00     0.184 C 
BRANCH  17  18
HETATM   18  C2  UNL     1     -20.138  19.581   1.660  1.00  0.00     0.031 C 
HETATM   19  C1  UNL     1     -20.665  18.168   1.726  1.00  0.00     0.007 C 
ENDBRANCH  17  18
BRANCH  17  20
HETATM   20  C14 UNL     1     -20.709  21.861   0.946  1.00  0.00     0.282 C 
HETATM   21  O3  UNL     1     -21.306  22.922   1.259  1.00  0.00    -0.263 OA
BRANCH  20  22
HETATM   22  O4  UNL     1     -19.562  21.988   0.214  1.00  0.00    -0.310 OA
BRANCH  22  23
HETATM   23  C15 UNL     1     -19.470  22.422  -1.106  1.00  0.00     0.060 C 
HETATM   24  C16 UNL     1     -19.452  23.921  -1.244  1.00  0.00     0.045 C 
HETATM   25  C17 UNL     1     -20.580  21.893  -1.992  1.00  0.00     0.045 C 
HETATM   26  C18 UNL     1     -18.170  21.836  -1.674  1.00  0.00     0.045 C 
ENDBRANCH  22  23
ENDBRANCH  20  22
ENDBRANCH  17  20
ENDBRANCH   1  17
TORSDOF 8
ENDMDL
MODEL 3
REMARK VINA RESULT: -7.839034632      1.317      1.968
REMARK  8 active torsions:
REMARK  status: ('A' for Active; 'I' for Inactive)
REMARK    1  A    between atoms: C2_2  and  C3_3 
REMARK    2  A    between atoms: C3_3  and  N1_4 
REMARK    3  A    between atoms: C3_3  and  C14_20 
REMARK       I    between atoms: N1_4  and  C4_6 
REMARK    4  A    between atoms: C4_6  and  C5_8 
REMARK    5  A    between atoms: C5_8  and  N2_9 
REMARK    6  A    between atoms: C5_8  and  C8_14 
REMARK       I    between atoms: N2_9  and  C6_11 
REMARK    7  A    between atoms: C14_20  and  O4_22 
REMARK    8  A    between atoms: O4_22  and  C15_23 
ROOT
HETATM    1  N1  UNL     1     -21.792  20.492   2.453  1.00  0.00    -0.345 N 
ATOM      2  H1  UNL     1     -21.214  20.674   3.274  1.00  0.00     0.163 HD
HETATM    3  C4  UNL     1     -23.154  20.168   2.626  1.00  0.00     0.241 C 
HETATM    4  O1  UNL     1     -23.821  19.951   1.534  1.00  0.00    -0.271 OA
ENDROOT
BRANCH   3   5
HETATM    5  C5  UNL     1     -23.867  20.053   3.896  1.00  0.00     0.180 C 
BRANCH   5   6
HETATM    6  N2  UNL     1     -24.384  21.393   4.220  1.00  0.00    -0.348 N 
HETATM    7  C6  UNL     1     -25.713  21.692   3.930  1.00  0.00     0.214 C 
HETATM    8  C7  UNL     1     -26.337  23.027   4.220  1.00  0.00     0.117 C 
HETATM    9  O2  UNL     1     -26.468  20.839   3.400  1.00  0.00    -0.274 OA
ATOM     10  H2  UNL     1     -23.778  22.092   4.651  1.00  0.00     0.163 HD
ENDBRANCH   5   6
BRANCH   5  11
HETATM   11  C8  UNL     1     -23.023  19.582   5.058  1.00  0.00     0.018 C 
HETATM   12  C9  UNL     1     -23.700  19.915   6.368  1.00  0.00     0.007 C 
HETATM   13  C10 UNL     1     -23.018  19.348   7.562  1.00  0.00     0.000 C 
HETATM   14  C11 UNL     1     -22.837  17.854   7.423  1.00  0.00     0.000 C 
HETATM   15  C12 UNL     1     -21.939  17.652   6.233  1.00  0.00     0.000 C 
HETATM   16  C13 UNL     1     -22.553  18.190   4.959  1.00  0.00     0.007 C 
ENDBRANCH   5  11
ENDBRANCH   3   5
BRANCH   1  17
HETATM   17  C3  UNL     1     -21.197  20.570   1.132  1.00  0.00     0.184 C 
BRANCH  17  18
HETATM   18  C2  UNL     1     -20.045  19.563   1.022  1.00  0.00     0.031 C 
HETATM   19  C1  UNL     1     -20.411  18.264   1.698  1.00  0.00     0.007 C 
ENDBRANCH  17  18
BRANCH  17  20
HETATM   20  C14 UNL     1     -20.697  21.920   0.790  1.00  0.00     0.282 C 
HETATM   21  O3  UNL     1     -21.338  22.922   1.195  1.00  0.00    -0.263 OA
BRANCH  20  22
HETATM   22  O4  UNL     1     -19.570  22.162   0.054  1.00  0.00    -0.310 OA
BRANCH  22  23
HETATM   23  C15 UNL     1     -19.525  22.611  -1.262  1.00  0.00     0.060 C 
HETATM   24  C16 UNL     1     -19.499  24.111  -1.383  1.00  0.00     0.045 C 
HETATM   25  C17 UNL     1     -20.673  22.101  -2.111  1.00  0.00     0.045 C 
HETATM   26  C18 UNL     1     -18.253  22.021  -1.887  1.00  0.00     0.045 C 
ENDBRANCH  22  23
ENDBRANCH  20  22
ENDBRANCH  17  20
ENDBRANCH   1  17
TORSDOF 8
ENDMDL
MODEL 4
REMARK VINA RESULT: -7.743949640      1.138      1.725
REMARK  8 active torsions:
REMARK  status: ('A' for Active; 'I' for Inactive)
REMARK    1  A    between atoms: C2_2  and  C3_3 
REMARK    2  A    between atoms: C3_3  and  N1_4 
REMARK    3  A    between atoms: C3_3  and  C14_20 
REMARK       I    between atoms: N1_4  and  C4_6 
REMARK    4  A    between atoms: C4_6  and  C5_8 
REMARK    5  A    between atoms: C5_8  and  N2_9 
REMARK    6  A    between atoms: C5_8  and  C8_14 
REMARK       I    between atoms: N2_9  and  C6_11 
REMARK    7  A    between atoms: C14_20  and  O4_22 
REMARK    8  A    between atoms: O4_22  and  C15_23 
ROOT
HETATM    1  N1  UNL     1     -21.666  20.526   2.452  1.00  0.00    -0.345 N 
ATOM      2  H1  UNL     1     -21.109  20.779   3.269  1.00  0.00     0.163 HD
HETATM    3  C4  UNL     1     -23.017  20.161   2.624  1.00  0.00     0.241 C 
HETATM    4  O1  UNL     1     -23.657  19.853   1.538  1.00  0.00    -0.271 OA
ENDROOT
BRANCH   3   5
HETATM    5  C5  UNL     1     -23.747  20.095   3.888  1.00  0.00     0.180 C 
BRANCH   5   6
HETATM    6  N2  UNL     1     -24.213  21.460   4.185  1.00  0.00    -0.348 N 
HETATM    7  C6  UNL     1     -25.548  21.783   3.953  1.00  0.00     0.214 C 
HETATM    8  C7  UNL     1     -26.123  23.144   4.221  1.00  0.00     0.117 C 
HETATM    9  O2  UNL     1     -26.351  20.931   3.496  1.00  0.00    -0.274 OA
ATOM     10  H2  UNL     1     -23.568  22.158   4.555  1.00  0.00     0.163 HD
ENDBRANCH   5   6
BRANCH   5  11
HETATM   11  C8  UNL     1     -22.935  19.610   5.066  1.00  0.00     0.018 C 
HETATM   12  C9  UNL     1     -23.663  19.894   6.360  1.00  0.00     0.007 C 
HETATM   13  C10 UNL     1     -23.012  19.309   7.562  1.00  0.00     0.000 C 
HETATM   14  C11 UNL     1     -22.796  17.823   7.391  1.00  0.00     0.000 C 
HETATM   15  C12 UNL     1     -21.853  17.671   6.229  1.00  0.00     0.000 C 
HETATM   16  C13 UNL     1     -22.433  18.231   4.948  1.00  0.00     0.007 C 
ENDBRANCH   5  11
ENDBRANCH   3   5
BRANCH   1  17
HETATM   17  C3  UNL     1     -21.051  20.547   1.138  1.00  0.00     0.184 C 
BRANCH  17  18
HETATM   18  C2  UNL     1     -19.768  19.706   1.152  1.00  0.00     0.031 C 
HETATM   19  C1  UNL     1     -20.065  18.294   1.591  1.00  0.00     0.007 C 
ENDBRANCH  17  18
BRANCH  17  20
HETATM   20  C14 UNL     1     -20.734  21.910   0.657  1.00  0.00     0.282 C 
HETATM   21  O3  UNL     1     -19.883  22.044  -0.258  1.00  0.00    -0.263 OA
BRANCH  20  22
HETATM   22  O4  UNL     1     -21.308  23.052   1.142  1.00  0.00    -0.310 OA
BRANCH  22  23
HETATM   23  C15 UNL     1     -22.437  23.687   0.632  1.00  0.00     0.060 C 
HETATM   24  C16 UNL     1     -23.234  22.827  -0.313  1.00  0.00     0.045 C 
HETATM   25  C17 UNL     1     -22.126  24.988  -0.082  1.00  0.00     0.045 C 
HETATM   26  C18 UNL     1     -23.308  24.073   1.837  1.00  0.00     0.045 C 
ENDBRANCH  22  23
ENDBRANCH  20  22
ENDBRANCH  17  20
ENDBRANCH   1  17
TORSDOF 8
ENDMDL
MODEL 5
REMARK VINA RESULT: -7.719204767      1.332      2.065
REMARK  8 active torsions:
REMARK  status: ('A' for Active; 'I' for Inactive)
REMARK    1  A    between atoms: C2_2  and  C3_3 
REMARK    2  A    between atoms: C3_3  and  N1_4 
REMARK    3  A    between atoms: C3_3  and  C14_20 
REMARK       I    between atoms: N1_4  and  C4_6 
REMARK    4  A    between atoms: C4_6  and  C5_8 
REMARK    5  A    between atoms: C5_8  and  N2_9 
REMARK    6  A    between atoms: C5_8  and  C8_14 
REMARK       I    between atoms: N2_9  and  C6_11 
REMARK    7  A    between atoms: C14_20  and  O4_22 
REMARK    8  A    between atoms: O4_22  and  C15_23 
ROOT
HETATM    1  N1  UNL     1     -21.448  20.503   2.442  1.00  0.00    -0.345 N 
ATOM      2  H1  UNL     1     -20.963  20.817   3.283  1.00  0.00     0.163 HD
HETATM    3  C4  UNL     1     -22.790  20.082   2.536  1.00  0.00     0.241 C 
HETATM    4  O1  UNL     1     -23.336  19.697   1.423  1.00  0.00    -0.271 OA
ENDROOT
BRANCH   3   5
HETATM    5  C5  UNL     1     -23.606  20.035   3.747  1.00  0.00     0.180 C 
BRANCH   5   6
HETATM    6  N2  UNL     1     -24.162  21.385   3.942  1.00  0.00    -0.348 N 
HETATM    7  C6  UNL     1     -25.465  21.644   3.524  1.00  0.00     0.214 C 
HETATM    8  C7  UNL     1     -26.125  22.985   3.676  1.00  0.00     0.117 C 
HETATM    9  O2  UNL     1     -26.164  20.748   2.989  1.00  0.00    -0.274 OA
ATOM     10  H2  UNL     1     -23.601  22.119   4.375  1.00  0.00     0.163 HD
ENDBRANCH   5   6
BRANCH   5  11
HETATM   11  C8  UNL     1     -22.857  19.652   5.003  1.00  0.00     0.018 C 
HETATM   12  C9  UNL     1     -23.724  19.873   6.221  1.00  0.00     0.007 C 
HETATM   13  C10 UNL     1     -23.126  19.373   7.488  1.00  0.00     0.000 C 
HETATM   14  C11 UNL     1     -22.743  17.917   7.368  1.00  0.00     0.000 C 
HETATM   15  C12 UNL     1     -21.689  17.851   6.296  1.00  0.00     0.000 C 
HETATM   16  C13 UNL     1     -22.207  18.331   4.958  1.00  0.00     0.007 C 
ENDBRANCH   5  11
ENDBRANCH   3   5
BRANCH   1  17
HETATM   17  C3  UNL     1     -20.742  20.497   1.174  1.00  0.00     0.184 C 
BRANCH  17  18
HETATM   18  C2  UNL     1     -19.460  19.663   1.298  1.00  0.00     0.031 C 
HETATM   19  C1  UNL     1     -19.790  18.236   1.663  1.00  0.00     0.007 C 
ENDBRANCH  17  18
BRANCH  17  20
HETATM   20  C14 UNL     1     -20.396  21.851   0.686  1.00  0.00     0.282 C 
HETATM   21  O3  UNL     1     -19.814  22.644   1.468  1.00  0.00    -0.263 OA
BRANCH  20  22
HETATM   22  O4  UNL     1     -20.665  22.308  -0.574  1.00  0.00    -0.310 OA
BRANCH  22  23
HETATM   23  C15 UNL     1     -19.728  22.703  -1.525  1.00  0.00     0.060 C 
HETATM   24  C16 UNL     1     -18.429  21.948  -1.437  1.00  0.00     0.045 C 
HETATM   25  C17 UNL     1     -19.404  24.183  -1.472  1.00  0.00     0.045 C 
HETATM   26  C18 UNL     1     -20.369  22.468  -2.900  1.00  0.00     0.045 C 
ENDBRANCH  22  23
ENDBRANCH  20  22
ENDBRANCH  17  20
ENDBRANCH   1  17
TORSDOF 8
ENDMDL
