MODEL 1
REMARK VINA RESULT: -6.730835374      0.000      0.000
REMARK  2 active torsions:
REMARK  status: ('A' for Active; 'I' for Inactive)
REMARK    1  A    between atoms: O1_1  and  C1_3 
REMARK    2  A    between atoms: C5_10  and  C6_11 
ROOT
HETATM    1  C1  UNL     1     -25.934  21.655  10.159  1.00  0.00     0.110 C 
HETATM    2  C2  UNL     1     -26.045  22.570  11.360  1.00  0.00     0.208 C 
HETATM    3  O2  UNL     1     -24.968  22.279  12.189  1.00  0.00    -0.386 OA
HETATM    4  C3  UNL     1     -24.010  21.636  11.440  1.00  0.00     0.196 C 
HETATM    5  C4  UNL     1     -24.410  21.705  10.001  1.00  0.00     0.143 C 
HETATM    6  N1  UNL     1     -23.884  20.671   9.186  1.00  0.00    -0.372 N 
ATOM      7  H1  UNL     1     -23.139  20.069   9.536  1.00  0.00     0.160 HD
HETATM    8  C5  UNL     1     -24.353  20.500   8.005  1.00  0.00     0.100 C 
HETATM    9  S1  UNL     1     -25.664  21.594   7.456  1.00  0.00    -0.107 SA
HETATM   10  C10 UNL     1     -26.548  22.241   8.917  1.00  0.00     0.123 C 
ENDROOT
BRANCH   8  11
HETATM   11  C6  UNL     1     -23.855  19.448   7.108  1.00  0.00     0.108 A 
HETATM   12  C7  UNL     1     -22.917  18.493   7.422  1.00  0.00     0.042 A 
HETATM   13  C8  UNL     1     -22.714  17.691   6.324  1.00  0.00     0.027 A 
HETATM   14  C9  UNL     1     -23.563  18.206   5.355  1.00  0.00     0.142 A 
HETATM   15  O3  UNL     1     -24.198  19.222   5.868  1.00  0.00    -0.320 OA
ENDBRANCH   8  11
BRANCH   1  16
HETATM   16  O1  UNL     1     -26.373  20.387  10.454  1.00  0.00    -0.385 OA
ATOM     17  H1  UNL     1     -26.103  19.764   9.790  1.00  0.00     0.210 HD
ENDBRANCH   1  16
TORSDOF 2
ENDMDL
MODEL 2
REMARK VINA RESULT: -6.171478628      4.934      5.934
REMARK  2 active torsions:
REMARK  status: ('A' for Active; 'I' for Inactive)
REMARK    1  A    between atoms: O1_1  and  C1_3 
REMARK    2  A    between atoms: C5_10  and  C6_11 
ROOT
HETATM    1  C1  UNL     1     -26.906  22.113   2.608  1.00  0.00     0.110 C 
HETATM    2  C2  UNL     1     -27.738  23.374   2.513  1.00  0.00     0.208 C 
HETATM    3  O2  UNL     1     -28.274  23.598   3.776  1.00  0.00    -0.386 OA
HETATM    4  C3  UNL     1     -27.524  22.898   4.692  1.00  0.00     0.196 C 
HETATM    5  C4  UNL     1     -26.313  22.360   3.999  1.00  0.00     0.143 C 
HETATM    6  N1  UNL     1     -25.750  21.204   4.596  1.00  0.00    -0.372 N 
ATOM      7  H1  UNL     1     -26.043  20.911   5.528  1.00  0.00     0.160 HD
HETATM    8  C5  UNL     1     -24.867  20.530   3.954  1.00  0.00     0.100 C 
HETATM    9  S1  UNL     1     -24.400  21.103   2.320  1.00  0.00    -0.107 SA
HETATM   10  C10 UNL     1     -25.772  22.083   1.619  1.00  0.00     0.123 C 
ENDROOT
BRANCH   8  11
HETATM   11  C6  UNL     1     -24.243  19.323   4.512  1.00  0.00     0.108 A 
HETATM   12  C7  UNL     1     -23.852  19.144   5.818  1.00  0.00     0.042 A 
HETATM   13  C8  UNL     1     -23.310  17.887   5.952  1.00  0.00     0.027 A 
HETATM   14  C9  UNL     1     -23.396  17.334   4.682  1.00  0.00     0.142 A 
HETATM   15  O3  UNL     1     -23.945  18.213   3.892  1.00  0.00    -0.320 OA
ENDBRANCH   8  11
BRANCH   1  16
HETATM   16  O1  UNL     1     -27.696  20.989   2.584  1.00  0.00    -0.385 OA
ATOM     17  H1  UNL     1     -27.683  20.538   3.420  1.00  0.00     0.210 HD
ENDBRANCH   1  16
TORSDOF 2
ENDMDL
MODEL 3
REMARK VINA RESULT: -6.133528706      4.559      6.473
REMARK  2 active torsions:
REMARK  status: ('A' for Active; 'I' for Inactive)
REMARK    1  A    between atoms: O1_1  and  C1_3 
REMARK    2  A    between atoms: C5_10  and  C6_11 
ROOT
HETATM    1  C1  UNL     1     -28.889  23.436   4.434  1.00  0.00     0.110 C 
HETATM    2  C2  UNL     1     -30.077  23.926   3.634  1.00  0.00     0.208 C 
HETATM    3  O2  UNL     1     -31.216  23.584   4.355  1.00  0.00    -0.386 OA
HETATM    4  C3  UNL     1     -30.847  23.356   5.660  1.00  0.00     0.196 C 
HETATM    5  C4  UNL     1     -29.423  23.779   5.830  1.00  0.00     0.143 C 
HETATM    6  N1  UNL     1     -28.731  23.131   6.884  1.00  0.00    -0.372 N 
ATOM      7  H1  UNL     1     -29.242  22.583   7.575  1.00  0.00     0.160 HD
HETATM    8  C5  UNL     1     -27.455  23.240   6.960  1.00  0.00     0.100 C 
HETATM    9  S1  UNL     1     -26.620  24.217   5.709  1.00  0.00    -0.107 SA
HETATM   10  C10 UNL     1     -27.647  24.252   4.199  1.00  0.00     0.123 C 
ENDROOT
BRANCH   8  11
HETATM   11  C6  UNL     1     -26.675  22.595   8.026  1.00  0.00     0.108 A 
HETATM   12  C7  UNL     1     -25.446  21.996   7.880  1.00  0.00     0.042 A 
HETATM   13  C8  UNL     1     -25.042  21.509   9.101  1.00  0.00     0.027 A 
HETATM   14  C9  UNL     1     -26.073  21.843   9.968  1.00  0.00     0.142 A 
HETATM   15  O3  UNL     1     -26.989  22.471   9.287  1.00  0.00    -0.320 OA
ENDBRANCH   8  11
BRANCH   1  16
HETATM   16  O1  UNL     1     -28.704  22.083   4.279  1.00  0.00    -0.385 OA
ATOM     17  H1  UNL     1     -28.131  21.732   4.949  1.00  0.00     0.210 HD
ENDBRANCH   1  16
TORSDOF 2
ENDMDL
MODEL 4
REMARK VINA RESULT: -6.116440913      3.751      5.652
REMARK  2 active torsions:
REMARK  status: ('A' for Active; 'I' for Inactive)
REMARK    1  A    between atoms: O1_1  and  C1_3 
REMARK    2  A    between atoms: C5_10  and  C6_11 
ROOT
HETATM    1  C1  UNL     1     -25.386  22.880   3.868  1.00  0.00     0.110 C 
HETATM    2  C2  UNL     1     -26.187  23.531   2.761  1.00  0.00     0.208 C 
HETATM    3  O2  UNL     1     -26.259  22.611   1.722  1.00  0.00    -0.386 OA
HETATM    4  C3  UNL     1     -25.991  21.362   2.233  1.00  0.00     0.196 C 
HETATM    5  C4  UNL     1     -25.948  21.461   3.725  1.00  0.00     0.143 C 
HETATM    6  N1  UNL     1     -25.167  20.467   4.365  1.00  0.00    -0.372 N 
ATOM      7  H1  UNL     1     -24.845  19.651   3.845  1.00  0.00     0.160 HD
HETATM    8  C5  UNL     1     -24.870  20.602   5.606  1.00  0.00     0.100 C 
HETATM    9  S1  UNL     1     -25.470  22.062   6.458  1.00  0.00    -0.107 SA
HETATM   10  C10 UNL     1     -25.754  23.388   5.236  1.00  0.00     0.123 C 
ENDROOT
BRANCH   8  11
HETATM   11  C6  UNL     1     -24.065  19.610   6.332  1.00  0.00     0.108 A 
HETATM   12  C7  UNL     1     -23.599  18.419   5.828  1.00  0.00     0.042 A 
HETATM   13  C8  UNL     1     -22.888  17.769   6.808  1.00  0.00     0.027 A 
HETATM   14  C9  UNL     1     -22.950  18.617   7.904  1.00  0.00     0.142 A 
HETATM   15  O3  UNL     1     -23.645  19.667   7.567  1.00  0.00    -0.320 OA
ENDBRANCH   8  11
BRANCH   1  16
HETATM   16  O1  UNL     1     -24.038  22.922   3.602  1.00  0.00    -0.385 OA
ATOM     17  H1  UNL     1     -23.837  23.560   2.928  1.00  0.00     0.210 HD
ENDBRANCH   1  16
TORSDOF 2
ENDMDL
MODEL 5
REMARK VINA RESULT: -6.085412498      5.021      6.309
REMARK  2 active torsions:
REMARK  status: ('A' for Active; 'I' for Inactive)
REMARK    1  A    between atoms: O1_1  and  C1_3 
REMARK    2  A    between atoms: C5_10  and  C6_11 
ROOT
HETATM    1  C1  UNL     1     -28.823  21.817   2.832  1.00  0.00     0.110 C 
HETATM    2  C2  UNL     1     -30.009  22.757   2.820  1.00  0.00     0.208 C 
HETATM    3  O2  UNL     1     -30.299  23.056   4.147  1.00  0.00    -0.386 OA
HETATM    4  C3  UNL     1     -29.186  22.775   4.904  1.00  0.00     0.196 C 
HETATM    5  C4  UNL     1     -28.048  22.474   3.981  1.00  0.00     0.143 C 
HETATM    6  N1  UNL     1     -27.034  21.653   4.533  1.00  0.00    -0.372 N 
ATOM      7  H1  UNL     1     -27.010  21.469   5.536  1.00  0.00     0.160 HD
HETATM    8  C5  UNL     1     -26.147  21.142   3.760  1.00  0.00     0.100 C 
HETATM    9  S1  UNL     1     -26.252  21.506   2.007  1.00  0.00    -0.107 SA
HETATM   10  C10 UNL     1     -27.981  21.919   1.589  1.00  0.00     0.123 C 
ENDROOT
BRANCH   8  11
HETATM   11  C6  UNL     1     -25.068  20.282   4.265  1.00  0.00     0.108 A 
HETATM   12  C7  UNL     1     -24.703  20.129   5.581  1.00  0.00     0.042 A 
HETATM   13  C8  UNL     1     -23.654  19.243   5.652  1.00  0.00     0.027 A 
HETATM   14  C9  UNL     1     -23.415  18.880   4.334  1.00  0.00     0.142 A 
HETATM   15  O3  UNL     1     -24.266  19.514   3.577  1.00  0.00    -0.320 OA
ENDBRANCH   8  11
BRANCH   1  16
HETATM   16  O1  UNL     1     -29.203  20.534   3.144  1.00  0.00    -0.385 OA
ATOM     17  H1  UNL     1     -29.740  20.512   3.927  1.00  0.00     0.210 HD
ENDBRANCH   1  16
TORSDOF 2
ENDMDL
