MODEL 1
REMARK VINA RESULT: -5.402679224      0.000      0.000
REMARK  3 active torsions:
REMARK  status: ('A' for Active; 'I' for Inactive)
REMARK    1  A    between atoms: C3_5  and  C4_6 
REMARK    2  A    between atoms: C4_6  and  C5_7 
REMARK    3  A    between atoms: C5_7  and  N1_8 
ROOT
HETATM    1  C1  UNL     1     -24.374  20.132   9.961  1.00  0.00     0.050 C 
HETATM    2  C2  UNL     1     -24.952  21.032   8.895  1.00  0.00     0.102 C 
HETATM    3  O1  UNL     1     -24.680  20.513   7.677  1.00  0.00    -0.303 OA
HETATM    4  S1  UNL     1     -25.288  21.622   6.485  1.00  0.00     0.028 SA
HETATM    5  C3  UNL     1     -26.182  22.848   7.527  1.00  0.00     0.136 C 
HETATM    6  C6  UNL     1     -25.135  23.488   8.378  1.00  0.00     0.059 C 
HETATM    7  C7  UNL     1     -24.380  22.423   9.144  1.00  0.00     0.027 C 
HETATM    8  C8  UNL     1     -24.837  22.567  10.607  1.00  0.00     0.010 C 
HETATM    9  C9  UNL     1     -26.251  22.035  10.560  1.00  0.00     0.035 C 
HETATM   10  C10 UNL     1     -26.387  21.290   9.223  1.00  0.00     0.159 C 
HETATM   11  O2  UNL     1     -27.046  22.098   8.317  1.00  0.00    -0.359 OA
ENDROOT
BRANCH   5  12
HETATM   12  C4  UNL     1     -26.904  23.760   6.620  1.00  0.00     0.079 C 
BRANCH  12  13
HETATM   13  C5  UNL     1     -28.141  23.195   6.003  1.00  0.00     0.233 C 
BRANCH  13  14
HETATM   14  N1  UNL     1     -29.229  23.359   6.974  1.00  0.00    -0.079 N 
ATOM     15  H13 UNL     1     -28.989  23.990   7.738  1.00  0.00     0.274 HD
ATOM     16  H12 UNL     1     -30.016  23.893   6.604  1.00  0.00     0.274 HD
ATOM     17  H11 UNL     1     -29.495  22.428   7.294  1.00  0.00     0.274 HD
ENDBRANCH  13  14
ENDBRANCH  12  13
ENDBRANCH   5  12
TORSDOF 3
ENDMDL
MODEL 2
REMARK VINA RESULT: -4.874216361      2.622      5.432
REMARK  3 active torsions:
REMARK  status: ('A' for Active; 'I' for Inactive)
REMARK    1  A    between atoms: C3_5  and  C4_6 
REMARK    2  A    between atoms: C4_6  and  C5_7 
REMARK    3  A    between atoms: C5_7  and  N1_8 
ROOT
HETATM    1  C1  UNL     1     -29.572  24.620   3.312  1.00  0.00     0.050 C 
HETATM    2  C2  UNL     1     -28.474  24.405   4.326  1.00  0.00     0.102 C 
HETATM    3  O1  UNL     1     -27.729  25.528   4.423  1.00  0.00    -0.303 OA
HETATM    4  S1  UNL     1     -26.431  25.206   5.533  1.00  0.00     0.028 SA
HETATM    5  C3  UNL     1     -26.878  23.535   6.164  1.00  0.00     0.136 C 
HETATM    6  C6  UNL     1     -26.814  22.630   4.979  1.00  0.00     0.059 C 
HETATM    7  C7  UNL     1     -27.709  23.162   3.881  1.00  0.00     0.027 C 
HETATM    8  C8  UNL     1     -28.909  22.200   3.827  1.00  0.00     0.010 C 
HETATM    9  C9  UNL     1     -29.659  22.542   5.094  1.00  0.00     0.035 C 
HETATM   10  C10 UNL     1     -29.089  23.883   5.584  1.00  0.00     0.159 C 
HETATM   11  O2  UNL     1     -28.191  23.649   6.607  1.00  0.00    -0.359 OA
ENDROOT
BRANCH   5  12
HETATM   12  C4  UNL     1     -25.946  23.210   7.260  1.00  0.00     0.079 C 
BRANCH  12  13
HETATM   13  C5  UNL     1     -26.285  21.983   8.040  1.00  0.00     0.233 C 
BRANCH  13  14
HETATM   14  N1  UNL     1     -27.050  22.409   9.217  1.00  0.00    -0.079 N 
ATOM     15  H13 UNL     1     -27.509  23.310   9.088  1.00  0.00     0.274 HD
ATOM     16  H12 UNL     1     -27.892  21.852   9.368  1.00  0.00     0.274 HD
ATOM     17  H11 UNL     1     -26.415  22.396  10.015  1.00  0.00     0.274 HD
ENDBRANCH  13  14
ENDBRANCH  12  13
ENDBRANCH   5  12
TORSDOF 3
ENDMDL
MODEL 3
REMARK VINA RESULT: -4.781972504      8.916     10.071
REMARK  3 active torsions:
REMARK  status: ('A' for Active; 'I' for Inactive)
REMARK    1  A    between atoms: C3_5  and  C4_6 
REMARK    2  A    between atoms: C4_6  and  C5_7 
REMARK    3  A    between atoms: C5_7  and  N1_8 
ROOT
HETATM    1  C1  UNL     1     -21.055  26.145   0.445  1.00  0.00     0.050 C 
HETATM    2  C2  UNL     1     -20.756  24.669   0.334  1.00  0.00     0.102 C 
HETATM    3  O1  UNL     1     -19.748  24.482  -0.545  1.00  0.00    -0.303 OA
HETATM    4  S1  UNL     1     -19.498  22.770  -0.704  1.00  0.00     0.028 SA
HETATM    5  C3  UNL     1     -20.624  22.100   0.589  1.00  0.00     0.136 C 
HETATM    6  C6  UNL     1     -22.000  22.488   0.160  1.00  0.00     0.059 C 
HETATM    7  C7  UNL     1     -22.069  23.987  -0.037  1.00  0.00     0.027 C 
HETATM    8  C8  UNL     1     -22.909  24.519   1.138  1.00  0.00     0.010 C 
HETATM    9  C9  UNL     1     -21.968  24.359   2.310  1.00  0.00     0.035 C 
HETATM   10  C10 UNL     1     -20.572  24.120   1.712  1.00  0.00     0.159 C 
HETATM   11  O2  UNL     1     -20.281  22.771   1.758  1.00  0.00    -0.359 OA
ENDROOT
BRANCH   5  12
HETATM   12  C4  UNL     1     -20.377  20.649   0.686  1.00  0.00     0.079 C 
BRANCH  12  13
HETATM   13  C5  UNL     1     -19.082  20.265   1.322  1.00  0.00     0.233 C 
BRANCH  13  14
HETATM   14  N1  UNL     1     -19.004  18.800   1.308  1.00  0.00    -0.079 N 
ATOM     15  H13 UNL     1     -19.081  18.406   0.371  1.00  0.00     0.274 HD
ATOM     16  H12 UNL     1     -18.071  18.448   1.524  1.00  0.00     0.274 HD
ATOM     17  H11 UNL     1     -19.719  18.451   1.947  1.00  0.00     0.274 HD
ENDBRANCH  13  14
ENDBRANCH  12  13
ENDBRANCH   5  12
TORSDOF 3
ENDMDL
MODEL 4
REMARK VINA RESULT: -4.708549470      5.359      6.515
REMARK  3 active torsions:
REMARK  status: ('A' for Active; 'I' for Inactive)
REMARK    1  A    between atoms: C3_5  and  C4_6 
REMARK    2  A    between atoms: C4_6  and  C5_7 
REMARK    3  A    between atoms: C5_7  and  N1_8 
ROOT
HETATM    1  C1  UNL     1     -28.650  22.066   0.935  1.00  0.00     0.050 C 
HETATM    2  C2  UNL     1     -29.132  22.590   2.266  1.00  0.00     0.102 C 
HETATM    3  O1  UNL     1     -30.236  23.345   2.076  1.00  0.00    -0.303 OA
HETATM    4  S1  UNL     1     -30.704  23.995   3.618  1.00  0.00     0.028 SA
HETATM    5  C3  UNL     1     -29.546  23.132   4.760  1.00  0.00     0.136 C 
HETATM    6  C6  UNL     1     -28.182  23.594   4.369  1.00  0.00     0.059 C 
HETATM    7  C7  UNL     1     -27.953  23.323   2.898  1.00  0.00     0.027 C 
HETATM    8  C8  UNL     1     -26.945  22.161   2.845  1.00  0.00     0.010 C 
HETATM    9  C9  UNL     1     -27.781  20.984   3.297  1.00  0.00     0.035 C 
HETATM   10  C10 UNL     1     -29.247  21.440   3.213  1.00  0.00     0.159 C 
HETATM   11  O2  UNL     1     -29.691  21.779   4.476  1.00  0.00    -0.359 OA
ENDROOT
BRANCH   5  12
HETATM   12  C4  UNL     1     -29.955  23.460   6.139  1.00  0.00     0.079 C 
BRANCH  12  13
HETATM   13  C5  UNL     1     -31.426  23.606   6.349  1.00  0.00     0.233 C 
BRANCH  13  14
HETATM   14  N1  UNL     1     -31.950  22.285   6.713  1.00  0.00    -0.079 N 
ATOM     15  H13 UNL     1     -31.705  21.560   6.039  1.00  0.00     0.274 HD
ATOM     16  H12 UNL     1     -31.478  21.878   7.522  1.00  0.00     0.274 HD
ATOM     17  H11 UNL     1     -32.956  22.382   6.846  1.00  0.00     0.274 HD
ENDBRANCH  13  14
ENDBRANCH  12  13
ENDBRANCH   5  12
TORSDOF 3
ENDMDL
MODEL 5
REMARK VINA RESULT: -4.687433068      3.182      5.063
REMARK  3 active torsions:
REMARK  status: ('A' for Active; 'I' for Inactive)
REMARK    1  A    between atoms: C3_5  and  C4_6 
REMARK    2  A    between atoms: C4_6  and  C5_7 
REMARK    3  A    between atoms: C5_7  and  N1_8 
ROOT
HETATM    1  C1  UNL     1     -25.924  23.384   2.156  1.00  0.00     0.050 C 
HETATM    2  C2  UNL     1     -26.254  23.488   3.626  1.00  0.00     0.102 C 
HETATM    3  O1  UNL     1     -26.315  24.791   3.979  1.00  0.00    -0.303 OA
HETATM    4  S1  UNL     1     -26.611  24.861   5.690  1.00  0.00     0.028 SA
HETATM    5  C3  UNL     1     -26.895  23.089   6.098  1.00  0.00     0.136 C 
HETATM    6  C6  UNL     1     -25.606  22.398   5.799  1.00  0.00     0.059 C 
HETATM    7  C7  UNL     1     -25.201  22.669   4.366  1.00  0.00     0.027 C 
HETATM    8  C8  UNL     1     -25.420  21.342   3.619  1.00  0.00     0.010 C 
HETATM    9  C9  UNL     1     -26.927  21.250   3.551  1.00  0.00     0.035 C 
HETATM   10  C10 UNL     1     -27.460  22.649   3.900  1.00  0.00     0.159 C 
HETATM   11  O2  UNL     1     -27.880  22.661   5.215  1.00  0.00    -0.359 OA
ENDROOT
BRANCH   5  12
HETATM   12  C4  UNL     1     -27.337  23.021   7.504  1.00  0.00     0.079 C 
BRANCH  12  13
HETATM   13  C5  UNL     1     -26.409  22.307   8.429  1.00  0.00     0.233 C 
BRANCH  13  14
HETATM   14  N1  UNL     1     -27.027  22.310   9.760  1.00  0.00    -0.079 N 
ATOM     15  H13 UNL     1     -27.327  21.383  10.061  1.00  0.00     0.274 HD
ATOM     16  H12 UNL     1     -26.358  22.484  10.510  1.00  0.00     0.274 HD
ATOM     17  H11 UNL     1     -27.789  22.988   9.740  1.00  0.00     0.274 HD
ENDBRANCH  13  14
ENDBRANCH  12  13
ENDBRANCH   5  12
TORSDOF 3
ENDMDL
