MODEL 1
REMARK VINA RESULT: -6.451683014      0.000      0.000
REMARK  2 active torsions:
REMARK  status: ('A' for Active; 'I' for Inactive)
REMARK    1  A    between atoms: O1_2  and  C2_3 
REMARK    2  A    between atoms: C10_11  and  O2_13 
ROOT
HETATM    1  C2  UNL     1     -26.328  23.172   5.420  1.00  0.00     0.319 C 
HETATM    2  C3  UNL     1     -27.022  23.308   6.755  1.00  0.00     0.032 C 
HETATM    3  C4  UNL     1     -26.527  22.821   7.890  1.00  0.00    -0.016 C 
HETATM    4  C5  UNL     1     -25.263  22.074   8.145  1.00  0.00     0.074 C 
HETATM    5  C6  UNL     1     -25.207  20.929   7.179  1.00  0.00     0.171 C 
HETATM    6  C7  UNL     1     -24.098  19.966   7.442  1.00  0.00     0.036 C 
HETATM    7  C8  UNL     1     -23.827  19.693   8.876  1.00  0.00     0.006 C 
HETATM    8  C9  UNL     1     -23.902  20.886   9.774  1.00  0.00     0.038 C 
HETATM    9  C10 UNL     1     -25.188  21.667   9.583  1.00  0.00     0.063 C 
HETATM   10  C11 UNL     1     -26.352  20.861  10.052  1.00  0.00     0.046 C 
HETATM   11  O3  UNL     1     -24.992  21.468   5.898  1.00  0.00    -0.232 OA
HETATM   12  O4  UNL     1     -26.102  21.781   5.294  1.00  0.00    -0.203 OA
ENDROOT
BRANCH   9  13
HETATM   13  O2  UNL     1     -25.066  22.834  10.345  1.00  0.00    -0.389 OA
ATOM     14  H2  UNL     1     -24.281  22.750  10.873  1.00  0.00     0.210 HD
ENDBRANCH   9  13
BRANCH   1  15
HETATM   15  O1  UNL     1     -25.079  23.753   5.580  1.00  0.00    -0.360 OA
HETATM   16  C1  UNL     1     -24.718  24.555   4.514  1.00  0.00     0.205 C 
ENDBRANCH   1  15
TORSDOF 2
ENDMDL
MODEL 2
REMARK VINA RESULT: -6.340447299      2.992      4.799
REMARK  2 active torsions:
REMARK  status: ('A' for Active; 'I' for Inactive)
REMARK    1  A    between atoms: O1_2  and  C2_3 
REMARK    2  A    between atoms: C10_11  and  O2_13 
ROOT
HETATM    1  C2  UNL     1     -25.521  21.615   3.631  1.00  0.00     0.319 C 
HETATM    2  C3  UNL     1     -24.477  20.823   2.880  1.00  0.00     0.032 C 
HETATM    3  C4  UNL     1     -23.885  19.739   3.376  1.00  0.00    -0.016 C 
HETATM    4  C5  UNL     1     -24.066  19.061   4.689  1.00  0.00     0.074 C 
HETATM    5  C6  UNL     1     -23.926  20.099   5.762  1.00  0.00     0.171 C 
HETATM    6  C7  UNL     1     -23.880  19.541   7.145  1.00  0.00     0.036 C 
HETATM    7  C8  UNL     1     -23.121  18.273   7.289  1.00  0.00     0.006 C 
HETATM    8  C9  UNL     1     -23.314  17.290   6.179  1.00  0.00     0.038 C 
HETATM    9  C10 UNL     1     -23.106  17.918   4.814  1.00  0.00     0.063 C 
HETATM   10  C11 UNL     1     -21.676  18.299   4.638  1.00  0.00     0.046 C 
HETATM   11  O3  UNL     1     -25.056  20.934   5.690  1.00  0.00    -0.232 OA
HETATM   12  O4  UNL     1     -24.893  21.925   4.861  1.00  0.00    -0.203 OA
ENDROOT
BRANCH   9  13
HETATM   13  O2  UNL     1     -23.474  16.955   3.868  1.00  0.00    -0.389 OA
ATOM     14  H2  UNL     1     -23.717  16.168   4.342  1.00  0.00     0.210 HD
ENDBRANCH   9  13
BRANCH   1  15
HETATM   15  O1  UNL     1     -26.536  20.720   3.931  1.00  0.00    -0.360 OA
HETATM   16  C1  UNL     1     -27.764  21.112   3.435  1.00  0.00     0.205 C 
ENDBRANCH   1  15
TORSDOF 2
ENDMDL
MODEL 3
REMARK VINA RESULT: -5.616990608      1.540      4.742
REMARK  2 active torsions:
REMARK  status: ('A' for Active; 'I' for Inactive)
REMARK    1  A    between atoms: O1_2  and  C2_3 
REMARK    2  A    between atoms: C10_11  and  O2_13 
ROOT
HETATM    1  C2  UNL     1     -25.288  21.386   9.319  1.00  0.00     0.319 C 
HETATM    2  C3  UNL     1     -24.779  20.702   8.072  1.00  0.00     0.032 C 
HETATM    3  C4  UNL     1     -24.955  21.190   6.847  1.00  0.00    -0.016 C 
HETATM    4  C5  UNL     1     -25.638  22.435   6.397  1.00  0.00     0.074 C 
HETATM    5  C6  UNL     1     -27.002  22.457   7.018  1.00  0.00     0.171 C 
HETATM    6  C7  UNL     1     -27.887  23.542   6.501  1.00  0.00     0.036 C 
HETATM    7  C8  UNL     1     -27.770  23.812   5.046  1.00  0.00     0.006 C 
HETATM    8  C9  UNL     1     -26.378  23.772   4.504  1.00  0.00     0.038 C 
HETATM    9  C10 UNL     1     -25.644  22.506   4.901  1.00  0.00     0.063 C 
HETATM   10  C11 UNL     1     -26.263  21.325   4.236  1.00  0.00     0.046 C 
HETATM   11  O3  UNL     1     -26.835  22.680   8.396  1.00  0.00    -0.232 OA
HETATM   12  O4  UNL     1     -26.667  21.576   9.065  1.00  0.00    -0.203 OA
ENDROOT
BRANCH   9  13
HETATM   13  O2  UNL     1     -24.318  22.662   4.483  1.00  0.00    -0.389 OA
ATOM     14  H2  UNL     1     -24.153  22.013   3.808  1.00  0.00     0.210 HD
ENDBRANCH   9  13
BRANCH   1  15
HETATM   15  O1  UNL     1     -24.718  22.650   9.319  1.00  0.00    -0.360 OA
HETATM   16  C1  UNL     1     -24.066  22.947  10.500  1.00  0.00     0.205 C 
ENDBRANCH   1  15
TORSDOF 2
ENDMDL
MODEL 4
REMARK VINA RESULT: -5.586948524      4.066      6.158
REMARK  2 active torsions:
REMARK  status: ('A' for Active; 'I' for Inactive)
REMARK    1  A    between atoms: O1_2  and  C2_3 
REMARK    2  A    between atoms: C10_11  and  O2_13 
ROOT
HETATM    1  C2  UNL     1     -31.022  24.216   5.689  1.00  0.00     0.319 C 
HETATM    2  C3  UNL     1     -31.090  23.807   4.237  1.00  0.00     0.032 C 
HETATM    3  C4  UNL     1     -30.196  23.011   3.658  1.00  0.00    -0.016 C 
HETATM    4  C5  UNL     1     -28.984  22.354   4.225  1.00  0.00     0.074 C 
HETATM    5  C6  UNL     1     -28.171  23.410   4.910  1.00  0.00     0.171 C 
HETATM    6  C7  UNL     1     -26.824  22.946   5.354  1.00  0.00     0.036 C 
HETATM    7  C8  UNL     1     -26.135  22.022   4.419  1.00  0.00     0.006 C 
HETATM    8  C9  UNL     1     -27.015  20.999   3.777  1.00  0.00     0.038 C 
HETATM    9  C10 UNL     1     -28.249  21.616   3.149  1.00  0.00     0.063 C 
HETATM   10  C11 UNL     1     -27.864  22.460   1.982  1.00  0.00     0.046 C 
HETATM   11  O3  UNL     1     -28.875  23.802   6.063  1.00  0.00    -0.232 OA
HETATM   12  O4  UNL     1     -29.724  24.762   5.829  1.00  0.00    -0.203 OA
ENDROOT
BRANCH   9  13
HETATM   13  O2  UNL     1     -29.063  20.555   2.735  1.00  0.00    -0.389 OA
ATOM     14  H2  UNL     1     -29.839  20.560   3.283  1.00  0.00     0.210 HD
ENDBRANCH   9  13
BRANCH   1  15
HETATM   15  O1  UNL     1     -31.024  23.035   6.417  1.00  0.00    -0.360 OA
HETATM   16  C1  UNL     1     -32.283  22.479   6.538  1.00  0.00     0.205 C 
ENDBRANCH   1  15
TORSDOF 2
ENDMDL
MODEL 5
REMARK VINA RESULT: -5.506010540      4.076      5.022
REMARK  2 active torsions:
REMARK  status: ('A' for Active; 'I' for Inactive)
REMARK    1  A    between atoms: O1_2  and  C2_3 
REMARK    2  A    between atoms: C10_11  and  O2_13 
ROOT
HETATM    1  C2  UNL     1     -25.134  21.687   2.975  1.00  0.00     0.319 C 
HETATM    2  C3  UNL     1     -25.580  20.684   4.012  1.00  0.00     0.032 C 
HETATM    3  C4  UNL     1     -24.773  19.765   4.535  1.00  0.00    -0.016 C 
HETATM    4  C5  UNL     1     -23.333  19.489   4.273  1.00  0.00     0.074 C 
HETATM    5  C6  UNL     1     -23.157  19.355   2.790  1.00  0.00     0.171 C 
HETATM    6  C7  UNL     1     -21.804  18.876   2.380  1.00  0.00     0.036 C 
HETATM    7  C8  UNL     1     -21.211  17.835   3.257  1.00  0.00     0.006 C 
HETATM    8  C9  UNL     1     -21.431  18.040   4.722  1.00  0.00     0.038 C 
HETATM    9  C10 UNL     1     -22.889  18.290   5.053  1.00  0.00     0.063 C 
HETATM   10  C11 UNL     1     -23.691  17.061   4.795  1.00  0.00     0.046 C 
HETATM   11  O3  UNL     1     -23.332  20.632   2.228  1.00  0.00    -0.232 OA
HETATM   12  O4  UNL     1     -24.577  20.889   1.947  1.00  0.00    -0.203 OA
ENDROOT
BRANCH   9  13
HETATM   13  O2  UNL     1     -22.940  18.630   6.410  1.00  0.00    -0.389 OA
ATOM     14  H2  UNL     1     -22.091  18.984   6.648  1.00  0.00     0.210 HD
ENDBRANCH   9  13
BRANCH   1  15
HETATM   15  O1  UNL     1     -24.075  22.378   3.544  1.00  0.00    -0.360 OA
HETATM   16  C1  UNL     1     -24.400  23.677   3.882  1.00  0.00     0.205 C 
ENDBRANCH   1  15
TORSDOF 2
ENDMDL
