MODEL 1
REMARK VINA RESULT: -7.375108115      0.000      0.000
REMARK  4 active torsions:
REMARK  status: ('A' for Active; 'I' for Inactive)
REMARK    1  A    between atoms: C2_3  and  S1_4 
REMARK    2  A    between atoms: S1_4  and  C3_5 
REMARK    3  A    between atoms: C5_8  and  C6_9 
REMARK    4  A    between atoms: C10_13  and  N2_14 
ROOT
HETATM    1  N1  UNL     1     -30.482  22.538   5.467  1.00  0.00    -0.197 NA
HETATM    2  C1  UNL     1     -29.522  22.754   4.856  1.00  0.00     0.069 C 
HETATM    3  C2  UNL     1     -28.294  23.026   4.096  1.00  0.00     0.204 C 
ENDROOT
BRANCH   3   4
HETATM    4  S1  UNL     1     -28.042  21.686   2.943  1.00  0.00    -0.098 SA
BRANCH   4   5
HETATM    5  C3  UNL     1     -26.268  21.286   2.876  1.00  0.00     0.077 A 
HETATM    6  C4  UNL     1     -25.500  21.511   1.763  1.00  0.00     0.088 A 
HETATM    7  S2  UNL     1     -23.973  20.954   2.280  1.00  0.00    -0.085 SA
HETATM    8  C5  UNL     1     -24.398  20.474   3.860  1.00  0.00     0.055 A 
HETATM    9  N3  UNL     1     -25.680  20.763   3.914  1.00  0.00    -0.348 N 
ATOM     10  H3  UNL     1     -26.211  20.578   4.765  1.00  0.00     0.167 HD
BRANCH   8  11
HETATM   11  C6  UNL     1     -23.511  19.874   4.913  1.00  0.00     0.043 C 
HETATM   12  C7  UNL     1     -23.719  20.520   6.238  1.00  0.00     0.011 C 
HETATM   13  C8  UNL     1     -23.794  19.575   7.397  1.00  0.00     0.003 C 
HETATM   14  C9  UNL     1     -22.467  18.934   7.726  1.00  0.00     0.033 C 
HETATM   15  C10 UNL     1     -21.723  18.451   6.519  1.00  0.00     0.183 C 
HETATM   16  C11 UNL     1     -22.560  17.646   5.579  1.00  0.00     0.033 C 
HETATM   17  C12 UNL     1     -23.710  18.378   4.979  1.00  0.00     0.013 C 
BRANCH  15  18
HETATM   18  N2  UNL     1     -20.645  17.582   6.993  1.00  0.00    -0.075 N 
ATOM     19  H23 UNL     1     -20.984  16.767   7.504  1.00  0.00     0.274 HD
ATOM     20  H22 UNL     1     -20.176  17.080   6.239  1.00  0.00     0.274 HD
ATOM     21  H21 UNL     1     -20.009  18.162   7.542  1.00  0.00     0.274 HD
ENDBRANCH  15  18
ENDBRANCH   8  11
ENDBRANCH   4   5
ENDBRANCH   3   4
TORSDOF 4
ENDMDL
MODEL 2
REMARK VINA RESULT: -7.260305075      1.805      2.144
REMARK  4 active torsions:
REMARK  status: ('A' for Active; 'I' for Inactive)
REMARK    1  A    between atoms: C2_3  and  S1_4 
REMARK    2  A    between atoms: S1_4  and  C3_5 
REMARK    3  A    between atoms: C5_8  and  C6_9 
REMARK    4  A    between atoms: C10_13  and  N2_14 
ROOT
HETATM    1  N1  UNL     1     -28.648  21.958  -1.009  1.00  0.00    -0.197 NA
HETATM    2  C1  UNL     1     -28.488  22.412   0.044  1.00  0.00     0.069 C 
HETATM    3  C2  UNL     1     -28.304  22.993   1.381  1.00  0.00     0.204 C 
ENDROOT
BRANCH   3   4
HETATM    4  S1  UNL     1     -27.996  21.662   2.532  1.00  0.00    -0.098 SA
BRANCH   4   5
HETATM    5  C3  UNL     1     -26.211  21.311   2.571  1.00  0.00     0.077 A 
HETATM    6  C4  UNL     1     -25.384  21.565   1.507  1.00  0.00     0.088 A 
HETATM    7  S2  UNL     1     -23.876  21.046   2.113  1.00  0.00    -0.085 SA
HETATM    8  C5  UNL     1     -24.382  20.544   3.662  1.00  0.00     0.055 A 
HETATM    9  N3  UNL     1     -25.673  20.797   3.640  1.00  0.00    -0.348 N 
ATOM     10  H3  UNL     1     -26.249  20.592   4.456  1.00  0.00     0.167 HD
BRANCH   8  11
HETATM   11  C6  UNL     1     -23.545  19.961   4.764  1.00  0.00     0.043 C 
HETATM   12  C7  UNL     1     -23.836  20.606   6.074  1.00  0.00     0.011 C 
HETATM   13  C8  UNL     1     -23.958  19.662   7.229  1.00  0.00     0.003 C 
HETATM   14  C9  UNL     1     -22.641  19.045   7.633  1.00  0.00     0.033 C 
HETATM   15  C10 UNL     1     -21.824  18.573   6.469  1.00  0.00     0.183 C 
HETATM   16  C11 UNL     1     -22.594  17.751   5.488  1.00  0.00     0.033 C 
HETATM   17  C12 UNL     1     -23.721  18.463   4.824  1.00  0.00     0.013 C 
BRANCH  15  18
HETATM   18  N2  UNL     1     -20.758  17.723   7.004  1.00  0.00    -0.075 N 
ATOM     19  H23 UNL     1     -20.741  17.699   8.024  1.00  0.00     0.274 HD
ATOM     20  H22 UNL     1     -20.926  16.729   6.852  1.00  0.00     0.274 HD
ATOM     21  H21 UNL     1     -19.880  18.047   6.598  1.00  0.00     0.274 HD
ENDBRANCH  15  18
ENDBRANCH   8  11
ENDBRANCH   4   5
ENDBRANCH   3   4
TORSDOF 4
ENDMDL
MODEL 3
REMARK VINA RESULT: -7.249686579      0.964      1.048
REMARK  4 active torsions:
REMARK  status: ('A' for Active; 'I' for Inactive)
REMARK    1  A    between atoms: C2_3  and  S1_4 
REMARK    2  A    between atoms: S1_4  and  C3_5 
REMARK    3  A    between atoms: C5_8  and  C6_9 
REMARK    4  A    between atoms: C10_13  and  N2_14 
ROOT
HETATM    1  N1  UNL     1     -29.431  22.328   4.663  1.00  0.00    -0.197 NA
HETATM    2  C1  UNL     1     -28.966  21.808   3.739  1.00  0.00     0.069 C 
HETATM    3  C2  UNL     1     -28.393  21.149   2.557  1.00  0.00     0.204 C 
ENDROOT
BRANCH   3   4
HETATM    4  S1  UNL     1     -27.162  22.235   1.853  1.00  0.00    -0.098 SA
BRANCH   4   5
HETATM    5  C3  UNL     1     -25.521  21.471   2.036  1.00  0.00     0.077 A 
HETATM    6  C4  UNL     1     -24.632  21.370   0.997  1.00  0.00     0.088 A 
HETATM    7  S2  UNL     1     -23.314  20.588   1.746  1.00  0.00    -0.085 SA
HETATM    8  C5  UNL     1     -23.965  20.439   3.315  1.00  0.00     0.055 A 
HETATM    9  N3  UNL     1     -25.152  20.991   3.190  1.00  0.00    -0.348 N 
ATOM     10  H3  UNL     1     -25.780  21.045   3.991  1.00  0.00     0.167 HD
BRANCH   8  11
HETATM   11  C6  UNL     1     -23.324  19.825   4.527  1.00  0.00     0.043 C 
HETATM   12  C7  UNL     1     -23.639  20.593   5.763  1.00  0.00     0.011 C 
HETATM   13  C8  UNL     1     -24.000  19.757   6.951  1.00  0.00     0.003 C 
HETATM   14  C9  UNL     1     -22.827  18.995   7.519  1.00  0.00     0.033 C 
HETATM   15  C10 UNL     1     -21.982  18.336   6.472  1.00  0.00     0.183 C 
HETATM   16  C11 UNL     1     -22.768  17.562   5.465  1.00  0.00     0.033 C 
HETATM   17  C12 UNL     1     -23.717  18.372   4.652  1.00  0.00     0.013 C 
BRANCH  15  18
HETATM   18  N2  UNL     1     -21.102  17.389   7.158  1.00  0.00    -0.075 N 
ATOM     19  H23 UNL     1     -20.158  17.749   7.297  1.00  0.00     0.274 HD
ATOM     20  H22 UNL     1     -21.341  17.262   8.141  1.00  0.00     0.274 HD
ATOM     21  H21 UNL     1     -21.123  16.518   6.627  1.00  0.00     0.274 HD
ENDBRANCH  15  18
ENDBRANCH   8  11
ENDBRANCH   4   5
ENDBRANCH   3   4
TORSDOF 4
ENDMDL
MODEL 4
REMARK VINA RESULT: -7.159584833      1.130      1.227
REMARK  4 active torsions:
REMARK  status: ('A' for Active; 'I' for Inactive)
REMARK    1  A    between atoms: C2_3  and  S1_4 
REMARK    2  A    between atoms: S1_4  and  C3_5 
REMARK    3  A    between atoms: C5_8  and  C6_9 
REMARK    4  A    between atoms: C10_13  and  N2_14 
ROOT
HETATM    1  N1  UNL     1     -27.003  25.068   4.508  1.00  0.00    -0.197 NA
HETATM    2  C1  UNL     1     -27.570  24.058   4.505  1.00  0.00     0.069 C 
HETATM    3  C2  UNL     1     -28.306  22.787   4.504  1.00  0.00     0.204 C 
ENDROOT
BRANCH   3   4
HETATM    4  S1  UNL     1     -28.028  21.982   2.933  1.00  0.00    -0.098 SA
BRANCH   4   5
HETATM    5  C3  UNL     1     -26.289  21.456   2.835  1.00  0.00     0.077 A 
HETATM    6  C4  UNL     1     -25.544  21.577   1.691  1.00  0.00     0.088 A 
HETATM    7  S2  UNL     1     -24.042  20.938   2.189  1.00  0.00    -0.085 SA
HETATM    8  C5  UNL     1     -24.449  20.560   3.802  1.00  0.00     0.055 A 
HETATM    9  N3  UNL     1     -25.706  20.940   3.879  1.00  0.00    -0.348 N 
ATOM     10  H3  UNL     1     -26.221  20.831   4.753  1.00  0.00     0.167 HD
BRANCH   8  11
HETATM   11  C6  UNL     1     -23.573  19.947   4.856  1.00  0.00     0.043 C 
HETATM   12  C7  UNL     1     -23.793  20.577   6.187  1.00  0.00     0.011 C 
HETATM   13  C8  UNL     1     -23.880  19.618   7.333  1.00  0.00     0.003 C 
HETATM   14  C9  UNL     1     -22.557  18.973   7.668  1.00  0.00     0.033 C 
HETATM   15  C10 UNL     1     -21.801  18.504   6.462  1.00  0.00     0.183 C 
HETATM   16  C11 UNL     1     -22.629  17.711   5.505  1.00  0.00     0.033 C 
HETATM   17  C12 UNL     1     -23.773  18.451   4.903  1.00  0.00     0.013 C 
BRANCH  15  18
HETATM   18  N2  UNL     1     -20.728  17.629   6.936  1.00  0.00    -0.075 N 
ATOM     19  H23 UNL     1     -20.166  17.240   6.178  1.00  0.00     0.274 HD
ATOM     20  H22 UNL     1     -19.979  18.135   7.409  1.00  0.00     0.274 HD
ATOM     21  H21 UNL     1     -21.158  16.913   7.522  1.00  0.00     0.274 HD
ENDBRANCH  15  18
ENDBRANCH   8  11
ENDBRANCH   4   5
ENDBRANCH   3   4
TORSDOF 4
ENDMDL
MODEL 5
REMARK VINA RESULT: -7.013663783      2.491      3.201
REMARK  4 active torsions:
REMARK  status: ('A' for Active; 'I' for Inactive)
REMARK    1  A    between atoms: C2_3  and  S1_4 
REMARK    2  A    between atoms: S1_4  and  C3_5 
REMARK    3  A    between atoms: C5_8  and  C6_9 
REMARK    4  A    between atoms: C10_13  and  N2_14 
ROOT
HETATM    1  N1  UNL     1     -27.679  21.622  -1.560  1.00  0.00    -0.197 NA
HETATM    2  C1  UNL     1     -26.685  22.121  -1.235  1.00  0.00     0.069 C 
HETATM    3  C2  UNL     1     -25.434  22.764  -0.810  1.00  0.00     0.204 C 
ENDROOT
BRANCH   3   4
HETATM    4  S1  UNL     1     -24.365  21.508  -0.124  1.00  0.00    -0.098 SA
BRANCH   4   5
HETATM    5  C3  UNL     1     -24.799  21.249   1.624  1.00  0.00     0.077 A 
HETATM    6  C4  UNL     1     -26.006  21.629   2.151  1.00  0.00     0.088 A 
HETATM    7  S2  UNL     1     -25.838  21.146   3.778  1.00  0.00    -0.085 SA
HETATM    8  C5  UNL     1     -24.263  20.498   3.691  1.00  0.00     0.055 A 
HETATM    9  N3  UNL     1     -23.945  20.682   2.428  1.00  0.00    -0.348 N 
ATOM     10  H3  UNL     1     -23.034  20.382   2.080  1.00  0.00     0.167 HD
BRANCH   8  11
HETATM   11  C6  UNL     1     -23.458  19.876   4.795  1.00  0.00     0.043 C 
HETATM   12  C7  UNL     1     -23.722  20.533   6.105  1.00  0.00     0.011 C 
HETATM   13  C8  UNL     1     -23.893  19.596   7.259  1.00  0.00     0.003 C 
HETATM   14  C9  UNL     1     -22.609  18.916   7.667  1.00  0.00     0.033 C 
HETATM   15  C10 UNL     1     -21.811  18.406   6.506  1.00  0.00     0.183 C 
HETATM   16  C11 UNL     1     -22.617  17.623   5.521  1.00  0.00     0.033 C 
HETATM   17  C12 UNL     1     -23.707  18.387   4.854  1.00  0.00     0.013 C 
BRANCH  15  18
HETATM   18  N2  UNL     1     -20.789  17.506   7.044  1.00  0.00    -0.075 N 
ATOM     19  H23 UNL     1     -21.131  16.927   7.811  1.00  0.00     0.274 HD
ATOM     20  H22 UNL     1     -20.548  16.749   6.405  1.00  0.00     0.274 HD
ATOM     21  H21 UNL     1     -19.987  18.080   7.304  1.00  0.00     0.274 HD
ENDBRANCH  15  18
ENDBRANCH   8  11
ENDBRANCH   4   5
ENDBRANCH   3   4
TORSDOF 4
ENDMDL
