MODEL 1
REMARK VINA RESULT: -9.593780502      0.000      0.000
REMARK  4 active torsions:
REMARK  status: ('A' for Active; 'I' for Inactive)
REMARK    1  A    between atoms: N1_1  and  C1_4 
REMARK    2  A    between atoms: C2_10  and  C3_11 
REMARK    3  A    between atoms: C4_14  and  C5_15 
REMARK    4  A    between atoms: C11_21  and  C12_22 
ROOT
HETATM    1  C3  UNL     1     -21.955  20.121   2.702  1.00  0.00     0.139 A 
HETATM    2  N4  UNL     1     -22.287  19.451   3.816  1.00  0.00    -0.344 N 
ATOM      3  H4  UNL     1     -21.591  18.822   4.217  1.00  0.00     0.167 HD
HETATM    4  C4  UNL     1     -23.472  19.553   4.439  1.00  0.00     0.017 A 
HETATM    5  C10 UNL     1     -24.396  20.405   3.881  1.00  0.00     0.050 A 
HETATM    6  C11 UNL     1     -24.115  21.123   2.737  1.00  0.00     0.017 A 
HETATM    7  N5  UNL     1     -22.898  20.953   2.188  1.00  0.00    -0.344 N 
ATOM      8  H5  UNL     1     -22.673  21.475   1.341  1.00  0.00     0.167 HD
ENDROOT
BRANCH   1   9
HETATM    9  C2  UNL     1     -20.651  19.961   2.083  1.00  0.00     0.145 A 
HETATM   10  C1  UNL     1     -20.147  18.914   1.355  1.00  0.00     0.154 A 
HETATM   11  N2  UNL     1     -18.873  19.238   0.988  1.00  0.00    -0.224 N 
HETATM   12  O1  UNL     1     -18.643  20.419   1.476  1.00  0.00    -0.155 OA
ATOM     13  H2  UNL     1     -18.230  18.667   0.439  1.00  0.00     0.198 HD
HETATM   14  N3  UNL     1     -19.675  20.876   2.131  1.00  0.00    -0.234 N 
ATOM     15  H3  UNL     1     -19.729  21.780   2.601  1.00  0.00     0.197 HD
BRANCH  10  16
HETATM   16  N1  UNL     1     -20.818  17.842   1.104  1.00  0.00    -0.382 N 
ATOM     17  H12 UNL     1     -20.672  16.963   1.600  1.00  0.00     0.157 HD
ATOM     18  H11 UNL     1     -21.556  17.693   0.416  1.00  0.00     0.157 HD
ENDBRANCH  10  16
ENDBRANCH   1   9
BRANCH   4  19
HETATM   19  C5  UNL     1     -23.699  18.758   5.652  1.00  0.00     0.036 C 
HETATM   20  C6  UNL     1     -23.364  19.624   6.838  1.00  0.00     0.011 C 
HETATM   21  C7  UNL     1     -22.171  18.953   7.482  1.00  0.00     0.001 C 
HETATM   22  C8  UNL     1     -22.424  17.507   7.208  1.00  0.00     0.001 C 
HETATM   23  C9  UNL     1     -22.818  17.534   5.724  1.00  0.00     0.011 C 
ENDBRANCH   4  19
BRANCH   6  24
HETATM   24  C12 UNL     1     -25.128  22.047   2.141  1.00  0.00     0.036 A 
HETATM   25  C13 UNL     1     -26.522  21.602   1.939  1.00  0.00     0.011 A 
HETATM   26  C14 UNL     1     -25.607  21.609   0.781  1.00  0.00     0.011 A 
ENDBRANCH   6  24
TORSDOF 4
ENDMDL
MODEL 2
REMARK VINA RESULT: -9.292729403      1.152      4.516
REMARK  4 active torsions:
REMARK  status: ('A' for Active; 'I' for Inactive)
REMARK    1  A    between atoms: N1_1  and  C1_4 
REMARK    2  A    between atoms: C2_10  and  C3_11 
REMARK    3  A    between atoms: C4_14  and  C5_15 
REMARK    4  A    between atoms: C11_21  and  C12_22 
ROOT
HETATM    1  C3  UNL     1     -21.980  19.607   3.552  1.00  0.00     0.139 A 
HETATM    2  N4  UNL     1     -23.145  20.197   3.246  1.00  0.00    -0.344 N 
ATOM      3  H4  UNL     1     -23.281  20.511   2.285  1.00  0.00     0.167 HD
HETATM    4  C4  UNL     1     -24.145  20.401   4.119  1.00  0.00     0.017 A 
HETATM    5  C10 UNL     1     -23.941  19.971   5.409  1.00  0.00     0.050 A 
HETATM    6  C11 UNL     1     -22.764  19.357   5.786  1.00  0.00     0.017 A 
HETATM    7  N5  UNL     1     -21.823  19.197   4.838  1.00  0.00    -0.344 N 
ATOM      8  H5  UNL     1     -20.947  18.745   5.098  1.00  0.00     0.167 HD
ENDROOT
BRANCH   1   9
HETATM    9  C2  UNL     1     -20.941  19.419   2.553  1.00  0.00     0.145 A 
HETATM   10  C1  UNL     1     -20.464  18.265   1.988  1.00  0.00     0.154 A 
HETATM   11  N2  UNL     1     -19.487  18.609   1.100  1.00  0.00    -0.224 N 
HETATM   12  O1  UNL     1     -19.397  19.904   1.142  1.00  0.00    -0.155 OA
ATOM     13  H2  UNL     1     -18.937  17.976   0.518  1.00  0.00     0.198 HD
HETATM   14  N3  UNL     1     -20.244  20.416   1.993  1.00  0.00    -0.234 N 
ATOM     15  H3  UNL     1     -20.356  21.409   2.197  1.00  0.00     0.197 HD
BRANCH  10  16
HETATM   16  N1  UNL     1     -20.910  17.094   2.294  1.00  0.00    -0.382 N 
ATOM     17  H12 UNL     1     -20.306  16.327   2.589  1.00  0.00     0.157 HD
ATOM     18  H11 UNL     1     -21.871  16.752   2.294  1.00  0.00     0.157 HD
ENDBRANCH  10  16
ENDBRANCH   1   9
BRANCH   4  19
HETATM   19  C5  UNL     1     -25.367  21.061   3.645  1.00  0.00     0.036 C 
HETATM   20  C6  UNL     1     -25.117  21.536   2.238  1.00  0.00     0.011 C 
HETATM   21  C7  UNL     1     -25.188  23.045   2.320  1.00  0.00     0.001 C 
HETATM   22  C8  UNL     1     -26.202  23.264   3.395  1.00  0.00     0.001 C 
HETATM   23  C9  UNL     1     -25.738  22.270   4.470  1.00  0.00     0.011 C 
ENDBRANCH   4  19
BRANCH   6  24
HETATM   24  C12 UNL     1     -22.555  18.893   7.192  1.00  0.00     0.036 A 
HETATM   25  C13 UNL     1     -21.283  18.256   7.590  1.00  0.00     0.011 A 
HETATM   26  C14 UNL     1     -22.449  17.395   7.315  1.00  0.00     0.011 A 
ENDBRANCH   6  24
TORSDOF 4
ENDMDL
MODEL 3
REMARK VINA RESULT: -9.232404099      0.643      1.231
REMARK  4 active torsions:
REMARK  status: ('A' for Active; 'I' for Inactive)
REMARK    1  A    between atoms: N1_1  and  C1_4 
REMARK    2  A    between atoms: C2_10  and  C3_11 
REMARK    3  A    between atoms: C4_14  and  C5_15 
REMARK    4  A    between atoms: C11_21  and  C12_22 
ROOT
HETATM    1  C3  UNL     1     -21.956  19.877   2.678  1.00  0.00     0.139 A 
HETATM    2  N4  UNL     1     -22.300  19.261   3.818  1.00  0.00    -0.344 N 
ATOM      3  H4  UNL     1     -21.640  18.592   4.215  1.00  0.00     0.167 HD
HETATM    4  C4  UNL     1     -23.455  19.464   4.474  1.00  0.00     0.017 A 
HETATM    5  C10 UNL     1     -24.332  20.368   3.922  1.00  0.00     0.050 A 
HETATM    6  C11 UNL     1     -24.035  21.035   2.751  1.00  0.00     0.017 A 
HETATM    7  N5  UNL     1     -22.853  20.763   2.170  1.00  0.00    -0.344 N 
ATOM      8  H5  UNL     1     -22.617  21.247   1.304  1.00  0.00     0.167 HD
ENDROOT
BRANCH   1   9
HETATM    9  C2  UNL     1     -20.688  19.607   2.024  1.00  0.00     0.145 A 
HETATM   10  C1  UNL     1     -19.753  20.478   1.527  1.00  0.00     0.154 A 
HETATM   11  N2  UNL     1     -18.730  19.738   1.007  1.00  0.00    -0.224 N 
HETATM   12  O1  UNL     1     -19.051  18.493   1.193  1.00  0.00    -0.155 OA
ATOM     13  H2  UNL     1     -17.883  20.091   0.562  1.00  0.00     0.198 HD
HETATM   14  N3  UNL     1     -20.204  18.380   1.792  1.00  0.00    -0.234 N 
ATOM     15  H3  UNL     1     -20.662  17.503   2.042  1.00  0.00     0.197 HD
BRANCH  10  16
HETATM   16  N1  UNL     1     -19.886  21.759   1.576  1.00  0.00    -0.382 N 
ATOM     17  H12 UNL     1     -19.274  22.403   1.075  1.00  0.00     0.157 HD
ATOM     18  H11 UNL     1     -20.572  22.315   2.086  1.00  0.00     0.157 HD
ENDBRANCH  10  16
ENDBRANCH   1   9
BRANCH   4  19
HETATM   19  C5  UNL     1     -23.700  18.718   5.714  1.00  0.00     0.036 C 
HETATM   20  C6  UNL     1     -23.347  19.618   6.869  1.00  0.00     0.011 C 
HETATM   21  C7  UNL     1     -22.169  18.944   7.538  1.00  0.00     0.001 C 
HETATM   22  C8  UNL     1     -22.454  17.495   7.314  1.00  0.00     0.001 C 
HETATM   23  C9  UNL     1     -22.846  17.478   5.830  1.00  0.00     0.011 C 
ENDBRANCH   4  19
BRANCH   6  24
HETATM   24  C12 UNL     1     -24.997  22.017   2.161  1.00  0.00     0.036 A 
HETATM   25  C13 UNL     1     -26.418  21.655   1.973  1.00  0.00     0.011 A 
HETATM   26  C14 UNL     1     -25.514  21.605   0.807  1.00  0.00     0.011 A 
ENDBRANCH   6  24
TORSDOF 4
ENDMDL
MODEL 4
REMARK VINA RESULT: -9.196389671      0.963      4.391
REMARK  4 active torsions:
REMARK  status: ('A' for Active; 'I' for Inactive)
REMARK    1  A    between atoms: N1_1  and  C1_4 
REMARK    2  A    between atoms: C2_10  and  C3_11 
REMARK    3  A    between atoms: C4_14  and  C5_15 
REMARK    4  A    between atoms: C11_21  and  C12_22 
ROOT
HETATM    1  C3  UNL     1     -21.986  19.784   3.315  1.00  0.00     0.139 A 
HETATM    2  N4  UNL     1     -22.969  20.594   2.896  1.00  0.00    -0.344 N 
ATOM      3  H4  UNL     1     -22.897  20.982   1.955  1.00  0.00     0.167 HD
HETATM    4  C4  UNL     1     -24.042  20.929   3.631  1.00  0.00     0.017 A 
HETATM    5  C10 UNL     1     -24.120  20.397   4.896  1.00  0.00     0.050 A 
HETATM    6  C11 UNL     1     -23.141  19.556   5.385  1.00  0.00     0.017 A 
HETATM    7  N5  UNL     1     -22.106  19.280   4.571  1.00  0.00    -0.344 N 
ATOM      8  H5  UNL     1     -21.373  18.660   4.916  1.00  0.00     0.167 HD
ENDROOT
BRANCH   1   9
HETATM    9  C2  UNL     1     -20.854  19.465   2.463  1.00  0.00     0.145 A 
HETATM   10  C1  UNL     1     -20.414  18.249   2.005  1.00  0.00     0.154 A 
HETATM   11  N2  UNL     1     -19.309  18.470   1.235  1.00  0.00    -0.224 N 
HETATM   12  O1  UNL     1     -19.111  19.754   1.243  1.00  0.00    -0.155 OA
ATOM     13  H2  UNL     1     -18.749  17.768   0.751  1.00  0.00     0.198 HD
HETATM   14  N3  UNL     1     -20.008  20.372   1.960  1.00  0.00    -0.234 N 
ATOM     15  H3  UNL     1     -20.056  21.380   2.113  1.00  0.00     0.197 HD
BRANCH  10  16
HETATM   16  N1  UNL     1     -20.995  17.135   2.293  1.00  0.00    -0.382 N 
ATOM     17  H12 UNL     1     -20.552  16.225   2.164  1.00  0.00     0.157 HD
ATOM     18  H11 UNL     1     -21.929  16.976   2.671  1.00  0.00     0.157 HD
ENDBRANCH  10  16
ENDBRANCH   1   9
BRANCH   4  19
HETATM   19  C5  UNL     1     -25.043  21.829   3.044  1.00  0.00     0.036 C 
HETATM   20  C6  UNL     1     -26.254  21.817   3.940  1.00  0.00     0.011 C 
HETATM   21  C7  UNL     1     -27.352  21.207   3.097  1.00  0.00     0.001 C 
HETATM   22  C8  UNL     1     -27.001  21.670   1.722  1.00  0.00     0.001 C 
HETATM   23  C9  UNL     1     -25.493  21.390   1.671  1.00  0.00     0.011 C 
ENDBRANCH   4  19
BRANCH   6  24
HETATM   24  C12 UNL     1     -23.238  18.983   6.762  1.00  0.00     0.036 A 
HETATM   25  C13 UNL     1     -22.017  18.712   7.550  1.00  0.00     0.011 A 
HETATM   26  C14 UNL     1     -22.682  17.586   6.867  1.00  0.00     0.011 A 
ENDBRANCH   6  24
TORSDOF 4
ENDMDL
MODEL 5
REMARK VINA RESULT: -8.871763882      1.172      4.559
REMARK  4 active torsions:
REMARK  status: ('A' for Active; 'I' for Inactive)
REMARK    1  A    between atoms: N1_1  and  C1_4 
REMARK    2  A    between atoms: C2_10  and  C3_11 
REMARK    3  A    between atoms: C4_14  and  C5_15 
REMARK    4  A    between atoms: C11_21  and  C12_22 
ROOT
HETATM    1  C3  UNL     1     -21.967  19.453   3.419  1.00  0.00     0.139 A 
HETATM    2  N4  UNL     1     -22.897  20.315   2.982  1.00  0.00    -0.344 N 
ATOM      3  H4  UNL     1     -22.836  20.630   2.014  1.00  0.00     0.167 HD
HETATM    4  C4  UNL     1     -23.903  20.793   3.733  1.00  0.00     0.017 A 
HETATM    5  C10 UNL     1     -23.966  20.358   5.036  1.00  0.00     0.050 A 
HETATM    6  C11 UNL     1     -23.040  19.471   5.545  1.00  0.00     0.017 A 
HETATM    7  N5  UNL     1     -22.070  19.050   4.713  1.00  0.00    -0.344 N 
ATOM      8  H5  UNL     1     -21.376  18.394   5.071  1.00  0.00     0.167 HD
ENDROOT
BRANCH   1   9
HETATM    9  C2  UNL     1     -20.906  18.979   2.548  1.00  0.00     0.145 A 
HETATM   10  C1  UNL     1     -19.984  19.687   1.820  1.00  0.00     0.154 A 
HETATM   11  N2  UNL     1     -19.196  18.789   1.160  1.00  0.00    -0.224 N 
HETATM   12  O1  UNL     1     -19.636  17.611   1.487  1.00  0.00    -0.155 OA
ATOM     13  H2  UNL     1     -18.418  19.000   0.535  1.00  0.00     0.198 HD
HETATM   14  N3  UNL     1     -20.647  17.687   2.307  1.00  0.00    -0.234 N 
ATOM     15  H3  UNL     1     -21.157  16.895   2.699  1.00  0.00     0.197 HD
BRANCH  10  16
HETATM   16  N1  UNL     1     -19.932  20.975   1.810  1.00  0.00    -0.382 N 
ATOM     17  H12 UNL     1     -19.057  21.498   1.798  1.00  0.00     0.157 HD
ATOM     18  H11 UNL     1     -20.698  21.649   1.813  1.00  0.00     0.157 HD
ENDBRANCH  10  16
ENDBRANCH   1   9
BRANCH   4  19
HETATM   19  C5  UNL     1     -24.850  21.733   3.123  1.00  0.00     0.036 C 
HETATM   20  C6  UNL     1     -26.070  21.793   4.004  1.00  0.00     0.011 C 
HETATM   21  C7  UNL     1     -27.188  21.227   3.156  1.00  0.00     0.001 C 
HETATM   22  C8  UNL     1     -26.799  21.655   1.779  1.00  0.00     0.001 C 
HETATM   23  C9  UNL     1     -25.305  21.299   1.750  1.00  0.00     0.011 C 
ENDBRANCH   4  19
BRANCH   6  24
HETATM   24  C12 UNL     1     -23.120  19.005   6.963  1.00  0.00     0.036 A 
HETATM   25  C13 UNL     1     -21.889  18.741   7.737  1.00  0.00     0.011 A 
HETATM   26  C14 UNL     1     -22.619  17.596   7.157  1.00  0.00     0.011 A 
ENDBRANCH   6  24
TORSDOF 4
ENDMDL
