MODEL 1
REMARK VINA RESULT: -7.890056083      0.000      0.000
REMARK  4 active torsions:
REMARK  status: ('A' for Active; 'I' for Inactive)
REMARK    1  A    between atoms: C3_3  and  C4_4 
REMARK    2  A    between atoms: C4_4  and  O1_5 
REMARK    3  A    between atoms: C4_4  and  C5_7 
REMARK    4  A    between atoms: C12_16  and  N1_17 
ROOT
HETATM    1  C4  UNL     1     -22.818  18.083   3.422  1.00  0.00     0.189 C 
ENDROOT
BRANCH   1   2
HETATM    2  C3  UNL     1     -21.822  18.906   2.677  1.00  0.00     0.039 A 
HETATM    3  C2  UNL     1     -21.985  20.088   2.001  1.00  0.00     0.025 A 
HETATM    4  C1  UNL     1     -23.315  20.829   2.184  1.00  0.00     0.069 C 
HETATM    5  N2  UNL     1     -21.003  20.529   1.282  1.00  0.00    -0.335 N 
HETATM    6  C12 UNL     1     -19.878  19.828   1.205  1.00  0.00     0.144 A 
HETATM    7  C13 UNL     1     -21.045  21.873   0.634  1.00  0.00     0.158 C 
HETATM    8  S1  UNL     1     -20.236  18.468   2.233  1.00  0.00    -0.054 SA
BRANCH   6   9
HETATM    9  N1  UNL     1     -18.815  20.039   0.526  1.00  0.00    -0.379 N 
ATOM     10  H12 UNL     1     -17.847  19.777   0.714  1.00  0.00     0.158 HD
ATOM     11  H11 UNL     1     -18.722  20.564  -0.343  1.00  0.00     0.158 HD
ENDBRANCH   6   9
ENDBRANCH   1   2
BRANCH   1  12
HETATM   12  O1  UNL     1     -22.205  16.759   3.473  1.00  0.00    -0.388 OA
ATOM     13  H1  UNL     1     -22.424  16.377   2.631  1.00  0.00     0.210 HD
ENDBRANCH   1  12
BRANCH   1  14
HETATM   14  C5  UNL     1     -22.949  18.431   4.852  1.00  0.00     0.155 C 
HETATM   15  C6  UNL     1     -24.019  19.243   5.388  1.00  0.00     0.035 C 
HETATM   16  C7  UNL     1     -23.602  20.035   6.629  1.00  0.00     0.003 C 
HETATM   17  C8  UNL     1     -23.223  19.186   7.779  1.00  0.00     0.002 C 
HETATM   18  C9  UNL     1     -22.634  17.852   7.462  1.00  0.00     0.031 C 
HETATM   19  C10 UNL     1     -21.502  17.880   6.490  1.00  0.00     0.118 C 
HETATM   20  C11 UNL     1     -20.242  18.291   7.263  1.00  0.00     0.039 C 
HETATM   21  O2  UNL     1     -21.718  18.694   5.415  1.00  0.00    -0.378 OA
ENDBRANCH   1  14
TORSDOF 4
ENDMDL
MODEL 2
REMARK VINA RESULT: -7.795286198      3.910      5.147
REMARK  4 active torsions:
REMARK  status: ('A' for Active; 'I' for Inactive)
REMARK    1  A    between atoms: C3_3  and  C4_4 
REMARK    2  A    between atoms: C4_4  and  O1_5 
REMARK    3  A    between atoms: C4_4  and  C5_7 
REMARK    4  A    between atoms: C12_16  and  N1_17 
ROOT
HETATM    1  C4  UNL     1     -24.518  21.898   3.714  1.00  0.00     0.189 C 
ENDROOT
BRANCH   1   2
HETATM    2  C3  UNL     1     -25.664  21.687   2.783  1.00  0.00     0.039 A 
HETATM    3  C2  UNL     1     -25.721  21.794   1.418  1.00  0.00     0.025 A 
HETATM    4  C1  UNL     1     -24.393  21.939   0.664  1.00  0.00     0.069 C 
HETATM    5  N2  UNL     1     -26.878  21.730   0.841  1.00  0.00    -0.335 N 
HETATM    6  C12 UNL     1     -27.973  21.576   1.577  1.00  0.00     0.144 A 
HETATM    7  C13 UNL     1     -27.014  21.691  -0.646  1.00  0.00     0.158 C 
HETATM    8  S1  UNL     1     -27.310  21.503   3.186  1.00  0.00    -0.054 SA
BRANCH   6   9
HETATM    9  N1  UNL     1     -29.204  21.540   1.234  1.00  0.00    -0.379 N 
ATOM     10  H12 UNL     1     -29.983  22.143   1.500  1.00  0.00     0.158 HD
ATOM     11  H11 UNL     1     -29.667  20.854   0.639  1.00  0.00     0.158 HD
ENDBRANCH   6   9
ENDBRANCH   1   2
BRANCH   1  12
HETATM   12  O1  UNL     1     -25.082  22.728   4.775  1.00  0.00    -0.388 OA
ATOM     13  H1  UNL     1     -24.500  23.478   4.807  1.00  0.00     0.210 HD
ENDBRANCH   1  12
BRANCH   1  14
HETATM   14  C5  UNL     1     -24.095  20.686   4.445  1.00  0.00     0.155 C 
HETATM   15  C6  UNL     1     -24.355  20.462   5.849  1.00  0.00     0.035 C 
HETATM   16  C7  UNL     1     -23.291  19.592   6.522  1.00  0.00     0.003 C 
HETATM   17  C8  UNL     1     -23.210  18.220   5.977  1.00  0.00     0.002 C 
HETATM   18  C9  UNL     1     -23.577  18.047   4.541  1.00  0.00     0.031 C 
HETATM   19  C10 UNL     1     -22.890  18.979   3.600  1.00  0.00     0.118 C 
HETATM   20  C11 UNL     1     -21.483  18.422   3.344  1.00  0.00     0.039 C 
HETATM   21  O2  UNL     1     -22.844  20.271   4.040  1.00  0.00    -0.378 OA
ENDBRANCH   1  14
TORSDOF 4
ENDMDL
MODEL 3
REMARK VINA RESULT: -7.546594812      4.815      6.158
REMARK  4 active torsions:
REMARK  status: ('A' for Active; 'I' for Inactive)
REMARK    1  A    between atoms: C3_3  and  C4_4 
REMARK    2  A    between atoms: C4_4  and  O1_5 
REMARK    3  A    between atoms: C4_4  and  C5_7 
REMARK    4  A    between atoms: C12_16  and  N1_17 
ROOT
HETATM    1  C4  UNL     1     -24.969  21.578   3.746  1.00  0.00     0.189 C 
ENDROOT
BRANCH   1   2
HETATM    2  C3  UNL     1     -26.108  22.221   4.464  1.00  0.00     0.039 A 
HETATM    3  C2  UNL     1     -27.453  22.170   4.205  1.00  0.00     0.025 A 
HETATM    4  C1  UNL     1     -27.936  21.146   3.170  1.00  0.00     0.069 C 
HETATM    5  N2  UNL     1     -28.240  22.955   4.868  1.00  0.00    -0.335 N 
HETATM    6  C12 UNL     1     -27.731  23.792   5.765  1.00  0.00     0.144 A 
HETATM    7  C13 UNL     1     -29.725  22.859   4.753  1.00  0.00     0.158 C 
HETATM    8  S1  UNL     1     -26.031  23.425   5.667  1.00  0.00    -0.054 SA
BRANCH   6   9
HETATM    9  N1  UNL     1     -28.301  24.679   6.488  1.00  0.00    -0.379 N 
ATOM     10  H12 UNL     1     -28.754  24.600   7.399  1.00  0.00     0.158 HD
ATOM     11  H11 UNL     1     -28.453  25.663   6.266  1.00  0.00     0.158 HD
ENDBRANCH   6   9
ENDBRANCH   1   2
BRANCH   1  12
HETATM   12  O1  UNL     1     -23.943  22.616   3.724  1.00  0.00    -0.388 OA
ATOM     13  H1  UNL     1     -23.297  22.282   3.113  1.00  0.00     0.210 HD
ENDBRANCH   1  12
BRANCH   1  14
HETATM   14  C5  UNL     1     -24.310  20.491   4.499  1.00  0.00     0.155 C 
HETATM   15  C6  UNL     1     -24.443  20.306   5.927  1.00  0.00     0.035 C 
HETATM   16  C7  UNL     1     -23.211  19.656   6.561  1.00  0.00     0.003 C 
HETATM   17  C8  UNL     1     -22.942  18.286   6.074  1.00  0.00     0.002 C 
HETATM   18  C9  UNL     1     -23.364  17.977   4.677  1.00  0.00     0.031 C 
HETATM   19  C10 UNL     1     -22.898  18.953   3.649  1.00  0.00     0.118 C 
HETATM   20  C11 UNL     1     -21.438  18.614   3.320  1.00  0.00     0.039 C 
HETATM   21  O2  UNL     1     -23.036  20.259   4.026  1.00  0.00    -0.378 OA
ENDBRANCH   1  14
TORSDOF 4
ENDMDL
MODEL 4
REMARK VINA RESULT: -7.071738113      3.752      4.958
REMARK  4 active torsions:
REMARK  status: ('A' for Active; 'I' for Inactive)
REMARK    1  A    between atoms: C3_3  and  C4_4 
REMARK    2  A    between atoms: C4_4  and  O1_5 
REMARK    3  A    between atoms: C4_4  and  C5_7 
REMARK    4  A    between atoms: C12_16  and  N1_17 
ROOT
HETATM    1  C4  UNL     1     -24.467  21.550   4.198  1.00  0.00     0.189 C 
ENDROOT
BRANCH   1   2
HETATM    2  C3  UNL     1     -25.553  21.447   3.181  1.00  0.00     0.039 A 
HETATM    3  C2  UNL     1     -25.521  21.682   1.830  1.00  0.00     0.025 A 
HETATM    4  C1  UNL     1     -24.146  21.875   1.179  1.00  0.00     0.069 C 
HETATM    5  N2  UNL     1     -26.639  21.692   1.178  1.00  0.00    -0.335 N 
HETATM    6  C12 UNL     1     -27.781  21.489   1.827  1.00  0.00     0.144 A 
HETATM    7  C13 UNL     1     -26.680  21.795  -0.310  1.00  0.00     0.158 C 
HETATM    8  S1  UNL     1     -27.224  21.254   3.460  1.00  0.00    -0.054 SA
BRANCH   6   9
HETATM    9  N1  UNL     1     -28.988  21.506   1.405  1.00  0.00    -0.379 N 
ATOM     10  H12 UNL     1     -29.733  22.185   1.560  1.00  0.00     0.158 HD
ATOM     11  H11 UNL     1     -29.465  20.799   0.847  1.00  0.00     0.158 HD
ENDBRANCH   6   9
ENDBRANCH   1   2
BRANCH   1  12
HETATM   12  O1  UNL     1     -25.176  21.885   5.429  1.00  0.00    -0.388 OA
ATOM     13  H1  UNL     1     -24.478  22.058   6.051  1.00  0.00     0.210 HD
ENDBRANCH   1  12
BRANCH   1  14
HETATM   14  C5  UNL     1     -23.825  20.264   4.537  1.00  0.00     0.155 C 
HETATM   15  C6  UNL     1     -23.739  19.143   3.627  1.00  0.00     0.035 C 
HETATM   16  C7  UNL     1     -23.716  17.792   4.345  1.00  0.00     0.003 C 
HETATM   17  C8  UNL     1     -22.539  17.600   5.219  1.00  0.00     0.002 C 
HETATM   18  C9  UNL     1     -21.952  18.827   5.832  1.00  0.00     0.031 C 
HETATM   19  C10 UNL     1     -22.931  19.710   6.531  1.00  0.00     0.118 C 
HETATM   20  C11 UNL     1     -23.193  19.103   7.915  1.00  0.00     0.039 C 
HETATM   21  O2  UNL     1     -24.093  19.901   5.839  1.00  0.00    -0.378 OA
ENDBRANCH   1  14
TORSDOF 4
ENDMDL
MODEL 5
REMARK VINA RESULT: -6.994155010      4.195      6.389
REMARK  4 active torsions:
REMARK  status: ('A' for Active; 'I' for Inactive)
REMARK    1  A    between atoms: C3_3  and  C4_4 
REMARK    2  A    between atoms: C4_4  and  O1_5 
REMARK    3  A    between atoms: C4_4  and  C5_7 
REMARK    4  A    between atoms: C12_16  and  N1_17 
ROOT
HETATM    1  C4  UNL     1     -24.921  21.984   4.211  1.00  0.00     0.189 C 
ENDROOT
BRANCH   1   2
HETATM    2  C3  UNL     1     -24.257  20.701   4.584  1.00  0.00     0.039 A 
HETATM    3  C2  UNL     1     -23.965  20.188   5.821  1.00  0.00     0.025 A 
HETATM    4  C1  UNL     1     -24.578  20.889   7.040  1.00  0.00     0.069 C 
HETATM    5  N2  UNL     1     -23.226  19.128   5.892  1.00  0.00    -0.335 N 
HETATM    6  C12 UNL     1     -22.762  18.574   4.777  1.00  0.00     0.144 A 
HETATM    7  C13 UNL     1     -22.983  18.423   7.185  1.00  0.00     0.158 C 
HETATM    8  S1  UNL     1     -23.433  19.620   3.556  1.00  0.00    -0.054 SA
BRANCH   6   9
HETATM    9  N1  UNL     1     -21.985  17.573   4.610  1.00  0.00    -0.379 N 
ATOM     10  H12 UNL     1     -22.108  16.592   4.860  1.00  0.00     0.158 HD
ATOM     11  H11 UNL     1     -21.044  17.570   4.218  1.00  0.00     0.158 HD
ENDBRANCH   6   9
ENDBRANCH   1   2
BRANCH   1  12
HETATM   12  O1  UNL     1     -23.969  22.614   3.300  1.00  0.00    -0.388 OA
ATOM     13  H1  UNL     1     -24.387  22.539   2.450  1.00  0.00     0.210 HD
ENDBRANCH   1  12
BRANCH   1  14
HETATM   14  C5  UNL     1     -26.120  21.827   3.364  1.00  0.00     0.155 C 
HETATM   15  C6  UNL     1     -26.072  21.554   1.945  1.00  0.00     0.035 C 
HETATM   16  C7  UNL     1     -27.276  22.119   1.187  1.00  0.00     0.003 C 
HETATM   17  C8  UNL     1     -28.568  21.529   1.594  1.00  0.00     0.002 C 
HETATM   18  C9  UNL     1     -28.676  21.061   3.007  1.00  0.00     0.031 C 
HETATM   19  C10 UNL     1     -28.260  22.060   4.033  1.00  0.00     0.118 C 
HETATM   20  C11 UNL     1     -29.430  23.034   4.230  1.00  0.00     0.039 C 
HETATM   21  O2  UNL     1     -27.105  22.721   3.723  1.00  0.00    -0.378 OA
ENDBRANCH   1  14
TORSDOF 4
ENDMDL
