MODEL 1
REMARK VINA RESULT: -8.414212026      0.000      0.000
REMARK  4 active torsions:
REMARK  status: ('A' for Active; 'I' for Inactive)
REMARK    1  A    between atoms: C5_5  and  C6_6 
REMARK    2  A    between atoms: C6_6  and  C7_8 
REMARK    3  A    between atoms: C9_14  and  N2_15 
REMARK    4  A    between atoms: N3_17  and  N4_19 
ROOT
HETATM    1  C7  UNL     1     -25.032  21.357   3.056  1.00  0.00     0.101 A 
HETATM    2  S1  UNL     1     -26.712  21.537   3.262  1.00  0.00    -0.022 SA
HETATM    3  C8  UNL     1     -26.808  23.224   3.055  1.00  0.00     0.290 A 
HETATM    4  O2  UNL     1     -27.843  23.981   3.098  1.00  0.00    -0.260 OA
HETATM    5  N1  UNL     1     -25.541  23.575   2.835  1.00  0.00    -0.301 N 
ATOM      6  H1  UNL     1     -25.293  24.551   2.673  1.00  0.00     0.171 HD
HETATM    7  C9  UNL     1     -24.624  22.645   2.832  1.00  0.00     0.145 A 
ENDROOT
BRANCH   1   8
HETATM    8  C6  UNL     1     -24.196  20.138   3.102  1.00  0.00     0.174 C 
HETATM    9  O1  UNL     1     -23.490  19.882   2.096  1.00  0.00    -0.291 OA
BRANCH   8  10
HETATM   10  C5  UNL     1     -24.212  19.267   4.308  1.00  0.00     0.061 C 
HETATM   11  C4  UNL     1     -23.408  18.032   4.059  1.00  0.00     0.013 C 
HETATM   12  C3  UNL     1     -23.054  17.243   5.272  1.00  0.00     0.005 C 
HETATM   13  C2  UNL     1     -23.077  18.050   6.548  1.00  0.00    -0.019 C 
HETATM   14  C1  UNL     1     -22.142  17.418   7.553  1.00  0.00     0.010 C 
HETATM   15  C11 UNL     1     -22.595  19.452   6.171  1.00  0.00     0.005 C 
HETATM   16  C10 UNL     1     -23.801  20.076   5.478  1.00  0.00     0.013 C 
ENDBRANCH   8  10
ENDBRANCH   1   8
BRANCH   7  17
HETATM   17  N2  UNL     1     -23.216  22.978   2.595  1.00  0.00    -0.270 N 
HETATM   18  N3  UNL     1     -22.750  22.907   1.420  1.00  0.00    -0.248 N 
ATOM     19  H3  UNL     1     -23.350  22.620   0.646  1.00  0.00     0.207 HD
ATOM     20  H2  UNL     1     -22.618  23.264   3.370  1.00  0.00     0.190 HD
BRANCH  18  21
HETATM   21  N4  UNL     1     -21.411  23.223   1.190  1.00  0.00    -0.331 N 
ATOM     22  H42 UNL     1     -20.826  23.512   1.973  1.00  0.00     0.178 HD
ATOM     23  H41 UNL     1     -21.035  23.161   0.244  1.00  0.00     0.178 HD
ENDBRANCH  18  21
ENDBRANCH   7  17
TORSDOF 4
ENDMDL
MODEL 2
REMARK VINA RESULT: -8.024939400      0.635      1.274
REMARK  4 active torsions:
REMARK  status: ('A' for Active; 'I' for Inactive)
REMARK    1  A    between atoms: C5_5  and  C6_6 
REMARK    2  A    between atoms: C6_6  and  C7_8 
REMARK    3  A    between atoms: C9_14  and  N2_15 
REMARK    4  A    between atoms: N3_17  and  N4_19 
ROOT
HETATM    1  C7  UNL     1     -24.627  21.324   2.747  1.00  0.00     0.101 A 
HETATM    2  S1  UNL     1     -26.317  21.304   2.947  1.00  0.00    -0.022 SA
HETATM    3  C8  UNL     1     -26.604  22.976   2.797  1.00  0.00     0.290 A 
HETATM    4  O2  UNL     1     -27.719  23.609   2.859  1.00  0.00    -0.260 OA
HETATM    5  N1  UNL     1     -25.385  23.476   2.599  1.00  0.00    -0.301 N 
ATOM      6  H1  UNL     1     -25.248  24.479   2.472  1.00  0.00     0.171 HD
HETATM    7  C9  UNL     1     -24.367  22.657   2.570  1.00  0.00     0.145 A 
ENDROOT
BRANCH   1   8
HETATM    8  C6  UNL     1     -23.657  20.207   2.757  1.00  0.00     0.174 C 
HETATM    9  O1  UNL     1     -23.471  19.593   1.678  1.00  0.00    -0.291 OA
BRANCH   8  10
HETATM   10  C5  UNL     1     -22.946  19.848   4.013  1.00  0.00     0.061 C 
HETATM   11  C4  UNL     1     -23.834  20.087   5.191  1.00  0.00     0.013 C 
HETATM   12  C3  UNL     1     -23.390  19.458   6.467  1.00  0.00     0.005 C 
HETATM   13  C2  UNL     1     -22.464  18.282   6.272  1.00  0.00    -0.019 C 
HETATM   14  C1  UNL     1     -22.576  17.357   7.461  1.00  0.00     0.010 C 
HETATM   15  C11 UNL     1     -22.934  17.579   4.997  1.00  0.00     0.005 C 
HETATM   16  C10 UNL     1     -22.415  18.473   3.877  1.00  0.00     0.013 C 
ENDBRANCH   8  10
ENDBRANCH   1   8
BRANCH   7  17
HETATM   17  N2  UNL     1     -23.005  23.156   2.355  1.00  0.00    -0.270 N 
HETATM   18  N3  UNL     1     -22.348  22.754   1.350  1.00  0.00    -0.248 N 
ATOM     19  H3  UNL     1     -22.765  22.089   0.697  1.00  0.00     0.207 HD
ATOM     20  H2  UNL     1     -22.592  23.820   3.009  1.00  0.00     0.190 HD
BRANCH  18  21
HETATM   21  N4  UNL     1     -21.052  23.226   1.141  1.00  0.00    -0.331 N 
ATOM     22  H42 UNL     1     -20.662  23.212   0.199  1.00  0.00     0.178 HD
ATOM     23  H41 UNL     1     -20.513  23.579   1.932  1.00  0.00     0.178 HD
ENDBRANCH  18  21
ENDBRANCH   7  17
TORSDOF 4
ENDMDL
MODEL 3
REMARK VINA RESULT: -7.795184902      2.925      4.232
REMARK  4 active torsions:
REMARK  status: ('A' for Active; 'I' for Inactive)
REMARK    1  A    between atoms: C5_5  and  C6_6 
REMARK    2  A    between atoms: C6_6  and  C7_8 
REMARK    3  A    between atoms: C9_14  and  N2_15 
REMARK    4  A    between atoms: N3_17  and  N4_19 
ROOT
HETATM    1  C7  UNL     1     -21.737  20.468   1.668  1.00  0.00     0.101 A 
HETATM    2  S1  UNL     1     -20.411  19.507   1.207  1.00  0.00    -0.022 SA
HETATM    3  C8  UNL     1     -19.403  20.743   0.610  1.00  0.00     0.290 A 
HETATM    4  O2  UNL     1     -18.227  20.647   0.105  1.00  0.00    -0.260 OA
HETATM    5  N1  UNL     1     -20.133  21.843   0.791  1.00  0.00    -0.301 N 
ATOM      6  H1  UNL     1     -19.773  22.757   0.519  1.00  0.00     0.171 HD
HETATM    7  C9  UNL     1     -21.319  21.728   1.326  1.00  0.00     0.145 A 
ENDROOT
BRANCH   1   8
HETATM    8  C6  UNL     1     -23.025  20.078   2.280  1.00  0.00     0.174 C 
HETATM    9  O1  UNL     1     -24.075  20.498   1.738  1.00  0.00    -0.291 OA
BRANCH   8  10
HETATM   10  C5  UNL     1     -23.043  19.219   3.495  1.00  0.00     0.061 C 
HETATM   11  C4  UNL     1     -21.729  19.305   4.203  1.00  0.00     0.013 C 
HETATM   12  C3  UNL     1     -21.717  18.779   5.598  1.00  0.00     0.005 C 
HETATM   13  C2  UNL     1     -23.081  18.750   6.246  1.00  0.00    -0.019 C 
HETATM   14  C1  UNL     1     -22.920  18.834   7.746  1.00  0.00     0.010 C 
HETATM   15  C11 UNL     1     -23.828  19.975   5.715  1.00  0.00     0.005 C 
HETATM   16  C10 UNL     1     -24.233  19.569   4.303  1.00  0.00     0.013 C 
ENDBRANCH   8  10
ENDBRANCH   1   8
BRANCH   7  17
HETATM   17  N2  UNL     1     -22.163  22.906   1.548  1.00  0.00    -0.270 N 
HETATM   18  N3  UNL     1     -22.967  23.274   0.642  1.00  0.00    -0.248 N 
ATOM     19  H3  UNL     1     -23.027  22.753  -0.234  1.00  0.00     0.207 HD
ATOM     20  H2  UNL     1     -22.101  23.425   2.424  1.00  0.00     0.190 HD
BRANCH  18  21
HETATM   21  N4  UNL     1     -23.772  24.395   0.850  1.00  0.00    -0.331 N 
ATOM     22  H42 UNL     1     -23.428  25.153   1.438  1.00  0.00     0.178 HD
ATOM     23  H41 UNL     1     -24.692  24.441   0.411  1.00  0.00     0.178 HD
ENDBRANCH  18  21
ENDBRANCH   7  17
TORSDOF 4
ENDMDL
MODEL 4
REMARK VINA RESULT: -7.783381300      1.825      1.900
REMARK  4 active torsions:
REMARK  status: ('A' for Active; 'I' for Inactive)
REMARK    1  A    between atoms: C5_5  and  C6_6 
REMARK    2  A    between atoms: C6_6  and  C7_8 
REMARK    3  A    between atoms: C9_14  and  N2_15 
REMARK    4  A    between atoms: N3_17  and  N4_19 
ROOT
HETATM    1  C7  UNL     1     -25.593  21.338   2.610  1.00  0.00     0.101 A 
HETATM    2  S1  UNL     1     -27.278  21.292   2.840  1.00  0.00    -0.022 SA
HETATM    3  C8  UNL     1     -27.757  21.607   1.237  1.00  0.00     0.290 A 
HETATM    4  O2  UNL     1     -28.943  21.702   0.756  1.00  0.00    -0.260 OA
HETATM    5  N1  UNL     1     -26.596  21.735   0.594  1.00  0.00    -0.301 N 
ATOM      6  H1  UNL     1     -26.575  21.931  -0.406  1.00  0.00     0.171 HD
HETATM    7  C9  UNL     1     -25.487  21.602   1.270  1.00  0.00     0.145 A 
ENDROOT
BRANCH   1   8
HETATM    8  C6  UNL     1     -24.497  21.148   3.584  1.00  0.00     0.174 C 
HETATM    9  O1  UNL     1     -23.604  22.029   3.630  1.00  0.00    -0.291 OA
BRANCH   8  10
HETATM   10  C5  UNL     1     -24.479  19.948   4.462  1.00  0.00     0.061 C 
HETATM   11  C4  UNL     1     -23.540  18.923   3.912  1.00  0.00     0.013 C 
HETATM   12  C3  UNL     1     -23.163  17.829   4.851  1.00  0.00     0.005 C 
HETATM   13  C2  UNL     1     -23.331  18.195   6.306  1.00  0.00    -0.019 C 
HETATM   14  C1  UNL     1     -22.384  17.364   7.140  1.00  0.00     0.010 C 
HETATM   15  C11 UNL     1     -22.981  19.680   6.412  1.00  0.00     0.005 C 
HETATM   16  C10 UNL     1     -24.211  20.384   5.852  1.00  0.00     0.013 C 
ENDBRANCH   8  10
ENDBRANCH   1   8
BRANCH   7  17
HETATM   17  N2  UNL     1     -24.183  21.733   0.611  1.00  0.00    -0.270 N 
HETATM   18  N3  UNL     1     -23.409  20.732   0.563  1.00  0.00    -0.248 N 
ATOM     19  H3  UNL     1     -23.691  19.844   0.979  1.00  0.00     0.207 HD
ATOM     20  H2  UNL     1     -23.904  22.621   0.195  1.00  0.00     0.190 HD
BRANCH  18  21
HETATM   21  N4  UNL     1     -22.168  20.852  -0.064  1.00  0.00    -0.331 N 
ATOM     22  H42 UNL     1     -22.112  21.303  -0.977  1.00  0.00     0.178 HD
ATOM     23  H41 UNL     1     -21.335  20.487   0.397  1.00  0.00     0.178 HD
ENDBRANCH  18  21
ENDBRANCH   7  17
TORSDOF 4
ENDMDL
MODEL 5
REMARK VINA RESULT: -7.780189410      1.641      2.048
REMARK  4 active torsions:
REMARK  status: ('A' for Active; 'I' for Inactive)
REMARK    1  A    between atoms: C5_5  and  C6_6 
REMARK    2  A    between atoms: C6_6  and  C7_8 
REMARK    3  A    between atoms: C9_14  and  N2_15 
REMARK    4  A    between atoms: N3_17  and  N4_19 
ROOT
HETATM    1  C7  UNL     1     -25.514  22.124   4.622  1.00  0.00     0.101 A 
HETATM    2  S1  UNL     1     -26.468  22.794   5.862  1.00  0.00    -0.022 SA
HETATM    3  C8  UNL     1     -26.649  24.359   5.218  1.00  0.00     0.290 A 
HETATM    4  O2  UNL     1     -27.285  25.361   5.707  1.00  0.00    -0.260 OA
HETATM    5  N1  UNL     1     -25.967  24.297   4.075  1.00  0.00    -0.301 N 
ATOM      6  H1  UNL     1     -25.902  25.111   3.463  1.00  0.00     0.171 HD
HETATM    7  C9  UNL     1     -25.383  23.174   3.752  1.00  0.00     0.145 A 
ENDROOT
BRANCH   1   8
HETATM    8  C6  UNL     1     -24.954  20.762   4.487  1.00  0.00     0.174 C 
HETATM    9  O1  UNL     1     -25.556  19.961   3.731  1.00  0.00    -0.291 OA
BRANCH   8  10
HETATM   10  C5  UNL     1     -23.722  20.385   5.231  1.00  0.00     0.061 C 
HETATM   11  C4  UNL     1     -24.054  20.104   6.661  1.00  0.00     0.013 C 
HETATM   12  C3  UNL     1     -22.999  19.391   7.436  1.00  0.00     0.005 C 
HETATM   13  C2  UNL     1     -22.037  18.611   6.573  1.00  0.00    -0.019 C 
HETATM   14  C1  UNL     1     -21.455  17.474   7.380  1.00  0.00     0.010 C 
HETATM   15  C11 UNL     1     -22.860  18.073   5.401  1.00  0.00     0.005 C 
HETATM   16  C10 UNL     1     -23.047  19.289   4.501  1.00  0.00     0.013 C 
ENDBRANCH   8  10
ENDBRANCH   1   8
BRANCH   7  17
HETATM   17  N2  UNL     1     -24.621  23.053   2.506  1.00  0.00    -0.270 N 
HETATM   18  N3  UNL     1     -23.356  23.017   2.552  1.00  0.00    -0.248 N 
ATOM     19  H3  UNL     1     -22.873  23.072   3.450  1.00  0.00     0.207 HD
ATOM     20  H2  UNL     1     -25.105  22.998   1.610  1.00  0.00     0.190 HD
BRANCH  18  21
HETATM   21  N4  UNL     1     -22.627  22.901   1.369  1.00  0.00    -0.331 N 
ATOM     22  H42 UNL     1     -21.682  23.280   1.326  1.00  0.00     0.178 HD
ATOM     23  H41 UNL     1     -23.048  22.439   0.562  1.00  0.00     0.178 HD
ENDBRANCH  18  21
ENDBRANCH   7  17
TORSDOF 4
ENDMDL
