MODEL 1
REMARK VINA RESULT: -8.441755129      0.000      0.000
REMARK  5 active torsions:
REMARK  status: ('A' for Active; 'I' for Inactive)
REMARK    1  A    between atoms: C3_4  and  C4_5 
REMARK    2  A    between atoms: C4_5  and  O1_8 
REMARK    3  A    between atoms: O1_8  and  O2_9 
REMARK    4  A    between atoms: O2_9  and  C7_10 
REMARK    5  A    between atoms: C11_14  and  O3_15 
ROOT
HETATM    1  C7  UNL     1     -22.734  19.349   4.616  1.00  0.00     0.194 C 
HETATM    2  C8  UNL     1     -23.686  18.257   4.156  1.00  0.00     0.082 C 
HETATM    3  C9  UNL     1     -23.573  20.401   5.299  1.00  0.00     0.073 C 
HETATM    4  C10 UNL     1     -23.974  19.999   6.694  1.00  0.00     0.040 C 
HETATM    5  C11 UNL     1     -22.758  19.505   7.425  1.00  0.00     0.152 C 
HETATM    6  C12 UNL     1     -21.920  18.554   6.640  1.00  0.00     0.083 C 
HETATM    7  C13 UNL     1     -20.546  18.496   7.327  1.00  0.00     0.048 C 
HETATM    8  C14 UNL     1     -22.515  17.169   6.797  1.00  0.00     0.048 C 
HETATM    9  O4  UNL     1     -21.684  18.901   5.347  1.00  0.00    -0.340 OA
ENDROOT
BRANCH   1  10
HETATM   10  O2  UNL     1     -22.235  19.946   3.449  1.00  0.00    -0.200 OA
BRANCH  10  11
HETATM   11  O1  UNL     1     -20.957  19.698   3.286  1.00  0.00    -0.225 OA
BRANCH  11  12
HETATM   12  C4  UNL     1     -20.725  19.465   1.945  1.00  0.00     0.122 C 
HETATM   13  C5  UNL     1     -20.754  17.945   1.762  1.00  0.00     0.051 C 
HETATM   14  C6  UNL     1     -21.763  20.054   1.045  1.00  0.00     0.051 C 
BRANCH  12  15
HETATM   15  C3  UNL     1     -19.351  19.912   1.505  1.00  0.00     0.287 A 
HETATM   16  N1  UNL     1     -19.283  21.058   0.653  1.00  0.00     0.096 N 
HETATM   17  C1  UNL     1     -18.205  21.262  -0.262  1.00  0.00     0.310 C 
HETATM   18  C2  UNL     1     -18.905  21.243   2.063  1.00  0.00     0.311 A 
ENDBRANCH  12  15
ENDBRANCH  11  12
ENDBRANCH  10  11
ENDBRANCH   1  10
BRANCH   5  19
HETATM   19  O3  UNL     1     -23.229  18.847   8.579  1.00  0.00    -0.393 OA
ATOM     20  H3  UNL     1     -23.453  17.965   8.310  1.00  0.00     0.210 HD
ENDBRANCH   5  19
TORSDOF 5
ENDMDL
MODEL 2
REMARK VINA RESULT: -7.745460268      1.307      2.108
REMARK  5 active torsions:
REMARK  status: ('A' for Active; 'I' for Inactive)
REMARK    1  A    between atoms: C3_4  and  C4_5 
REMARK    2  A    between atoms: C4_5  and  O1_8 
REMARK    3  A    between atoms: O1_8  and  O2_9 
REMARK    4  A    between atoms: O2_9  and  C7_10 
REMARK    5  A    between atoms: C11_14  and  O3_15 
ROOT
HETATM    1  C7  UNL     1     -22.577  18.492   4.448  1.00  0.00     0.194 C 
HETATM    2  C8  UNL     1     -23.593  17.369   4.323  1.00  0.00     0.082 C 
HETATM    3  C9  UNL     1     -23.352  19.755   4.730  1.00  0.00     0.073 C 
HETATM    4  C10 UNL     1     -23.803  19.843   6.164  1.00  0.00     0.040 C 
HETATM    5  C11 UNL     1     -22.635  19.537   7.060  1.00  0.00     0.152 C 
HETATM    6  C12 UNL     1     -21.852  18.337   6.649  1.00  0.00     0.083 C 
HETATM    7  C13 UNL     1     -20.497  18.419   7.369  1.00  0.00     0.048 C 
HETATM    8  C14 UNL     1     -22.543  17.112   7.214  1.00  0.00     0.048 C 
HETATM    9  O4  UNL     1     -21.572  18.239   5.322  1.00  0.00    -0.340 OA
ENDROOT
BRANCH   1  10
HETATM   10  O2  UNL     1     -22.019  18.655   3.171  1.00  0.00    -0.200 OA
BRANCH  10  11
HETATM   11  O1  UNL     1     -21.444  19.827   3.039  1.00  0.00    -0.225 OA
BRANCH  11  12
HETATM   12  C4  UNL     1     -20.819  19.870   1.808  1.00  0.00     0.122 C 
HETATM   13  C5  UNL     1     -19.550  20.704   2.002  1.00  0.00     0.051 C 
HETATM   14  C6  UNL     1     -20.411  18.527   1.295  1.00  0.00     0.051 C 
BRANCH  12  15
HETATM   15  C3  UNL     1     -21.638  20.592   0.765  1.00  0.00     0.287 A 
HETATM   16  N1  UNL     1     -22.977  20.947   1.121  1.00  0.00     0.096 N 
HETATM   17  C1  UNL     1     -24.008  21.100   0.145  1.00  0.00     0.310 C 
HETATM   18  C2  UNL     1     -21.975  22.026   1.098  1.00  0.00     0.311 A 
ENDBRANCH  12  15
ENDBRANCH  11  12
ENDBRANCH  10  11
ENDBRANCH   1  10
BRANCH   5  19
HETATM   19  O3  UNL     1     -23.169  19.311   8.344  1.00  0.00    -0.393 OA
ATOM     20  H3  UNL     1     -24.103  19.180   8.225  1.00  0.00     0.210 HD
ENDBRANCH   5  19
TORSDOF 5
ENDMDL
MODEL 3
REMARK VINA RESULT: -7.237956801      0.928      1.233
REMARK  5 active torsions:
REMARK  status: ('A' for Active; 'I' for Inactive)
REMARK    1  A    between atoms: C3_4  and  C4_5 
REMARK    2  A    between atoms: C4_5  and  O1_8 
REMARK    3  A    between atoms: O1_8  and  O2_9 
REMARK    4  A    between atoms: O2_9  and  C7_10 
REMARK    5  A    between atoms: C11_14  and  O3_15 
ROOT
HETATM    1  C7  UNL     1     -22.824  18.847   4.349  1.00  0.00     0.194 C 
HETATM    2  C8  UNL     1     -23.812  17.708   4.156  1.00  0.00     0.082 C 
HETATM    3  C9  UNL     1     -23.615  20.032   4.848  1.00  0.00     0.073 C 
HETATM    4  C10 UNL     1     -23.955  19.921   6.310  1.00  0.00     0.040 C 
HETATM    5  C11 UNL     1     -22.712  19.553   7.071  1.00  0.00     0.152 C 
HETATM    6  C12 UNL     1     -21.926  18.447   6.454  1.00  0.00     0.083 C 
HETATM    7  C13 UNL     1     -20.523  18.492   7.077  1.00  0.00     0.048 C 
HETATM    8  C14 UNL     1     -22.533  17.133   6.906  1.00  0.00     0.048 C 
HETATM    9  O4  UNL     1     -21.747  18.528   5.108  1.00  0.00    -0.340 OA
ENDROOT
BRANCH   1  10
HETATM   10  O2  UNL     1     -22.373  19.192   3.067  1.00  0.00    -0.200 OA
BRANCH  10  11
HETATM   11  O1  UNL     1     -22.100  20.472   2.977  1.00  0.00    -0.225 OA
BRANCH  11  12
HETATM   12  C4  UNL     1     -22.071  20.819   1.641  1.00  0.00     0.122 C 
HETATM   13  C5  UNL     1     -23.182  20.011   0.964  1.00  0.00     0.051 C 
HETATM   14  C6  UNL     1     -22.341  22.268   1.389  1.00  0.00     0.051 C 
BRANCH  12  15
HETATM   15  C3  UNL     1     -20.786  20.411   0.962  1.00  0.00     0.287 A 
HETATM   16  N1  UNL     1     -19.840  21.447   0.685  1.00  0.00     0.096 N 
HETATM   17  C1  UNL     1     -18.901  21.353  -0.387  1.00  0.00     0.310 C 
HETATM   18  C2  UNL     1     -19.545  20.547   1.811  1.00  0.00     0.311 A 
ENDBRANCH  12  15
ENDBRANCH  11  12
ENDBRANCH  10  11
ENDBRANCH   1  10
BRANCH   5  19
HETATM   19  O3  UNL     1     -23.138  19.145   8.352  1.00  0.00    -0.393 OA
ATOM     20  H3  UNL     1     -24.063  19.356   8.405  1.00  0.00     0.210 HD
ENDBRANCH   5  19
TORSDOF 5
ENDMDL
MODEL 4
REMARK VINA RESULT: -7.210366914      2.219      3.089
REMARK  5 active torsions:
REMARK  status: ('A' for Active; 'I' for Inactive)
REMARK    1  A    between atoms: C3_4  and  C4_5 
REMARK    2  A    between atoms: C4_5  and  O1_8 
REMARK    3  A    between atoms: O1_8  and  O2_9 
REMARK    4  A    between atoms: O2_9  and  C7_10 
REMARK    5  A    between atoms: C11_14  and  O3_15 
ROOT
HETATM    1  C7  UNL     1     -22.871  19.313   4.565  1.00  0.00     0.194 C 
HETATM    2  C8  UNL     1     -23.849  18.216   4.176  1.00  0.00     0.082 C 
HETATM    3  C9  UNL     1     -23.669  20.381   5.271  1.00  0.00     0.073 C 
HETATM    4  C10 UNL     1     -23.998  20.006   6.693  1.00  0.00     0.040 C 
HETATM    5  C11 UNL     1     -22.746  19.521   7.369  1.00  0.00     0.152 C 
HETATM    6  C12 UNL     1     -21.954  18.552   6.559  1.00  0.00     0.083 C 
HETATM    7  C13 UNL     1     -20.546  18.501   7.174  1.00  0.00     0.048 C 
HETATM    8  C14 UNL     1     -22.544  17.172   6.772  1.00  0.00     0.048 C 
HETATM    9  O4  UNL     1     -21.786  18.874   5.249  1.00  0.00    -0.340 OA
ENDROOT
BRANCH   1  10
HETATM   10  O2  UNL     1     -22.432  19.886   3.363  1.00  0.00    -0.200 OA
BRANCH  10  11
HETATM   11  O1  UNL     1     -23.344  19.797   2.423  1.00  0.00    -0.225 OA
BRANCH  11  12
HETATM   12  C4  UNL     1     -23.167  20.847   1.543  1.00  0.00     0.122 C 
HETATM   13  C5  UNL     1     -21.654  21.027   1.390  1.00  0.00     0.051 C 
HETATM   14  C6  UNL     1     -23.738  20.595   0.185  1.00  0.00     0.051 C 
BRANCH  12  15
HETATM   15  C3  UNL     1     -23.690  22.155   2.085  1.00  0.00     0.287 A 
HETATM   16  N1  UNL     1     -24.622  22.870   1.270  1.00  0.00     0.096 N 
HETATM   17  C1  UNL     1     -24.767  24.289   1.346  1.00  0.00     0.310 C 
HETATM   18  C2  UNL     1     -25.158  22.157   2.441  1.00  0.00     0.311 A 
ENDBRANCH  12  15
ENDBRANCH  11  12
ENDBRANCH  10  11
ENDBRANCH   1  10
BRANCH   5  19
HETATM   19  O3  UNL     1     -23.159  18.887   8.558  1.00  0.00    -0.393 OA
ATOM     20  H3  UNL     1     -22.442  18.323   8.822  1.00  0.00     0.210 HD
ENDBRANCH   5  19
TORSDOF 5
ENDMDL
MODEL 5
REMARK VINA RESULT: -7.121373000      2.619      3.840
REMARK  5 active torsions:
REMARK  status: ('A' for Active; 'I' for Inactive)
REMARK    1  A    between atoms: C3_4  and  C4_5 
REMARK    2  A    between atoms: C4_5  and  O1_8 
REMARK    3  A    between atoms: O1_8  and  O2_9 
REMARK    4  A    between atoms: O2_9  and  C7_10 
REMARK    5  A    between atoms: C11_14  and  O3_15 
ROOT
HETATM    1  C7  UNL     1     -23.021  19.527   4.598  1.00  0.00     0.194 C 
HETATM    2  C8  UNL     1     -24.017  18.463   4.165  1.00  0.00     0.082 C 
HETATM    3  C9  UNL     1     -23.789  20.545   5.404  1.00  0.00     0.073 C 
HETATM    4  C10 UNL     1     -24.072  20.072   6.805  1.00  0.00     0.040 C 
HETATM    5  C11 UNL     1     -22.802  19.536   7.403  1.00  0.00     0.152 C 
HETATM    6  C12 UNL     1     -22.042  18.624   6.501  1.00  0.00     0.083 C 
HETATM    7  C13 UNL     1     -20.615  18.525   7.062  1.00  0.00     0.048 C 
HETATM    8  C14 UNL     1     -22.633  17.235   6.636  1.00  0.00     0.048 C 
HETATM    9  O4  UNL     1     -21.916  19.038   5.212  1.00  0.00    -0.340 OA
ENDROOT
BRANCH   1  10
HETATM   10  O2  UNL     1     -22.619  20.183   3.424  1.00  0.00    -0.200 OA
BRANCH  10  11
HETATM   11  O1  UNL     1     -23.273  21.308   3.250  1.00  0.00    -0.225 OA
BRANCH  11  12
HETATM   12  C4  UNL     1     -23.637  21.399   1.921  1.00  0.00     0.122 C 
HETATM   13  C5  UNL     1     -23.190  22.785   1.448  1.00  0.00     0.051 C 
HETATM   14  C6  UNL     1     -22.977  20.382   1.046  1.00  0.00     0.051 C 
BRANCH  12  15
HETATM   15  C3  UNL     1     -25.133  21.352   1.723  1.00  0.00     0.287 A 
HETATM   16  N1  UNL     1     -25.947  21.780   2.819  1.00  0.00     0.096 N 
HETATM   17  C1  UNL     1     -27.276  21.296   3.013  1.00  0.00     0.310 C 
HETATM   18  C2  UNL     1     -25.813  22.700   1.678  1.00  0.00     0.311 A 
ENDBRANCH  12  15
ENDBRANCH  11  12
ENDBRANCH  10  11
ENDBRANCH   1  10
BRANCH   5  19
HETATM   19  O3  UNL     1     -23.178  18.821   8.558  1.00  0.00    -0.393 OA
ATOM     20  H3  UNL     1     -23.834  19.349   8.996  1.00  0.00     0.210 HD
ENDBRANCH   5  19
TORSDOF 5
ENDMDL
