MODEL 1
REMARK VINA RESULT: -8.628979513      0.000      0.000
REMARK  3 active torsions:
REMARK  status: ('A' for Active; 'I' for Inactive)
REMARK    1  A    between atoms: C2_2  and  C10_17 
REMARK    2  A    between atoms: C3_3  and  C4_4 
REMARK    3  A    between atoms: C4_4  and  N1_5 
ROOT
HETATM    1  N1  UNL     1     -26.918  22.640   4.523  1.00  0.00    -0.326 N 
HETATM    2  C5  UNL     1     -27.859  21.948   3.758  1.00  0.00     0.195 A 
HETATM    3  N2  UNL     1     -27.399  20.950   2.847  1.00  0.00    -0.063 NA
HETATM    4  N3  UNL     1     -29.159  22.168   3.831  1.00  0.00    -0.305 N 
ATOM      5  H3  UNL     1     -29.829  21.653   3.261  1.00  0.00     0.171 HD
HETATM    6  C6  UNL     1     -29.563  23.167   4.753  1.00  0.00     0.192 A 
HETATM    7  N4  UNL     1     -30.960  23.494   4.922  1.00  0.00    -0.063 NA
HETATM    8  N5  UNL     1     -28.746  23.821   5.472  1.00  0.00    -0.338 N 
ATOM      9  H5  UNL     1     -29.132  24.520   6.107  1.00  0.00     0.164 HD
HETATM   10  C7  UNL     1     -27.356  23.658   5.460  1.00  0.00     0.103 A 
HETATM   11  C8  UNL     1     -26.588  24.950   5.273  1.00  0.00     0.063 C 
HETATM   12  C9  UNL     1     -26.918  23.155   6.852  1.00  0.00     0.063 C 
ENDROOT
BRANCH   1  13
HETATM   13  C4  UNL     1     -25.475  22.420   4.454  1.00  0.00     0.155 C 
BRANCH  13  14
HETATM   14  C3  UNL     1     -24.944  21.354   5.263  1.00  0.00    -0.004 C 
HETATM   15  C2  UNL     1     -24.166  20.400   4.819  1.00  0.00    -0.082 C 
HETATM   16  C1  UNL     1     -23.761  20.336   3.388  1.00  0.00     0.043 C 
BRANCH  15  17
HETATM   17  C10 UNL     1     -23.626  19.316   5.691  1.00  0.00     0.014 C 
HETATM   18  C11 UNL     1     -22.219  18.925   5.358  1.00  0.00     0.009 C 
HETATM   19  C12 UNL     1     -21.877  18.090   6.603  1.00  0.00     0.001 C 
HETATM   20  C13 UNL     1     -22.270  19.075   7.692  1.00  0.00     0.001 C 
HETATM   21  C14 UNL     1     -23.578  19.658   7.141  1.00  0.00     0.009 C 
ENDBRANCH  15  17
ENDBRANCH  13  14
ENDBRANCH   1  13
TORSDOF 3
ENDMDL
MODEL 2
REMARK VINA RESULT: -8.591430401      0.910      2.140
REMARK  3 active torsions:
REMARK  status: ('A' for Active; 'I' for Inactive)
REMARK    1  A    between atoms: C2_2  and  C10_17 
REMARK    2  A    between atoms: C3_3  and  C4_4 
REMARK    3  A    between atoms: C4_4  and  N1_5 
ROOT
HETATM    1  N1  UNL     1     -27.060  22.709   4.829  1.00  0.00    -0.326 N 
HETATM    2  C5  UNL     1     -27.606  23.149   6.036  1.00  0.00     0.195 A 
HETATM    3  N2  UNL     1     -26.730  23.377   7.140  1.00  0.00    -0.063 NA
HETATM    4  N3  UNL     1     -28.896  23.368   6.214  1.00  0.00    -0.305 N 
ATOM      5  H3  UNL     1     -29.274  23.688   7.105  1.00  0.00     0.171 HD
HETATM    6  C6  UNL     1     -29.722  23.130   5.086  1.00  0.00     0.192 A 
HETATM    7  N4  UNL     1     -31.149  23.336   5.159  1.00  0.00    -0.063 NA
HETATM    8  N5  UNL     1     -29.273  22.731   3.967  1.00  0.00    -0.338 N 
ATOM      9  H5  UNL     1     -29.945  22.588   3.214  1.00  0.00     0.164 HD
HETATM   10  C7  UNL     1     -27.925  22.471   3.689  1.00  0.00     0.103 A 
HETATM   11  C8  UNL     1     -27.677  21.108   3.079  1.00  0.00     0.063 C 
HETATM   12  C9  UNL     1     -27.459  23.463   2.602  1.00  0.00     0.063 C 
ENDROOT
BRANCH   1  13
HETATM   13  C4  UNL     1     -25.639  22.452   4.611  1.00  0.00     0.155 C 
BRANCH  13  14
HETATM   14  C3  UNL     1     -25.052  21.378   5.370  1.00  0.00    -0.004 C 
HETATM   15  C2  UNL     1     -24.273  20.453   4.870  1.00  0.00    -0.082 C 
HETATM   16  C1  UNL     1     -23.925  20.434   3.423  1.00  0.00     0.043 C 
BRANCH  15  17
HETATM   17  C10 UNL     1     -23.675  19.360   5.690  1.00  0.00     0.014 C 
HETATM   18  C11 UNL     1     -22.268  19.021   5.303  1.00  0.00     0.009 C 
HETATM   19  C12 UNL     1     -21.863  18.159   6.510  1.00  0.00     0.001 C 
HETATM   20  C13 UNL     1     -22.252  19.097   7.641  1.00  0.00     0.001 C 
HETATM   21  C14 UNL     1     -23.592  19.657   7.148  1.00  0.00     0.009 C 
ENDBRANCH  15  17
ENDBRANCH  13  14
ENDBRANCH   1  13
TORSDOF 3
ENDMDL
MODEL 3
REMARK VINA RESULT: -8.524164864      4.340      6.334
REMARK  3 active torsions:
REMARK  status: ('A' for Active; 'I' for Inactive)
REMARK    1  A    between atoms: C2_2  and  C10_17 
REMARK    2  A    between atoms: C3_3  and  C4_4 
REMARK    3  A    between atoms: C4_4  and  N1_5 
ROOT
HETATM    1  N1  UNL     1     -22.591  20.589   1.374  1.00  0.00    -0.326 N 
HETATM    2  C5  UNL     1     -21.463  19.769   1.297  1.00  0.00     0.195 A 
HETATM    3  N2  UNL     1     -21.403  18.608   2.125  1.00  0.00    -0.063 NA
HETATM    4  N3  UNL     1     -20.443  20.010   0.494  1.00  0.00    -0.305 N 
ATOM      5  H3  UNL     1     -19.628  19.399   0.454  1.00  0.00     0.171 HD
HETATM    6  C6  UNL     1     -20.554  21.172  -0.310  1.00  0.00     0.192 A 
HETATM    7  N4  UNL     1     -19.502  21.538  -1.229  1.00  0.00    -0.063 NA
HETATM    8  N5  UNL     1     -21.560  21.948  -0.277  1.00  0.00    -0.338 N 
ATOM      9  H5  UNL     1     -21.549  22.760  -0.893  1.00  0.00     0.164 HD
HETATM   10  C7  UNL     1     -22.682  21.774   0.542  1.00  0.00     0.103 A 
HETATM   11  C8  UNL     1     -23.042  22.997   1.358  1.00  0.00     0.063 C 
HETATM   12  C9  UNL     1     -23.909  21.548  -0.366  1.00  0.00     0.063 C 
ENDROOT
BRANCH   1  13
HETATM   13  C4  UNL     1     -23.727  20.347   2.260  1.00  0.00     0.155 C 
BRANCH  13  14
HETATM   14  C3  UNL     1     -23.477  19.540   3.427  1.00  0.00    -0.004 C 
HETATM   15  C2  UNL     1     -23.926  19.810   4.626  1.00  0.00    -0.082 C 
HETATM   16  C1  UNL     1     -24.755  21.017   4.890  1.00  0.00     0.043 C 
BRANCH  15  17
HETATM   17  C10 UNL     1     -23.654  18.944   5.811  1.00  0.00     0.014 C 
HETATM   18  C11 UNL     1     -22.523  17.983   5.604  1.00  0.00     0.009 C 
HETATM   19  C12 UNL     1     -22.298  17.527   7.056  1.00  0.00     0.001 C 
HETATM   20  C13 UNL     1     -22.175  18.880   7.737  1.00  0.00     0.001 C 
HETATM   21  C14 UNL     1     -23.281  19.689   7.047  1.00  0.00     0.009 C 
ENDBRANCH  15  17
ENDBRANCH  13  14
ENDBRANCH   1  13
TORSDOF 3
ENDMDL
MODEL 4
REMARK VINA RESULT: -8.494981744      1.106      2.398
REMARK  3 active torsions:
REMARK  status: ('A' for Active; 'I' for Inactive)
REMARK    1  A    between atoms: C2_2  and  C10_17 
REMARK    2  A    between atoms: C3_3  and  C4_4 
REMARK    3  A    between atoms: C4_4  and  N1_5 
ROOT
HETATM    1  N1  UNL     1     -27.036  22.503   4.761  1.00  0.00    -0.326 N 
HETATM    2  C5  UNL     1     -27.142  22.994   6.064  1.00  0.00     0.195 A 
HETATM    3  N2  UNL     1     -25.955  23.113   6.848  1.00  0.00    -0.063 NA
HETATM    4  N3  UNL     1     -28.286  23.356   6.614  1.00  0.00    -0.305 N 
ATOM      5  H3  UNL     1     -28.342  23.710   7.568  1.00  0.00     0.171 HD
HETATM    6  C6  UNL     1     -29.434  23.221   5.792  1.00  0.00     0.192 A 
HETATM    7  N4  UNL     1     -30.742  23.588   6.284  1.00  0.00    -0.063 NA
HETATM    8  N5  UNL     1     -29.389  22.782   4.601  1.00  0.00    -0.338 N 
ATOM      9  H5  UNL     1     -30.268  22.721   4.088  1.00  0.00     0.164 HD
HETATM   10  C7  UNL     1     -28.225  22.373   3.939  1.00  0.00     0.103 A 
HETATM   11  C8  UNL     1     -28.323  20.995   3.320  1.00  0.00     0.063 C 
HETATM   12  C9  UNL     1     -28.001  23.314   2.736  1.00  0.00     0.063 C 
ENDROOT
BRANCH   1  13
HETATM   13  C4  UNL     1     -25.784  22.088   4.135  1.00  0.00     0.155 C 
BRANCH  13  14
HETATM   14  C3  UNL     1     -24.902  21.272   4.930  1.00  0.00    -0.004 C 
HETATM   15  C2  UNL     1     -23.967  20.496   4.444  1.00  0.00    -0.082 C 
HETATM   16  C1  UNL     1     -23.737  20.387   2.977  1.00  0.00     0.043 C 
BRANCH  15  17
HETATM   17  C10 UNL     1     -23.066  19.672   5.300  1.00  0.00     0.014 C 
HETATM   18  C11 UNL     1     -23.453  19.668   6.748  1.00  0.00     0.009 C 
HETATM   19  C12 UNL     1     -22.579  18.506   7.250  1.00  0.00     0.001 C 
HETATM   20  C13 UNL     1     -22.969  17.435   6.244  1.00  0.00     0.001 C 
HETATM   21  C14 UNL     1     -23.014  18.229   4.931  1.00  0.00     0.009 C 
ENDBRANCH  15  17
ENDBRANCH  13  14
ENDBRANCH   1  13
TORSDOF 3
ENDMDL
MODEL 5
REMARK VINA RESULT: -8.431765530      2.428      3.521
REMARK  3 active torsions:
REMARK  status: ('A' for Active; 'I' for Inactive)
REMARK    1  A    between atoms: C2_2  and  C10_17 
REMARK    2  A    between atoms: C3_3  and  C4_4 
REMARK    3  A    between atoms: C4_4  and  N1_5 
ROOT
HETATM    1  N1  UNL     1     -25.543  22.104   2.085  1.00  0.00    -0.326 N 
HETATM    2  C5  UNL     1     -24.970  21.755   0.861  1.00  0.00     0.195 A 
HETATM    3  N2  UNL     1     -23.559  21.549   0.799  1.00  0.00    -0.063 NA
HETATM    4  N3  UNL     1     -25.666  21.603  -0.251  1.00  0.00    -0.305 N 
ATOM      5  H3  UNL     1     -25.228  21.350  -1.136  1.00  0.00     0.171 HD
HETATM    6  C6  UNL     1     -27.064  21.816  -0.135  1.00  0.00     0.192 A 
HETATM    7  N4  UNL     1     -27.929  21.677  -1.283  1.00  0.00    -0.063 NA
HETATM    8  N5  UNL     1     -27.631  22.133   0.956  1.00  0.00    -0.338 N 
ATOM      9  H5  UNL     1     -28.642  22.264   0.941  1.00  0.00     0.164 HD
HETATM   10  C7  UNL     1     -26.975  22.317   2.179  1.00  0.00     0.103 A 
HETATM   11  C8  UNL     1     -27.296  23.633   2.856  1.00  0.00     0.063 C 
HETATM   12  C9  UNL     1     -27.488  21.247   3.166  1.00  0.00     0.063 C 
ENDROOT
BRANCH   1  13
HETATM   13  C4  UNL     1     -24.792  22.286   3.325  1.00  0.00     0.155 C 
BRANCH  13  14
HETATM   14  C3  UNL     1     -24.279  21.094   3.951  1.00  0.00    -0.004 C 
HETATM   15  C2  UNL     1     -24.394  20.815   5.224  1.00  0.00    -0.082 C 
HETATM   16  C1  UNL     1     -25.084  21.742   6.161  1.00  0.00     0.043 C 
BRANCH  15  17
HETATM   17  C10 UNL     1     -23.857  19.564   5.835  1.00  0.00     0.014 C 
HETATM   18  C11 UNL     1     -22.580  19.092   5.210  1.00  0.00     0.009 C 
HETATM   19  C12 UNL     1     -22.147  18.048   6.254  1.00  0.00     0.001 C 
HETATM   20  C13 UNL     1     -22.237  18.890   7.516  1.00  0.00     0.001 C 
HETATM   21  C14 UNL     1     -23.536  19.675   7.286  1.00  0.00     0.009 C 
ENDBRANCH  15  17
ENDBRANCH  13  14
ENDBRANCH   1  13
TORSDOF 3
ENDMDL
