MODEL 1
REMARK VINA RESULT: -7.436602511      0.000      0.000
REMARK  5 active torsions:
REMARK  status: ('A' for Active; 'I' for Inactive)
REMARK    1  A    between atoms: C2_2  and  N1_3 
REMARK    2  A    between atoms: C6_7  and  C7_8 
REMARK    3  A    between atoms: C7_8  and  O1_10 
REMARK    4  A    between atoms: C7_8  and  N2_12 
REMARK    5  A    between atoms: N2_12  and  C9_14 
ROOT
HETATM    1  C7  UNL     1     -24.876  21.327   3.566  1.00  0.00     0.152 C 
HETATM    2  C8  UNL     1     -24.361  20.926   2.249  1.00  0.00     0.076 C 
ENDROOT
BRANCH   1   3
HETATM    3  C6  UNL     1     -26.298  21.824   3.419  1.00  0.00     0.013 C 
HETATM    4  C5  UNL     1     -26.997  21.444   2.348  1.00  0.00    -0.014 C 
HETATM    5  C4  UNL     1     -28.400  21.940   2.217  1.00  0.00     0.047 C 
HETATM    6  C3  UNL     1     -29.008  21.599   3.613  1.00  0.00     0.128 C 
HETATM    7  N1  UNL     1     -28.358  22.480   4.506  1.00  0.00    -0.368 N 
HETATM    8  C14 UNL     1     -26.967  22.701   4.372  1.00  0.00     0.134 C 
HETATM    9  C15 UNL     1     -26.423  22.663   5.784  1.00  0.00     0.062 C 
HETATM   10 CL1  UNL     1     -26.705  24.407   3.817  1.00  0.00    -0.090 Cl
BRANCH   7  11
HETATM   11  C2  UNL     1     -29.155  23.404   5.185  1.00  0.00     0.056 C 
HETATM   12  C1  UNL     1     -30.553  22.918   5.532  1.00  0.00     0.054 C 
ENDBRANCH   7  11
ENDBRANCH   1   3
BRANCH   1  13
HETATM   13  O1  UNL     1     -24.207  22.570   3.955  1.00  0.00    -0.367 OA
ATOM     14  H1  UNL     1     -23.435  22.218   4.383  1.00  0.00     0.213 HD
ENDBRANCH   1  13
BRANCH   1  15
HETATM   15  N2  UNL     1     -24.792  20.538   4.689  1.00  0.00    -0.384 N 
ATOM     16  H2  UNL     1     -25.667  20.491   5.210  1.00  0.00     0.157 HD
BRANCH  15  17
HETATM   17  C9  UNL     1     -23.804  19.811   5.252  1.00  0.00     0.079 C 
HETATM   18  C10 UNL     1     -23.775  19.847   6.755  1.00  0.00     0.025 C 
HETATM   19  C11 UNL     1     -22.958  18.637   7.151  1.00  0.00     0.002 C 
HETATM   20  C12 UNL     1     -23.065  17.654   6.039  1.00  0.00     0.002 C 
HETATM   21  C13 UNL     1     -23.683  18.364   4.858  1.00  0.00     0.025 C 
ENDBRANCH  15  17
ENDBRANCH   1  15
TORSDOF 5
ENDMDL
MODEL 2
REMARK VINA RESULT: -7.260386345      1.533      2.380
REMARK  5 active torsions:
REMARK  status: ('A' for Active; 'I' for Inactive)
REMARK    1  A    between atoms: C2_2  and  N1_3 
REMARK    2  A    between atoms: C6_7  and  C7_8 
REMARK    3  A    between atoms: C7_8  and  O1_10 
REMARK    4  A    between atoms: C7_8  and  N2_12 
REMARK    5  A    between atoms: N2_12  and  C9_14 
ROOT
HETATM    1  C7  UNL     1     -25.293  21.561   4.435  1.00  0.00     0.152 C 
HETATM    2  C8  UNL     1     -25.780  21.001   3.166  1.00  0.00     0.076 C 
ENDROOT
BRANCH   1   3
HETATM    3  C6  UNL     1     -26.315  22.537   4.977  1.00  0.00     0.013 C 
HETATM    4  C5  UNL     1     -26.303  22.811   6.283  1.00  0.00    -0.014 C 
HETATM    5  C4  UNL     1     -27.315  23.779   6.804  1.00  0.00     0.047 C 
HETATM    6  C3  UNL     1     -27.158  24.986   5.828  1.00  0.00     0.128 C 
HETATM    7  N1  UNL     1     -27.661  24.512   4.596  1.00  0.00    -0.368 N 
HETATM    8  C14 UNL     1     -27.327  23.205   4.168  1.00  0.00     0.134 C 
HETATM    9  C15 UNL     1     -26.995  23.344   2.697  1.00  0.00     0.062 C 
HETATM   10 CL1  UNL     1     -28.823  22.183   4.215  1.00  0.00    -0.090 Cl
BRANCH   7  11
HETATM   11  C2  UNL     1     -28.781  25.159   4.072  1.00  0.00     0.056 C 
HETATM   12  C1  UNL     1     -29.931  25.351   5.047  1.00  0.00     0.054 C 
ENDBRANCH   7  11
ENDBRANCH   1   3
BRANCH   1  13
HETATM   13  O1  UNL     1     -24.193  22.479   4.133  1.00  0.00    -0.367 OA
ATOM     14  H1  UNL     1     -23.538  22.163   4.744  1.00  0.00     0.213 HD
ENDBRANCH   1  13
BRANCH   1  15
HETATM   15  N2  UNL     1     -24.813  20.795   5.471  1.00  0.00    -0.384 N 
ATOM     16  H2  UNL     1     -25.335  20.923   6.337  1.00  0.00     0.157 HD
BRANCH  15  17
HETATM   17  C9  UNL     1     -23.801  19.910   5.592  1.00  0.00     0.079 C 
HETATM   18  C10 UNL     1     -23.439  19.558   7.008  1.00  0.00     0.025 C 
HETATM   19  C11 UNL     1     -22.676  18.256   6.896  1.00  0.00     0.002 C 
HETATM   20  C12 UNL     1     -23.121  17.596   5.639  1.00  0.00     0.002 C 
HETATM   21  C13 UNL     1     -23.912  18.609   4.844  1.00  0.00     0.025 C 
ENDBRANCH  15  17
ENDBRANCH   1  15
TORSDOF 5
ENDMDL
MODEL 3
REMARK VINA RESULT: -7.181357902      1.438      2.182
REMARK  5 active torsions:
REMARK  status: ('A' for Active; 'I' for Inactive)
REMARK    1  A    between atoms: C2_2  and  N1_3 
REMARK    2  A    between atoms: C6_7  and  C7_8 
REMARK    3  A    between atoms: C7_8  and  O1_10 
REMARK    4  A    between atoms: C7_8  and  N2_12 
REMARK    5  A    between atoms: N2_12  and  C9_14 
ROOT
HETATM    1  C7  UNL     1     -24.875  21.263   3.338  1.00  0.00     0.152 C 
HETATM    2  C8  UNL     1     -24.680  21.150   1.885  1.00  0.00     0.076 C 
ENDROOT
BRANCH   1   3
HETATM    3  C6  UNL     1     -26.143  22.041   3.616  1.00  0.00     0.013 C 
HETATM    4  C5  UNL     1     -26.197  22.800   4.712  1.00  0.00    -0.014 C 
HETATM    5  C4  UNL     1     -27.453  23.566   4.971  1.00  0.00     0.047 C 
HETATM    6  C3  UNL     1     -27.700  24.279   3.606  1.00  0.00     0.128 C 
HETATM    7  N1  UNL     1     -28.048  23.235   2.719  1.00  0.00    -0.368 N 
HETATM    8  C14 UNL     1     -27.326  22.018   2.765  1.00  0.00     0.134 C 
HETATM    9  C15 UNL     1     -27.080  21.651   1.317  1.00  0.00     0.062 C 
HETATM   10 CL1  UNL     1     -28.424  20.721   3.395  1.00  0.00    -0.090 Cl
BRANCH   7  11
HETATM   11  C2  UNL     1     -29.323  23.276   2.154  1.00  0.00     0.056 C 
HETATM   12  C1  UNL     1     -30.438  23.688   3.102  1.00  0.00     0.054 C 
ENDBRANCH   7  11
ENDBRANCH   1   3
BRANCH   1  13
HETATM   13  O1  UNL     1     -23.877  22.200   3.858  1.00  0.00    -0.367 OA
ATOM     14  H1  UNL     1     -23.117  21.631   3.895  1.00  0.00     0.213 HD
ENDBRANCH   1  13
BRANCH   1  15
HETATM   15  N2  UNL     1     -24.809  20.193   4.200  1.00  0.00    -0.384 N 
ATOM     16  H2  UNL     1     -25.693  19.690   4.280  1.00  0.00     0.157 HD
BRANCH  15  17
HETATM   17  C9  UNL     1     -23.830  19.663   4.963  1.00  0.00     0.079 C 
HETATM   18  C10 UNL     1     -23.948  19.960   6.432  1.00  0.00     0.025 C 
HETATM   19  C11 UNL     1     -23.089  18.913   7.105  1.00  0.00     0.002 C 
HETATM   20  C12 UNL     1     -23.019  17.747   6.183  1.00  0.00     0.002 C 
HETATM   21  C13 UNL     1     -23.571  18.186   4.847  1.00  0.00     0.025 C 
ENDBRANCH  15  17
ENDBRANCH   1  15
TORSDOF 5
ENDMDL
MODEL 4
REMARK VINA RESULT: -7.170800943      4.582      7.275
REMARK  5 active torsions:
REMARK  status: ('A' for Active; 'I' for Inactive)
REMARK    1  A    between atoms: C2_2  and  N1_3 
REMARK    2  A    between atoms: C6_7  and  C7_8 
REMARK    3  A    between atoms: C7_8  and  O1_10 
REMARK    4  A    between atoms: C7_8  and  N2_12 
REMARK    5  A    between atoms: N2_12  and  C9_14 
ROOT
HETATM    1  C7  UNL     1     -22.289  20.231   1.648  1.00  0.00     0.152 C 
HETATM    2  C8  UNL     1     -23.359  20.714   0.763  1.00  0.00     0.076 C 
ENDROOT
BRANCH   1   3
HETATM    3  C6  UNL     1     -20.968  20.824   1.208  1.00  0.00     0.013 C 
HETATM    4  C5  UNL     1     -19.856  20.435   1.834  1.00  0.00    -0.014 C 
HETATM    5  C4  UNL     1     -18.559  21.026   1.387  1.00  0.00     0.047 C 
HETATM    6  C3  UNL     1     -18.609  20.818  -0.158  1.00  0.00     0.128 C 
HETATM    7  N1  UNL     1     -19.620  21.700  -0.601  1.00  0.00    -0.368 N 
HETATM    8  C14 UNL     1     -20.821  21.806   0.141  1.00  0.00     0.134 C 
HETATM    9  C15 UNL     1     -21.925  21.813  -0.895  1.00  0.00     0.062 C 
HETATM   10 CL1  UNL     1     -20.884  23.450   0.901  1.00  0.00    -0.090 Cl
BRANCH   7  11
HETATM   11  C2  UNL     1     -19.239  22.721  -1.473  1.00  0.00     0.056 C 
HETATM   12  C1  UNL     1     -18.079  22.383  -2.396  1.00  0.00     0.054 C 
ENDBRANCH   7  11
ENDBRANCH   1   3
BRANCH   1  13
HETATM   13  O1  UNL     1     -22.052  18.818   1.343  1.00  0.00    -0.367 OA
ATOM     14  H1  UNL     1     -22.800  18.425   1.778  1.00  0.00     0.213 HD
ENDBRANCH   1  13
BRANCH   1  15
HETATM   15  N2  UNL     1     -22.362  20.268   3.020  1.00  0.00    -0.384 N 
ATOM     16  H2  UNL     1     -22.071  21.164   3.411  1.00  0.00     0.157 HD
BRANCH  15  17
HETATM   17  C9  UNL     1     -22.735  19.378   3.964  1.00  0.00     0.079 C 
HETATM   18  C10 UNL     1     -21.611  18.856   4.815  1.00  0.00     0.025 C 
HETATM   19  C11 UNL     1     -22.290  18.302   6.048  1.00  0.00     0.002 C 
HETATM   20  C12 UNL     1     -23.587  19.017   6.191  1.00  0.00     0.002 C 
HETATM   21  C13 UNL     1     -23.836  19.775   4.908  1.00  0.00     0.025 C 
ENDBRANCH  15  17
ENDBRANCH   1  15
TORSDOF 5
ENDMDL
MODEL 5
REMARK VINA RESULT: -7.132973207      1.529      2.495
REMARK  5 active torsions:
REMARK  status: ('A' for Active; 'I' for Inactive)
REMARK    1  A    between atoms: C2_2  and  N1_3 
REMARK    2  A    between atoms: C6_7  and  C7_8 
REMARK    3  A    between atoms: C7_8  and  O1_10 
REMARK    4  A    between atoms: C7_8  and  N2_12 
REMARK    5  A    between atoms: N2_12  and  C9_14 
ROOT
HETATM    1  C7  UNL     1     -24.854  21.656   3.903  1.00  0.00     0.152 C 
HETATM    2  C8  UNL     1     -25.438  21.131   2.660  1.00  0.00     0.076 C 
ENDROOT
BRANCH   1   3
HETATM    3  C6  UNL     1     -25.895  22.467   4.644  1.00  0.00     0.013 C 
HETATM    4  C5  UNL     1     -25.794  22.573   5.970  1.00  0.00    -0.014 C 
HETATM    5  C4  UNL     1     -26.827  23.379   6.688  1.00  0.00     0.047 C 
HETATM    6  C3  UNL     1     -26.841  24.709   5.873  1.00  0.00     0.128 C 
HETATM    7  N1  UNL     1     -27.409  24.356   4.628  1.00  0.00    -0.368 N 
HETATM    8  C14 UNL     1     -27.017  23.146   4.007  1.00  0.00     0.134 C 
HETATM    9  C15 UNL     1     -26.821  23.497   2.547  1.00  0.00     0.062 C 
HETATM   10 CL1  UNL     1     -28.426  22.005   4.027  1.00  0.00    -0.090 Cl
BRANCH   7  11
HETATM   11  C2  UNL     1     -28.613  24.968   4.279  1.00  0.00     0.056 C 
HETATM   12  C1  UNL     1     -29.597  25.158   5.423  1.00  0.00     0.054 C 
ENDBRANCH   7  11
ENDBRANCH   1   3
BRANCH   1  13
HETATM   13  O1  UNL     1     -23.907  22.715   3.546  1.00  0.00    -0.367 OA
ATOM     14  H1  UNL     1     -24.448  23.233   2.961  1.00  0.00     0.213 HD
ENDBRANCH   1  13
BRANCH   1  15
HETATM   15  N2  UNL     1     -24.164  20.882   4.806  1.00  0.00    -0.384 N 
ATOM     16  H2  UNL     1     -23.494  21.416   5.359  1.00  0.00     0.157 HD
BRANCH  15  17
HETATM   17  C9  UNL     1     -24.179  19.570   5.120  1.00  0.00     0.079 C 
HETATM   18  C10 UNL     1     -23.672  18.658   4.038  1.00  0.00     0.025 C 
HETATM   19  C11 UNL     1     -23.328  17.370   4.752  1.00  0.00     0.002 C 
HETATM   20  C12 UNL     1     -23.043  17.719   6.171  1.00  0.00     0.002 C 
HETATM   21  C13 UNL     1     -23.497  19.144   6.392  1.00  0.00     0.025 C 
ENDBRANCH  15  17
ENDBRANCH   1  15
TORSDOF 5
ENDMDL
