MODEL 1
REMARK VINA RESULT: -8.205103370      0.000      0.000
REMARK  4 active torsions:
REMARK  status: ('A' for Active; 'I' for Inactive)
REMARK    1  A    between atoms: C7_9  and  C8_10 
REMARK    2  A    between atoms: C8_10  and  C9_11 
REMARK    3  A    between atoms: C9_11  and  C10_12 
REMARK    4  A    between atoms: C10_12  and  N2_13 
ROOT
HETATM    1  N1  UNL     1     -23.053  18.878   8.309  1.00  0.00    -0.102 NA
HETATM    2  C1  UNL     1     -23.149  19.106   6.908  1.00  0.00     0.050 A 
HETATM    3  C2  UNL     1     -22.401  18.396   5.993  1.00  0.00     0.071 A 
HETATM    4  C3  UNL     1     -22.523  18.655   4.653  1.00  0.00     0.145 A 
HETATM    5  F1  UNL     1     -21.801  17.976   3.703  1.00  0.00    -0.204 F 
HETATM    6  C4  UNL     1     -23.386  19.632   4.138  1.00  0.00     0.080 A 
HETATM    7  C5  UNL     1     -24.136  20.343   5.044  1.00  0.00    -0.022 A 
HETATM    8  C6  UNL     1     -24.001  20.069   6.390  1.00  0.00     0.036 A 
HETATM    9  C7  UNL     1     -25.085  21.346   4.527  1.00  0.00     0.030 C 
HETATM   10  C15 UNL     1     -24.526  22.031   3.345  1.00  0.00     0.112 C 
HETATM   11  C16 UNL     1     -24.324  20.950   2.298  1.00  0.00     0.222 C 
HETATM   12  O1  UNL     1     -24.843  20.950   1.186  1.00  0.00    -0.273 OA
HETATM   13  N3  UNL     1     -23.441  19.894   2.736  1.00  0.00    -0.324 N 
ATOM     14  H3  UNL     1     -22.882  19.358   2.072  1.00  0.00     0.169 HD
ENDROOT
BRANCH   9  15
HETATM   15  C8  UNL     1     -25.674  22.195   5.616  1.00  0.00     0.011 C 
BRANCH  15  16
HETATM   16  C9  UNL     1     -26.616  23.195   5.060  1.00  0.00     0.031 C 
BRANCH  16  17
HETATM   17  C10 UNL     1     -28.068  22.856   5.068  1.00  0.00     0.272 C 
BRANCH  17  18
HETATM   18  N2  UNL     1     -28.702  22.720   3.803  1.00  0.00     0.088 N 
HETATM   19  C11 UNL     1     -28.573  21.331   3.316  1.00  0.00     0.272 C 
HETATM   20  C12 UNL     1     -28.714  21.458   1.809  1.00  0.00     0.032 C 
HETATM   21  C13 UNL     1     -27.831  22.668   1.576  1.00  0.00     0.032 C 
HETATM   22  C14 UNL     1     -28.143  23.533   2.775  1.00  0.00     0.272 C 
ENDBRANCH  17  18
ENDBRANCH  16  17
ENDBRANCH  15  16
ENDBRANCH   9  15
TORSDOF 4
ENDMDL
MODEL 2
REMARK VINA RESULT: -8.088633019      0.867      1.163
REMARK  4 active torsions:
REMARK  status: ('A' for Active; 'I' for Inactive)
REMARK    1  A    between atoms: C7_9  and  C8_10 
REMARK    2  A    between atoms: C8_10  and  C9_11 
REMARK    3  A    between atoms: C9_11  and  C10_12 
REMARK    4  A    between atoms: C10_12  and  N2_13 
ROOT
HETATM    1  N1  UNL     1     -22.879  18.864   8.280  1.00  0.00    -0.102 NA
HETATM    2  C1  UNL     1     -23.090  19.113   6.895  1.00  0.00     0.050 A 
HETATM    3  C2  UNL     1     -22.445  18.394   5.910  1.00  0.00     0.071 A 
HETATM    4  C3  UNL     1     -22.675  18.674   4.589  1.00  0.00     0.145 A 
HETATM    5  F1  UNL     1     -22.058  17.987   3.573  1.00  0.00    -0.204 F 
HETATM    6  C4  UNL     1     -23.552  19.680   4.162  1.00  0.00     0.080 A 
HETATM    7  C5  UNL     1     -24.200  20.400   5.138  1.00  0.00    -0.022 A 
HETATM    8  C6  UNL     1     -23.956  20.104   6.464  1.00  0.00     0.036 A 
HETATM    9  C7  UNL     1     -25.162  21.435   4.716  1.00  0.00     0.030 C 
HETATM   10  C15 UNL     1     -24.689  22.120   3.497  1.00  0.00     0.112 C 
HETATM   11  C16 UNL     1     -24.609  21.047   2.426  1.00  0.00     0.222 C 
HETATM   12  O1  UNL     1     -25.223  21.076   1.363  1.00  0.00    -0.273 OA
HETATM   13  N3  UNL     1     -23.722  19.962   2.773  1.00  0.00    -0.324 N 
ATOM     14  H3  UNL     1     -23.238  19.420   2.058  1.00  0.00     0.169 HD
ENDROOT
BRANCH   9  15
HETATM   15  C8  UNL     1     -25.630  22.285   5.862  1.00  0.00     0.011 C 
BRANCH  15  16
HETATM   16  C9  UNL     1     -26.598  23.308   5.403  1.00  0.00     0.031 C 
BRANCH  16  17
HETATM   17  C10 UNL     1     -28.041  23.081   5.706  1.00  0.00     0.272 C 
BRANCH  17  18
HETATM   18  N2  UNL     1     -28.854  22.615   4.639  1.00  0.00     0.088 N 
HETATM   19  C11 UNL     1     -28.315  23.083   3.345  1.00  0.00     0.272 C 
HETATM   20  C12 UNL     1     -29.517  23.062   2.418  1.00  0.00     0.032 C 
HETATM   21  C13 UNL     1     -30.551  23.685   3.335  1.00  0.00     0.032 C 
HETATM   22  C14 UNL     1     -30.199  23.083   4.676  1.00  0.00     0.272 C 
ENDBRANCH  17  18
ENDBRANCH  16  17
ENDBRANCH  15  16
ENDBRANCH   9  15
TORSDOF 4
ENDMDL
MODEL 3
REMARK VINA RESULT: -7.950835961      3.406      6.554
REMARK  4 active torsions:
REMARK  status: ('A' for Active; 'I' for Inactive)
REMARK    1  A    between atoms: C7_9  and  C8_10 
REMARK    2  A    between atoms: C8_10  and  C9_11 
REMARK    3  A    between atoms: C9_11  and  C10_12 
REMARK    4  A    between atoms: C10_12  and  N2_13 
ROOT
HETATM    1  N1  UNL     1     -25.963  21.785   2.027  1.00  0.00    -0.102 NA
HETATM    2  C1  UNL     1     -25.527  21.457   3.341  1.00  0.00     0.050 A 
HETATM    3  C2  UNL     1     -25.888  22.201   4.445  1.00  0.00     0.071 A 
HETATM    4  C3  UNL     1     -25.438  21.850   5.690  1.00  0.00     0.145 A 
HETATM    5  F1  UNL     1     -25.769  22.558   6.820  1.00  0.00    -0.204 F 
HETATM    6  C4  UNL     1     -24.604  20.747   5.921  1.00  0.00     0.080 A 
HETATM    7  C5  UNL     1     -24.241  20.000   4.826  1.00  0.00    -0.022 A 
HETATM    8  C6  UNL     1     -24.703  20.368   3.578  1.00  0.00     0.036 A 
HETATM    9  C7  UNL     1     -23.400  18.809   5.044  1.00  0.00     0.030 C 
HETATM   10  C15 UNL     1     -22.418  19.055   6.118  1.00  0.00     0.112 C 
HETATM   11  C16 UNL     1     -23.233  19.326   7.369  1.00  0.00     0.222 C 
HETATM   12  O1  UNL     1     -23.159  18.671   8.405  1.00  0.00    -0.273 OA
HETATM   13  N3  UNL     1     -24.126  20.452   7.233  1.00  0.00    -0.324 N 
ATOM     14  H3  UNL     1     -24.404  21.012   8.038  1.00  0.00     0.169 HD
ENDROOT
BRANCH   9  15
HETATM   15  C8  UNL     1     -22.901  18.215   3.758  1.00  0.00     0.011 C 
BRANCH  15  16
HETATM   16  C9  UNL     1     -21.588  18.791   3.382  1.00  0.00     0.031 C 
BRANCH  16  17
HETATM   17  C10 UNL     1     -20.857  18.162   2.244  1.00  0.00     0.272 C 
BRANCH  17  18
HETATM   18  N2  UNL     1     -20.434  19.026   1.199  1.00  0.00     0.088 N 
HETATM   19  C11 UNL     1     -18.992  19.319   1.333  1.00  0.00     0.272 C 
HETATM   20  C12 UNL     1     -18.818  20.639   0.602  1.00  0.00     0.032 C 
HETATM   21  C13 UNL     1     -20.026  21.382   1.136  1.00  0.00     0.032 C 
HETATM   22  C14 UNL     1     -21.077  20.297   1.189  1.00  0.00     0.272 C 
ENDBRANCH  17  18
ENDBRANCH  16  17
ENDBRANCH  15  16
ENDBRANCH   9  15
TORSDOF 4
ENDMDL
MODEL 4
REMARK VINA RESULT: -7.882015582      2.184      3.248
REMARK  4 active torsions:
REMARK  status: ('A' for Active; 'I' for Inactive)
REMARK    1  A    between atoms: C7_9  and  C8_10 
REMARK    2  A    between atoms: C8_10  and  C9_11 
REMARK    3  A    between atoms: C9_11  and  C10_12 
REMARK    4  A    between atoms: C10_12  and  N2_13 
ROOT
HETATM    1  N1  UNL     1     -22.678  16.832   3.517  1.00  0.00    -0.102 NA
HETATM    2  C1  UNL     1     -23.148  17.866   4.373  1.00  0.00     0.050 A 
HETATM    3  C2  UNL     1     -23.043  17.791   5.747  1.00  0.00     0.071 A 
HETATM    4  C3  UNL     1     -23.517  18.809   6.531  1.00  0.00     0.145 A 
HETATM    5  F1  UNL     1     -23.436  18.781   7.902  1.00  0.00    -0.204 F 
HETATM    6  C4  UNL     1     -24.122  19.960   6.009  1.00  0.00     0.080 A 
HETATM    7  C5  UNL     1     -24.228  20.043   4.641  1.00  0.00    -0.022 A 
HETATM    8  C6  UNL     1     -23.747  19.008   3.866  1.00  0.00     0.036 A 
HETATM    9  C7  UNL     1     -24.821  21.263   4.062  1.00  0.00     0.030 C 
HETATM   10  C15 UNL     1     -25.922  21.760   4.911  1.00  0.00     0.112 C 
HETATM   11  C16 UNL     1     -25.290  22.100   6.248  1.00  0.00     0.222 C 
HETATM   12  O1  UNL     1     -25.316  23.210   6.770  1.00  0.00    -0.273 OA
HETATM   13  N3  UNL     1     -24.639  20.971   6.872  1.00  0.00    -0.324 N 
ATOM     14  H3  UNL     1     -24.553  20.901   7.886  1.00  0.00     0.169 HD
ENDROOT
BRANCH   9  15
HETATM   15  C8  UNL     1     -25.075  21.133   2.587  1.00  0.00     0.011 C 
BRANCH  15  16
HETATM   16  C9  UNL     1     -26.128  22.079   2.145  1.00  0.00     0.031 C 
BRANCH  16  17
HETATM   17  C10 UNL     1     -27.203  21.551   1.257  1.00  0.00     0.272 C 
BRANCH  17  18
HETATM   18  N2  UNL     1     -28.543  21.844   1.628  1.00  0.00     0.088 N 
HETATM   19  C11 UNL     1     -28.701  23.294   1.860  1.00  0.00     0.272 C 
HETATM   20  C12 UNL     1     -29.900  23.387   2.788  1.00  0.00     0.032 C 
HETATM   21  C13 UNL     1     -29.558  22.269   3.752  1.00  0.00     0.032 C 
HETATM   22  C14 UNL     1     -28.968  21.221   2.837  1.00  0.00     0.272 C 
ENDBRANCH  17  18
ENDBRANCH  16  17
ENDBRANCH  15  16
ENDBRANCH   9  15
TORSDOF 4
ENDMDL
MODEL 5
REMARK VINA RESULT: -7.737913122      3.507      6.031
REMARK  4 active torsions:
REMARK  status: ('A' for Active; 'I' for Inactive)
REMARK    1  A    between atoms: C7_9  and  C8_10 
REMARK    2  A    between atoms: C8_10  and  C9_11 
REMARK    3  A    between atoms: C9_11  and  C10_12 
REMARK    4  A    between atoms: C10_12  and  N2_13 
ROOT
HETATM    1  N1  UNL     1     -20.715  17.493   7.729  1.00  0.00    -0.102 NA
HETATM    2  C1  UNL     1     -21.660  18.310   7.048  1.00  0.00     0.050 A 
HETATM    3  C2  UNL     1     -22.723  18.904   7.696  1.00  0.00     0.071 A 
HETATM    4  C3  UNL     1     -23.612  19.678   6.998  1.00  0.00     0.145 A 
HETATM    5  F1  UNL     1     -24.685  20.290   7.597  1.00  0.00    -0.204 F 
HETATM    6  C4  UNL     1     -23.506  19.910   5.619  1.00  0.00     0.080 A 
HETATM    7  C5  UNL     1     -22.449  19.322   4.967  1.00  0.00    -0.022 A 
HETATM    8  C6  UNL     1     -21.563  18.546   5.686  1.00  0.00     0.036 A 
HETATM    9  C7  UNL     1     -22.288  19.585   3.525  1.00  0.00     0.030 C 
HETATM   10  C15 UNL     1     -23.604  19.662   2.860  1.00  0.00     0.112 C 
HETATM   11  C16 UNL     1     -24.324  20.834   3.504  1.00  0.00     0.222 C 
HETATM   12  O1  UNL     1     -24.737  21.817   2.896  1.00  0.00    -0.273 OA
HETATM   13  N3  UNL     1     -24.485  20.687   4.931  1.00  0.00    -0.324 N 
ATOM     14  H3  UNL     1     -25.265  21.120   5.426  1.00  0.00     0.169 HD
ENDROOT
BRANCH   9  15
HETATM   15  C8  UNL     1     -21.235  18.719   2.897  1.00  0.00     0.011 C 
BRANCH  15  16
HETATM   16  C9  UNL     1     -20.839  19.243   1.569  1.00  0.00     0.031 C 
BRANCH  16  17
HETATM   17  C10 UNL     1     -19.422  19.673   1.389  1.00  0.00     0.272 C 
BRANCH  17  18
HETATM   18  N2  UNL     1     -19.208  20.993   0.909  1.00  0.00     0.088 N 
HETATM   19  C11 UNL     1     -20.418  21.485   0.217  1.00  0.00     0.272 C 
HETATM   20  C12 UNL     1     -19.891  22.557  -0.721  1.00  0.00     0.032 C 
HETATM   21  C13 UNL     1     -18.672  21.838  -1.264  1.00  0.00     0.032 C 
HETATM   22  C14 UNL     1     -18.156  21.110  -0.045  1.00  0.00     0.272 C 
ENDBRANCH  17  18
ENDBRANCH  16  17
ENDBRANCH  15  16
ENDBRANCH   9  15
TORSDOF 4
ENDMDL
