MODEL 1
REMARK VINA RESULT: -8.621748333      0.000      0.000
REMARK  5 active torsions:
REMARK  status: ('A' for Active; 'I' for Inactive)
REMARK    1  A    between atoms: C4_4  and  C5_5 
REMARK    2  A    between atoms: C6_6  and  O1_7 
REMARK    3  A    between atoms: N2_13  and  C8_14 
REMARK    4  A    between atoms: C8_14  and  C9_15 
REMARK    5  A    between atoms: C9_15  and  C10_16 
ROOT
HETATM    1  C5  UNL     1     -24.044  20.655   3.525  1.00  0.00     0.084 A 
HETATM    2  C6  UNL     1     -25.197  20.995   2.869  1.00  0.00     0.160 A 
HETATM    3  N1  UNL     1     -25.187  21.112   1.504  1.00  0.00    -0.288 N 
ATOM      4  H1  UNL     1     -26.044  21.366   1.011  1.00  0.00     0.172 HD
HETATM    5  C7  UNL     1     -24.050  20.895   0.806  1.00  0.00     0.331 A 
HETATM    6  O2  UNL     1     -24.082  21.013  -0.445  1.00  0.00    -0.246 OA
HETATM    7  N2  UNL     1     -22.898  20.558   1.420  1.00  0.00    -0.265 N 
HETATM    8  C12 UNL     1     -22.914  20.444   2.765  1.00  0.00     0.266 A 
HETATM    9  O3  UNL     1     -21.853  20.131   3.365  1.00  0.00    -0.267 OA
ENDROOT
BRANCH   1  10
HETATM   10  C4  UNL     1     -23.997  20.560   4.959  1.00  0.00     0.029 C 
HETATM   11  C3  UNL     1     -23.696  19.551   5.711  1.00  0.00    -0.049 C 
HETATM   12  C2  UNL     1     -23.311  18.181   5.424  1.00  0.00    -0.028 C 
HETATM   13  C13 UNL     1     -23.624  19.587   7.229  1.00  0.00     0.042 C 
HETATM   14  C1  UNL     1     -23.749  17.456   4.410  1.00  0.00     0.022 C 
HETATM   15  C15 UNL     1     -22.376  17.719   6.471  1.00  0.00     0.203 C 
HETATM   16  C14 UNL     1     -22.284  18.891   7.407  1.00  0.00     0.047 C 
HETATM   17  F1  UNL     1     -22.931  16.667   7.211  1.00  0.00    -0.244 F 
ENDBRANCH   1  10
BRANCH   2  18
HETATM   18  O1  UNL     1     -26.399  21.226   3.519  1.00  0.00    -0.345 OA
ATOM     19  H1  UNL     1     -27.218  21.371   3.060  1.00  0.00     0.219 HD
ENDBRANCH   2  18
BRANCH   7  20
HETATM   20  C8  UNL     1     -21.675  20.320   0.719  1.00  0.00     0.137 C 
BRANCH  20  21
HETATM   21  C9  UNL     1     -20.879  21.571   0.440  1.00  0.00     0.020 C 
BRANCH  21  22
HETATM   22  C10 UNL     1     -19.432  21.118   0.233  1.00  0.00    -0.003 C 
HETATM   23  C11 UNL     1     -18.808  20.803   1.579  1.00  0.00     0.005 C 
ENDBRANCH  21  22
ENDBRANCH  20  21
ENDBRANCH   7  20
TORSDOF 5
ENDMDL
MODEL 2
REMARK VINA RESULT: -8.613805851      1.768      3.869
REMARK  5 active torsions:
REMARK  status: ('A' for Active; 'I' for Inactive)
REMARK    1  A    between atoms: C4_4  and  C5_5 
REMARK    2  A    between atoms: C6_6  and  O1_7 
REMARK    3  A    between atoms: N2_13  and  C8_14 
REMARK    4  A    between atoms: C8_14  and  C9_15 
REMARK    5  A    between atoms: C9_15  and  C10_16 
ROOT
HETATM    1  C5  UNL     1     -24.176  20.822   3.478  1.00  0.00     0.084 A 
HETATM    2  C6  UNL     1     -23.115  20.580   2.647  1.00  0.00     0.160 A 
HETATM    3  N1  UNL     1     -23.283  20.682   1.291  1.00  0.00    -0.288 N 
ATOM      4  H1  UNL     1     -22.495  20.502   0.668  1.00  0.00     0.172 HD
HETATM    5  C7  UNL     1     -24.485  21.020   0.774  1.00  0.00     0.331 A 
HETATM    6  O2  UNL     1     -24.598  21.102  -0.476  1.00  0.00    -0.246 OA
HETATM    7  N2  UNL     1     -25.550  21.265   1.563  1.00  0.00    -0.265 N 
HETATM    8  C12 UNL     1     -25.379  21.163   2.897  1.00  0.00     0.266 A 
HETATM    9  O3  UNL     1     -26.355  21.387   3.659  1.00  0.00    -0.267 OA
ENDROOT
BRANCH   1  10
HETATM   10  C4  UNL     1     -24.057  20.688   4.905  1.00  0.00     0.029 C 
HETATM   11  C3  UNL     1     -23.735  19.655   5.615  1.00  0.00    -0.049 C 
HETATM   12  C2  UNL     1     -23.390  18.286   5.273  1.00  0.00    -0.028 C 
HETATM   13  C13 UNL     1     -23.583  19.651   7.126  1.00  0.00     0.042 C 
HETATM   14  C1  UNL     1     -23.893  17.595   4.266  1.00  0.00     0.022 C 
HETATM   15  C15 UNL     1     -22.411  17.782   6.258  1.00  0.00     0.203 C 
HETATM   16  C14 UNL     1     -22.249  18.928   7.217  1.00  0.00     0.047 C 
HETATM   17  F1  UNL     1     -22.945  16.721   6.999  1.00  0.00    -0.244 F 
ENDBRANCH   1  10
BRANCH   2  18
HETATM   18  O1  UNL     1     -21.855  20.236   3.108  1.00  0.00    -0.345 OA
ATOM     19  H1  UNL     1     -21.319  19.562   2.704  1.00  0.00     0.219 HD
ENDBRANCH   2  18
BRANCH   7  20
HETATM   20  C8  UNL     1     -26.837  21.625   1.055  1.00  0.00     0.137 C 
BRANCH  20  21
HETATM   21  C9  UNL     1     -26.983  23.095   0.750  1.00  0.00     0.020 C 
BRANCH  21  22
HETATM   22  C10 UNL     1     -28.159  23.213  -0.223  1.00  0.00    -0.003 C 
HETATM   23  C11 UNL     1     -28.322  21.906  -0.973  1.00  0.00     0.005 C 
ENDBRANCH  21  22
ENDBRANCH  20  21
ENDBRANCH   7  20
TORSDOF 5
ENDMDL
MODEL 3
REMARK VINA RESULT: -8.428043462      1.903      4.201
REMARK  5 active torsions:
REMARK  status: ('A' for Active; 'I' for Inactive)
REMARK    1  A    between atoms: C4_4  and  C5_5 
REMARK    2  A    between atoms: C6_6  and  O1_7 
REMARK    3  A    between atoms: N2_13  and  C8_14 
REMARK    4  A    between atoms: C8_14  and  C9_15 
REMARK    5  A    between atoms: C9_15  and  C10_16 
ROOT
HETATM    1  C5  UNL     1     -24.617  20.998   3.507  1.00  0.00     0.084 A 
HETATM    2  C6  UNL     1     -23.590  20.857   2.613  1.00  0.00     0.160 A 
HETATM    3  N1  UNL     1     -23.838  20.993   1.272  1.00  0.00    -0.288 N 
ATOM      4  H1  UNL     1     -23.076  20.887   0.602  1.00  0.00     0.172 HD
HETATM    5  C7  UNL     1     -25.087  21.266   0.832  1.00  0.00     0.331 A 
HETATM    6  O2  UNL     1     -25.274  21.383  -0.406  1.00  0.00    -0.246 OA
HETATM    7  N2  UNL     1     -26.121  21.413   1.685  1.00  0.00    -0.265 N 
HETATM    8  C12 UNL     1     -25.870  21.278   3.004  1.00  0.00     0.266 A 
HETATM    9  O3  UNL     1     -26.815  21.409   3.823  1.00  0.00    -0.267 OA
ENDROOT
BRANCH   1  10
HETATM   10  C4  UNL     1     -24.411  20.825   4.919  1.00  0.00     0.029 C 
HETATM   11  C3  UNL     1     -23.984  19.793   5.572  1.00  0.00    -0.049 C 
HETATM   12  C2  UNL     1     -23.570  18.462   5.162  1.00  0.00    -0.028 C 
HETATM   13  C13 UNL     1     -23.749  19.748   7.073  1.00  0.00     0.042 C 
HETATM   14  C1  UNL     1     -24.082  17.773   4.158  1.00  0.00     0.022 C 
HETATM   15  C15 UNL     1     -22.507  17.992   6.074  1.00  0.00     0.203 C 
HETATM   16  C14 UNL     1     -22.367  19.113   7.066  1.00  0.00     0.047 C 
HETATM   17  F1  UNL     1     -22.929  16.873   6.803  1.00  0.00    -0.244 F 
ENDBRANCH   1  10
BRANCH   2  18
HETATM   18  O1  UNL     1     -22.286  20.583   2.993  1.00  0.00    -0.345 OA
ATOM     19  H1  UNL     1     -21.724  19.976   2.525  1.00  0.00     0.219 HD
ENDBRANCH   2  18
BRANCH   7  20
HETATM   20  C8  UNL     1     -27.454  21.701   1.259  1.00  0.00     0.137 C 
BRANCH  20  21
HETATM   21  C9  UNL     1     -27.663  23.135   0.838  1.00  0.00     0.020 C 
BRANCH  21  22
HETATM   22  C10 UNL     1     -28.313  23.840   2.032  1.00  0.00    -0.003 C 
HETATM   23  C11 UNL     1     -29.609  23.135   2.383  1.00  0.00     0.005 C 
ENDBRANCH  21  22
ENDBRANCH  20  21
ENDBRANCH   7  20
TORSDOF 5
ENDMDL
MODEL 4
REMARK VINA RESULT: -8.269615550      3.720      5.539
REMARK  5 active torsions:
REMARK  status: ('A' for Active; 'I' for Inactive)
REMARK    1  A    between atoms: C4_4  and  C5_5 
REMARK    2  A    between atoms: C6_6  and  O1_7 
REMARK    3  A    between atoms: N2_13  and  C8_14 
REMARK    4  A    between atoms: C8_14  and  C9_15 
REMARK    5  A    between atoms: C9_15  and  C10_16 
ROOT
HETATM    1  C5  UNL     1     -24.760  22.372   4.090  1.00  0.00     0.084 A 
HETATM    2  C6  UNL     1     -24.382  22.570   2.789  1.00  0.00     0.160 A 
HETATM    3  N1  UNL     1     -23.847  21.529   2.076  1.00  0.00    -0.288 N 
ATOM      4  H1  UNL     1     -23.563  21.673   1.106  1.00  0.00     0.172 HD
HETATM    5  C7  UNL     1     -23.694  20.314   2.649  1.00  0.00     0.331 A 
HETATM    6  O2  UNL     1     -23.199  19.385   1.960  1.00  0.00    -0.246 OA
HETATM    7  N2  UNL     1     -24.057  20.084   3.926  1.00  0.00    -0.265 N 
HETATM    8  C12 UNL     1     -24.583  21.113   4.623  1.00  0.00     0.266 A 
HETATM    9  O3  UNL     1     -24.930  20.928   5.819  1.00  0.00    -0.267 OA
ENDROOT
BRANCH   1  10
HETATM   10  C4  UNL     1     -25.288  23.444   4.889  1.00  0.00     0.029 C 
HETATM   11  C3  UNL     1     -26.517  23.752   5.153  1.00  0.00    -0.049 C 
HETATM   12  C2  UNL     1     -27.789  23.171   4.762  1.00  0.00    -0.028 C 
HETATM   13  C13 UNL     1     -26.954  24.884   6.066  1.00  0.00     0.042 C 
HETATM   14  C1  UNL     1     -28.049  22.599   3.600  1.00  0.00     0.022 C 
HETATM   15  C15 UNL     1     -28.756  23.356   5.864  1.00  0.00     0.203 C 
HETATM   16  C14 UNL     1     -27.976  24.123   6.896  1.00  0.00     0.047 C 
HETATM   17  F1  UNL     1     -29.813  24.187   5.472  1.00  0.00    -0.244 F 
ENDBRANCH   1  10
BRANCH   2  18
HETATM   18  O1  UNL     1     -24.515  23.785   2.137  1.00  0.00    -0.345 OA
ATOM     19  H1  UNL     1     -23.788  24.234   1.721  1.00  0.00     0.219 HD
ENDBRANCH   2  18
BRANCH   7  20
HETATM   20  C8  UNL     1     -23.911  18.816   4.567  1.00  0.00     0.137 C 
BRANCH  20  21
HETATM   21  C9  UNL     1     -22.543  18.586   5.160  1.00  0.00     0.020 C 
BRANCH  21  22
HETATM   22  C10 UNL     1     -22.775  17.919   6.519  1.00  0.00    -0.003 C 
HETATM   23  C11 UNL     1     -22.737  18.975   7.608  1.00  0.00     0.005 C 
ENDBRANCH  21  22
ENDBRANCH  20  21
ENDBRANCH   7  20
TORSDOF 5
ENDMDL
MODEL 5
REMARK VINA RESULT: -8.248798343      3.766      5.764
REMARK  5 active torsions:
REMARK  status: ('A' for Active; 'I' for Inactive)
REMARK    1  A    between atoms: C4_4  and  C5_5 
REMARK    2  A    between atoms: C6_6  and  O1_7 
REMARK    3  A    between atoms: N2_13  and  C8_14 
REMARK    4  A    between atoms: C8_14  and  C9_15 
REMARK    5  A    between atoms: C9_15  and  C10_16 
ROOT
HETATM    1  C5  UNL     1     -24.680  22.200   4.612  1.00  0.00     0.084 A 
HETATM    2  C6  UNL     1     -24.191  22.127   3.335  1.00  0.00     0.160 A 
HETATM    3  N1  UNL     1     -23.554  20.986   2.921  1.00  0.00    -0.288 N 
ATOM      4  H1  UNL     1     -23.187  20.927   1.970  1.00  0.00     0.172 HD
HETATM    5  C7  UNL     1     -23.408  19.939   3.764  1.00  0.00     0.331 A 
HETATM    6  O2  UNL     1     -22.817  18.911   3.347  1.00  0.00    -0.246 OA
HETATM    7  N2  UNL     1     -23.878  19.978   5.027  1.00  0.00    -0.265 N 
HETATM    8  C12 UNL     1     -24.504  21.104   5.428  1.00  0.00     0.266 A 
HETATM    9  O3  UNL     1     -24.954  21.169   6.602  1.00  0.00    -0.267 OA
ENDROOT
BRANCH   1  10
HETATM   10  C4  UNL     1     -25.320  23.391   5.101  1.00  0.00     0.029 C 
HETATM   11  C3  UNL     1     -26.578  23.673   5.201  1.00  0.00    -0.049 C 
HETATM   12  C2  UNL     1     -27.787  22.939   4.867  1.00  0.00    -0.028 C 
HETATM   13  C13 UNL     1     -27.140  24.953   5.794  1.00  0.00     0.042 C 
HETATM   14  C1  UNL     1     -27.924  22.104   3.854  1.00  0.00     0.022 C 
HETATM   15  C15 UNL     1     -28.848  23.309   5.826  1.00  0.00     0.203 C 
HETATM   16  C14 UNL     1     -28.192  24.338   6.704  1.00  0.00     0.047 C 
HETATM   17  F1  UNL     1     -29.906  23.961   5.180  1.00  0.00    -0.244 F 
ENDBRANCH   1  10
BRANCH   2  18
HETATM   18  O1  UNL     1     -24.309  23.157   2.416  1.00  0.00    -0.345 OA
ATOM     19  H1  UNL     1     -23.585  23.721   2.171  1.00  0.00     0.219 HD
ENDBRANCH   2  18
BRANCH   7  20
HETATM   20  C8  UNL     1     -23.744  18.894   5.948  1.00  0.00     0.137 C 
BRANCH  20  21
HETATM   21  C9  UNL     1     -22.652  19.093   6.969  1.00  0.00     0.020 C 
BRANCH  21  22
HETATM   22  C10 UNL     1     -21.881  17.772   7.033  1.00  0.00    -0.003 C 
HETATM   23  C11 UNL     1     -20.497  18.026   7.600  1.00  0.00     0.005 C 
ENDBRANCH  21  22
ENDBRANCH  20  21
ENDBRANCH   7  20
TORSDOF 5
ENDMDL
