MODEL 1
REMARK VINA RESULT: -6.322716456      0.000      0.000
REMARK  3 active torsions:
REMARK  status: ('A' for Active; 'I' for Inactive)
REMARK    1  A    between atoms: S1_2  and  C2_3 
REMARK    2  A    between atoms: C3_4  and  C4_5 
REMARK    3  A    between atoms: C4_5  and  C5_6 
ROOT
HETATM    1  C2  UNL     1      74.228  33.839  -2.828  1.00  0.00     0.025 A 
HETATM    2  C3  UNL     1      73.809  34.839  -3.721  1.00  0.00     0.037 A 
HETATM    3  C6  UNL     1      72.479  35.133  -3.856  1.00  0.00     0.254 A 
HETATM    4  O3  UNL     1      72.066  36.030  -4.650  1.00  0.00    -0.268 OA
HETATM    5  N1  UNL     1      71.608  34.419  -3.094  1.00  0.00    -0.322 N 
ATOM      6  H1  UNL     1      70.611  34.620  -3.179  1.00  0.00     0.169 HD
HETATM    7  C7  UNL     1      71.998  33.456  -2.231  1.00  0.00     0.047 A 
HETATM    8  C8  UNL     1      71.047  32.800  -1.487  1.00  0.00     0.039 A 
HETATM    9  C9  UNL     1      71.434  31.843  -0.599  1.00  0.00    -0.037 A 
HETATM   10  C10 UNL     1      70.455  31.107   0.230  1.00  0.00     0.050 C 
HETATM   11  C11 UNL     1      72.753  31.541  -0.449  1.00  0.00     0.046 A 
HETATM   12 CL1  UNL     1      73.247  30.311   0.696  1.00  0.00    -0.083 Cl
HETATM   13  C12 UNL     1      73.782  32.170  -1.175  1.00  0.00    -0.026 A 
HETATM   14  C13 UNL     1      75.189  31.864  -0.952  1.00  0.00     0.051 C 
HETATM   15  C14 UNL     1      73.347  33.129  -2.066  1.00  0.00     0.016 A 
ENDROOT
BRANCH   2  16
HETATM   16  C4  UNL     1      74.819  35.590  -4.491  1.00  0.00     0.159 C 
BRANCH  16  17
HETATM   17  C5  UNL     1      74.752  35.195  -5.935  1.00  0.00     0.177 C 
HETATM   18  O1  UNL     1      74.887  36.117  -6.811  1.00  0.00    -0.648 OA
HETATM   19  O2  UNL     1      74.552  33.872  -6.241  1.00  0.00    -0.648 OA
ENDBRANCH  16  17
ENDBRANCH   2  16
BRANCH   1  20
HETATM   20  S1  UNL     1      75.963  33.533  -2.791  1.00  0.00    -0.133 SA
HETATM   21  C1  UNL     1      76.491  32.306  -4.023  1.00  0.00     0.095 C 
ENDBRANCH   1  20
TORSDOF 3
ENDMDL
MODEL 2
REMARK VINA RESULT: -6.279819361      1.171      1.308
REMARK  3 active torsions:
REMARK  status: ('A' for Active; 'I' for Inactive)
REMARK    1  A    between atoms: S1_2  and  C2_3 
REMARK    2  A    between atoms: C3_4  and  C4_5 
REMARK    3  A    between atoms: C4_5  and  C5_6 
ROOT
HETATM    1  C2  UNL     1      73.778  34.198  -3.120  1.00  0.00     0.025 A 
HETATM    2  C3  UNL     1      73.715  35.257  -4.040  1.00  0.00     0.037 A 
HETATM    3  C6  UNL     1      72.529  35.900  -4.274  1.00  0.00     0.254 A 
HETATM    4  O3  UNL     1      72.437  36.860  -5.096  1.00  0.00    -0.268 OA
HETATM    5  N1  UNL     1      71.443  35.465  -3.581  1.00  0.00    -0.322 N 
ATOM      6  H1  UNL     1      70.549  35.928  -3.740  1.00  0.00     0.169 HD
HETATM    7  C7  UNL     1      71.492  34.449  -2.692  1.00  0.00     0.047 A 
HETATM    8  C8  UNL     1      70.346  34.091  -2.023  1.00  0.00     0.039 A 
HETATM    9  C9  UNL     1      70.392  33.082  -1.111  1.00  0.00    -0.037 A 
HETATM   10  C10 UNL     1      69.191  32.656  -0.358  1.00  0.00     0.050 C 
HETATM   11  C11 UNL     1      71.563  32.434  -0.862  1.00  0.00     0.046 A 
HETATM   12 CL1  UNL     1      71.618  31.138   0.314  1.00  0.00    -0.083 Cl
HETATM   13  C12 UNL     1      72.775  32.745  -1.508  1.00  0.00    -0.026 A 
HETATM   14  C13 UNL     1      74.025  32.071  -1.180  1.00  0.00     0.051 C 
HETATM   15  C14 UNL     1      72.684  33.770  -2.427  1.00  0.00     0.016 A 
ENDROOT
BRANCH   2  16
HETATM   16  C4  UNL     1      74.945  35.690  -4.731  1.00  0.00     0.159 C 
BRANCH  16  17
HETATM   17  C5  UNL     1      74.925  35.209  -6.150  1.00  0.00     0.177 C 
HETATM   18  O1  UNL     1      75.026  36.085  -7.076  1.00  0.00    -0.648 OA
HETATM   19  O2  UNL     1      74.802  33.861  -6.381  1.00  0.00    -0.648 OA
ENDBRANCH  16  17
ENDBRANCH   2  16
BRANCH   1  20
HETATM   20  S1  UNL     1      75.357  33.431  -2.953  1.00  0.00    -0.133 SA
HETATM   21  C1  UNL     1      76.501  34.389  -1.916  1.00  0.00     0.095 C 
ENDBRANCH   1  20
TORSDOF 3
ENDMDL
MODEL 3
REMARK VINA RESULT: -6.263081561      2.852      5.128
REMARK  3 active torsions:
REMARK  status: ('A' for Active; 'I' for Inactive)
REMARK    1  A    between atoms: S1_2  and  C2_3 
REMARK    2  A    between atoms: C3_4  and  C4_5 
REMARK    3  A    between atoms: C4_5  and  C5_6 
ROOT
HETATM    1  C2  UNL     1      73.170  33.301  -1.896  1.00  0.00     0.025 A 
HETATM    2  C3  UNL     1      71.846  33.771  -1.896  1.00  0.00     0.037 A 
HETATM    3  C6  UNL     1      71.308  34.327  -3.025  1.00  0.00     0.254 A 
HETATM    4  O3  UNL     1      70.118  34.759  -3.060  1.00  0.00    -0.268 OA
HETATM    5  N1  UNL     1      72.110  34.395  -4.121  1.00  0.00    -0.322 N 
ATOM      6  H1  UNL     1      71.731  34.806  -4.975  1.00  0.00     0.169 HD
HETATM    7  C7  UNL     1      73.384  33.945  -4.135  1.00  0.00     0.047 A 
HETATM    8  C8  UNL     1      74.112  34.038  -5.297  1.00  0.00     0.039 A 
HETATM    9  C9  UNL     1      75.389  33.567  -5.325  1.00  0.00    -0.037 A 
HETATM   10  C10 UNL     1      76.219  33.638  -6.548  1.00  0.00     0.050 C 
HETATM   11  C11 UNL     1      75.939  33.008  -4.212  1.00  0.00     0.046 A 
HETATM   12 CL1  UNL     1      77.581  32.402  -4.253  1.00  0.00    -0.083 Cl
HETATM   13  C12 UNL     1      75.254  32.879  -2.988  1.00  0.00    -0.026 A 
HETATM   14  C13 UNL     1      75.850  32.225  -1.831  1.00  0.00     0.051 C 
HETATM   15  C14 UNL     1      73.966  33.372  -3.002  1.00  0.00     0.016 A 
ENDROOT
BRANCH   2  16
HETATM   16  C4  UNL     1      71.031  33.634  -0.673  1.00  0.00     0.159 C 
BRANCH  16  17
HETATM   17  C5  UNL     1      69.971  32.595  -0.884  1.00  0.00     0.177 C 
HETATM   18  O1  UNL     1      68.822  32.804  -0.366  1.00  0.00    -0.648 OA
HETATM   19  O2  UNL     1      70.288  31.482  -1.622  1.00  0.00    -0.648 OA
ENDBRANCH  16  17
ENDBRANCH   2  16
BRANCH   1  20
HETATM   20  S1  UNL     1      73.747  32.655  -0.362  1.00  0.00    -0.133 SA
HETATM   21  C1  UNL     1      73.149  30.970  -0.036  1.00  0.00     0.095 C 
ENDBRANCH   1  20
TORSDOF 3
ENDMDL
MODEL 4
REMARK VINA RESULT: -6.182439197      2.236      3.278
REMARK  3 active torsions:
REMARK  status: ('A' for Active; 'I' for Inactive)
REMARK    1  A    between atoms: S1_2  and  C2_3 
REMARK    2  A    between atoms: C3_4  and  C4_5 
REMARK    3  A    between atoms: C4_5  and  C5_6 
ROOT
HETATM    1  C2  UNL     1      73.480  34.411  -3.100  1.00  0.00     0.025 A 
HETATM    2  C3  UNL     1      74.846  34.207  -3.357  1.00  0.00     0.037 A 
HETATM    3  C6  UNL     1      75.520  33.184  -2.746  1.00  0.00     0.254 A 
HETATM    4  O3  UNL     1      76.751  32.971  -2.956  1.00  0.00    -0.268 OA
HETATM    5  N1  UNL     1      74.808  32.396  -1.896  1.00  0.00    -0.322 N 
ATOM      6  H1  UNL     1      75.290  31.629  -1.428  1.00  0.00     0.169 HD
HETATM    7  C7  UNL     1      73.494  32.581  -1.642  1.00  0.00     0.047 A 
HETATM    8  C8  UNL     1      72.852  31.721  -0.784  1.00  0.00     0.039 A 
HETATM    9  C9  UNL     1      71.524  31.888  -0.539  1.00  0.00    -0.037 A 
HETATM   10  C10 UNL     1      70.780  30.991   0.373  1.00  0.00     0.050 C 
HETATM   11  C11 UNL     1      70.837  32.897  -1.142  1.00  0.00     0.046 A 
HETATM   12 CL1  UNL     1      69.127  33.107  -0.826  1.00  0.00    -0.083 Cl
HETATM   13  C12 UNL     1      71.426  33.815  -2.032  1.00  0.00    -0.026 A 
HETATM   14  C13 UNL     1      70.653  34.850  -2.705  1.00  0.00     0.051 C 
HETATM   15  C14 UNL     1      72.774  33.614  -2.249  1.00  0.00     0.016 A 
ENDROOT
BRANCH   2  16
HETATM   16  C4  UNL     1      75.541  35.088  -4.315  1.00  0.00     0.159 C 
BRANCH  16  17
HETATM   17  C5  UNL     1      75.737  34.369  -5.615  1.00  0.00     0.177 C 
HETATM   18  O1  UNL     1      76.863  34.503  -6.205  1.00  0.00    -0.648 OA
HETATM   19  O2  UNL     1      74.705  33.605  -6.101  1.00  0.00    -0.648 OA
ENDBRANCH  16  17
ENDBRANCH   2  16
BRANCH   1  20
HETATM   20  S1  UNL     1      72.752  35.791  -3.918  1.00  0.00    -0.133 SA
HETATM   21  C1  UNL     1      73.066  37.364  -3.065  1.00  0.00     0.095 C 
ENDBRANCH   1  20
TORSDOF 3
ENDMDL
MODEL 5
REMARK VINA RESULT: -6.167558674      2.785      3.914
REMARK  3 active torsions:
REMARK  status: ('A' for Active; 'I' for Inactive)
REMARK    1  A    between atoms: S1_2  and  C2_3 
REMARK    2  A    between atoms: C3_4  and  C4_5 
REMARK    3  A    between atoms: C4_5  and  C5_6 
ROOT
HETATM    1  C2  UNL     1      73.870  33.571  -1.791  1.00  0.00     0.025 A 
HETATM    2  C3  UNL     1      75.160  33.041  -1.625  1.00  0.00     0.037 A 
HETATM    3  C6  UNL     1      75.346  31.879  -0.925  1.00  0.00     0.254 A 
HETATM    4  O3  UNL     1      76.495  31.373  -0.757  1.00  0.00    -0.268 OA
HETATM    5  N1  UNL     1      74.237  31.283  -0.413  1.00  0.00    -0.322 N 
ATOM      6  H1  UNL     1      74.351  30.417   0.114  1.00  0.00     0.169 HD
HETATM    7  C7  UNL     1      72.991  31.782  -0.568  1.00  0.00     0.047 A 
HETATM    8  C8  UNL     1      71.926  31.099  -0.031  1.00  0.00     0.039 A 
HETATM    9  C9  UNL     1      70.665  31.584  -0.201  1.00  0.00    -0.037 A 
HETATM   10  C10 UNL     1      69.482  30.889   0.351  1.00  0.00     0.050 C 
HETATM   11  C11 UNL     1      70.462  32.735  -0.898  1.00  0.00     0.046 A 
HETATM   12 CL1  UNL     1      68.839  33.354  -1.117  1.00  0.00    -0.083 Cl
HETATM   13  C12 UNL     1      71.502  33.488  -1.475  1.00  0.00    -0.026 A 
HETATM   14  C13 UNL     1      71.248  34.687  -2.264  1.00  0.00     0.051 C 
HETATM   15  C14 UNL     1      72.763  32.964  -1.277  1.00  0.00     0.016 A 
ENDROOT
BRANCH   2  16
HETATM   16  C4  UNL     1      76.311  33.733  -2.237  1.00  0.00     0.159 C 
BRANCH  16  17
HETATM   17  C5  UNL     1      76.780  32.971  -3.439  1.00  0.00     0.177 C 
HETATM   18  O1  UNL     1      78.014  32.643  -3.491  1.00  0.00    -0.648 OA
HETATM   19  O2  UNL     1      75.865  32.664  -4.415  1.00  0.00    -0.648 OA
ENDBRANCH  16  17
ENDBRANCH   2  16
BRANCH   1  20
HETATM   20  S1  UNL     1      73.784  35.095  -2.673  1.00  0.00    -0.133 SA
HETATM   21  C1  UNL     1      74.182  36.534  -1.638  1.00  0.00     0.095 C 
ENDBRANCH   1  20
TORSDOF 3
ENDMDL
