MODEL 1
REMARK VINA RESULT: -6.771412875      0.000      0.000
REMARK  4 active torsions:
REMARK  status: ('A' for Active; 'I' for Inactive)
REMARK    1  A    between atoms: C2_2  and  C3_3 
REMARK    2  A    between atoms: C4_6  and  N2_7 
REMARK    3  A    between atoms: N2_7  and  C5_9 
REMARK    4  A    between atoms: C15_22  and  C16_23 
ROOT
HETATM    1  C3  UNL     1      76.351  32.293  -4.930  1.00  0.00     0.044 A 
HETATM    2  N1  UNL     1      75.487  32.663  -3.977  1.00  0.00    -0.342 N 
ATOM      3  H1  UNL     1      75.439  32.101  -3.127  1.00  0.00     0.167 HD
HETATM    4  C4  UNL     1      74.660  33.757  -4.077  1.00  0.00     0.128 A 
HETATM    5  C13 UNL     1      74.729  34.507  -5.222  1.00  0.00     0.050 A 
HETATM    6  C14 UNL     1      73.874  35.724  -5.434  1.00  0.00     0.072 C 
HETATM    7  N3  UNL     1      75.595  34.138  -6.178  1.00  0.00    -0.350 N 
ATOM      8  H3  UNL     1      75.646  34.698  -7.029  1.00  0.00     0.166 HD
HETATM    9  C15 UNL     1      76.416  33.046  -6.070  1.00  0.00     0.133 A 
ENDROOT
BRANCH   4  10
HETATM   10  N2  UNL     1      73.922  33.959  -3.105  1.00  0.00    -0.340 N 
ATOM     11  H2  UNL     1      74.027  34.930  -2.812  1.00  0.00     0.167 HD
BRANCH  10  12
HETATM   12  C5  UNL     1      73.024  33.353  -2.291  1.00  0.00     0.040 A 
HETATM   13  C6  UNL     1      73.369  32.352  -1.393  1.00  0.00     0.038 A 
HETATM   14  C7  UNL     1      72.483  31.704  -0.569  1.00  0.00    -0.038 A 
HETATM   15  C8  UNL     1      72.933  30.637   0.370  1.00  0.00     0.050 C 
HETATM   16  C9  UNL     1      71.156  32.084  -0.646  1.00  0.00     0.040 A 
HETATM   17 CL1  UNL     1      70.025  31.268   0.394  1.00  0.00    -0.084 Cl
HETATM   18  C10 UNL     1      70.744  33.080  -1.523  1.00  0.00     0.033 A 
HETATM   19  C11 UNL     1      71.665  33.700  -2.328  1.00  0.00    -0.034 A 
HETATM   20  C12 UNL     1      71.171  34.763  -3.253  1.00  0.00     0.050 C 
ENDBRANCH  10  12
ENDBRANCH   4  10
BRANCH   1  21
HETATM   21  C2  UNL     1      77.199  31.088  -4.753  1.00  0.00     0.055 C 
HETATM   22  C1  UNL     1      77.477  30.749  -3.313  1.00  0.00     0.011 C 
ENDBRANCH   1  21
BRANCH   9  23
HETATM   23  C16 UNL     1      77.303  32.803  -7.193  1.00  0.00     0.228 C 
HETATM   24  O1  UNL     1      78.101  33.720  -7.597  1.00  0.00    -0.643 OA
HETATM   25  O2  UNL     1      77.380  31.632  -7.901  1.00  0.00    -0.643 OA
ENDBRANCH   9  23
TORSDOF 4
ENDMDL
MODEL 2
REMARK VINA RESULT: -6.720522051      5.421      6.972
REMARK  4 active torsions:
REMARK  status: ('A' for Active; 'I' for Inactive)
REMARK    1  A    between atoms: C2_2  and  C3_3 
REMARK    2  A    between atoms: C4_6  and  N2_7 
REMARK    3  A    between atoms: N2_7  and  C5_9 
REMARK    4  A    between atoms: C15_22  and  C16_23 
ROOT
HETATM    1  C3  UNL     1      74.586  35.528   2.496  1.00  0.00     0.044 A 
HETATM    2  N1  UNL     1      74.095  34.528   1.753  1.00  0.00    -0.342 N 
ATOM      3  H1  UNL     1      74.075  33.593   2.159  1.00  0.00     0.167 HD
HETATM    4  C4  UNL     1      73.614  34.688   0.475  1.00  0.00     0.128 A 
HETATM    5  C13 UNL     1      73.644  35.948  -0.065  1.00  0.00     0.050 A 
HETATM    6  C14 UNL     1      73.143  36.237  -1.451  1.00  0.00     0.072 C 
HETATM    7  N3  UNL     1      74.136  36.952   0.678  1.00  0.00    -0.350 N 
ATOM      8  H3  UNL     1      74.156  37.889   0.274  1.00  0.00     0.166 HD
HETATM    9  C15 UNL     1      74.612  36.783   1.952  1.00  0.00     0.133 A 
ENDROOT
BRANCH   4  10
HETATM   10  N2  UNL     1      73.196  33.661  -0.071  1.00  0.00    -0.340 N 
ATOM     11  H2  UNL     1      73.972  33.210  -0.557  1.00  0.00     0.167 HD
BRANCH  10  12
HETATM   12  C5  UNL     1      72.078  32.918  -0.256  1.00  0.00     0.040 A 
HETATM   13  C6  UNL     1      70.850  33.470  -0.598  1.00  0.00     0.038 A 
HETATM   14  C7  UNL     1      69.694  32.750  -0.773  1.00  0.00    -0.038 A 
HETATM   15  C8  UNL     1      68.412  33.417  -1.140  1.00  0.00     0.050 C 
HETATM   16  C9  UNL     1      69.769  31.382  -0.596  1.00  0.00     0.040 A 
HETATM   17 CL1  UNL     1      68.309  30.462  -0.815  1.00  0.00    -0.084 Cl
HETATM   18  C10 UNL     1      70.967  30.767  -0.254  1.00  0.00     0.033 A 
HETATM   19  C11 UNL     1      72.098  31.525  -0.089  1.00  0.00    -0.034 A 
HETATM   20  C12 UNL     1      73.359  30.816   0.278  1.00  0.00     0.050 C 
ENDBRANCH  10  12
ENDBRANCH   4  10
BRANCH   1  21
HETATM   21  C2  UNL     1      75.100  35.270   3.864  1.00  0.00     0.055 C 
HETATM   22  C1  UNL     1      74.028  34.907   4.856  1.00  0.00     0.011 C 
ENDBRANCH   1  21
BRANCH   9  23
HETATM   23  C16 UNL     1      75.091  37.980   2.617  1.00  0.00     0.228 C 
HETATM   24  O1  UNL     1      76.282  38.404   2.408  1.00  0.00    -0.643 OA
HETATM   25  O2  UNL     1      74.362  38.746   3.489  1.00  0.00    -0.643 OA
ENDBRANCH   9  23
TORSDOF 4
ENDMDL
MODEL 3
REMARK VINA RESULT: -6.644011160      1.198      2.656
REMARK  4 active torsions:
REMARK  status: ('A' for Active; 'I' for Inactive)
REMARK    1  A    between atoms: C2_2  and  C3_3 
REMARK    2  A    between atoms: C4_6  and  N2_7 
REMARK    3  A    between atoms: N2_7  and  C5_9 
REMARK    4  A    between atoms: C15_22  and  C16_23 
ROOT
HETATM    1  C3  UNL     1      75.337  34.193  -5.741  1.00  0.00     0.044 A 
HETATM    2  N1  UNL     1      74.631  34.301  -4.609  1.00  0.00    -0.342 N 
ATOM      3  H1  UNL     1      73.862  34.971  -4.584  1.00  0.00     0.167 HD
HETATM    4  C4  UNL     1      74.880  33.561  -3.477  1.00  0.00     0.128 A 
HETATM    5  C13 UNL     1      75.915  32.663  -3.517  1.00  0.00     0.050 A 
HETATM    6  C14 UNL     1      76.273  31.802  -2.339  1.00  0.00     0.072 C 
HETATM    7  N3  UNL     1      76.624  32.553  -4.651  1.00  0.00    -0.350 N 
ATOM      8  H3  UNL     1      77.393  31.883  -4.678  1.00  0.00     0.166 HD
HETATM    9  C15 UNL     1      76.368  33.294  -5.775  1.00  0.00     0.133 A 
ENDROOT
BRANCH   4  10
HETATM   10  N2  UNL     1      74.133  33.785  -2.517  1.00  0.00    -0.340 N 
ATOM     11  H2  UNL     1      74.616  34.401  -1.864  1.00  0.00     0.167 HD
BRANCH  10  12
HETATM   12  C5  UNL     1      72.903  33.505  -2.022  1.00  0.00     0.040 A 
HETATM   13  C6  UNL     1      72.618  32.347  -1.309  1.00  0.00     0.038 A 
HETATM   14  C7  UNL     1      71.380  32.023  -0.811  1.00  0.00    -0.038 A 
HETATM   15  C8  UNL     1      71.155  30.760  -0.053  1.00  0.00     0.050 C 
HETATM   16  C9  UNL     1      70.353  32.919  -1.041  1.00  0.00     0.040 A 
HETATM   17 CL1  UNL     1      68.781  32.516  -0.415  1.00  0.00    -0.084 Cl
HETATM   18  C10 UNL     1      70.571  34.095  -1.748  1.00  0.00     0.033 A 
HETATM   19  C11 UNL     1      71.824  34.379  -2.227  1.00  0.00    -0.034 A 
HETATM   20  C12 UNL     1      72.005  35.655  -2.980  1.00  0.00     0.050 C 
ENDBRANCH  10  12
ENDBRANCH   4  10
BRANCH   1  21
HETATM   21  C2  UNL     1      75.015  35.039  -6.916  1.00  0.00     0.055 C 
HETATM   22  C1  UNL     1      74.412  36.371  -6.556  1.00  0.00     0.011 C 
ENDBRANCH   1  21
BRANCH   9  23
HETATM   23  C16 UNL     1      77.223  33.033  -6.917  1.00  0.00     0.228 C 
HETATM   24  O1  UNL     1      77.146  31.917  -7.541  1.00  0.00    -0.643 OA
HETATM   25  O2  UNL     1      78.151  33.903  -7.426  1.00  0.00    -0.643 OA
ENDBRANCH   9  23
TORSDOF 4
ENDMDL
MODEL 4
REMARK VINA RESULT: -6.611381560      5.115      6.866
REMARK  4 active torsions:
REMARK  status: ('A' for Active; 'I' for Inactive)
REMARK    1  A    between atoms: C2_2  and  C3_3 
REMARK    2  A    between atoms: C4_6  and  N2_7 
REMARK    3  A    between atoms: N2_7  and  C5_9 
REMARK    4  A    between atoms: C15_22  and  C16_23 
ROOT
HETATM    1  C3  UNL     1      74.263  35.438   2.514  1.00  0.00     0.044 A 
HETATM    2  N1  UNL     1      73.733  34.540   1.674  1.00  0.00    -0.342 N 
ATOM      3  H1  UNL     1      72.980  33.946   2.020  1.00  0.00     0.167 HD
HETATM    4  C4  UNL     1      74.144  34.372   0.373  1.00  0.00     0.128 A 
HETATM    5  C13 UNL     1      75.157  35.174  -0.084  1.00  0.00     0.050 A 
HETATM    6  C14 UNL     1      75.682  35.078  -1.489  1.00  0.00     0.072 C 
HETATM    7  N3  UNL     1      75.690  36.075   0.756  1.00  0.00    -0.350 N 
ATOM      8  H3  UNL     1      76.443  36.672   0.412  1.00  0.00     0.166 HD
HETATM    9  C15 UNL     1      75.274  36.236   2.051  1.00  0.00     0.133 A 
ENDROOT
BRANCH   4  10
HETATM   10  N2  UNL     1      73.548  33.498  -0.267  1.00  0.00    -0.340 N 
ATOM     11  H2  UNL     1      74.141  33.199  -1.041  1.00  0.00     0.167 HD
BRANCH  10  12
HETATM   12  C5  UNL     1      72.391  32.794  -0.309  1.00  0.00     0.040 A 
HETATM   13  C6  UNL     1      71.166  33.368  -0.623  1.00  0.00     0.038 A 
HETATM   14  C7  UNL     1      69.972  32.690  -0.656  1.00  0.00    -0.038 A 
HETATM   15  C8  UNL     1      68.697  33.378  -1.004  1.00  0.00     0.050 C 
HETATM   16  C9  UNL     1      70.005  31.341  -0.353  1.00  0.00     0.040 A 
HETATM   17 CL1  UNL     1      68.497  30.474  -0.391  1.00  0.00    -0.084 Cl
HETATM   18  C10 UNL     1      71.197  30.706  -0.031  1.00  0.00     0.033 A 
HETATM   19  C11 UNL     1      72.366  31.423  -0.011  1.00  0.00    -0.034 A 
HETATM   20  C12 UNL     1      73.620  30.694   0.342  1.00  0.00     0.050 C 
ENDBRANCH  10  12
ENDBRANCH   4  10
BRANCH   1  21
HETATM   21  C2  UNL     1      73.774  35.546   3.910  1.00  0.00     0.055 C 
HETATM   22  C1  UNL     1      74.455  34.603   4.866  1.00  0.00     0.011 C 
ENDBRANCH   1  21
BRANCH   9  23
HETATM   23  C16 UNL     1      75.948  37.269   2.813  1.00  0.00     0.228 C 
HETATM   24  O1  UNL     1      75.548  38.485   2.750  1.00  0.00    -0.643 OA
HETATM   25  O2  UNL     1      77.025  37.070   3.637  1.00  0.00    -0.643 OA
ENDBRANCH   9  23
TORSDOF 4
ENDMDL
MODEL 5
REMARK VINA RESULT: -6.450301182      2.112      3.390
REMARK  4 active torsions:
REMARK  status: ('A' for Active; 'I' for Inactive)
REMARK    1  A    between atoms: C2_2  and  C3_3 
REMARK    2  A    between atoms: C4_6  and  N2_7 
REMARK    3  A    between atoms: N2_7  and  C5_9 
REMARK    4  A    between atoms: C15_22  and  C16_23 
ROOT
HETATM    1  C3  UNL     1      74.820  35.028  -5.661  1.00  0.00     0.044 A 
HETATM    2  N1  UNL     1      74.490  34.592  -4.439  1.00  0.00    -0.342 N 
ATOM      3  H1  UNL     1      74.841  33.681  -4.143  1.00  0.00     0.167 HD
HETATM    4  C4  UNL     1      73.707  35.301  -3.559  1.00  0.00     0.128 A 
HETATM    5  C13 UNL     1      73.239  36.524  -3.964  1.00  0.00     0.050 A 
HETATM    6  C14 UNL     1      72.379  37.383  -3.082  1.00  0.00     0.072 C 
HETATM    7  N3  UNL     1      73.569  36.963  -5.188  1.00  0.00    -0.350 N 
ATOM      8  H3  UNL     1      73.221  37.875  -5.486  1.00  0.00     0.166 HD
HETATM    9  C15 UNL     1      74.351  36.250  -6.058  1.00  0.00     0.133 A 
ENDROOT
BRANCH   4  10
HETATM   10  N2  UNL     1      73.498  34.753  -2.470  1.00  0.00    -0.340 N 
ATOM     11  H2  UNL     1      74.140  35.143  -1.780  1.00  0.00     0.167 HD
BRANCH  10  12
HETATM   12  C5  UNL     1      72.722  33.822  -1.864  1.00  0.00     0.040 A 
HETATM   13  C6  UNL     1      71.357  33.986  -1.665  1.00  0.00     0.038 A 
HETATM   14  C7  UNL     1      70.546  33.073  -1.038  1.00  0.00    -0.038 A 
HETATM   15  C8  UNL     1      69.087  33.322  -0.863  1.00  0.00     0.050 C 
HETATM   16  C9  UNL     1      71.140  31.912  -0.577  1.00  0.00     0.040 A 
HETATM   17 CL1  UNL     1      70.120  30.750   0.220  1.00  0.00    -0.084 Cl
HETATM   18  C10 UNL     1      72.501  31.687  -0.745  1.00  0.00     0.033 A 
HETATM   19  C11 UNL     1      73.273  32.627  -1.377  1.00  0.00    -0.034 A 
HETATM   20  C12 UNL     1      74.729  32.336  -1.531  1.00  0.00     0.050 C 
ENDBRANCH  10  12
ENDBRANCH   4  10
BRANCH   1  21
HETATM   21  C2  UNL     1      75.659  34.196  -6.558  1.00  0.00     0.055 C 
HETATM   22  C1  UNL     1      76.284  33.009  -5.875  1.00  0.00     0.011 C 
ENDBRANCH   1  21
BRANCH   9  23
HETATM   23  C16 UNL     1      74.623  36.884  -7.335  1.00  0.00     0.228 C 
HETATM   24  O1  UNL     1      73.669  37.118  -8.157  1.00  0.00    -0.643 OA
HETATM   25  O2  UNL     1      75.860  37.280  -7.774  1.00  0.00    -0.643 OA
ENDBRANCH   9  23
TORSDOF 4
ENDMDL
