MODEL 1
REMARK VINA RESULT: -7.915094726      0.000      0.000
REMARK  5 active torsions:
REMARK  status: ('A' for Active; 'I' for Inactive)
REMARK    1  A    between atoms: C2_2  and  C3_3 
REMARK    2  A    between atoms: C5_5  and  O1_6 
REMARK    3  A    between atoms: C6_8  and  C7_9 
REMARK    4  A    between atoms: N1_11  and  N2_13 
REMARK    5  A    between atoms: N2_13  and  C9_15 
ROOT
HETATM    1  C7  UNL     1      65.479  28.946   1.544  1.00  0.00     0.035 C 
HETATM    2  C8  UNL     1      64.901  28.364   0.317  1.00  0.00     0.070 C 
HETATM    3  N1  UNL     1      66.584  29.639   1.416  1.00  0.00    -0.290 N 
ATOM      4  H1  UNL     1      67.015  30.057   2.240  1.00  0.00     0.187 HD
ENDROOT
BRANCH   3   5
HETATM    5  N2  UNL     1      67.167  29.808   0.185  1.00  0.00    -0.132 N 
ATOM      6  H2  UNL     1      66.802  29.260  -0.595  1.00  0.00     0.205 HD
BRANCH   5   7
HETATM    7  C9  UNL     1      68.148  30.617  -0.051  1.00  0.00     0.697 A 
HETATM    8  N3  UNL     1      67.957  31.851  -0.551  1.00  0.00    -0.194 N 
HETATM    9  C10 UNL     1      68.985  32.701  -0.799  1.00  0.00     0.024 A 
ATOM     10  H3  UNL     1      67.006  32.159  -0.751  1.00  0.00     0.184 HD
HETATM   11  C11 UNL     1      68.715  34.052  -1.353  1.00  0.00     0.068 C 
HETATM   12  C12 UNL     1      70.281  32.310  -0.537  1.00  0.00     0.050 A 
HETATM   13  C13 UNL     1      70.475  31.051  -0.026  1.00  0.00     0.024 A 
HETATM   14  C14 UNL     1      71.874  30.612   0.263  1.00  0.00     0.068 C 
HETATM   15  N4  UNL     1      69.427  30.252   0.201  1.00  0.00    -0.194 N 
ATOM     16  H4  UNL     1      69.600  29.321   0.581  1.00  0.00     0.184 HD
ENDBRANCH   5   7
ENDBRANCH   3   5
BRANCH   1  17
HETATM   17  C6  UNL     1      64.878  28.780   2.864  1.00  0.00     0.022 A 
HETATM   18  C5  UNL     1      65.638  28.721   4.004  1.00  0.00     0.078 A 
HETATM   19  C4  UNL     1      65.061  28.561   5.259  1.00  0.00     0.046 A 
HETATM   20  C3  UNL     1      63.710  28.462   5.339  1.00  0.00    -0.034 A 
HETATM   21  C16 UNL     1      62.896  28.515   4.212  1.00  0.00     0.041 A 
HETATM   22  C15 UNL     1      63.511  28.676   2.976  1.00  0.00     0.040 A 
HETATM   23 CL1  UNL     1      61.160  28.388   4.293  1.00  0.00    -0.084 Cl
BRANCH  18  24
HETATM   24  O1  UNL     1      67.007  28.818   3.967  1.00  0.00    -0.360 OA
ATOM     25  H1  UNL     1      67.450  28.295   3.311  1.00  0.00     0.217 HD
ENDBRANCH  18  24
BRANCH  20  26
HETATM   26  C2  UNL     1      63.012  28.288   6.636  1.00  0.00     0.036 C 
HETATM   27  C1  UNL     1      62.552  29.597   7.219  1.00  0.00     0.010 C 
ENDBRANCH  20  26
ENDBRANCH   1  17
TORSDOF 5
ENDMDL
MODEL 2
REMARK VINA RESULT: -7.330097401      3.938      8.768
REMARK  5 active torsions:
REMARK  status: ('A' for Active; 'I' for Inactive)
REMARK    1  A    between atoms: C2_2  and  C3_3 
REMARK    2  A    between atoms: C5_5  and  O1_6 
REMARK    3  A    between atoms: C6_8  and  C7_9 
REMARK    4  A    between atoms: N1_11  and  N2_13 
REMARK    5  A    between atoms: N2_13  and  C9_15 
ROOT
HETATM    1  C7  UNL     1      69.435  31.818  -0.756  1.00  0.00     0.035 C 
HETATM    2  C8  UNL     1      68.645  33.064  -0.765  1.00  0.00     0.070 C 
HETATM    3  N1  UNL     1      68.773  30.688  -0.734  1.00  0.00    -0.290 N 
ATOM      4  H1  UNL     1      69.284  29.804  -0.726  1.00  0.00     0.187 HD
ENDROOT
BRANCH   3   5
HETATM    5  N2  UNL     1      67.401  30.679  -0.721  1.00  0.00    -0.132 N 
ATOM      6  H2  UNL     1      66.914  31.265  -1.401  1.00  0.00     0.205 HD
BRANCH   5   7
HETATM    7  C9  UNL     1      66.685  29.977   0.095  1.00  0.00     0.697 A 
HETATM    8  N3  UNL     1      66.874  30.008   1.427  1.00  0.00    -0.194 N 
HETATM    9  C10 UNL     1      66.125  29.272   2.284  1.00  0.00     0.024 A 
ATOM     10  H3  UNL     1      67.608  30.607   1.805  1.00  0.00     0.184 HD
HETATM   11  C11 UNL     1      66.378  29.346   3.745  1.00  0.00     0.068 C 
HETATM   12  C12 UNL     1      65.125  28.455   1.799  1.00  0.00     0.050 A 
HETATM   13  C13 UNL     1      64.931  28.424   0.441  1.00  0.00     0.024 A 
HETATM   14  C14 UNL     1      63.853  27.543  -0.101  1.00  0.00     0.068 C 
HETATM   15  N4  UNL     1      65.699  29.169  -0.362  1.00  0.00    -0.194 N 
ATOM     16  H4  UNL     1      65.533  29.127  -1.368  1.00  0.00     0.184 HD
ENDBRANCH   5   7
ENDBRANCH   3   5
BRANCH   1  17
HETATM   17  C6  UNL     1      70.895  31.801  -0.768  1.00  0.00     0.022 A 
HETATM   18  C5  UNL     1      71.622  32.605  -1.608  1.00  0.00     0.078 A 
HETATM   19  C4  UNL     1      73.013  32.584  -1.617  1.00  0.00     0.046 A 
HETATM   20  C3  UNL     1      73.650  31.740  -0.766  1.00  0.00    -0.034 A 
HETATM   21  C16 UNL     1      72.957  30.905   0.105  1.00  0.00     0.041 A 
HETATM   22  C15 UNL     1      71.568  30.955   0.083  1.00  0.00     0.040 A 
HETATM   23 CL1  UNL     1      73.756  29.814   1.204  1.00  0.00    -0.084 Cl
BRANCH  18  24
HETATM   24  O1  UNL     1      71.018  33.472  -2.483  1.00  0.00    -0.360 OA
ATOM     25  H1  UNL     1      70.077  33.570  -2.399  1.00  0.00     0.217 HD
ENDBRANCH  18  24
BRANCH  20  26
HETATM   26  C2  UNL     1      75.129  31.652  -0.710  1.00  0.00     0.036 C 
HETATM   27  C1  UNL     1      75.778  32.076  -2.000  1.00  0.00     0.010 C 
ENDBRANCH  20  26
ENDBRANCH   1  17
TORSDOF 5
ENDMDL
MODEL 3
REMARK VINA RESULT: -7.282181350      3.936      8.703
REMARK  5 active torsions:
REMARK  status: ('A' for Active; 'I' for Inactive)
REMARK    1  A    between atoms: C2_2  and  C3_3 
REMARK    2  A    between atoms: C5_5  and  O1_6 
REMARK    3  A    between atoms: C6_8  and  C7_9 
REMARK    4  A    between atoms: N1_11  and  N2_13 
REMARK    5  A    between atoms: N2_13  and  C9_15 
ROOT
HETATM    1  C7  UNL     1      69.424  31.845  -0.758  1.00  0.00     0.035 C 
HETATM    2  C8  UNL     1      68.643  33.096  -0.776  1.00  0.00     0.070 C 
HETATM    3  N1  UNL     1      68.754  30.720  -0.728  1.00  0.00    -0.290 N 
ATOM      4  H1  UNL     1      69.258  29.833  -0.714  1.00  0.00     0.187 HD
ENDROOT
BRANCH   3   5
HETATM    5  N2  UNL     1      67.381  30.721  -0.715  1.00  0.00    -0.132 N 
ATOM      6  H2  UNL     1      66.899  31.338  -1.370  1.00  0.00     0.205 HD
BRANCH   5   7
HETATM    7  C9  UNL     1      66.660  29.993   0.074  1.00  0.00     0.697 A 
HETATM    8  N3  UNL     1      65.688  29.184  -0.385  1.00  0.00    -0.194 N 
HETATM    9  C10 UNL     1      64.930  28.420   0.440  1.00  0.00     0.024 A 
ATOM     10  H3  UNL     1      65.514  29.143  -1.389  1.00  0.00     0.184 HD
HETATM   11  C11 UNL     1      63.870  27.545  -0.121  1.00  0.00     0.068 C 
HETATM   12  C12 UNL     1      65.145  28.454   1.802  1.00  0.00     0.050 A 
HETATM   13  C13 UNL     1      66.137  29.279   2.269  1.00  0.00     0.024 A 
HETATM   14  C14 UNL     1      66.382  29.329   3.743  1.00  0.00     0.068 C 
HETATM   15  N4  UNL     1      66.856  30.013   1.413  1.00  0.00    -0.194 N 
ATOM     16  H4  UNL     1      67.587  30.618   1.788  1.00  0.00     0.184 HD
ENDBRANCH   5   7
ENDBRANCH   3   5
BRANCH   1  17
HETATM   17  C6  UNL     1      70.884  31.817  -0.771  1.00  0.00     0.022 A 
HETATM   18  C5  UNL     1      71.616  32.616  -1.611  1.00  0.00     0.078 A 
HETATM   19  C4  UNL     1      73.007  32.585  -1.620  1.00  0.00     0.046 A 
HETATM   20  C3  UNL     1      73.638  31.735  -0.770  1.00  0.00    -0.034 A 
HETATM   21  C16 UNL     1      72.940  30.906   0.101  1.00  0.00     0.041 A 
HETATM   22  C15 UNL     1      71.551  30.966   0.080  1.00  0.00     0.040 A 
HETATM   23 CL1  UNL     1      73.730  29.808   1.199  1.00  0.00    -0.084 Cl
BRANCH  18  24
HETATM   24  O1  UNL     1      71.018  33.488  -2.485  1.00  0.00    -0.360 OA
ATOM     25  H1  UNL     1      70.094  33.656  -2.348  1.00  0.00     0.217 HD
ENDBRANCH  18  24
BRANCH  20  26
HETATM   26  C2  UNL     1      75.116  31.637  -0.714  1.00  0.00     0.036 C 
HETATM   27  C1  UNL     1      75.769  32.069  -2.000  1.00  0.00     0.010 C 
ENDBRANCH  20  26
ENDBRANCH   1  17
TORSDOF 5
ENDMDL
MODEL 4
REMARK VINA RESULT: -7.109618575      1.968      2.961
REMARK  5 active torsions:
REMARK  status: ('A' for Active; 'I' for Inactive)
REMARK    1  A    between atoms: C2_2  and  C3_3 
REMARK    2  A    between atoms: C5_5  and  O1_6 
REMARK    3  A    between atoms: C6_8  and  C7_9 
REMARK    4  A    between atoms: N1_11  and  N2_13 
REMARK    5  A    between atoms: N2_13  and  C9_15 
ROOT
HETATM    1  C7  UNL     1      66.348  29.443   0.322  1.00  0.00     0.035 C 
HETATM    2  C8  UNL     1      65.882  29.188  -1.055  1.00  0.00     0.070 C 
HETATM    3  N1  UNL     1      67.510  30.031   0.463  1.00  0.00    -0.290 N 
ATOM      4  H1  UNL     1      67.867  30.224   1.398  1.00  0.00     0.187 HD
ENDROOT
BRANCH   3   5
HETATM    5  N2  UNL     1      68.252  30.390  -0.635  1.00  0.00    -0.132 N 
ATOM      6  H2  UNL     1      67.890  30.142  -1.556  1.00  0.00     0.205 HD
BRANCH   5   7
HETATM    7  C9  UNL     1      69.380  31.021  -0.577  1.00  0.00     0.697 A 
HETATM    8  N3  UNL     1      70.468  30.494   0.013  1.00  0.00    -0.194 N 
HETATM    9  C10 UNL     1      71.651  31.154   0.076  1.00  0.00     0.024 A 
ATOM     10  H3  UNL     1      70.401  29.565   0.429  1.00  0.00     0.184 HD
HETATM   11  C11 UNL     1      72.820  30.525   0.740  1.00  0.00     0.068 C 
HETATM   12  C12 UNL     1      71.768  32.412  -0.479  1.00  0.00     0.050 A 
HETATM   13  C13 UNL     1      70.658  32.948  -1.082  1.00  0.00     0.024 A 
HETATM   14  C14 UNL     1      70.769  34.309  -1.687  1.00  0.00     0.068 C 
HETATM   15  N4  UNL     1      69.515  32.255  -1.116  1.00  0.00    -0.194 N 
ATOM     16  H4  UNL     1      68.705  32.678  -1.570  1.00  0.00     0.184 HD
ENDBRANCH   5   7
ENDBRANCH   3   5
BRANCH   1  17
HETATM   17  C6  UNL     1      65.578  29.071   1.505  1.00  0.00     0.022 A 
HETATM   18  C5  UNL     1      64.383  28.404   1.412  1.00  0.00     0.078 A 
HETATM   19  C4  UNL     1      63.652  28.053   2.542  1.00  0.00     0.046 A 
HETATM   20  C3  UNL     1      64.149  28.387   3.760  1.00  0.00    -0.034 A 
HETATM   21  C16 UNL     1      65.356  29.063   3.907  1.00  0.00     0.041 A 
HETATM   22  C15 UNL     1      66.056  29.397   2.753  1.00  0.00     0.040 A 
HETATM   23 CL1  UNL     1      66.010  29.503   5.461  1.00  0.00    -0.084 Cl
BRANCH  18  24
HETATM   24  O1  UNL     1      63.846  28.047   0.201  1.00  0.00    -0.360 OA
ATOM     25  H1  UNL     1      64.407  28.153  -0.558  1.00  0.00     0.217 HD
ENDBRANCH  18  24
BRANCH  20  26
HETATM   26  C2  UNL     1      63.435  28.053   5.016  1.00  0.00     0.036 C 
HETATM   27  C1  UNL     1      61.990  28.470   4.984  1.00  0.00     0.010 C 
ENDBRANCH  20  26
ENDBRANCH   1  17
TORSDOF 5
ENDMDL
MODEL 5
REMARK VINA RESULT: -7.080386801      1.966      2.381
REMARK  5 active torsions:
REMARK  status: ('A' for Active; 'I' for Inactive)
REMARK    1  A    between atoms: C2_2  and  C3_3 
REMARK    2  A    between atoms: C5_5  and  O1_6 
REMARK    3  A    between atoms: C6_8  and  C7_9 
REMARK    4  A    between atoms: N1_11  and  N2_13 
REMARK    5  A    between atoms: N2_13  and  C9_15 
ROOT
HETATM    1  C7  UNL     1      66.346  29.439   0.324  1.00  0.00     0.035 C 
HETATM    2  C8  UNL     1      65.875  29.182  -1.051  1.00  0.00     0.070 C 
HETATM    3  N1  UNL     1      67.509  30.027   0.459  1.00  0.00    -0.290 N 
ATOM      4  H1  UNL     1      67.869  30.222   1.393  1.00  0.00     0.187 HD
ENDROOT
BRANCH   3   5
HETATM    5  N2  UNL     1      68.247  30.382  -0.642  1.00  0.00    -0.132 N 
ATOM      6  H2  UNL     1      67.896  30.109  -1.560  1.00  0.00     0.205 HD
BRANCH   5   7
HETATM    7  C9  UNL     1      69.360  31.040  -0.590  1.00  0.00     0.697 A 
HETATM    8  N3  UNL     1      69.492  32.270  -1.121  1.00  0.00    -0.194 N 
HETATM    9  C10 UNL     1      70.657  32.961  -1.068  1.00  0.00     0.024 A 
ATOM     10  H3  UNL     1      68.687  32.697  -1.578  1.00  0.00     0.184 HD
HETATM   11  C11 UNL     1      70.747  34.315  -1.671  1.00  0.00     0.068 C 
HETATM   12  C12 UNL     1      71.761  32.407  -0.455  1.00  0.00     0.050 A 
HETATM   13  C13 UNL     1      71.625  31.153   0.087  1.00  0.00     0.024 A 
HETATM   14  C14 UNL     1      72.812  30.537   0.755  1.00  0.00     0.068 C 
HETATM   15  N4  UNL     1      70.454  30.513   0.008  1.00  0.00    -0.194 N 
ATOM     16  H4  UNL     1      70.381  29.582   0.419  1.00  0.00     0.184 HD
ENDBRANCH   5   7
ENDBRANCH   3   5
BRANCH   1  17
HETATM   17  C6  UNL     1      65.579  29.071   1.510  1.00  0.00     0.022 A 
HETATM   18  C5  UNL     1      64.382  28.407   1.422  1.00  0.00     0.078 A 
HETATM   19  C4  UNL     1      63.654  28.058   2.555  1.00  0.00     0.046 A 
HETATM   20  C3  UNL     1      64.157  28.393   3.771  1.00  0.00    -0.034 A 
HETATM   21  C16 UNL     1      65.366  29.066   3.913  1.00  0.00     0.041 A 
HETATM   22  C15 UNL     1      66.063  29.396   2.756  1.00  0.00     0.040 A 
HETATM   23 CL1  UNL     1      66.028  29.505   5.463  1.00  0.00    -0.084 Cl
BRANCH  18  24
HETATM   24  O1  UNL     1      63.839  28.050   0.213  1.00  0.00    -0.360 OA
ATOM     25  H1  UNL     1      64.410  28.116  -0.543  1.00  0.00     0.217 HD
ENDBRANCH  18  24
BRANCH  20  26
HETATM   26  C2  UNL     1      63.447  28.062   5.030  1.00  0.00     0.036 C 
HETATM   27  C1  UNL     1      62.004  28.486   5.004  1.00  0.00     0.010 C 
ENDBRANCH  20  26
ENDBRANCH   1  17
TORSDOF 5
ENDMDL
