MODEL 1
REMARK VINA RESULT: -6.040793608      0.000      0.000
REMARK  6 active torsions:
REMARK  status: ('A' for Active; 'I' for Inactive)
REMARK    1  A    between atoms: C2_2  and  C3_3 
REMARK    2  A    between atoms: C4_4  and  C5_5 
REMARK    3  A    between atoms: C5_5  and  N1_6 
REMARK    4  A    between atoms: C9_13  and  O1_14 
REMARK    5  A    between atoms: N2_18  and  C12_19 
REMARK    6  A    between atoms: C12_19  and  C15_22 
ROOT
HETATM    1  C3  UNL     1      71.333  31.937  -0.737  1.00  0.00    -0.017 A 
HETATM    2  C4  UNL     1      72.595  31.515  -0.659  1.00  0.00    -0.023 A 
HETATM    3  C6  UNL     1      73.607  32.086  -1.418  1.00  0.00     0.019 A 
HETATM    4  C7  UNL     1      73.212  33.131  -2.285  1.00  0.00    -0.020 A 
HETATM    5  C8  UNL     1      71.907  33.572  -2.352  1.00  0.00    -0.015 A 
HETATM    6  C9  UNL     1      70.962  33.000  -1.590  1.00  0.00     0.079 A 
HETATM    7  C10 UNL     1      71.668  34.888  -3.077  1.00  0.00     0.072 C 
HETATM    8  C11 UNL     1      73.132  35.511  -2.995  1.00  0.00     0.278 C 
HETATM    9  N2  UNL     1      73.897  34.813  -3.938  1.00  0.00     0.103 N 
HETATM   10  C18 UNL     1      74.216  33.546  -3.335  1.00  0.00     0.312 C 
ENDROOT
BRANCH   9  11
HETATM   11  C12 UNL     1      75.060  35.370  -4.509  1.00  0.00     0.173 C 
HETATM   12  C13 UNL     1      76.081  34.197  -4.379  1.00  0.00     0.051 C 
HETATM   13  C14 UNL     1      75.664  36.519  -3.757  1.00  0.00     0.051 C 
BRANCH  11  14
HETATM   14  C15 UNL     1      75.087  35.616  -5.985  1.00  0.00     0.065 C 
HETATM   15  C16 UNL     1      74.047  36.539  -6.542  1.00  0.00     0.035 C 
HETATM   16  C17 UNL     1      76.428  36.332  -6.262  1.00  0.00     0.035 C 
HETATM   17 CL1  UNL     1      75.030  34.118  -6.880  1.00  0.00    -0.117 Cl
ENDBRANCH  11  14
ENDBRANCH   9  11
BRANCH   6  18
HETATM   18  O1  UNL     1      69.686  33.496  -1.670  1.00  0.00    -0.360 OA
ATOM     19  H1  UNL     1      69.424  34.330  -1.299  1.00  0.00     0.217 HD
ENDBRANCH   6  18
BRANCH   2  20
HETATM   20  C5  UNL     1      72.995  30.375   0.301  1.00  0.00     0.268 C 
BRANCH  20  21
HETATM   21  N1  UNL     1      74.516  30.540   0.318  1.00  0.00    -0.075 N 
ATOM     22  H13 UNL     1      75.053  29.680   0.208  1.00  0.00     0.274 HD
ATOM     23  H12 UNL     1      74.918  30.998  -0.500  1.00  0.00     0.274 HD
ATOM     24  H11 UNL     1      74.643  31.029   1.203  1.00  0.00     0.274 HD
ENDBRANCH  20  21
ENDBRANCH   2  20
BRANCH   1  25
HETATM   25  C2  UNL     1      70.278  31.294   0.095  1.00  0.00     0.037 C 
HETATM   26  C1  UNL     1      69.660  30.252  -0.875  1.00  0.00     0.010 C 
ENDBRANCH   1  25
TORSDOF 6
ENDMDL
MODEL 2
REMARK VINA RESULT: -5.945432872      1.364      1.742
REMARK  6 active torsions:
REMARK  status: ('A' for Active; 'I' for Inactive)
REMARK    1  A    between atoms: C2_2  and  C3_3 
REMARK    2  A    between atoms: C4_4  and  C5_5 
REMARK    3  A    between atoms: C5_5  and  N1_6 
REMARK    4  A    between atoms: C9_13  and  O1_14 
REMARK    5  A    between atoms: N2_18  and  C12_19 
REMARK    6  A    between atoms: C12_19  and  C15_22 
ROOT
HETATM    1  C3  UNL     1      71.672  31.788  -0.502  1.00  0.00    -0.017 A 
HETATM    2  C4  UNL     1      72.877  31.347  -0.143  1.00  0.00    -0.023 A 
HETATM    3  C6  UNL     1      74.018  31.660  -0.870  1.00  0.00     0.019 A 
HETATM    4  C7  UNL     1      73.817  32.463  -2.016  1.00  0.00    -0.020 A 
HETATM    5  C8  UNL     1      72.569  32.927  -2.374  1.00  0.00    -0.015 A 
HETATM    6  C9  UNL     1      71.494  32.610  -1.636  1.00  0.00     0.079 A 
HETATM    7  C10 UNL     1      72.526  34.021  -3.431  1.00  0.00     0.072 C 
HETATM    8  C11 UNL     1      74.012  34.582  -3.300  1.00  0.00     0.278 C 
HETATM    9  N2  UNL     1      74.833  33.633  -3.921  1.00  0.00     0.103 N 
HETATM   10  C18 UNL     1      74.974  32.551  -2.983  1.00  0.00     0.312 C 
ENDROOT
BRANCH   9  11
HETATM   11  C12 UNL     1      76.098  33.975  -4.442  1.00  0.00     0.173 C 
HETATM   12  C13 UNL     1      77.029  32.930  -3.750  1.00  0.00     0.051 C 
HETATM   13  C14 UNL     1      76.624  35.320  -4.036  1.00  0.00     0.051 C 
BRANCH  11  14
HETATM   14  C15 UNL     1      76.377  33.699  -5.887  1.00  0.00     0.065 C 
HETATM   15  C16 UNL     1      76.710  32.289  -6.261  1.00  0.00     0.035 C 
HETATM   16  C17 UNL     1      75.053  33.994  -6.627  1.00  0.00     0.035 C 
HETATM   17 CL1  UNL     1      77.634  34.744  -6.502  1.00  0.00    -0.117 Cl
ENDBRANCH  11  14
ENDBRANCH   9  11
BRANCH   6  18
HETATM   18  O1  UNL     1      70.281  33.123  -2.017  1.00  0.00    -0.360 OA
ATOM     19  H1  UNL     1      70.087  34.053  -2.034  1.00  0.00     0.217 HD
ENDBRANCH   6  18
BRANCH   2  20
HETATM   20  C5  UNL     1      73.064  30.475   1.117  1.00  0.00     0.268 C 
BRANCH  20  21
HETATM   21  N1  UNL     1      74.443  29.874   0.843  1.00  0.00    -0.075 N 
ATOM     22  H13 UNL     1      74.500  29.247   0.042  1.00  0.00     0.274 HD
ATOM     23  H12 UNL     1      75.146  30.525   0.492  1.00  0.00     0.274 HD
ATOM     24  H11 UNL     1      74.648  29.452   1.749  1.00  0.00     0.274 HD
ENDBRANCH  20  21
ENDBRANCH   2  20
BRANCH   1  25
HETATM   25  C2  UNL     1      70.473  31.426   0.306  1.00  0.00     0.037 C 
HETATM   26  C1  UNL     1      69.847  30.262  -0.507  1.00  0.00     0.010 C 
ENDBRANCH   1  25
TORSDOF 6
ENDMDL
MODEL 3
REMARK VINA RESULT: -5.579843323      1.048      1.074
REMARK  6 active torsions:
REMARK  status: ('A' for Active; 'I' for Inactive)
REMARK    1  A    between atoms: C2_2  and  C3_3 
REMARK    2  A    between atoms: C4_4  and  C5_5 
REMARK    3  A    between atoms: C5_5  and  N1_6 
REMARK    4  A    between atoms: C9_13  and  O1_14 
REMARK    5  A    between atoms: N2_18  and  C12_19 
REMARK    6  A    between atoms: C12_19  and  C15_22 
ROOT
HETATM    1  C3  UNL     1      71.104  32.148  -0.359  1.00  0.00    -0.017 A 
HETATM    2  C4  UNL     1      72.386  31.941  -0.058  1.00  0.00    -0.023 A 
HETATM    3  C6  UNL     1      73.404  32.680  -0.645  1.00  0.00     0.019 A 
HETATM    4  C7  UNL     1      72.997  33.652  -1.588  1.00  0.00    -0.020 A 
HETATM    5  C8  UNL     1      71.668  33.869  -1.885  1.00  0.00    -0.015 A 
HETATM    6  C9  UNL     1      70.714  33.141  -1.285  1.00  0.00     0.079 A 
HETATM    7  C10 UNL     1      71.343  35.133  -2.668  1.00  0.00     0.072 C 
HETATM    8  C11 UNL     1      72.647  35.991  -2.350  1.00  0.00     0.278 C 
HETATM    9  N2  UNL     1      73.668  35.439  -3.133  1.00  0.00     0.103 N 
HETATM   10  C18 UNL     1      74.083  34.237  -2.458  1.00  0.00     0.312 C 
ENDROOT
BRANCH   9  11
HETATM   11  C12 UNL     1      74.803  36.187  -3.507  1.00  0.00     0.173 C 
HETATM   12  C13 UNL     1      75.925  35.102  -3.500  1.00  0.00     0.051 C 
HETATM   13  C14 UNL     1      75.242  37.233  -2.526  1.00  0.00     0.051 C 
BRANCH  11  14
HETATM   14  C15 UNL     1      74.896  36.692  -4.914  1.00  0.00     0.065 C 
HETATM   15  C16 UNL     1      74.452  38.099  -5.165  1.00  0.00     0.035 C 
HETATM   16  C17 UNL     1      76.404  36.694  -5.253  1.00  0.00     0.035 C 
HETATM   17 CL1  UNL     1      74.051  35.641  -6.023  1.00  0.00    -0.117 Cl
ENDBRANCH  11  14
ENDBRANCH   9  11
BRANCH   6  18
HETATM   18  O1  UNL     1      69.407  33.418  -1.592  1.00  0.00    -0.360 OA
ATOM     19  H1  UNL     1      69.124  34.229  -1.998  1.00  0.00     0.217 HD
ENDBRANCH   6  18
BRANCH   2  20
HETATM   20  C5  UNL     1      72.798  30.876   0.979  1.00  0.00     0.268 C 
BRANCH  20  21
HETATM   21  N1  UNL     1      74.154  30.445   0.418  1.00  0.00    -0.075 N 
ATOM     22  H13 UNL     1      74.229  29.464   0.152  1.00  0.00     0.274 HD
ATOM     23  H12 UNL     1      74.381  30.804  -0.509  1.00  0.00     0.274 HD
ATOM     24  H11 UNL     1      74.774  30.746   1.171  1.00  0.00     0.274 HD
ENDBRANCH  20  21
ENDBRANCH   2  20
BRANCH   1  25
HETATM   25  C2  UNL     1      70.043  31.331   0.293  1.00  0.00     0.037 C 
HETATM   26  C1  UNL     1      69.779  30.211  -0.749  1.00  0.00     0.010 C 
ENDBRANCH   1  25
TORSDOF 6
ENDMDL
MODEL 4
REMARK VINA RESULT: -5.502338755      3.154      6.808
REMARK  6 active torsions:
REMARK  status: ('A' for Active; 'I' for Inactive)
REMARK    1  A    between atoms: C2_2  and  C3_3 
REMARK    2  A    between atoms: C4_4  and  C5_5 
REMARK    3  A    between atoms: C5_5  and  N1_6 
REMARK    4  A    between atoms: C9_13  and  O1_14 
REMARK    5  A    between atoms: N2_18  and  C12_19 
REMARK    6  A    between atoms: C12_19  and  C15_22 
ROOT
HETATM    1  C3  UNL     1      73.013  38.024  -3.785  1.00  0.00    -0.017 A 
HETATM    2  C4  UNL     1      73.472  37.999  -2.534  1.00  0.00    -0.023 A 
HETATM    3  C6  UNL     1      73.277  36.903  -1.704  1.00  0.00     0.019 A 
HETATM    4  C7  UNL     1      72.551  35.827  -2.265  1.00  0.00    -0.020 A 
HETATM    5  C8  UNL     1      72.089  35.855  -3.564  1.00  0.00    -0.015 A 
HETATM    6  C9  UNL     1      72.312  36.929  -4.336  1.00  0.00     0.079 A 
HETATM    7  C10 UNL     1      71.604  34.534  -4.143  1.00  0.00     0.072 C 
HETATM    8  C11 UNL     1      72.350  33.520  -3.166  1.00  0.00     0.278 C 
HETATM    9  N2  UNL     1      71.645  33.565  -1.957  1.00  0.00     0.103 N 
HETATM   10  C18 UNL     1      72.059  34.776  -1.298  1.00  0.00     0.312 C 
ENDROOT
BRANCH   9  11
HETATM   11  C12 UNL     1      71.674  32.494  -1.041  1.00  0.00     0.173 C 
HETATM   12  C13 UNL     1      71.947  33.228   0.310  1.00  0.00     0.051 C 
HETATM   13  C14 UNL     1      72.807  31.526  -1.212  1.00  0.00     0.051 C 
BRANCH  11  14
HETATM   14  C15 UNL     1      70.395  31.781  -0.731  1.00  0.00     0.065 C 
HETATM   15  C16 UNL     1      70.038  30.612  -1.594  1.00  0.00     0.035 C 
HETATM   16  C17 UNL     1      70.588  31.178   0.679  1.00  0.00     0.035 C 
HETATM   17 CL1  UNL     1      69.041  32.885  -0.711  1.00  0.00    -0.117 Cl
ENDBRANCH  11  14
ENDBRANCH   9  11
BRANCH   6  18
HETATM   18  O1  UNL     1      71.860  36.894  -5.630  1.00  0.00    -0.360 OA
ATOM     19  H1  UNL     1      71.129  36.358  -5.916  1.00  0.00     0.217 HD
ENDBRANCH   6  18
BRANCH   2  20
HETATM   20  C5  UNL     1      74.266  39.188  -1.953  1.00  0.00     0.268 C 
BRANCH  20  21
HETATM   21  N1  UNL     1      75.669  38.584  -1.882  1.00  0.00    -0.075 N 
ATOM     22  H13 UNL     1      75.724  37.577  -2.035  1.00  0.00     0.274 HD
ATOM     23  H12 UNL     1      76.291  38.822  -2.655  1.00  0.00     0.274 HD
ATOM     24  H11 UNL     1      75.968  38.907  -0.962  1.00  0.00     0.274 HD
ENDBRANCH  20  21
ENDBRANCH   2  20
BRANCH   1  25
HETATM   25  C2  UNL     1      73.244  39.222  -4.641  1.00  0.00     0.037 C 
HETATM   26  C1  UNL     1      74.489  38.817  -5.473  1.00  0.00     0.010 C 
ENDBRANCH   1  25
TORSDOF 6
ENDMDL
MODEL 5
REMARK VINA RESULT: -5.489852240      1.681      2.282
REMARK  6 active torsions:
REMARK  status: ('A' for Active; 'I' for Inactive)
REMARK    1  A    between atoms: C2_2  and  C3_3 
REMARK    2  A    between atoms: C4_4  and  C5_5 
REMARK    3  A    between atoms: C5_5  and  N1_6 
REMARK    4  A    between atoms: C9_13  and  O1_14 
REMARK    5  A    between atoms: N2_18  and  C12_19 
REMARK    6  A    between atoms: C12_19  and  C15_22 
ROOT
HETATM    1  C3  UNL     1      72.450  32.876  -0.693  1.00  0.00    -0.017 A 
HETATM    2  C4  UNL     1      73.250  33.877  -0.327  1.00  0.00    -0.023 A 
HETATM    3  C6  UNL     1      73.741  34.796  -1.244  1.00  0.00     0.019 A 
HETATM    4  C7  UNL     1      73.348  34.594  -2.588  1.00  0.00    -0.020 A 
HETATM    5  C8  UNL     1      72.510  33.563  -2.958  1.00  0.00    -0.015 A 
HETATM    6  C9  UNL     1      72.048  32.705  -2.036  1.00  0.00     0.079 A 
HETATM    7  C10 UNL     1      71.919  33.636  -4.358  1.00  0.00     0.072 C 
HETATM    8  C11 UNL     1      72.086  35.195  -4.642  1.00  0.00     0.278 C 
HETATM    9  N2  UNL     1      73.447  35.390  -4.909  1.00  0.00     0.103 N 
HETATM   10  C18 UNL     1      74.111  35.375  -3.632  1.00  0.00     0.312 C 
ENDROOT
BRANCH   9  11
HETATM   11  C12 UNL     1      73.904  36.487  -5.667  1.00  0.00     0.173 C 
HETATM   12  C13 UNL     1      74.848  37.211  -4.656  1.00  0.00     0.051 C 
HETATM   13  C14 UNL     1      72.859  37.497  -6.040  1.00  0.00     0.051 C 
BRANCH  11  14
HETATM   14  C15 UNL     1      74.841  36.231  -6.806  1.00  0.00     0.065 C 
HETATM   15  C16 UNL     1      74.490  36.841  -8.128  1.00  0.00     0.035 C 
HETATM   16  C17 UNL     1      76.172  36.906  -6.408  1.00  0.00     0.035 C 
HETATM   17 CL1  UNL     1      75.102  34.521  -7.041  1.00  0.00    -0.117 Cl
ENDBRANCH  11  14
ENDBRANCH   9  11
BRANCH   6  18
HETATM   18  O1  UNL     1      71.193  31.718  -2.450  1.00  0.00    -0.360 OA
ATOM     19  H1  UNL     1      70.510  31.852  -3.098  1.00  0.00     0.217 HD
ENDBRANCH   6  18
BRANCH   2  20
HETATM   20  C5  UNL     1      73.656  34.072   1.150  1.00  0.00     0.268 C 
BRANCH  20  21
HETATM   21  N1  UNL     1      75.178  33.963   1.041  1.00  0.00    -0.075 N 
ATOM     22  H13 UNL     1      75.623  33.331   1.706  1.00  0.00     0.274 HD
ATOM     23  H12 UNL     1      75.527  33.478   0.215  1.00  0.00     0.274 HD
ATOM     24  H11 UNL     1      75.444  34.945   1.120  1.00  0.00     0.274 HD
ENDBRANCH  20  21
ENDBRANCH   2  20
BRANCH   1  25
HETATM   25  C2  UNL     1      71.948  31.910   0.326  1.00  0.00     0.037 C 
HETATM   26  C1  UNL     1      72.969  30.745   0.230  1.00  0.00     0.010 C 
ENDBRANCH   1  25
TORSDOF 6
ENDMDL
