MODEL 1
REMARK VINA RESULT: -6.541601688      0.000      0.000
REMARK  3 active torsions:
REMARK  status: ('A' for Active; 'I' for Inactive)
REMARK    1  A    between atoms: C10_11  and  C11_12 
REMARK    2  A    between atoms: C14_19  and  C15_20 
REMARK    3  A    between atoms: C15_20  and  C16_21 
ROOT
HETATM    1  C1  UNL     1      72.435  30.993   1.069  1.00  0.00     0.049 C 
HETATM    2  C2  UNL     1      72.979  31.667  -0.160  1.00  0.00    -0.052 A 
HETATM    3  C3  UNL     1      74.246  31.376  -0.618  1.00  0.00     0.015 A 
HETATM    4  C4  UNL     1      74.858  31.949  -1.706  1.00  0.00    -0.045 A 
HETATM    5  C5  UNL     1      76.222  31.566  -2.105  1.00  0.00     0.049 C 
HETATM    6  C6  UNL     1      74.120  32.917  -2.405  1.00  0.00     0.048 A 
HETATM    7  C7  UNL     1      74.697  33.552  -3.466  1.00  0.00     0.198 A 
HETATM    8  O1  UNL     1      75.839  33.265  -3.848  1.00  0.00    -0.286 OA
HETATM    9  C8  UNL     1      73.992  34.561  -4.151  1.00  0.00     0.050 A 
HETATM   10  C9  UNL     1      74.401  35.308  -5.198  1.00  0.00     0.034 A 
HETATM   11  C10 UNL     1      73.544  36.249  -5.678  1.00  0.00    -0.001 A 
HETATM   12  S1  UNL     1      72.171  36.074  -4.662  1.00  0.00    -0.075 SA
HETATM   13  C12 UNL     1      72.737  34.818  -3.668  1.00  0.00     0.089 A 
HETATM   14  N1  UNL     1      72.193  34.165  -2.611  1.00  0.00    -0.348 N 
ATOM     15  H1  UNL     1      71.249  34.413  -2.313  1.00  0.00     0.166 HD
HETATM   16  C13 UNL     1      72.856  33.197  -1.938  1.00  0.00     0.055 A 
HETATM   17  C14 UNL     1      72.269  32.604  -0.843  1.00  0.00    -0.015 A 
ENDROOT
BRANCH  17  18
HETATM   18  C15 UNL     1      70.913  32.996  -0.411  1.00  0.00     0.154 C 
BRANCH  18  19
HETATM   19  C16 UNL     1      69.856  32.059  -0.850  1.00  0.00     0.177 C 
HETATM   20  O2  UNL     1      68.690  32.201  -0.409  1.00  0.00    -0.648 OA
HETATM   21  O3  UNL     1      70.115  31.007  -1.752  1.00  0.00    -0.648 OA
ENDBRANCH  18  19
ENDBRANCH  17  18
BRANCH  11  22
HETATM   22  C11 UNL     1      73.751  37.212  -6.822  1.00  0.00     0.160 C 
HETATM   23 CL1  UNL     1      74.807  36.403  -8.025  1.00  0.00    -0.125 Cl
ENDBRANCH  11  22
TORSDOF 3
ENDMDL
MODEL 2
REMARK VINA RESULT: -6.507943388      3.729      5.996
REMARK  3 active torsions:
REMARK  status: ('A' for Active; 'I' for Inactive)
REMARK    1  A    between atoms: C10_11  and  C11_12 
REMARK    2  A    between atoms: C14_19  and  C15_20 
REMARK    3  A    between atoms: C15_20  and  C16_21 
ROOT
HETATM    1  C1  UNL     1      75.247  35.785  -3.204  1.00  0.00     0.049 C 
HETATM    2  C2  UNL     1      74.488  34.694  -2.500  1.00  0.00    -0.052 A 
HETATM    3  C3  UNL     1      75.143  33.583  -2.015  1.00  0.00     0.015 A 
HETATM    4  C4  UNL     1      74.552  32.514  -1.385  1.00  0.00    -0.045 A 
HETATM    5  C5  UNL     1      75.349  31.372  -0.910  1.00  0.00     0.049 C 
HETATM    6  C6  UNL     1      73.158  32.568  -1.228  1.00  0.00     0.048 A 
HETATM    7  C7  UNL     1      72.514  31.513  -0.651  1.00  0.00     0.198 A 
HETATM    8  O1  UNL     1      73.136  30.529  -0.229  1.00  0.00    -0.286 OA
HETATM    9  C8  UNL     1      71.111  31.526  -0.528  1.00  0.00     0.050 A 
HETATM   10  C9  UNL     1      70.305  30.574  -0.011  1.00  0.00     0.034 A 
HETATM   11  C10 UNL     1      68.964  30.804  -0.026  1.00  0.00    -0.001 A 
HETATM   12  S1  UNL     1      68.847  32.353  -0.757  1.00  0.00    -0.075 SA
HETATM   13  C12 UNL     1      70.499  32.647  -1.018  1.00  0.00     0.089 A 
HETATM   14  N1  UNL     1      71.171  33.681  -1.584  1.00  0.00    -0.348 N 
ATOM     15  H1  UNL     1      70.642  34.485  -1.924  1.00  0.00     0.166 HD
HETATM   16  C13 UNL     1      72.517  33.685  -1.715  1.00  0.00     0.055 A 
HETATM   17  C14 UNL     1      73.138  34.741  -2.342  1.00  0.00    -0.015 A 
ENDROOT
BRANCH  17  18
HETATM   18  C15 UNL     1      72.352  35.882  -2.850  1.00  0.00     0.154 C 
BRANCH  18  19
HETATM   19  C16 UNL     1      71.742  35.640  -4.176  1.00  0.00     0.177 C 
HETATM   20  O2  UNL     1      72.271  36.146  -5.196  1.00  0.00    -0.648 OA
HETATM   21  O3  UNL     1      70.582  34.854  -4.335  1.00  0.00    -0.648 OA
ENDBRANCH  18  19
ENDBRANCH  17  18
BRANCH  11  22
HETATM   22  C11 UNL     1      67.853  29.914   0.476  1.00  0.00     0.160 C 
HETATM   23 CL1  UNL     1      66.554  29.923  -0.761  1.00  0.00    -0.125 Cl
ENDBRANCH  11  22
TORSDOF 3
ENDMDL
MODEL 3
REMARK VINA RESULT: -6.495348311      3.485      5.929
REMARK  3 active torsions:
REMARK  status: ('A' for Active; 'I' for Inactive)
REMARK    1  A    between atoms: C10_11  and  C11_12 
REMARK    2  A    between atoms: C14_19  and  C15_20 
REMARK    3  A    between atoms: C15_20  and  C16_21 
ROOT
HETATM    1  C1  UNL     1      77.575  33.481  -4.141  1.00  0.00     0.049 C 
HETATM    2  C2  UNL     1      76.553  32.920  -3.191  1.00  0.00    -0.052 A 
HETATM    3  C3  UNL     1      76.913  31.987  -2.243  1.00  0.00     0.015 A 
HETATM    4  C4  UNL     1      76.064  31.384  -1.347  1.00  0.00    -0.045 A 
HETATM    5  C5  UNL     1      76.556  30.393  -0.377  1.00  0.00     0.049 C 
HETATM    6  C6  UNL     1      74.713  31.758  -1.411  1.00  0.00     0.048 A 
HETATM    7  C7  UNL     1      73.818  31.156  -0.576  1.00  0.00     0.198 A 
HETATM    8  O1  UNL     1      74.178  30.320   0.263  1.00  0.00    -0.286 OA
HETATM    9  C8  UNL     1      72.449  31.481  -0.657  1.00  0.00     0.050 A 
HETATM   10  C9  UNL     1      71.424  30.980   0.063  1.00  0.00     0.034 A 
HETATM   11  C10 UNL     1      70.172  31.434  -0.218  1.00  0.00    -0.001 A 
HETATM   12  S1  UNL     1      70.446  32.563  -1.482  1.00  0.00    -0.075 SA
HETATM   13  C12 UNL     1      72.133  32.414  -1.608  1.00  0.00     0.089 A 
HETATM   14  N1  UNL     1      73.050  32.994  -2.422  1.00  0.00    -0.348 N 
ATOM     15  H1  UNL     1      72.735  33.684  -3.104  1.00  0.00     0.166 HD
HETATM   16  C13 UNL     1      74.367  32.692  -2.361  1.00  0.00     0.055 A 
HETATM   17  C14 UNL     1      75.242  33.279  -3.247  1.00  0.00    -0.015 A 
ENDROOT
BRANCH  17  18
HETATM   18  C15 UNL     1      74.762  34.255  -4.244  1.00  0.00     0.154 C 
BRANCH  18  19
HETATM   19  C16 UNL     1      74.178  33.631  -5.452  1.00  0.00     0.177 C 
HETATM   20  O2  UNL     1      74.910  33.421  -6.449  1.00  0.00    -0.648 OA
HETATM   21  O3  UNL     1      72.819  33.260  -5.521  1.00  0.00    -0.648 OA
ENDBRANCH  18  19
ENDBRANCH  17  18
BRANCH  11  22
HETATM   22  C11 UNL     1      68.864  31.041   0.424  1.00  0.00     0.160 C 
HETATM   23 CL1  UNL     1      67.829  30.323  -0.853  1.00  0.00    -0.125 Cl
ENDBRANCH  11  22
TORSDOF 3
ENDMDL
MODEL 4
REMARK VINA RESULT: -6.246659658      1.705      3.904
REMARK  3 active torsions:
REMARK  status: ('A' for Active; 'I' for Inactive)
REMARK    1  A    between atoms: C10_11  and  C11_12 
REMARK    2  A    between atoms: C14_19  and  C15_20 
REMARK    3  A    between atoms: C15_20  and  C16_21 
ROOT
HETATM    1  C1  UNL     1      73.685  29.946   0.794  1.00  0.00     0.049 C 
HETATM    2  C2  UNL     1      73.103  31.052  -0.042  1.00  0.00    -0.052 A 
HETATM    3  C3  UNL     1      71.751  31.315  -0.017  1.00  0.00     0.015 A 
HETATM    4  C4  UNL     1      71.106  32.275  -0.759  1.00  0.00    -0.045 A 
HETATM    5  C5  UNL     1      69.651  32.468  -0.657  1.00  0.00     0.049 C 
HETATM    6  C6  UNL     1      71.903  33.050  -1.615  1.00  0.00     0.048 A 
HETATM    7  C7  UNL     1      71.309  33.986  -2.409  1.00  0.00     0.198 A 
HETATM    8  O1  UNL     1      70.089  34.194  -2.361  1.00  0.00    -0.286 OA
HETATM    9  C8  UNL     1      72.084  34.741  -3.311  1.00  0.00     0.050 A 
HETATM   10  C9  UNL     1      71.675  35.686  -4.182  1.00  0.00     0.034 A 
HETATM   11  C10 UNL     1      72.615  36.263  -4.978  1.00  0.00    -0.001 A 
HETATM   12  S1  UNL     1      74.064  35.481  -4.492  1.00  0.00    -0.075 SA
HETATM   13  C12 UNL     1      73.422  34.452  -3.304  1.00  0.00     0.089 A 
HETATM   14  N1  UNL     1      73.982  33.514  -2.498  1.00  0.00    -0.348 N 
ATOM     15  H1  UNL     1      74.989  33.360  -2.550  1.00  0.00     0.166 HD
HETATM   16  C13 UNL     1      73.253  32.778  -1.629  1.00  0.00     0.055 A 
HETATM   17  C14 UNL     1      73.871  31.808  -0.873  1.00  0.00    -0.015 A 
ENDROOT
BRANCH  17  18
HETATM   18  C15 UNL     1      75.325  31.581  -0.982  1.00  0.00     0.154 C 
BRANCH  18  19
HETATM   19  C16 UNL     1      76.128  32.819  -0.880  1.00  0.00     0.177 C 
HETATM   20  O2  UNL     1      77.040  33.029  -1.717  1.00  0.00    -0.648 OA
HETATM   21  O3  UNL     1      75.902  33.778   0.129  1.00  0.00    -0.648 OA
ENDBRANCH  18  19
ENDBRANCH  17  18
BRANCH  11  22
HETATM   22  C11 UNL     1      72.430  37.329  -6.031  1.00  0.00     0.160 C 
HETATM   23 CL1  UNL     1      73.904  37.343  -7.052  1.00  0.00    -0.125 Cl
ENDBRANCH  11  22
TORSDOF 3
ENDMDL
MODEL 5
REMARK VINA RESULT: -5.975578662      3.667      6.714
REMARK  3 active torsions:
REMARK  status: ('A' for Active; 'I' for Inactive)
REMARK    1  A    between atoms: C10_11  and  C11_12 
REMARK    2  A    between atoms: C14_19  and  C15_20 
REMARK    3  A    between atoms: C15_20  and  C16_21 
ROOT
HETATM    1  C1  UNL     1      71.197  35.623  -3.726  1.00  0.00     0.049 C 
HETATM    2  C2  UNL     1      71.446  34.469  -2.795  1.00  0.00    -0.052 A 
HETATM    3  C3  UNL     1      70.440  33.994  -1.981  1.00  0.00     0.015 A 
HETATM    4  C4  UNL     1      70.560  32.970  -1.072  1.00  0.00    -0.045 A 
HETATM    5  C5  UNL     1      69.418  32.546  -0.247  1.00  0.00     0.049 C 
HETATM    6  C6  UNL     1      71.820  32.362  -0.971  1.00  0.00     0.048 A 
HETATM    7  C7  UNL     1      72.007  31.372  -0.052  1.00  0.00     0.198 A 
HETATM    8  O1  UNL     1      71.081  30.972   0.665  1.00  0.00    -0.286 OA
HETATM    9  C8  UNL     1      73.278  30.782   0.100  1.00  0.00     0.050 A 
HETATM   10  C9  UNL     1      73.656  29.814   0.962  1.00  0.00     0.034 A 
HETATM   11  C10 UNL     1      74.958  29.422   0.940  1.00  0.00    -0.001 A 
HETATM   12  S1  UNL     1      75.637  30.406  -0.291  1.00  0.00    -0.075 SA
HETATM   13  C12 UNL     1      74.247  31.278  -0.728  1.00  0.00     0.089 A 
HETATM   14  N1  UNL     1      74.026  32.264  -1.634  1.00  0.00    -0.348 N 
ATOM     15  H1  UNL     1      74.802  32.578  -2.218  1.00  0.00     0.166 HD
HETATM   16  C13 UNL     1      72.815  32.845  -1.792  1.00  0.00     0.055 A 
HETATM   17  C14 UNL     1      72.665  33.874  -2.693  1.00  0.00    -0.015 A 
ENDROOT
BRANCH  17  18
HETATM   18  C15 UNL     1      73.806  34.332  -3.510  1.00  0.00     0.154 C 
BRANCH  18  19
HETATM   19  C16 UNL     1      74.122  33.436  -4.643  1.00  0.00     0.177 C 
HETATM   20  O2  UNL     1      75.226  32.840  -4.664  1.00  0.00    -0.648 OA
HETATM   21  O3  UNL     1      73.220  33.226  -5.707  1.00  0.00    -0.648 OA
ENDBRANCH  18  19
ENDBRANCH  17  18
BRANCH  11  22
HETATM   22  C11 UNL     1      75.639  28.377   1.792  1.00  0.00     0.160 C 
HETATM   23 CL1  UNL     1      76.827  27.525   0.754  1.00  0.00    -0.125 Cl
ENDBRANCH  11  22
TORSDOF 3
ENDMDL
