MODEL 1
REMARK VINA RESULT: -7.032829075      0.000      0.000
REMARK  6 active torsions:
REMARK  status: ('A' for Active; 'I' for Inactive)
REMARK    1  A    between atoms: C3_3  and  N1_6 
REMARK    2  A    between atoms: N1_6  and  C6_8 
REMARK    3  A    between atoms: C6_8  and  C7_9 
REMARK    4  A    between atoms: C8_10  and  C9_11 
REMARK    5  A    between atoms: C12_14  and  O1_15 
REMARK    6  A    between atoms: N2_20  and  O2_22 
ROOT
HETATM    1  C1  UNL     1      62.908  27.576   3.235  1.00  0.00     0.099 C 
HETATM    2  C2  UNL     1      63.921  28.167   2.890  1.00  0.00    -0.157 C 
HETATM    3  C3  UNL     1      65.132  28.895   2.493  1.00  0.00     0.076 C 
HETATM    4  C4  UNL     1      64.773  30.328   2.210  1.00  0.00     0.051 C 
HETATM    5  C5  UNL     1      66.106  28.840   3.672  1.00  0.00     0.051 C 
ENDROOT
BRANCH   3   6
HETATM    6  N1  UNL     1      65.733  28.324   1.310  1.00  0.00    -0.356 N 
ATOM      7  H1  UNL     1      66.213  27.429   1.403  1.00  0.00     0.162 HD
BRANCH   6   8
HETATM    8  C6  UNL     1      65.697  28.924   0.034  1.00  0.00     0.122 C 
HETATM    9  N2  UNL     1      64.772  28.621  -0.802  1.00  0.00    -0.253 N 
ATOM     10  H2  UNL     1      64.759  29.063  -1.722  1.00  0.00     0.196 HD
BRANCH   8  11
HETATM   11  C7  UNL     1      66.707  29.892  -0.365  1.00  0.00     0.051 C 
HETATM   12  C8  UNL     1      67.876  29.934   0.235  1.00  0.00     0.015 C 
BRANCH  12  13
HETATM   13  C9  UNL     1      68.909  30.883  -0.132  1.00  0.00    -0.035 A 
HETATM   14  C10 UNL     1      68.601  32.149  -0.599  1.00  0.00     0.014 A 
HETATM   15  C11 UNL     1      69.583  33.048  -0.947  1.00  0.00     0.039 A 
HETATM   16  C12 UNL     1      70.919  32.747  -0.851  1.00  0.00     0.085 A 
HETATM   17  C14 UNL     1      71.251  31.495  -0.389  1.00  0.00     0.045 A 
HETATM   18 BR1  UNL     1      73.099  31.053  -0.247  1.00  0.00    -0.048 Br
HETATM   19  C15 UNL     1      70.247  30.583  -0.036  1.00  0.00     0.033 A 
BRANCH  16  20
HETATM   20  O1  UNL     1      71.888  33.648  -1.199  1.00  0.00    -0.355 OA
HETATM   21  C13 UNL     1      71.683  34.827  -1.913  1.00  0.00     0.210 C 
ENDBRANCH  16  20
ENDBRANCH  12  13
ENDBRANCH   8  11
BRANCH   9  22
HETATM   22  O2  UNL     1      63.805  27.715  -0.475  1.00  0.00    -0.288 OA
ATOM     23  H2  UNL     1      63.455  27.675   0.407  1.00  0.00     0.244 HD
ENDBRANCH   9  22
ENDBRANCH   6   8
ENDBRANCH   3   6
TORSDOF 6
ENDMDL
MODEL 2
REMARK VINA RESULT: -6.299805542      5.101      7.614
REMARK  6 active torsions:
REMARK  status: ('A' for Active; 'I' for Inactive)
REMARK    1  A    between atoms: C3_3  and  N1_6 
REMARK    2  A    between atoms: N1_6  and  C6_8 
REMARK    3  A    between atoms: C6_8  and  C7_9 
REMARK    4  A    between atoms: C8_10  and  C9_11 
REMARK    5  A    between atoms: C12_14  and  O1_15 
REMARK    6  A    between atoms: N2_20  and  O2_22 
ROOT
HETATM    1  C1  UNL     1      72.836  30.596  -0.075  1.00  0.00     0.099 C 
HETATM    2  C2  UNL     1      71.699  30.934  -0.368  1.00  0.00    -0.157 C 
HETATM    3  C3  UNL     1      70.324  31.316  -0.713  1.00  0.00     0.076 C 
HETATM    4  C4  UNL     1      69.745  30.283  -1.641  1.00  0.00     0.051 C 
HETATM    5  C5  UNL     1      69.515  31.339   0.587  1.00  0.00     0.051 C 
ENDROOT
BRANCH   3   6
HETATM    6  N1  UNL     1      70.277  32.604  -1.365  1.00  0.00    -0.356 N 
ATOM      7  H1  UNL     1      69.419  32.859  -1.855  1.00  0.00     0.162 HD
BRANCH   6   8
HETATM    8  C6  UNL     1      71.339  33.531  -1.368  1.00  0.00     0.122 C 
HETATM    9  N2  UNL     1      72.015  33.743  -2.438  1.00  0.00    -0.253 N 
ATOM     10  H2  UNL     1      72.781  34.417  -2.425  1.00  0.00     0.196 HD
BRANCH   8  11
HETATM   11  C7  UNL     1      71.696  34.263  -0.162  1.00  0.00     0.051 C 
HETATM   12  C8  UNL     1      72.954  34.474   0.152  1.00  0.00     0.015 C 
BRANCH  12  13
HETATM   13  C9  UNL     1      73.352  35.198   1.344  1.00  0.00    -0.035 A 
HETATM   14  C10 UNL     1      74.047  34.581   2.371  1.00  0.00     0.014 A 
HETATM   15  C11 UNL     1      74.424  35.269   3.501  1.00  0.00     0.039 A 
HETATM   16  C12 UNL     1      74.136  36.600   3.679  1.00  0.00     0.085 A 
HETATM   17  C14 UNL     1      73.445  37.235   2.674  1.00  0.00     0.045 A 
HETATM   18 BR1  UNL     1      73.033  39.082   2.897  1.00  0.00    -0.048 Br
HETATM   19  C15 UNL     1      73.064  36.530   1.524  1.00  0.00     0.033 A 
BRANCH  16  20
HETATM   20  O1  UNL     1      74.515  37.275   4.807  1.00  0.00    -0.355 OA
HETATM   21  C13 UNL     1      74.443  36.787   6.110  1.00  0.00     0.210 C 
ENDBRANCH  16  20
ENDBRANCH  12  13
ENDBRANCH   8  11
BRANCH   9  22
HETATM   22  O2  UNL     1      71.721  33.078  -3.592  1.00  0.00    -0.288 OA
ATOM     23  H2  UNL     1      72.298  32.399  -3.923  1.00  0.00     0.244 HD
ENDBRANCH   9  22
ENDBRANCH   6   8
ENDBRANCH   3   6
TORSDOF 6
ENDMDL
MODEL 3
REMARK VINA RESULT: -6.215929507      4.970      7.448
REMARK  6 active torsions:
REMARK  status: ('A' for Active; 'I' for Inactive)
REMARK    1  A    between atoms: C3_3  and  N1_6 
REMARK    2  A    between atoms: N1_6  and  C6_8 
REMARK    3  A    between atoms: C6_8  and  C7_9 
REMARK    4  A    between atoms: C8_10  and  C9_11 
REMARK    5  A    between atoms: C12_14  and  O1_15 
REMARK    6  A    between atoms: N2_20  and  O2_22 
ROOT
HETATM    1  C1  UNL     1      72.912  30.656  -0.066  1.00  0.00     0.099 C 
HETATM    2  C2  UNL     1      71.768  30.971  -0.361  1.00  0.00    -0.157 C 
HETATM    3  C3  UNL     1      70.386  31.324  -0.709  1.00  0.00     0.076 C 
HETATM    4  C4  UNL     1      69.827  30.272  -1.627  1.00  0.00     0.051 C 
HETATM    5  C5  UNL     1      69.578  31.344   0.591  1.00  0.00     0.051 C 
ENDROOT
BRANCH   3   6
HETATM    6  N1  UNL     1      70.316  32.605  -1.373  1.00  0.00    -0.356 N 
ATOM      7  H1  UNL     1      69.442  32.854  -1.837  1.00  0.00     0.162 HD
BRANCH   6   8
HETATM    8  C6  UNL     1      71.377  33.533  -1.421  1.00  0.00     0.122 C 
HETATM    9  N2  UNL     1      72.087  33.654  -2.483  1.00  0.00    -0.253 N 
ATOM     10  H2  UNL     1      72.851  34.330  -2.504  1.00  0.00     0.196 HD
BRANCH   8  11
HETATM   11  C7  UNL     1      71.692  34.368  -0.273  1.00  0.00     0.051 C 
HETATM   12  C8  UNL     1      72.920  34.447   0.187  1.00  0.00     0.015 C 
BRANCH  12  13
HETATM   13  C9  UNL     1      73.276  35.267   1.329  1.00  0.00    -0.035 A 
HETATM   14  C10 UNL     1      73.099  36.640   1.322  1.00  0.00     0.014 A 
HETATM   15  C11 UNL     1      73.438  37.417   2.406  1.00  0.00     0.039 A 
HETATM   16  C12 UNL     1      73.969  36.881   3.553  1.00  0.00     0.085 A 
HETATM   17  C14 UNL     1      74.155  35.520   3.585  1.00  0.00     0.045 A 
HETATM   18 BR1  UNL     1      74.891  34.752   5.167  1.00  0.00    -0.048 Br
HETATM   19  C15 UNL     1      73.808  34.732   2.479  1.00  0.00     0.033 A 
BRANCH  16  20
HETATM   20  O1  UNL     1      74.302  37.663   4.626  1.00  0.00    -0.355 OA
HETATM   21  C13 UNL     1      74.170  39.048   4.696  1.00  0.00     0.210 C 
ENDBRANCH  16  20
ENDBRANCH  12  13
ENDBRANCH   8  11
BRANCH   9  22
HETATM   22  O2  UNL     1      71.832  32.889  -3.585  1.00  0.00    -0.288 OA
ATOM     23  H2  UNL     1      71.659  33.293  -4.427  1.00  0.00     0.244 HD
ENDBRANCH   9  22
ENDBRANCH   6   8
ENDBRANCH   3   6
TORSDOF 6
ENDMDL
MODEL 4
REMARK VINA RESULT: -6.145526626      5.460      7.594
REMARK  6 active torsions:
REMARK  status: ('A' for Active; 'I' for Inactive)
REMARK    1  A    between atoms: C3_3  and  N1_6 
REMARK    2  A    between atoms: N1_6  and  C6_8 
REMARK    3  A    between atoms: C6_8  and  C7_9 
REMARK    4  A    between atoms: C8_10  and  C9_11 
REMARK    5  A    between atoms: C12_14  and  O1_15 
REMARK    6  A    between atoms: N2_20  and  O2_22 
ROOT
HETATM    1  C1  UNL     1      68.847  33.524  -0.880  1.00  0.00     0.099 C 
HETATM    2  C2  UNL     1      69.618  32.576  -0.867  1.00  0.00    -0.157 C 
HETATM    3  C3  UNL     1      70.528  31.424  -0.833  1.00  0.00     0.076 C 
HETATM    4  C4  UNL     1      70.866  31.106   0.597  1.00  0.00     0.051 C 
HETATM    5  C5  UNL     1      69.787  30.238  -1.455  1.00  0.00     0.051 C 
ENDROOT
BRANCH   3   6
HETATM    6  N1  UNL     1      71.752  31.693  -1.551  1.00  0.00    -0.356 N 
ATOM      7  H1  UNL     1      72.208  30.913  -2.026  1.00  0.00     0.162 HD
BRANCH   6   8
HETATM    8  C6  UNL     1      72.360  32.963  -1.637  1.00  0.00     0.122 C 
HETATM    9  N2  UNL     1      72.346  33.617  -2.741  1.00  0.00    -0.253 N 
ATOM     10  H2  UNL     1      72.789  34.535  -2.789  1.00  0.00     0.196 HD
BRANCH   8  11
HETATM   11  C7  UNL     1      73.017  33.557  -0.484  1.00  0.00     0.051 C 
HETATM   12  C8  UNL     1      72.499  34.601   0.125  1.00  0.00     0.015 C 
BRANCH  12  13
HETATM   13  C9  UNL     1      73.122  35.223   1.277  1.00  0.00    -0.035 A 
HETATM   14  C10 UNL     1      73.959  34.514   2.122  1.00  0.00     0.014 A 
HETATM   15  C11 UNL     1      74.549  35.106   3.215  1.00  0.00     0.039 A 
HETATM   16  C12 UNL     1      74.345  36.426   3.532  1.00  0.00     0.085 A 
HETATM   17  C14 UNL     1      73.518  37.151   2.708  1.00  0.00     0.045 A 
HETATM   18 BR1  UNL     1      73.219  38.986   3.128  1.00  0.00    -0.048 Br
HETATM   19  C15 UNL     1      72.919  36.545   1.596  1.00  0.00     0.033 A 
BRANCH  16  20
HETATM   20  O1  UNL     1      74.937  37.005   4.622  1.00  0.00    -0.355 OA
HETATM   21  C13 UNL     1      74.618  36.748   5.954  1.00  0.00     0.210 C 
ENDBRANCH  16  20
ENDBRANCH  12  13
ENDBRANCH   8  11
BRANCH   9  22
HETATM   22  O2  UNL     1      71.746  33.099  -3.852  1.00  0.00    -0.288 OA
ATOM     23  H2  UNL     1      71.049  32.458  -3.774  1.00  0.00     0.244 HD
ENDBRANCH   9  22
ENDBRANCH   6   8
ENDBRANCH   3   6
TORSDOF 6
ENDMDL
MODEL 5
REMARK VINA RESULT: -6.018724631      1.375      1.710
REMARK  6 active torsions:
REMARK  status: ('A' for Active; 'I' for Inactive)
REMARK    1  A    between atoms: C3_3  and  N1_6 
REMARK    2  A    between atoms: N1_6  and  C6_8 
REMARK    3  A    between atoms: C6_8  and  C7_9 
REMARK    4  A    between atoms: C8_10  and  C9_11 
REMARK    5  A    between atoms: C12_14  and  O1_15 
REMARK    6  A    between atoms: N2_20  and  O2_22 
ROOT
HETATM    1  C1  UNL     1      62.695  27.604   3.297  1.00  0.00     0.099 C 
HETATM    2  C2  UNL     1      63.754  28.138   3.006  1.00  0.00    -0.157 C 
HETATM    3  C3  UNL     1      65.021  28.801   2.674  1.00  0.00     0.076 C 
HETATM    4  C4  UNL     1      64.751  30.246   2.354  1.00  0.00     0.051 C 
HETATM    5  C5  UNL     1      65.920  28.715   3.910  1.00  0.00     0.051 C 
ENDROOT
BRANCH   3   6
HETATM    6  N1  UNL     1      65.661  28.185   1.535  1.00  0.00    -0.356 N 
ATOM      7  H1  UNL     1      65.766  27.170   1.538  1.00  0.00     0.162 HD
BRANCH   6   8
HETATM    8  C6  UNL     1      66.152  28.895   0.420  1.00  0.00     0.122 C 
HETATM    9  N2  UNL     1      65.469  28.955  -0.665  1.00  0.00    -0.253 N 
ATOM     10  H2  UNL     1      65.836  29.473  -1.464  1.00  0.00     0.196 HD
BRANCH   8  11
HETATM   11  C7  UNL     1      67.440  29.569   0.471  1.00  0.00     0.051 C 
HETATM   12  C8  UNL     1      67.760  30.482  -0.419  1.00  0.00     0.015 C 
BRANCH  12  13
HETATM   13  C9  UNL     1      69.032  31.177  -0.404  1.00  0.00    -0.035 A 
HETATM   14  C10 UNL     1      70.067  30.782   0.427  1.00  0.00     0.014 A 
HETATM   15  C11 UNL     1      71.274  31.443   0.440  1.00  0.00     0.039 A 
HETATM   16  C12 UNL     1      71.524  32.526  -0.365  1.00  0.00     0.085 A 
HETATM   17  C14 UNL     1      70.512  32.939  -1.200  1.00  0.00     0.045 A 
HETATM   18 BR1  UNL     1      70.835  34.441  -2.326  1.00  0.00    -0.048 Br
HETATM   19  C15 UNL     1      69.284  32.262  -1.210  1.00  0.00     0.033 A 
BRANCH  16  20
HETATM   20  O1  UNL     1      72.728  33.177  -0.345  1.00  0.00    -0.355 OA
HETATM   21  C13 UNL     1      73.234  33.917   0.721  1.00  0.00     0.210 C 
ENDBRANCH  16  20
ENDBRANCH  12  13
ENDBRANCH   8  11
BRANCH   9  22
HETATM   22  O2  UNL     1      64.257  28.335  -0.762  1.00  0.00    -0.288 OA
ATOM     23  H2  UNL     1      63.932  27.790  -0.055  1.00  0.00     0.244 HD
ENDBRANCH   9  22
ENDBRANCH   6   8
ENDBRANCH   3   6
TORSDOF 6
ENDMDL
