MODEL 1
REMARK VINA RESULT: -6.371449479      0.000      0.000
REMARK  6 active torsions:
REMARK  status: ('A' for Active; 'I' for Inactive)
REMARK    1  A    between atoms: C2_2  and  C3_3 
REMARK    2  A    between atoms: C4_6  and  N2_7 
REMARK    3  A    between atoms: C5_12  and  S1_13 
REMARK    4  A    between atoms: S1_13  and  C6_14 
REMARK    5  A    between atoms: C6_14  and  C7_15 
REMARK    6  A    between atoms: C8_16  and  C9_17 
ROOT
HETATM    1  C3  UNL     1      75.126  35.128   1.698  1.00  0.00     0.050 A 
HETATM    2  N1  UNL     1      76.280  34.570   2.147  1.00  0.00    -0.194 N 
ATOM      3  H1  UNL     1      76.446  34.503   3.151  1.00  0.00     0.184 HD
HETATM    4  C4  UNL     1      77.194  34.114   1.309  1.00  0.00     0.677 A 
HETATM    5  N3  UNL     1      77.036  34.168  -0.003  1.00  0.00    -0.184 N 
ATOM      6  H3  UNL     1      77.758  33.807  -0.627  1.00  0.00     0.185 HD
HETATM    7  C5  UNL     1      75.867  34.727  -0.521  1.00  0.00     0.109 A 
HETATM    8  C16 UNL     1      74.931  35.199   0.323  1.00  0.00     0.101 A 
HETATM    9  C17 UNL     1      73.679  35.729  -0.185  1.00  0.00     0.104 C 
HETATM   10  N4  UNL     1      72.675  36.135  -0.544  1.00  0.00    -0.191 NA
ENDROOT
BRANCH   1  11
HETATM   11  C2  UNL     1      74.161  35.743   2.615  1.00  0.00     0.055 C 
HETATM   12  C1  UNL     1      74.201  35.103   4.003  1.00  0.00     0.011 C 
ENDBRANCH   1  11
BRANCH   7  13
HETATM   13  S1  UNL     1      75.824  34.741  -2.296  1.00  0.00    -0.098 SA
BRANCH  13  14
HETATM   14  C6  UNL     1      75.359  33.142  -2.963  1.00  0.00     0.175 C 
BRANCH  14  15
HETATM   15  C7  UNL     1      74.020  32.809  -2.393  1.00  0.00    -0.090 C 
HETATM   16  C8  UNL     1      72.949  32.583  -1.871  1.00  0.00    -0.064 C 
BRANCH  16  17
HETATM   17  C9  UNL     1      71.714  32.358  -1.200  1.00  0.00     0.045 A 
HETATM   18  C10 UNL     1      71.628  31.327  -0.235  1.00  0.00    -0.042 A 
HETATM   19  C11 UNL     1      72.898  30.561  -0.021  1.00  0.00     0.049 C 
HETATM   20  C12 UNL     1      70.479  31.061   0.430  1.00  0.00     0.008 A 
HETATM   21  C13 UNL     1      69.343  31.793   0.183  1.00  0.00     0.002 A 
HETATM   22  C14 UNL     1      69.384  32.800  -0.747  1.00  0.00     0.025 A 
HETATM   23  C15 UNL     1      70.553  33.056  -1.408  1.00  0.00     0.053 A 
HETATM   24 CL1  UNL     1      70.632  34.334  -2.617  1.00  0.00    -0.083 Cl
ENDBRANCH  16  17
ENDBRANCH  14  15
ENDBRANCH  13  14
ENDBRANCH   7  13
BRANCH   4  25
HETATM   25  N2  UNL     1      78.312  33.607   1.787  1.00  0.00    -0.234 N 
ATOM     26  H22 UNL     1      79.064  34.246   2.043  1.00  0.00     0.174 HD
ATOM     27  H21 UNL     1      78.393  32.597   1.906  1.00  0.00     0.174 HD
ENDBRANCH   4  25
TORSDOF 6
ENDMDL
MODEL 2
REMARK VINA RESULT: -6.256521105      3.542      5.611
REMARK  6 active torsions:
REMARK  status: ('A' for Active; 'I' for Inactive)
REMARK    1  A    between atoms: C2_2  and  C3_3 
REMARK    2  A    between atoms: C4_6  and  N2_7 
REMARK    3  A    between atoms: C5_12  and  S1_13 
REMARK    4  A    between atoms: S1_13  and  C6_14 
REMARK    5  A    between atoms: C6_14  and  C7_15 
REMARK    6  A    between atoms: C8_16  and  C9_17 
ROOT
HETATM    1  C3  UNL     1      73.992  36.659  -6.183  1.00  0.00     0.050 A 
HETATM    2  N1  UNL     1      73.010  37.248  -5.452  1.00  0.00    -0.194 N 
ATOM      3  H1  UNL     1      72.336  37.855  -5.918  1.00  0.00     0.184 HD
HETATM    4  C4  UNL     1      72.910  37.051  -4.150  1.00  0.00     0.677 A 
HETATM    5  N3  UNL     1      73.750  36.271  -3.488  1.00  0.00    -0.184 N 
ATOM      6  H3  UNL     1      73.650  36.137  -2.483  1.00  0.00     0.185 HD
HETATM    7  C5  UNL     1      74.777  35.636  -4.190  1.00  0.00     0.109 A 
HETATM    8  C16 UNL     1      74.890  35.833  -5.516  1.00  0.00     0.101 A 
HETATM    9  C17 UNL     1      75.909  35.138  -6.280  1.00  0.00     0.104 C 
HETATM   10  N4  UNL     1      76.683  34.596  -6.920  1.00  0.00    -0.191 NA
ENDROOT
BRANCH   1  11
HETATM   11  C2  UNL     1      74.181  36.964  -7.604  1.00  0.00     0.055 C 
HETATM   12  C1  UNL     1      73.264  38.092  -8.076  1.00  0.00     0.011 C 
ENDBRANCH   1  11
BRANCH   7  13
HETATM   13  S1  UNL     1      75.824  34.647  -3.152  1.00  0.00    -0.098 SA
BRANCH  13  14
HETATM   14  C6  UNL     1      75.348  32.917  -3.183  1.00  0.00     0.175 C 
BRANCH  14  15
HETATM   15  C7  UNL     1      74.073  32.807  -2.417  1.00  0.00    -0.090 C 
HETATM   16  C8  UNL     1      73.022  32.651  -1.830  1.00  0.00    -0.064 C 
BRANCH  16  17
HETATM   17  C9  UNL     1      71.778  32.409  -1.184  1.00  0.00     0.045 A 
HETATM   18  C10 UNL     1      71.680  31.365  -0.235  1.00  0.00    -0.042 A 
HETATM   19  C11 UNL     1      72.951  30.603  -0.009  1.00  0.00     0.049 C 
HETATM   20  C12 UNL     1      70.522  31.082   0.406  1.00  0.00     0.008 A 
HETATM   21  C13 UNL     1      69.386  31.811   0.149  1.00  0.00     0.002 A 
HETATM   22  C14 UNL     1      69.437  32.832  -0.766  1.00  0.00     0.025 A 
HETATM   23  C15 UNL     1      70.615  33.103  -1.404  1.00  0.00     0.053 A 
HETATM   24 CL1  UNL     1      70.708  34.399  -2.593  1.00  0.00    -0.083 Cl
ENDBRANCH  16  17
ENDBRANCH  14  15
ENDBRANCH  13  14
ENDBRANCH   7  13
BRANCH   4  25
HETATM   25  N2  UNL     1      71.960  37.665  -3.475  1.00  0.00    -0.234 N 
ATOM     26  H22 UNL     1      71.332  38.289  -3.979  1.00  0.00     0.174 HD
ATOM     27  H21 UNL     1      71.865  37.490  -2.474  1.00  0.00     0.174 HD
ENDBRANCH   4  25
TORSDOF 6
ENDMDL
MODEL 3
REMARK VINA RESULT: -6.211448038      3.113      5.813
REMARK  6 active torsions:
REMARK  status: ('A' for Active; 'I' for Inactive)
REMARK    1  A    between atoms: C2_2  and  C3_3 
REMARK    2  A    between atoms: C4_6  and  N2_7 
REMARK    3  A    between atoms: C5_12  and  S1_13 
REMARK    4  A    between atoms: S1_13  and  C6_14 
REMARK    5  A    between atoms: C6_14  and  C7_15 
REMARK    6  A    between atoms: C8_16  and  C9_17 
ROOT
HETATM    1  C3  UNL     1      71.428  31.255  -0.918  1.00  0.00     0.050 A 
HETATM    2  N1  UNL     1      72.289  30.423  -0.275  1.00  0.00    -0.194 N 
ATOM      3  H1  UNL     1      72.059  29.433  -0.191  1.00  0.00     0.184 HD
HETATM    4  C4  UNL     1      73.418  30.872   0.245  1.00  0.00     0.677 A 
HETATM    5  N3  UNL     1      73.774  32.143   0.166  1.00  0.00    -0.184 N 
ATOM      6  H3  UNL     1      74.652  32.462   0.576  1.00  0.00     0.185 HD
HETATM    7  C5  UNL     1      72.930  33.042  -0.489  1.00  0.00     0.109 A 
HETATM    8  C16 UNL     1      71.776  32.597  -1.019  1.00  0.00     0.101 A 
HETATM    9  C17 UNL     1      70.909  33.496  -1.758  1.00  0.00     0.104 C 
HETATM   10  N4  UNL     1      70.210  34.166  -2.362  1.00  0.00    -0.191 NA
ENDROOT
BRANCH   1  11
HETATM   11  C2  UNL     1      70.122  30.790  -1.395  1.00  0.00     0.055 C 
HETATM   12  C1  UNL     1      69.085  30.743  -0.273  1.00  0.00     0.011 C 
ENDBRANCH   1  11
BRANCH   7  13
HETATM   13  S1  UNL     1      73.545  34.707  -0.487  1.00  0.00    -0.098 SA
BRANCH  13  14
HETATM   14  C6  UNL     1      73.985  35.255  -2.138  1.00  0.00     0.175 C 
BRANCH  14  15
HETATM   15  C7  UNL     1      74.708  34.125  -2.790  1.00  0.00    -0.090 C 
HETATM   16  C8  UNL     1      75.323  33.255  -3.372  1.00  0.00    -0.064 C 
BRANCH  16  17
HETATM   17  C9  UNL     1      76.063  32.286  -4.104  1.00  0.00     0.045 A 
HETATM   18  C10 UNL     1      76.766  31.276  -3.406  1.00  0.00    -0.042 A 
HETATM   19  C11 UNL     1      76.645  31.346  -1.914  1.00  0.00     0.049 C 
HETATM   20  C12 UNL     1      77.493  30.333  -4.048  1.00  0.00     0.008 A 
HETATM   21  C13 UNL     1      77.574  30.326  -5.420  1.00  0.00     0.002 A 
HETATM   22  C14 UNL     1      76.909  31.289  -6.135  1.00  0.00     0.025 A 
HETATM   23  C15 UNL     1      76.179  32.234  -5.470  1.00  0.00     0.053 A 
HETATM   24 CL1  UNL     1      75.325  33.490  -6.361  1.00  0.00    -0.083 Cl
ENDBRANCH  16  17
ENDBRANCH  14  15
ENDBRANCH  13  14
ENDBRANCH   7  13
BRANCH   4  25
HETATM   25  N2  UNL     1      74.209  30.037   0.886  1.00  0.00    -0.234 N 
ATOM     26  H22 UNL     1      75.203  30.037   0.658  1.00  0.00     0.174 HD
ATOM     27  H21 UNL     1      73.817  29.426   1.604  1.00  0.00     0.174 HD
ENDBRANCH   4  25
TORSDOF 6
ENDMDL
MODEL 4
REMARK VINA RESULT: -6.169336888      2.878      4.412
REMARK  6 active torsions:
REMARK  status: ('A' for Active; 'I' for Inactive)
REMARK    1  A    between atoms: C2_2  and  C3_3 
REMARK    2  A    between atoms: C4_6  and  N2_7 
REMARK    3  A    between atoms: C5_12  and  S1_13 
REMARK    4  A    between atoms: S1_13  and  C6_14 
REMARK    5  A    between atoms: C6_14  and  C7_15 
REMARK    6  A    between atoms: C8_16  and  C9_17 
ROOT
HETATM    1  C3  UNL     1      73.319  36.976  -3.811  1.00  0.00     0.050 A 
HETATM    2  N1  UNL     1      73.478  37.015  -5.160  1.00  0.00    -0.194 N 
ATOM      3  H1  UNL     1      72.886  37.632  -5.716  1.00  0.00     0.184 HD
HETATM    4  C4  UNL     1      74.384  36.270  -5.767  1.00  0.00     0.677 A 
HETATM    5  N3  UNL     1      75.185  35.453  -5.102  1.00  0.00    -0.184 N 
ATOM      6  H3  UNL     1      75.876  34.889  -5.596  1.00  0.00     0.185 HD
HETATM    7  C5  UNL     1      75.068  35.375  -3.713  1.00  0.00     0.109 A 
HETATM    8  C16 UNL     1      74.146  36.128  -3.085  1.00  0.00     0.101 A 
HETATM    9  C17 UNL     1      74.044  36.113  -1.637  1.00  0.00     0.104 C 
HETATM   10  N4  UNL     1      73.945  36.145  -0.501  1.00  0.00    -0.191 NA
ENDROOT
BRANCH   1  11
HETATM   11  C2  UNL     1      72.240  37.710  -3.143  1.00  0.00     0.055 C 
HETATM   12  C1  UNL     1      72.186  39.174  -3.579  1.00  0.00     0.011 C 
ENDBRANCH   1  11
BRANCH   7  13
HETATM   13  S1  UNL     1      76.199  34.220  -2.980  1.00  0.00    -0.098 SA
BRANCH  13  14
HETATM   14  C6  UNL     1      75.577  32.539  -3.061  1.00  0.00     0.175 C 
BRANCH  14  15
HETATM   15  C7  UNL     1      74.279  32.522  -2.326  1.00  0.00    -0.090 C 
HETATM   16  C8  UNL     1      73.203  32.448  -1.769  1.00  0.00    -0.064 C 
BRANCH  16  17
HETATM   17  C9  UNL     1      71.924  32.305  -1.162  1.00  0.00     0.045 A 
HETATM   18  C10 UNL     1      71.733  31.312  -0.173  1.00  0.00    -0.042 A 
HETATM   19  C11 UNL     1      72.948  30.492   0.135  1.00  0.00     0.049 C 
HETATM   20  C12 UNL     1      70.537  31.124   0.433  1.00  0.00     0.008 A 
HETATM   21  C13 UNL     1      69.455  31.903   0.101  1.00  0.00     0.002 A 
HETATM   22  C14 UNL     1      69.598  32.876  -0.855  1.00  0.00     0.025 A 
HETATM   23  C15 UNL     1      70.813  33.052  -1.457  1.00  0.00     0.053 A 
HETATM   24 CL1  UNL     1      71.023  34.285  -2.697  1.00  0.00    -0.083 Cl
ENDBRANCH  16  17
ENDBRANCH  14  15
ENDBRANCH  13  14
ENDBRANCH   7  13
BRANCH   4  25
HETATM   25  N2  UNL     1      74.485  36.317  -7.079  1.00  0.00    -0.234 N 
ATOM     26  H22 UNL     1      74.349  37.214  -7.545  1.00  0.00     0.174 HD
ATOM     27  H21 UNL     1      74.713  35.466  -7.594  1.00  0.00     0.174 HD
ENDBRANCH   4  25
TORSDOF 6
ENDMDL
MODEL 5
REMARK VINA RESULT: -6.161053660      1.028      1.139
REMARK  6 active torsions:
REMARK  status: ('A' for Active; 'I' for Inactive)
REMARK    1  A    between atoms: C2_2  and  C3_3 
REMARK    2  A    between atoms: C4_6  and  N2_7 
REMARK    3  A    between atoms: C5_12  and  S1_13 
REMARK    4  A    between atoms: S1_13  and  C6_14 
REMARK    5  A    between atoms: C6_14  and  C7_15 
REMARK    6  A    between atoms: C8_16  and  C9_17 
ROOT
HETATM    1  C3  UNL     1      74.449  36.240   0.734  1.00  0.00     0.050 A 
HETATM    2  N1  UNL     1      75.322  35.679   1.611  1.00  0.00    -0.194 N 
ATOM      3  H1  UNL     1      75.235  35.889   2.606  1.00  0.00     0.184 HD
HETATM    4  C4  UNL     1      76.282  34.869   1.202  1.00  0.00     0.677 A 
HETATM    5  N3  UNL     1      76.443  34.555  -0.073  1.00  0.00    -0.184 N 
ATOM      6  H3  UNL     1      77.193  33.927  -0.360  1.00  0.00     0.185 HD
HETATM    7  C5  UNL     1      75.572  35.098  -1.018  1.00  0.00     0.109 A 
HETATM    8  C16 UNL     1      74.593  35.928  -0.613  1.00  0.00     0.101 A 
HETATM    9  C17 UNL     1      73.634  36.458  -1.565  1.00  0.00     0.104 C 
HETATM   10  N4  UNL     1      72.850  36.881  -2.279  1.00  0.00    -0.191 NA
ENDROOT
BRANCH   1  11
HETATM   11  C2  UNL     1      73.456  37.229   1.164  1.00  0.00     0.055 C 
HETATM   12  C1  UNL     1      73.462  37.428   2.680  1.00  0.00     0.011 C 
ENDBRANCH   1  11
BRANCH   7  13
HETATM   13  S1  UNL     1      75.939  34.594  -2.680  1.00  0.00    -0.098 SA
BRANCH  13  14
HETATM   14  C6  UNL     1      75.349  32.933  -3.016  1.00  0.00     0.175 C 
BRANCH  14  15
HETATM   15  C7  UNL     1      74.009  32.812  -2.372  1.00  0.00    -0.090 C 
HETATM   16  C8  UNL     1      72.940  32.643  -1.824  1.00  0.00    -0.064 C 
BRANCH  16  17
HETATM   17  C9  UNL     1      71.707  32.377  -1.165  1.00  0.00     0.045 A 
HETATM   18  C10 UNL     1      71.639  31.330  -0.217  1.00  0.00    -0.042 A 
HETATM   19  C11 UNL     1      72.926  30.592  -0.005  1.00  0.00     0.049 C 
HETATM   20  C12 UNL     1      70.493  31.024   0.435  1.00  0.00     0.008 A 
HETATM   21  C13 UNL     1      69.341  31.732   0.192  1.00  0.00     0.002 A 
HETATM   22  C14 UNL     1      69.363  32.754  -0.722  1.00  0.00     0.025 A 
HETATM   23  C15 UNL     1      70.529  33.049  -1.372  1.00  0.00     0.053 A 
HETATM   24 CL1  UNL     1      70.585  34.347  -2.560  1.00  0.00    -0.083 Cl
ENDBRANCH  16  17
ENDBRANCH  14  15
ENDBRANCH  13  14
ENDBRANCH   7  13
BRANCH   4  25
HETATM   25  N2  UNL     1      77.125  34.371   2.083  1.00  0.00    -0.234 N 
ATOM     26  H22 UNL     1      76.939  34.523   3.074  1.00  0.00     0.174 HD
ATOM     27  H21 UNL     1      77.929  33.834   1.757  1.00  0.00     0.174 HD
ENDBRANCH   4  25
TORSDOF 6
ENDMDL
