MODEL 1
REMARK VINA RESULT: -7.173462217      0.000      0.000
REMARK  4 active torsions:
REMARK  status: ('A' for Active; 'I' for Inactive)
REMARK    1  A    between atoms: N1_2  and  C2_4 
REMARK    2  A    between atoms: C3_8  and  C4_9 
REMARK    3  A    between atoms: C4_9  and  S2_10 
REMARK    4  A    between atoms: S2_10  and  C5_11 
ROOT
HETATM    1  S2  UNL     1      68.321  30.472  -0.860  1.00  0.00    -0.088 SA
ENDROOT
BRANCH   1   2
HETATM    2  C4  UNL     1      69.648  31.142   0.167  1.00  0.00     0.141 C 
BRANCH   2   3
HETATM    3  C3  UNL     1      70.408  32.211  -0.601  1.00  0.00     0.045 A 
HETATM    4  N2  UNL     1      69.745  33.156  -1.260  1.00  0.00    -0.326 N 
HETATM    5  S1  UNL     1      70.950  34.101  -1.946  1.00  0.00     0.005 SA
ATOM      6  H2  UNL     1      68.736  33.278  -1.333  1.00  0.00     0.174 HD
HETATM    7  C2  UNL     1      72.316  33.261  -1.371  1.00  0.00     0.105 A 
HETATM    8  C12 UNL     1      71.759  32.243  -0.643  1.00  0.00     0.069 A 
HETATM    9 BR1  UNL     1      72.905  30.944   0.261  1.00  0.00    -0.046 Br
BRANCH   7  10
HETATM   10  N1  UNL     1      73.595  33.499  -1.559  1.00  0.00    -0.386 N 
HETATM   11  C1  UNL     1      74.157  32.975  -2.790  1.00  0.00     0.147 C 
ATOM     12  H1  UNL     1      74.155  34.020  -0.884  1.00  0.00     0.159 HD
ENDBRANCH   7  10
ENDBRANCH   2   3
ENDBRANCH   1   2
BRANCH   1  13
HETATM   13  C5  UNL     1      67.066  29.720   0.151  1.00  0.00     0.145 A 
HETATM   14  N3  UNL     1      66.938  29.808   1.493  1.00  0.00    -0.335 N 
HETATM   15  C6  UNL     1      65.872  29.112   1.917  1.00  0.00     0.061 A 
ATOM     16  H3  UNL     1      67.567  30.333   2.102  1.00  0.00     0.168 HD
HETATM   17  C7  UNL     1      65.335  28.901   3.173  1.00  0.00     0.032 A 
HETATM   18  C11 UNL     1      65.296  28.554   0.803  1.00  0.00     0.061 A 
HETATM   19  C8  UNL     1      64.195  28.112   3.309  1.00  0.00     0.002 A 
HETATM   20  C9  UNL     1      63.596  27.540   2.202  1.00  0.00     0.002 A 
HETATM   21  C10 UNL     1      64.164  27.777   0.976  1.00  0.00     0.032 A 
HETATM   22  N4  UNL     1      66.034  28.935  -0.253  1.00  0.00    -0.335 N 
ATOM     23  H4  UNL     1      65.846  28.673  -1.220  1.00  0.00     0.168 HD
ENDBRANCH   1  13
TORSDOF 4
ENDMDL
MODEL 2
REMARK VINA RESULT: -7.136134998      0.103      1.297
REMARK  4 active torsions:
REMARK  status: ('A' for Active; 'I' for Inactive)
REMARK    1  A    between atoms: N1_2  and  C2_4 
REMARK    2  A    between atoms: C3_8  and  C4_9 
REMARK    3  A    between atoms: C4_9  and  S2_10 
REMARK    4  A    between atoms: S2_10  and  C5_11 
ROOT
HETATM    1  S2  UNL     1      68.320  30.490  -0.840  1.00  0.00    -0.088 SA
ENDROOT
BRANCH   1   2
HETATM    2  C4  UNL     1      69.672  31.142   0.165  1.00  0.00     0.141 C 
BRANCH   2   3
HETATM    3  C3  UNL     1      70.431  32.205  -0.614  1.00  0.00     0.045 A 
HETATM    4  N2  UNL     1      69.770  33.180  -1.227  1.00  0.00    -0.326 N 
HETATM    5  S1  UNL     1      70.973  34.104  -1.944  1.00  0.00     0.005 SA
ATOM      6  H2  UNL     1      68.762  33.332  -1.256  1.00  0.00     0.174 HD
HETATM    7  C2  UNL     1      72.336  33.214  -1.442  1.00  0.00     0.105 A 
HETATM    8  C12 UNL     1      71.779  32.199  -0.710  1.00  0.00     0.069 A 
HETATM    9 BR1  UNL     1      72.923  30.850   0.121  1.00  0.00    -0.046 Br
BRANCH   7  10
HETATM   10  N1  UNL     1      73.612  33.420  -1.678  1.00  0.00    -0.386 N 
HETATM   11  C1  UNL     1      74.047  33.172  -3.040  1.00  0.00     0.147 C 
ATOM     12  H1  UNL     1      74.255  33.735  -0.951  1.00  0.00     0.159 HD
ENDBRANCH   7  10
ENDBRANCH   2   3
ENDBRANCH   1   2
BRANCH   1  13
HETATM   13  C5  UNL     1      67.079  29.742   0.190  1.00  0.00     0.145 A 
HETATM   14  N3  UNL     1      66.063  28.943  -0.205  1.00  0.00    -0.335 N 
HETATM   15  C6  UNL     1      65.320  28.561   0.845  1.00  0.00     0.061 A 
ATOM     16  H3  UNL     1      65.884  28.669  -1.172  1.00  0.00     0.168 HD
HETATM   17  C7  UNL     1      64.198  27.760   0.952  1.00  0.00     0.032 A 
HETATM   18  C11 UNL     1      65.882  29.138   1.957  1.00  0.00     0.061 A 
HETATM   19  C8  UNL     1      63.632  27.537   2.205  1.00  0.00     0.002 A 
HETATM   20  C9  UNL     1      64.179  28.107   3.340  1.00  0.00     0.002 A 
HETATM   21  C10 UNL     1      65.292  28.894   3.184  1.00  0.00     0.032 A 
HETATM   22  N4  UNL     1      66.943  29.847   1.537  1.00  0.00    -0.335 N 
ATOM     23  H4  UNL     1      67.559  30.387   2.144  1.00  0.00     0.168 HD
ENDBRANCH   1  13
TORSDOF 4
ENDMDL
MODEL 3
REMARK VINA RESULT: -7.054255021      1.650      1.655
REMARK  4 active torsions:
REMARK  status: ('A' for Active; 'I' for Inactive)
REMARK    1  A    between atoms: N1_2  and  C2_4 
REMARK    2  A    between atoms: C3_8  and  C4_9 
REMARK    3  A    between atoms: C4_9  and  S2_10 
REMARK    4  A    between atoms: S2_10  and  C5_11 
ROOT
HETATM    1  S2  UNL     1      68.306  30.498  -1.082  1.00  0.00    -0.088 SA
ENDROOT
BRANCH   1   2
HETATM    2  C4  UNL     1      68.929  32.045  -0.388  1.00  0.00     0.141 C 
BRANCH   2   3
HETATM    3  C3  UNL     1      70.429  31.945  -0.162  1.00  0.00     0.045 A 
HETATM    4  N2  UNL     1      70.915  31.054   0.696  1.00  0.00    -0.326 N 
HETATM    5  S1  UNL     1      72.576  31.287   0.632  1.00  0.00     0.005 SA
ATOM      6  H2  UNL     1      70.398  30.383   1.262  1.00  0.00     0.174 HD
HETATM    7  C2  UNL     1      72.631  32.547  -0.513  1.00  0.00     0.105 A 
HETATM    8  C12 UNL     1      71.308  32.742  -0.810  1.00  0.00     0.069 A 
HETATM    9 BR1  UNL     1      70.786  34.109  -2.104  1.00  0.00    -0.046 Br
BRANCH   7  10
HETATM   10  N1  UNL     1      73.663  33.193  -1.008  1.00  0.00    -0.386 N 
HETATM   11  C1  UNL     1      74.340  32.541  -2.114  1.00  0.00     0.147 C 
ATOM     12  H1  UNL     1      73.968  34.094  -0.639  1.00  0.00     0.159 HD
ENDBRANCH   7  10
ENDBRANCH   2   3
ENDBRANCH   1   2
BRANCH   1  13
HETATM   13  C5  UNL     1      67.098  29.768  -0.000  1.00  0.00     0.145 A 
HETATM   14  N3  UNL     1      67.046  29.863   1.346  1.00  0.00    -0.335 N 
HETATM   15  C6  UNL     1      65.995  29.184   1.832  1.00  0.00     0.061 A 
ATOM     16  H3  UNL     1      67.715  30.380   1.918  1.00  0.00     0.168 HD
HETATM   17  C7  UNL     1      65.525  28.984   3.117  1.00  0.00     0.032 A 
HETATM   18  C11 UNL     1      65.349  28.631   0.753  1.00  0.00     0.061 A 
HETATM   19  C8  UNL     1      64.383  28.213   3.318  1.00  0.00     0.002 A 
HETATM   20  C9  UNL     1      63.715  27.647   2.248  1.00  0.00     0.002 A 
HETATM   21  C10 UNL     1      64.218  27.872   0.992  1.00  0.00     0.032 A 
HETATM   22  N4  UNL     1      66.034  28.998  -0.343  1.00  0.00    -0.335 N 
ATOM     23  H4  UNL     1      65.789  28.735  -1.298  1.00  0.00     0.168 HD
ENDBRANCH   1  13
TORSDOF 4
ENDMDL
MODEL 4
REMARK VINA RESULT: -7.029590677      1.649      2.098
REMARK  4 active torsions:
REMARK  status: ('A' for Active; 'I' for Inactive)
REMARK    1  A    between atoms: N1_2  and  C2_4 
REMARK    2  A    between atoms: C3_8  and  C4_9 
REMARK    3  A    between atoms: C4_9  and  S2_10 
REMARK    4  A    between atoms: S2_10  and  C5_11 
ROOT
HETATM    1  S2  UNL     1      68.317  30.481  -1.074  1.00  0.00    -0.088 SA
ENDROOT
BRANCH   1   2
HETATM    2  C4  UNL     1      68.937  32.037  -0.396  1.00  0.00     0.141 C 
BRANCH   2   3
HETATM    3  C3  UNL     1      70.438  31.944  -0.171  1.00  0.00     0.045 A 
HETATM    4  N2  UNL     1      70.928  31.056   0.687  1.00  0.00    -0.326 N 
HETATM    5  S1  UNL     1      72.588  31.296   0.622  1.00  0.00     0.005 SA
ATOM      6  H2  UNL     1      70.415  30.384   1.256  1.00  0.00     0.174 HD
HETATM    7  C2  UNL     1      72.636  32.554  -0.525  1.00  0.00     0.105 A 
HETATM    8  C12 UNL     1      71.312  32.743  -0.821  1.00  0.00     0.069 A 
HETATM    9 BR1  UNL     1      70.783  34.106  -2.117  1.00  0.00    -0.046 Br
BRANCH   7  10
HETATM   10  N1  UNL     1      73.665  33.204  -1.023  1.00  0.00    -0.386 N 
HETATM   11  C1  UNL     1      74.368  32.535  -2.102  1.00  0.00     0.147 C 
ATOM     12  H1  UNL     1      73.951  34.118  -0.673  1.00  0.00     0.159 HD
ENDBRANCH   7  10
ENDBRANCH   2   3
ENDBRANCH   1   2
BRANCH   1  13
HETATM   13  C5  UNL     1      67.109  29.761   0.013  1.00  0.00     0.145 A 
HETATM   14  N3  UNL     1      66.053  28.994  -0.335  1.00  0.00    -0.335 N 
HETATM   15  C6  UNL     1      65.353  28.626   0.749  1.00  0.00     0.061 A 
ATOM     16  H3  UNL     1      65.818  28.730  -1.293  1.00  0.00     0.168 HD
HETATM   17  C7  UNL     1      64.215  27.856   0.909  1.00  0.00     0.032 A 
HETATM   18  C11 UNL     1      65.985  29.180   1.835  1.00  0.00     0.061 A 
HETATM   19  C8  UNL     1      63.706  27.641   2.187  1.00  0.00     0.002 A 
HETATM   20  C9  UNL     1      64.325  28.189   3.296  1.00  0.00     0.002 A 
HETATM   21  C10 UNL     1      65.450  28.945   3.089  1.00  0.00     0.032 A 
HETATM   22  N4  UNL     1      67.043  29.862   1.366  1.00  0.00    -0.335 N 
ATOM     23  H4  UNL     1      67.704  30.382   1.944  1.00  0.00     0.168 HD
ENDBRANCH   1  13
TORSDOF 4
ENDMDL
MODEL 5
REMARK VINA RESULT: -6.495787335      1.004      1.004
REMARK  4 active torsions:
REMARK  status: ('A' for Active; 'I' for Inactive)
REMARK    1  A    between atoms: N1_2  and  C2_4 
REMARK    2  A    between atoms: C3_8  and  C4_9 
REMARK    3  A    between atoms: C4_9  and  S2_10 
REMARK    4  A    between atoms: S2_10  and  C5_11 
ROOT
HETATM    1  S2  UNL     1      68.418  30.633  -0.993  1.00  0.00    -0.088 SA
ENDROOT
BRANCH   1   2
HETATM    2  C4  UNL     1      70.056  30.464  -0.249  1.00  0.00     0.141 C 
BRANCH   2   3
HETATM    3  C3  UNL     1      71.049  31.359  -0.973  1.00  0.00     0.045 A 
HETATM    4  N2  UNL     1      70.632  32.174  -1.936  1.00  0.00    -0.326 N 
HETATM    5  S1  UNL     1      72.027  32.954  -2.446  1.00  0.00     0.005 SA
ATOM      6  H2  UNL     1      69.682  32.297  -2.285  1.00  0.00     0.174 HD
HETATM    7  C2  UNL     1      73.150  32.215  -1.402  1.00  0.00     0.105 A 
HETATM    8  C12 UNL     1      72.366  31.360  -0.673  1.00  0.00     0.069 A 
HETATM    9 BR1  UNL     1      73.168  30.234   0.708  1.00  0.00    -0.046 Br
BRANCH   7  10
HETATM   10  N1  UNL     1      74.448  32.394  -1.295  1.00  0.00    -0.386 N 
HETATM   11  C1  UNL     1      74.862  33.555  -0.529  1.00  0.00     0.147 C 
ATOM     12  H1  UNL     1      75.121  31.757  -1.723  1.00  0.00     0.159 HD
ENDBRANCH   7  10
ENDBRANCH   2   3
ENDBRANCH   1   2
BRANCH   1  13
HETATM   13  C5  UNL     1      67.186  29.848   0.021  1.00  0.00     0.145 A 
HETATM   14  N3  UNL     1      67.066  29.924   1.365  1.00  0.00    -0.335 N 
HETATM   15  C6  UNL     1      66.018  29.203   1.791  1.00  0.00     0.061 A 
ATOM     16  H3  UNL     1      67.688  30.457   1.973  1.00  0.00     0.168 HD
HETATM   17  C7  UNL     1      65.494  28.971   3.050  1.00  0.00     0.032 A 
HETATM   18  C11 UNL     1      65.445  28.641   0.677  1.00  0.00     0.061 A 
HETATM   19  C8  UNL     1      64.372  28.158   3.187  1.00  0.00     0.002 A 
HETATM   20  C9  UNL     1      63.777  27.582   2.081  1.00  0.00     0.002 A 
HETATM   21  C10 UNL     1      64.331  27.840   0.853  1.00  0.00     0.032 A 
HETATM   22  N4  UNL     1      66.167  29.045  -0.381  1.00  0.00    -0.335 N 
ATOM     23  H4  UNL     1      65.978  28.785  -1.349  1.00  0.00     0.168 HD
ENDBRANCH   1  13
TORSDOF 4
ENDMDL
