MODEL 1
REMARK VINA RESULT: -9.085623886      0.000      0.000
REMARK  7 active torsions:
REMARK  status: ('A' for Active; 'I' for Inactive)
REMARK    1  A    between atoms: N1_2  and  S1_4 
REMARK    2  A    between atoms: S1_4  and  C3_7 
REMARK    3  A    between atoms: C6_10  and  S2_11 
REMARK    4  A    between atoms: S2_11  and  N2_14 
REMARK       I    between atoms: C7_16  and  N3_17 
REMARK       I    between atoms: C7_16  and  N4_26 
REMARK    5  A    between atoms: N3_17  and  C8_19 
REMARK    6  A    between atoms: C8_19  and  C9_20 
REMARK       I    between atoms: N4_26  and  C15_28 
REMARK    7  A    between atoms: C15_28  and  C16_30 
ROOT
HETATM    1  N2  UNL     1      11.689  15.967  23.629  1.00  0.00    -0.112 N 
ATOM      2  H2  UNL     1      11.898  16.729  22.984  1.00  0.00     0.197 HD
HETATM    3  C7  UNL     1      11.424  16.423  24.744  1.00  0.00     0.691 C 
HETATM    4  N3  UNL     1      11.478  17.883  24.867  1.00  0.00    -0.221 N 
ATOM      5  H3  UNL     1      12.202  18.346  25.417  1.00  0.00     0.178 HD
HETATM    6  N4  UNL     1      11.049  15.649  25.863  1.00  0.00    -0.155 N 
ATOM      7  H4  UNL     1      10.975  14.638  25.754  1.00  0.00     0.187 HD
HETATM    8  C15 UNL     1      10.769  16.220  27.140  1.00  0.00     0.269 C 
HETATM    9  O5  UNL     1      10.853  17.464  27.301  1.00  0.00    -0.267 OA
ENDROOT
BRANCH   1  10
HETATM   10  S2  UNL     1      11.816  14.508  22.840  1.00  0.00     0.276 S 
HETATM   11  O3  UNL     1      11.238  13.365  23.679  1.00  0.00    -0.200 OA
HETATM   12  O4  UNL     1      13.246  14.134  22.472  1.00  0.00    -0.200 OA
BRANCH  10  13
HETATM   13  C6  UNL     1      10.908  14.534  21.335  1.00  0.00     0.080 A 
HETATM   14  C5  UNL     1       9.924  15.479  21.175  1.00  0.00     0.027 A 
HETATM   15  C4  UNL     1       9.209  15.465  19.987  1.00  0.00     0.026 A 
HETATM   16  C3  UNL     1       9.469  14.542  18.994  1.00  0.00     0.074 A 
HETATM   17  C23 UNL     1      10.454  13.620  19.187  1.00  0.00     0.026 A 
HETATM   18  C22 UNL     1      11.174  13.615  20.353  1.00  0.00     0.027 A 
BRANCH  16  19
HETATM   19  S1  UNL     1       8.526  14.576  17.514  1.00  0.00     0.242 S 
HETATM   20  O1  UNL     1       9.173  15.540  16.566  1.00  0.00    -0.206 OA
HETATM   21  O2  UNL     1       7.156  15.099  17.908  1.00  0.00    -0.206 OA
BRANCH  19  22
HETATM   22  N1  UNL     1       8.317  13.048  16.800  1.00  0.00    -0.215 NA
HETATM   23  C1  UNL     1       7.019  12.480  16.913  1.00  0.00     0.129 C 
HETATM   24  C2  UNL     1       8.840  12.938  15.472  1.00  0.00     0.129 C 
ENDBRANCH  19  22
ENDBRANCH  16  19
ENDBRANCH  10  13
ENDBRANCH   1  10
BRANCH   4  25
HETATM   25  C8  UNL     1      10.474  18.626  24.182  1.00  0.00     0.176 C 
BRANCH  25  26
HETATM   26  C9  UNL     1      10.944  19.426  23.052  1.00  0.00    -0.040 A 
HETATM   27  C10 UNL     1      11.392  18.945  21.845  1.00  0.00     0.009 A 
HETATM   28  C11 UNL     1      11.802  19.814  20.824  1.00  0.00     0.001 A 
HETATM   29  C12 UNL     1      11.772  21.184  20.985  1.00  0.00     0.000 A 
HETATM   30  C13 UNL     1      11.322  21.670  22.194  1.00  0.00     0.001 A 
HETATM   31  C14 UNL     1      10.918  20.808  23.203  1.00  0.00     0.009 A 
ENDBRANCH  25  26
ENDBRANCH   4  25
BRANCH   8  32
HETATM   32  C16 UNL     1      10.385  15.424  28.285  1.00  0.00     0.032 A 
HETATM   33  C17 UNL     1       9.438  14.409  28.187  1.00  0.00     0.017 A 
HETATM   34  C18 UNL     1       9.046  13.623  29.243  1.00  0.00     0.001 A 
HETATM   35  C19 UNL     1       9.633  13.857  30.492  1.00  0.00     0.000 A 
HETATM   36  C20 UNL     1      10.579  14.849  30.643  1.00  0.00     0.001 A 
HETATM   37  C21 UNL     1      10.929  15.609  29.528  1.00  0.00     0.017 A 
ENDBRANCH   8  32
TORSDOF 7
ENDMDL
MODEL 2
REMARK VINA RESULT: -8.938559359      0.134      1.413
REMARK  7 active torsions:
REMARK  status: ('A' for Active; 'I' for Inactive)
REMARK    1  A    between atoms: N1_2  and  S1_4 
REMARK    2  A    between atoms: S1_4  and  C3_7 
REMARK    3  A    between atoms: C6_10  and  S2_11 
REMARK    4  A    between atoms: S2_11  and  N2_14 
REMARK       I    between atoms: C7_16  and  N3_17 
REMARK       I    between atoms: C7_16  and  N4_26 
REMARK    5  A    between atoms: N3_17  and  C8_19 
REMARK    6  A    between atoms: C8_19  and  C9_20 
REMARK       I    between atoms: N4_26  and  C15_28 
REMARK    7  A    between atoms: C15_28  and  C16_30 
ROOT
HETATM    1  N2  UNL     1      11.649  15.952  23.663  1.00  0.00    -0.112 N 
ATOM      2  H2  UNL     1      11.838  16.717  23.015  1.00  0.00     0.197 HD
HETATM    3  C7  UNL     1      11.380  16.404  24.779  1.00  0.00     0.691 C 
HETATM    4  N3  UNL     1      11.403  17.865  24.898  1.00  0.00    -0.221 N 
ATOM      5  H3  UNL     1      12.119  18.344  25.444  1.00  0.00     0.178 HD
HETATM    6  N4  UNL     1      11.028  15.625  25.901  1.00  0.00    -0.155 N 
ATOM      7  H4  UNL     1      10.975  14.612  25.794  1.00  0.00     0.187 HD
HETATM    8  C15 UNL     1      10.743  16.191  27.179  1.00  0.00     0.269 C 
HETATM    9  O5  UNL     1      10.801  17.438  27.336  1.00  0.00    -0.267 OA
ENDROOT
BRANCH   1  10
HETATM   10  S2  UNL     1      11.802  14.494  22.876  1.00  0.00     0.276 S 
HETATM   11  O3  UNL     1      11.255  13.340  23.721  1.00  0.00    -0.200 OA
HETATM   12  O4  UNL     1      13.238  14.151  22.500  1.00  0.00    -0.200 OA
BRANCH  10  13
HETATM   13  C6  UNL     1      10.885  14.497  21.377  1.00  0.00     0.080 A 
HETATM   14  C5  UNL     1      11.210  13.586  20.403  1.00  0.00     0.027 A 
HETATM   15  C4  UNL     1      10.485  13.622  19.222  1.00  0.00     0.026 A 
HETATM   16  C3  UNL     1       9.469  14.536  19.021  1.00  0.00     0.074 A 
HETATM   17  C23 UNL     1       9.172  15.425  20.012  1.00  0.00     0.026 A 
HETATM   18  C22 UNL     1       9.876  15.407  21.187  1.00  0.00     0.027 A 
BRANCH  16  19
HETATM   19  S1  UNL     1       8.590  14.533  17.503  1.00  0.00     0.242 S 
HETATM   20  O1  UNL     1       9.198  15.567  16.605  1.00  0.00    -0.206 OA
HETATM   21  O2  UNL     1       7.168  14.938  17.847  1.00  0.00    -0.206 OA
BRANCH  19  22
HETATM   22  N1  UNL     1       8.531  13.010  16.748  1.00  0.00    -0.215 NA
HETATM   23  C1  UNL     1       7.409  12.199  17.069  1.00  0.00     0.129 C 
HETATM   24  C2  UNL     1       8.794  13.036  15.341  1.00  0.00     0.129 C 
ENDBRANCH  19  22
ENDBRANCH  16  19
ENDBRANCH  10  13
ENDBRANCH   1  10
BRANCH   4  25
HETATM   25  C8  UNL     1      10.379  18.585  24.218  1.00  0.00     0.176 C 
BRANCH  25  26
HETATM   26  C9  UNL     1      10.839  19.490  23.166  1.00  0.00    -0.040 A 
HETATM   27  C10 UNL     1      10.854  20.863  23.223  1.00  0.00     0.009 A 
HETATM   28  C11 UNL     1      11.339  21.629  22.154  1.00  0.00     0.001 A 
HETATM   29  C12 UNL     1      11.819  21.042  21.003  1.00  0.00     0.000 A 
HETATM   30  C13 UNL     1      11.806  19.664  20.941  1.00  0.00     0.001 A 
HETATM   31  C14 UNL     1      11.325  18.908  22.000  1.00  0.00     0.009 A 
ENDBRANCH  25  26
ENDBRANCH   4  25
BRANCH   8  32
HETATM   32  C16 UNL     1      10.383  15.390  28.327  1.00  0.00     0.032 A 
HETATM   33  C17 UNL     1      10.956  15.603  29.578  1.00  0.00     0.017 A 
HETATM   34  C18 UNL     1      10.642  14.874  30.698  1.00  0.00     0.001 A 
HETATM   35  C19 UNL     1       9.691  13.855  30.576  1.00  0.00     0.000 A 
HETATM   36  C20 UNL     1       9.091  13.603  29.360  1.00  0.00     0.001 A 
HETATM   37  C21 UNL     1       9.457  14.383  28.264  1.00  0.00     0.017 A 
ENDBRANCH   8  32
TORSDOF 7
ENDMDL
MODEL 3
REMARK VINA RESULT: -8.782703277      3.409      7.035
REMARK  7 active torsions:
REMARK  status: ('A' for Active; 'I' for Inactive)
REMARK    1  A    between atoms: N1_2  and  S1_4 
REMARK    2  A    between atoms: S1_4  and  C3_7 
REMARK    3  A    between atoms: C6_10  and  S2_11 
REMARK    4  A    between atoms: S2_11  and  N2_14 
REMARK       I    between atoms: C7_16  and  N3_17 
REMARK       I    between atoms: C7_16  and  N4_26 
REMARK    5  A    between atoms: N3_17  and  C8_19 
REMARK    6  A    between atoms: C8_19  and  C9_20 
REMARK       I    between atoms: N4_26  and  C15_28 
REMARK    7  A    between atoms: C15_28  and  C16_30 
ROOT
HETATM    1  N2  UNL     1      10.887  14.892  23.093  1.00  0.00    -0.112 N 
ATOM      2  H2  UNL     1      10.913  14.218  23.858  1.00  0.00     0.197 HD
HETATM    3  C7  UNL     1      11.003  16.036  23.538  1.00  0.00     0.691 C 
HETATM    4  N3  UNL     1      11.139  16.144  24.993  1.00  0.00    -0.221 N 
ATOM      5  H3  UNL     1      10.400  16.549  25.569  1.00  0.00     0.178 HD
HETATM    6  N4  UNL     1      11.048  17.207  22.751  1.00  0.00    -0.155 N 
ATOM      7  H4  UNL     1      10.995  17.114  21.737  1.00  0.00     0.187 HD
HETATM    8  C15 UNL     1      11.166  18.513  23.312  1.00  0.00     0.269 C 
HETATM    9  O5  UNL     1      11.233  18.653  24.560  1.00  0.00    -0.267 OA
ENDROOT
BRANCH   1  10
HETATM   10  S2  UNL     1      10.700  14.095  21.645  1.00  0.00     0.276 S 
HETATM   11  O3  UNL     1      10.277  15.053  20.527  1.00  0.00    -0.200 OA
HETATM   12  O4  UNL     1       9.679  12.965  21.695  1.00  0.00    -0.200 OA
BRANCH  10  13
HETATM   13  C6  UNL     1      12.217  13.368  21.135  1.00  0.00     0.080 A 
HETATM   14  C5  UNL     1      13.269  13.351  22.017  1.00  0.00     0.027 A 
HETATM   15  C4  UNL     1      14.461  12.790  21.584  1.00  0.00     0.026 A 
HETATM   16  C3  UNL     1      14.597  12.264  20.314  1.00  0.00     0.074 A 
HETATM   17  C23 UNL     1      13.530  12.297  19.465  1.00  0.00     0.026 A 
HETATM   18  C22 UNL     1      12.342  12.846  19.873  1.00  0.00     0.027 A 
BRANCH  16  19
HETATM   19  S1  UNL     1      16.132  11.571  19.825  1.00  0.00     0.242 S 
HETATM   20  O1  UNL     1      17.098  11.718  20.961  1.00  0.00    -0.206 OA
HETATM   21  O2  UNL     1      16.608  12.406  18.649  1.00  0.00    -0.206 OA
BRANCH  19  22
HETATM   22  N1  UNL     1      16.022   9.956  19.307  1.00  0.00    -0.215 NA
HETATM   23  C1  UNL     1      17.212   9.390  18.775  1.00  0.00     0.129 C 
HETATM   24  C2  UNL     1      15.375   9.079  20.237  1.00  0.00     0.129 C 
ENDBRANCH  19  22
ENDBRANCH  16  19
ENDBRANCH  10  13
ENDBRANCH   1  10
BRANCH   4  25
HETATM   25  C8  UNL     1      12.349  15.660  25.567  1.00  0.00     0.176 C 
BRANCH  25  26
HETATM   26  C9  UNL     1      12.765  16.316  26.806  1.00  0.00    -0.040 A 
HETATM   27  C10 UNL     1      14.050  16.416  27.282  1.00  0.00     0.009 A 
HETATM   28  C11 UNL     1      14.331  17.090  28.479  1.00  0.00     0.001 A 
HETATM   29  C12 UNL     1      13.335  17.678  29.229  1.00  0.00     0.000 A 
HETATM   30  C13 UNL     1      12.043  17.580  28.755  1.00  0.00     0.001 A 
HETATM   31  C14 UNL     1      11.768  16.912  27.570  1.00  0.00     0.009 A 
ENDBRANCH  25  26
ENDBRANCH   4  25
BRANCH   8  32
HETATM   32  C16 UNL     1      11.211  19.711  22.503  1.00  0.00     0.032 A 
HETATM   33  C17 UNL     1      11.452  19.660  21.133  1.00  0.00     0.017 A 
HETATM   34  C18 UNL     1      11.498  20.767  20.322  1.00  0.00     0.001 A 
HETATM   35  C19 UNL     1      11.291  22.022  20.908  1.00  0.00     0.000 A 
HETATM   36  C20 UNL     1      11.046  22.127  22.261  1.00  0.00     0.001 A 
HETATM   37  C21 UNL     1      11.013  20.961  23.023  1.00  0.00     0.017 A 
ENDBRANCH   8  32
TORSDOF 7
ENDMDL
MODEL 4
REMARK VINA RESULT: -8.748693536      3.392      7.074
REMARK  7 active torsions:
REMARK  status: ('A' for Active; 'I' for Inactive)
REMARK    1  A    between atoms: N1_2  and  S1_4 
REMARK    2  A    between atoms: S1_4  and  C3_7 
REMARK    3  A    between atoms: C6_10  and  S2_11 
REMARK    4  A    between atoms: S2_11  and  N2_14 
REMARK       I    between atoms: C7_16  and  N3_17 
REMARK       I    between atoms: C7_16  and  N4_26 
REMARK    5  A    between atoms: N3_17  and  C8_19 
REMARK    6  A    between atoms: C8_19  and  C9_20 
REMARK       I    between atoms: N4_26  and  C15_28 
REMARK    7  A    between atoms: C15_28  and  C16_30 
ROOT
HETATM    1  N2  UNL     1      10.843  14.876  23.063  1.00  0.00    -0.112 N 
ATOM      2  H2  UNL     1      10.850  14.203  23.829  1.00  0.00     0.197 HD
HETATM    3  C7  UNL     1      10.953  16.020  23.509  1.00  0.00     0.691 C 
HETATM    4  N3  UNL     1      11.057  16.129  24.967  1.00  0.00    -0.221 N 
ATOM      5  H3  UNL     1      10.306  16.536  25.526  1.00  0.00     0.178 HD
HETATM    6  N4  UNL     1      11.019  17.190  22.723  1.00  0.00    -0.155 N 
ATOM      7  H4  UNL     1      10.988  17.097  21.707  1.00  0.00     0.187 HD
HETATM    8  C15 UNL     1      11.128  18.496  23.285  1.00  0.00     0.269 C 
HETATM    9  O5  UNL     1      11.169  18.637  24.534  1.00  0.00    -0.267 OA
ENDROOT
BRANCH   1  10
HETATM   10  S2  UNL     1      10.686  14.078  21.612  1.00  0.00     0.276 S 
HETATM   11  O3  UNL     1      10.251  15.029  20.493  1.00  0.00    -0.200 OA
HETATM   12  O4  UNL     1       9.689  12.926  21.651  1.00  0.00    -0.200 OA
BRANCH  10  13
HETATM   13  C6  UNL     1      12.223  13.386  21.113  1.00  0.00     0.080 A 
HETATM   14  C5  UNL     1      12.351  12.924  19.827  1.00  0.00     0.027 A 
HETATM   15  C4  UNL     1      13.567  12.364  19.464  1.00  0.00     0.026 A 
HETATM   16  C3  UNL     1      14.618  12.271  20.355  1.00  0.00     0.074 A 
HETATM   17  C23 UNL     1      14.455  12.742  21.624  1.00  0.00     0.026 A 
HETATM   18  C22 UNL     1      13.262  13.300  22.004  1.00  0.00     0.027 A 
BRANCH  16  19
HETATM   19  S1  UNL     1      16.130  11.549  19.836  1.00  0.00     0.242 S 
HETATM   20  O1  UNL     1      17.126  11.692  20.947  1.00  0.00    -0.206 OA
HETATM   21  O2  UNL     1      16.589  12.365  18.640  1.00  0.00    -0.206 OA
BRANCH  19  22
HETATM   22  N1  UNL     1      15.982   9.930  19.338  1.00  0.00    -0.215 NA
HETATM   23  C1  UNL     1      17.167   9.320  18.844  1.00  0.00     0.129 C 
HETATM   24  C2  UNL     1      15.285   9.088  20.263  1.00  0.00     0.129 C 
ENDBRANCH  19  22
ENDBRANCH  16  19
ENDBRANCH  10  13
ENDBRANCH   1  10
BRANCH   4  25
HETATM   25  C8  UNL     1      12.252  15.642  25.568  1.00  0.00     0.176 C 
BRANCH  25  26
HETATM   26  C9  UNL     1      12.643  16.297  26.816  1.00  0.00    -0.040 A 
HETATM   27  C10 UNL     1      13.915  16.381  27.327  1.00  0.00     0.009 A 
HETATM   28  C11 UNL     1      14.172  17.056  28.529  1.00  0.00     0.001 A 
HETATM   29  C12 UNL     1      13.163  17.662  29.247  1.00  0.00     0.000 A 
HETATM   30  C13 UNL     1      11.885  17.581  28.738  1.00  0.00     0.001 A 
HETATM   31  C14 UNL     1      11.633  16.912  27.549  1.00  0.00     0.009 A 
ENDBRANCH  25  26
ENDBRANCH   4  25
BRANCH   8  32
HETATM   32  C16 UNL     1      11.195  19.693  22.475  1.00  0.00     0.032 A 
HETATM   33  C17 UNL     1      11.010  20.959  23.024  1.00  0.00     0.017 A 
HETATM   34  C18 UNL     1      11.070  22.123  22.299  1.00  0.00     0.001 A 
HETATM   35  C19 UNL     1      11.333  22.032  20.927  1.00  0.00     0.000 A 
HETATM   36  C20 UNL     1      11.527  20.802  20.334  1.00  0.00     0.001 A 
HETATM   37  C21 UNL     1      11.451  19.661  21.131  1.00  0.00     0.017 A 
ENDBRANCH   8  32
TORSDOF 7
ENDMDL
MODEL 5
REMARK VINA RESULT: -8.686414066      3.691      8.349
REMARK  7 active torsions:
REMARK  status: ('A' for Active; 'I' for Inactive)
REMARK    1  A    between atoms: N1_2  and  S1_4 
REMARK    2  A    between atoms: S1_4  and  C3_7 
REMARK    3  A    between atoms: C6_10  and  S2_11 
REMARK    4  A    between atoms: S2_11  and  N2_14 
REMARK       I    between atoms: C7_16  and  N3_17 
REMARK       I    between atoms: C7_16  and  N4_26 
REMARK    5  A    between atoms: N3_17  and  C8_19 
REMARK    6  A    between atoms: C8_19  and  C9_20 
REMARK       I    between atoms: N4_26  and  C15_28 
REMARK    7  A    between atoms: C15_28  and  C16_30 
ROOT
HETATM    1  N2  UNL     1      10.514  17.158  25.751  1.00  0.00    -0.112 N 
ATOM      2  H2  UNL     1      10.116  18.086  25.897  1.00  0.00     0.197 HD
HETATM    3  C7  UNL     1      10.743  16.984  24.552  1.00  0.00     0.691 C 
HETATM    4  N3  UNL     1      10.398  18.100  23.667  1.00  0.00    -0.221 N 
ATOM      5  H3  UNL     1       9.628  18.035  23.001  1.00  0.00     0.178 HD
HETATM    6  N4  UNL     1      11.333  15.825  24.004  1.00  0.00    -0.155 N 
ATOM      7  H4  UNL     1      11.606  15.072  24.635  1.00  0.00     0.187 HD
HETATM    8  C15 UNL     1      11.563  15.660  22.605  1.00  0.00     0.269 C 
HETATM    9  O5  UNL     1      11.234  16.574  21.806  1.00  0.00    -0.267 OA
ENDROOT
BRANCH   1  10
HETATM   10  S2  UNL     1      10.645  16.364  27.207  1.00  0.00     0.276 S 
HETATM   11  O3  UNL     1       9.680  15.177  27.288  1.00  0.00    -0.200 OA
HETATM   12  O4  UNL     1      10.382  17.255  28.415  1.00  0.00    -0.200 OA
BRANCH  10  13
HETATM   13  C6  UNL     1      12.263  15.711  27.416  1.00  0.00     0.080 A 
HETATM   14  C5  UNL     1      13.339  16.501  27.096  1.00  0.00     0.027 A 
HETATM   15  C4  UNL     1      14.604  15.956  27.251  1.00  0.00     0.026 A 
HETATM   16  C3  UNL     1      14.788  14.666  27.710  1.00  0.00     0.074 A 
HETATM   17  C23 UNL     1      13.696  13.911  28.020  1.00  0.00     0.026 A 
HETATM   18  C22 UNL     1      12.436  14.430  27.875  1.00  0.00     0.027 A 
BRANCH  16  19
HETATM   19  S1  UNL     1      16.415  14.033  27.881  1.00  0.00     0.242 S 
HETATM   20  O1  UNL     1      17.151  14.274  26.598  1.00  0.00    -0.206 OA
HETATM   21  O2  UNL     1      16.257  12.538  28.098  1.00  0.00    -0.206 OA
BRANCH  19  22
HETATM   22  N1  UNL     1      17.261  14.667  29.212  1.00  0.00    -0.215 NA
HETATM   23  C1  UNL     1      16.529  14.765  30.426  1.00  0.00     0.129 C 
HETATM   24  C2  UNL     1      18.563  14.104  29.410  1.00  0.00     0.129 C 
ENDBRANCH  19  22
ENDBRANCH  16  19
ENDBRANCH  10  13
ENDBRANCH   1  10
BRANCH   4  25
HETATM   25  C8  UNL     1      11.188  19.281  23.779  1.00  0.00     0.176 C 
BRANCH  25  26
HETATM   26  C9  UNL     1      11.227  20.127  22.587  1.00  0.00    -0.040 A 
HETATM   27  C10 UNL     1      11.414  19.702  21.293  1.00  0.00     0.009 A 
HETATM   28  C11 UNL     1      11.414  20.608  20.224  1.00  0.00     0.001 A 
HETATM   29  C12 UNL     1      11.226  21.960  20.422  1.00  0.00     0.000 A 
HETATM   30  C13 UNL     1      11.038  22.390  21.718  1.00  0.00     0.001 A 
HETATM   31  C14 UNL     1      11.039  21.492  22.774  1.00  0.00     0.009 A 
ENDBRANCH  25  26
ENDBRANCH   4  25
BRANCH   8  32
HETATM   32  C16 UNL     1      12.166  14.471  22.047  1.00  0.00     0.032 A 
HETATM   33  C17 UNL     1      11.643  13.845  20.919  1.00  0.00     0.017 A 
HETATM   34  C18 UNL     1      12.184  12.719  20.348  1.00  0.00     0.001 A 
HETATM   35  C19 UNL     1      13.329  12.167  20.936  1.00  0.00     0.000 A 
HETATM   36  C20 UNL     1      13.888  12.750  22.053  1.00  0.00     0.001 A 
HETATM   37  C21 UNL     1      13.287  13.892  22.579  1.00  0.00     0.017 A 
ENDBRANCH   8  32
TORSDOF 7
ENDMDL
