MODEL 1
REMARK VINA RESULT: -7.339251335      0.000      0.000
REMARK  8 active torsions:
REMARK  status: ('A' for Active; 'I' for Inactive)
REMARK    1  A    between atoms: N2_3  and  S1_5 
REMARK    2  A    between atoms: S1_5  and  N3_6 
REMARK    3  A    between atoms: S1_5  and  N4_14 
REMARK    4  A    between atoms: N3_6  and  C2_7 
REMARK    5  A    between atoms: C9_17  and  C10_18 
REMARK    6  A    between atoms: C10_18  and  O2_19 
REMARK    7  A    between atoms: C10_18  and  C11_21 
REMARK    8  A    between atoms: C10_18  and  C17_27 
ROOT
HETATM    1  N1  UNL     1      10.707  17.310  27.194  1.00  0.00    -0.171 NA
HETATM    2  C1  UNL     1      10.656  18.135  26.380  1.00  0.00     0.190 C 
HETATM    3  N2  UNL     1      10.612  19.113  25.398  1.00  0.00    -0.246 N 
ATOM      4  H2  UNL     1      10.391  20.071  25.671  1.00  0.00     0.188 HD
ENDROOT
BRANCH   3   5
HETATM    5  S1  UNL     1      10.900  18.793  23.828  1.00  0.00     0.075 SA
BRANCH   5   6
HETATM    6  N3  UNL     1      11.883  19.925  22.890  1.00  0.00    -0.146 NA
BRANCH   6   7
HETATM    7  C2  UNL     1      11.107  20.628  21.894  1.00  0.00     0.092 C 
HETATM    8  C3  UNL     1      11.715  20.292  20.549  1.00  0.00     0.035 C 
HETATM    9  C4  UNL     1      10.651  20.554  19.485  1.00  0.00     0.110 C 
HETATM   10  S2  UNL     1      10.331  22.320  19.565  1.00  0.00     0.015 S 
HETATM   11  O1  UNL     1       8.730  22.535  20.054  1.00  0.00    -0.258 OA
HETATM   12  C5  UNL     1      11.351  22.930  20.909  1.00  0.00     0.110 C 
HETATM   13  C6  UNL     1      11.009  22.100  22.130  1.00  0.00     0.035 C 
ENDBRANCH   6   7
ENDBRANCH   5   6
BRANCH   5  14
HETATM   14  N4  UNL     1      10.289  17.290  23.170  1.00  0.00    -0.335 N 
HETATM   15  C7  UNL     1      11.026  16.134  23.522  1.00  0.00     0.133 C 
HETATM   16  C8  UNL     1      11.337  15.161  22.445  1.00  0.00     0.029 C 
HETATM   17  C9  UNL     1      10.391  15.128  21.287  1.00  0.00     0.033 C 
HETATM   18  C21 UNL     1       9.188  16.004  21.481  1.00  0.00     0.029 C 
HETATM   19  C22 UNL     1       9.771  17.381  21.857  1.00  0.00     0.133 C 
BRANCH  17  20
HETATM   20  C10 UNL     1      10.168  13.794  20.695  1.00  0.00     0.122 C 
BRANCH  20  21
HETATM   21  O2  UNL     1       9.348  13.091  21.645  1.00  0.00    -0.379 OA
ATOM     22  H2  UNL     1       8.854  12.462  21.131  1.00  0.00     0.211 HD
ENDBRANCH  20  21
BRANCH  20  23
HETATM   23  C11 UNL     1       9.441  13.690  19.437  1.00  0.00    -0.019 A 
HETATM   24  C12 UNL     1       8.653  12.546  19.229  1.00  0.00     0.010 A 
HETATM   25  C13 UNL     1       7.925  12.324  18.106  1.00  0.00     0.001 A 
HETATM   26  C14 UNL     1       7.929  13.235  17.093  1.00  0.00     0.000 A 
HETATM   27  C15 UNL     1       8.680  14.380  17.229  1.00  0.00     0.001 A 
HETATM   28  C16 UNL     1       9.420  14.583  18.398  1.00  0.00     0.010 A 
ENDBRANCH  20  23
BRANCH  20  29
HETATM   29  C17 UNL     1      11.416  12.953  20.625  1.00  0.00     0.022 A 
HETATM   30  C18 UNL     1      12.483  13.101  19.778  1.00  0.00     0.018 A 
HETATM   31  C19 UNL     1      13.491  12.231  19.895  1.00  0.00     0.008 A 
HETATM   32  C20 UNL     1      13.379  11.257  20.853  1.00  0.00     0.050 A 
HETATM   33  S3  UNL     1      11.861  11.600  21.555  1.00  0.00    -0.103 SA
ENDBRANCH  20  29
ENDBRANCH  17  20
ENDBRANCH   5  14
ENDBRANCH   3   5
TORSDOF 8
ENDMDL
MODEL 2
REMARK VINA RESULT: -7.178596153      1.550      2.844
REMARK  8 active torsions:
REMARK  status: ('A' for Active; 'I' for Inactive)
REMARK    1  A    between atoms: N2_3  and  S1_5 
REMARK    2  A    between atoms: S1_5  and  N3_6 
REMARK    3  A    between atoms: S1_5  and  N4_14 
REMARK    4  A    between atoms: N3_6  and  C2_7 
REMARK    5  A    between atoms: C9_17  and  C10_18 
REMARK    6  A    between atoms: C10_18  and  O2_19 
REMARK    7  A    between atoms: C10_18  and  C11_21 
REMARK    8  A    between atoms: C10_18  and  C17_27 
ROOT
HETATM    1  N1  UNL     1      10.853  17.263  27.189  1.00  0.00    -0.171 NA
HETATM    2  C1  UNL     1      10.657  18.030  26.340  1.00  0.00     0.190 C 
HETATM    3  N2  UNL     1      10.442  18.941  25.317  1.00  0.00    -0.246 N 
ATOM      4  H2  UNL     1      10.021  19.842  25.545  1.00  0.00     0.188 HD
ENDROOT
BRANCH   3   5
HETATM    5  S1  UNL     1      10.836  18.631  23.769  1.00  0.00     0.075 SA
BRANCH   5   6
HETATM    6  N3  UNL     1      11.841  19.791  22.892  1.00  0.00    -0.146 NA
BRANCH   6   7
HETATM    7  C2  UNL     1      11.087  20.537  21.910  1.00  0.00     0.092 C 
HETATM    8  C3  UNL     1      11.720  20.252  20.565  1.00  0.00     0.035 C 
HETATM    9  C4  UNL     1      10.678  20.561  19.491  1.00  0.00     0.110 C 
HETATM   10  S2  UNL     1      10.362  22.324  19.636  1.00  0.00     0.015 S 
HETATM   11  O1  UNL     1       8.753  22.525  20.103  1.00  0.00    -0.258 OA
HETATM   12  C5  UNL     1      11.358  22.875  21.023  1.00  0.00     0.110 C 
HETATM   13  C6  UNL     1      10.989  21.998  22.202  1.00  0.00     0.035 C 
ENDBRANCH   6   7
ENDBRANCH   5   6
BRANCH   5  14
HETATM   14  N4  UNL     1      10.311  17.111  23.076  1.00  0.00    -0.335 N 
HETATM   15  C7  UNL     1      11.218  16.035  23.224  1.00  0.00     0.133 C 
HETATM   16  C8  UNL     1      11.478  15.183  22.036  1.00  0.00     0.029 C 
HETATM   17  C9  UNL     1      10.382  15.110  21.021  1.00  0.00     0.033 C 
HETATM   18  C21 UNL     1       9.129  15.814  21.452  1.00  0.00     0.029 C 
HETATM   19  C22 UNL     1       9.599  17.224  21.859  1.00  0.00     0.133 C 
BRANCH  17  20
HETATM   20  C10 UNL     1      10.229  13.802  20.354  1.00  0.00     0.122 C 
BRANCH  20  21
HETATM   21  O2  UNL     1      11.571  13.323  20.150  1.00  0.00    -0.379 OA
ATOM     22  H2  UNL     1      11.518  12.750  19.393  1.00  0.00     0.211 HD
ENDBRANCH  20  21
BRANCH  20  23
HETATM   23  C11 UNL     1       9.559  12.719  21.064  1.00  0.00    -0.019 A 
HETATM   24  C12 UNL     1       8.156  12.675  21.015  1.00  0.00     0.010 A 
HETATM   25  C13 UNL     1       7.409  11.723  21.628  1.00  0.00     0.001 A 
HETATM   26  C14 UNL     1       8.011  10.733  22.346  1.00  0.00     0.000 A 
HETATM   27  C15 UNL     1       9.384  10.716  22.437  1.00  0.00     0.001 A 
HETATM   28  C16 UNL     1      10.129  11.709  21.794  1.00  0.00     0.010 A 
ENDBRANCH  20  23
BRANCH  20  29
HETATM   29  C17 UNL     1       9.680  13.901  18.955  1.00  0.00     0.022 A 
HETATM   30  C18 UNL     1       9.133  14.999  18.343  1.00  0.00     0.018 A 
HETATM   31  C19 UNL     1       8.707  14.857  17.084  1.00  0.00     0.008 A 
HETATM   32  C20 UNL     1       8.850  13.624  16.503  1.00  0.00     0.050 A 
HETATM   33  S3  UNL     1       9.579  12.710  17.747  1.00  0.00    -0.103 SA
ENDBRANCH  20  29
ENDBRANCH  17  20
ENDBRANCH   5  14
ENDBRANCH   3   5
TORSDOF 8
ENDMDL
MODEL 3
REMARK VINA RESULT: -7.117123203      2.047      3.453
REMARK  8 active torsions:
REMARK  status: ('A' for Active; 'I' for Inactive)
REMARK    1  A    between atoms: N2_3  and  S1_5 
REMARK    2  A    between atoms: S1_5  and  N3_6 
REMARK    3  A    between atoms: S1_5  and  N4_14 
REMARK    4  A    between atoms: N3_6  and  C2_7 
REMARK    5  A    between atoms: C9_17  and  C10_18 
REMARK    6  A    between atoms: C10_18  and  O2_19 
REMARK    7  A    between atoms: C10_18  and  C11_21 
REMARK    8  A    between atoms: C10_18  and  C17_27 
ROOT
HETATM    1  N1  UNL     1      10.722  17.575  27.357  1.00  0.00    -0.171 NA
HETATM    2  C1  UNL     1      10.417  18.154  26.399  1.00  0.00     0.190 C 
HETATM    3  N2  UNL     1      10.073  18.848  25.249  1.00  0.00    -0.246 N 
ATOM      4  H2  UNL     1       9.319  19.534  25.298  1.00  0.00     0.188 HD
ENDROOT
BRANCH   3   5
HETATM    5  S1  UNL     1      10.825  18.613  23.825  1.00  0.00     0.075 SA
BRANCH   5   6
HETATM    6  N3  UNL     1      11.762  19.938  23.122  1.00  0.00    -0.146 NA
BRANCH   6   7
HETATM    7  C2  UNL     1      11.041  20.622  22.073  1.00  0.00     0.092 C 
HETATM    8  C3  UNL     1      11.772  20.331  20.780  1.00  0.00     0.035 C 
HETATM    9  C4  UNL     1      10.788  20.563  19.633  1.00  0.00     0.110 C 
HETATM   10  S2  UNL     1      10.386  22.314  19.706  1.00  0.00     0.015 S 
HETATM   11  O1  UNL     1       8.743  22.453  20.063  1.00  0.00    -0.258 OA
HETATM   12  C5  UNL     1      11.264  22.946  21.137  1.00  0.00     0.110 C 
HETATM   13  C6  UNL     1      10.859  22.084  22.316  1.00  0.00     0.035 C 
ENDBRANCH   6   7
ENDBRANCH   5   6
BRANCH   5  14
HETATM   14  N4  UNL     1      10.736  17.021  23.102  1.00  0.00    -0.335 N 
HETATM   15  C7  UNL     1      11.290  15.974  23.876  1.00  0.00     0.133 C 
HETATM   16  C8  UNL     1      12.166  14.994  23.186  1.00  0.00     0.029 C 
HETATM   17  C9  UNL     1      11.919  14.800  21.724  1.00  0.00     0.033 C 
HETATM   18  C21 UNL     1      10.713  15.540  21.224  1.00  0.00     0.029 C 
HETATM   19  C22 UNL     1      10.927  16.991  21.700  1.00  0.00     0.133 C 
BRANCH  17  20
HETATM   20  C10 UNL     1      12.121  13.423  21.231  1.00  0.00     0.122 C 
BRANCH  20  21
HETATM   21  O2  UNL     1      11.341  13.336  20.025  1.00  0.00    -0.379 OA
ATOM     22  H2  UNL     1      11.975  13.346  19.317  1.00  0.00     0.211 HD
ENDBRANCH  20  21
BRANCH  20  23
HETATM   23  C11 UNL     1      13.459  13.003  20.832  1.00  0.00    -0.019 A 
HETATM   24  C12 UNL     1      14.532  13.355  21.666  1.00  0.00     0.010 A 
HETATM   25  C13 UNL     1      15.824  13.027  21.414  1.00  0.00     0.001 A 
HETATM   26  C14 UNL     1      16.147  12.316  20.297  1.00  0.00     0.000 A 
HETATM   27  C15 UNL     1      15.145  11.938  19.434  1.00  0.00     0.001 A 
HETATM   28  C16 UNL     1      13.822  12.289  19.719  1.00  0.00     0.010 A 
ENDBRANCH  20  23
BRANCH  20  29
HETATM   29  C17 UNL     1      11.508  12.372  22.117  1.00  0.00     0.022 A 
HETATM   30  C18 UNL     1      10.191  12.001  22.194  1.00  0.00     0.018 A 
HETATM   31  C19 UNL     1       9.869  11.034  23.060  1.00  0.00     0.008 A 
HETATM   32  C20 UNL     1      10.883  10.488  23.803  1.00  0.00     0.050 A 
HETATM   33  S3  UNL     1      12.250  11.353  23.260  1.00  0.00    -0.103 SA
ENDBRANCH  20  29
ENDBRANCH  17  20
ENDBRANCH   5  14
ENDBRANCH   3   5
TORSDOF 8
ENDMDL
MODEL 4
REMARK VINA RESULT: -7.026469818      1.611      2.921
REMARK  8 active torsions:
REMARK  status: ('A' for Active; 'I' for Inactive)
REMARK    1  A    between atoms: N2_3  and  S1_5 
REMARK    2  A    between atoms: S1_5  and  N3_6 
REMARK    3  A    between atoms: S1_5  and  N4_14 
REMARK    4  A    between atoms: N3_6  and  C2_7 
REMARK    5  A    between atoms: C9_17  and  C10_18 
REMARK    6  A    between atoms: C10_18  and  O2_19 
REMARK    7  A    between atoms: C10_18  and  C11_21 
REMARK    8  A    between atoms: C10_18  and  C17_27 
ROOT
HETATM    1  N1  UNL     1      10.974  17.206  27.151  1.00  0.00    -0.171 NA
HETATM    2  C1  UNL     1      10.596  17.899  26.299  1.00  0.00     0.190 C 
HETATM    3  N2  UNL     1      10.166  18.728  25.275  1.00  0.00    -0.246 N 
ATOM      4  H2  UNL     1       9.512  19.479  25.494  1.00  0.00     0.188 HD
ENDROOT
BRANCH   3   5
HETATM    5  S1  UNL     1      10.665  18.551  23.735  1.00  0.00     0.075 SA
BRANCH   5   6
HETATM    6  N3  UNL     1      11.695  19.798  23.020  1.00  0.00    -0.146 NA
BRANCH   6   7
HETATM    7  C2  UNL     1      11.012  20.548  21.991  1.00  0.00     0.092 C 
HETATM    8  C3  UNL     1      11.740  20.271  20.693  1.00  0.00     0.035 C 
HETATM    9  C4  UNL     1      10.776  20.584  19.549  1.00  0.00     0.110 C 
HETATM   10  S2  UNL     1      10.448  22.347  19.680  1.00  0.00     0.015 S 
HETATM   11  O1  UNL     1       8.810  22.544  20.032  1.00  0.00    -0.258 OA
HETATM   12  C5  UNL     1      11.341  22.891  21.138  1.00  0.00     0.110 C 
HETATM   13  C6  UNL     1      10.891  22.008  22.283  1.00  0.00     0.035 C 
ENDBRANCH   6   7
ENDBRANCH   5   6
BRANCH   5  14
HETATM   14  N4  UNL     1      10.224  17.082  22.892  1.00  0.00    -0.335 N 
HETATM   15  C7  UNL     1      11.018  15.950  23.195  1.00  0.00     0.133 C 
HETATM   16  C8  UNL     1      11.485  15.111  22.063  1.00  0.00     0.029 C 
HETATM   17  C9  UNL     1      10.636  15.128  20.832  1.00  0.00     0.033 C 
HETATM   18  C21 UNL     1       9.357  15.895  21.005  1.00  0.00     0.029 C 
HETATM   19  C22 UNL     1       9.803  17.265  21.554  1.00  0.00     0.133 C 
BRANCH  17  20
HETATM   20  C10 UNL     1      10.562  13.847  20.103  1.00  0.00     0.122 C 
BRANCH  20  21
HETATM   21  O2  UNL     1      10.112  14.190  18.780  1.00  0.00    -0.379 OA
ATOM     22  H2  UNL     1      10.870  14.568  18.349  1.00  0.00     0.211 HD
ENDBRANCH  20  21
BRANCH  20  23
HETATM   23  C11 UNL     1      11.785  13.083  19.886  1.00  0.00    -0.019 A 
HETATM   24  C12 UNL     1      11.808  12.176  18.814  1.00  0.00     0.010 A 
HETATM   25  C13 UNL     1      12.880  11.405  18.500  1.00  0.00     0.001 A 
HETATM   26  C14 UNL     1      14.022  11.481  19.240  1.00  0.00     0.000 A 
HETATM   27  C15 UNL     1      14.069  12.350  20.306  1.00  0.00     0.001 A 
HETATM   28  C16 UNL     1      12.949  13.132  20.607  1.00  0.00     0.010 A 
ENDBRANCH  20  23
BRANCH  20  29
HETATM   29  C17 UNL     1       9.480  12.929  20.609  1.00  0.00     0.022 A 
HETATM   30  C18 UNL     1       9.524  12.100  21.701  1.00  0.00     0.018 A 
HETATM   31  C19 UNL     1       8.437  11.369  21.966  1.00  0.00     0.008 A 
HETATM   32  C20 UNL     1       7.362  11.504  21.125  1.00  0.00     0.050 A 
HETATM   33  S3  UNL     1       7.919  12.654  19.992  1.00  0.00    -0.103 SA
ENDBRANCH  20  29
ENDBRANCH  17  20
ENDBRANCH   5  14
ENDBRANCH   3   5
TORSDOF 8
ENDMDL
MODEL 5
REMARK VINA RESULT: -6.968112718      4.285      7.768
REMARK  8 active torsions:
REMARK  status: ('A' for Active; 'I' for Inactive)
REMARK    1  A    between atoms: N2_3  and  S1_5 
REMARK    2  A    between atoms: S1_5  and  N3_6 
REMARK    3  A    between atoms: S1_5  and  N4_14 
REMARK    4  A    between atoms: N3_6  and  C2_7 
REMARK    5  A    between atoms: C9_17  and  C10_18 
REMARK    6  A    between atoms: C10_18  and  O2_19 
REMARK    7  A    between atoms: C10_18  and  C11_21 
REMARK    8  A    between atoms: C10_18  and  C17_27 
ROOT
HETATM    1  N1  UNL     1      16.253  15.635  25.848  1.00  0.00    -0.171 NA
HETATM    2  C1  UNL     1      15.512  14.975  26.451  1.00  0.00     0.190 C 
HETATM    3  N2  UNL     1      14.627  14.204  27.188  1.00  0.00    -0.246 N 
ATOM      4  H2  UNL     1      14.806  13.203  27.277  1.00  0.00     0.188 HD
ENDROOT
BRANCH   3   5
HETATM    5  S1  UNL     1      13.313  14.831  27.917  1.00  0.00     0.075 SA
BRANCH   5   6
HETATM    6  N3  UNL     1      13.195  14.759  29.679  1.00  0.00    -0.146 NA
BRANCH   6   7
HETATM    7  C2  UNL     1      12.558  15.931  30.233  1.00  0.00     0.092 C 
HETATM    8  C3  UNL     1      13.592  17.037  30.219  1.00  0.00     0.035 C 
HETATM    9  C4  UNL     1      12.843  18.368  30.279  1.00  0.00     0.110 C 
HETATM   10  S2  UNL     1      12.001  18.363  31.867  1.00  0.00     0.015 S 
HETATM   11  O1  UNL     1      10.340  18.372  31.573  1.00  0.00    -0.258 OA
HETATM   12  C5  UNL     1      12.372  16.768  32.599  1.00  0.00     0.110 C 
HETATM   13  C6  UNL     1      11.963  15.716  31.587  1.00  0.00     0.035 C 
ENDBRANCH   6   7
ENDBRANCH   5   6
BRANCH   5  14
HETATM   14  N4  UNL     1      12.119  15.626  26.914  1.00  0.00    -0.335 N 
HETATM   15  C7  UNL     1      11.699  14.894  25.778  1.00  0.00     0.133 C 
HETATM   16  C8  UNL     1      11.608  15.618  24.485  1.00  0.00     0.029 C 
HETATM   17  C9  UNL     1      11.358  17.090  24.566  1.00  0.00     0.033 C 
HETATM   18  C21 UNL     1      11.098  17.570  25.964  1.00  0.00     0.029 C 
HETATM   19  C22 UNL     1      12.284  17.025  26.785  1.00  0.00     0.133 C 
BRANCH  17  20
HETATM   20  C10 UNL     1      10.510  17.643  23.492  1.00  0.00     0.122 C 
BRANCH  20  21
HETATM   21  O2  UNL     1       9.241  17.915  24.115  1.00  0.00    -0.379 OA
ATOM     22  H2  UNL     1       8.590  17.717  23.451  1.00  0.00     0.211 HD
ENDBRANCH  20  21
BRANCH  20  23
HETATM   23  C11 UNL     1      10.888  18.905  22.869  1.00  0.00    -0.019 A 
HETATM   24  C12 UNL     1      11.464  18.856  21.590  1.00  0.00     0.010 A 
HETATM   25  C13 UNL     1      11.861  19.954  20.897  1.00  0.00     0.001 A 
HETATM   26  C14 UNL     1      11.712  21.197  21.436  1.00  0.00     0.000 A 
HETATM   27  C15 UNL     1      11.155  21.319  22.688  1.00  0.00     0.001 A 
HETATM   28  C16 UNL     1      10.755  20.171  23.378  1.00  0.00     0.010 A 
ENDBRANCH  20  23
BRANCH  20  29
HETATM   29  C17 UNL     1      10.163  16.640  22.424  1.00  0.00     0.022 A 
HETATM   30  C18 UNL     1       8.967  16.485  21.772  1.00  0.00     0.018 A 
HETATM   31  C19 UNL     1       8.885  15.521  20.850  1.00  0.00     0.008 A 
HETATM   32  C20 UNL     1      10.004  14.761  20.627  1.00  0.00     0.050 A 
HETATM   33  S3  UNL     1      11.131  15.430  21.722  1.00  0.00    -0.103 SA
ENDBRANCH  20  29
ENDBRANCH  17  20
ENDBRANCH   5  14
ENDBRANCH   3   5
TORSDOF 8
ENDMDL
