MODEL 1
REMARK VINA RESULT: -8.384689212      0.000      0.000
REMARK  7 active torsions:
REMARK  status: ('A' for Active; 'I' for Inactive)
REMARK    1  A    between atoms: N1_1  and  S1_4 
REMARK    2  A    between atoms: S1_4  and  C1_7 
REMARK    3  A    between atoms: C4_10  and  C5_11 
REMARK    4  A    between atoms: C5_11  and  C6_12 
REMARK    5  A    between atoms: C6_12  and  N2_13 
REMARK       I    between atoms: N2_13  and  C7_15 
REMARK    6  A    between atoms: C7_15  and  C8_17 
REMARK    7  A    between atoms: C8_17  and  N3_18 
ROOT
HETATM    1  N2  UNL     1      10.584  16.236  24.173  1.00  0.00    -0.359 N 
ATOM      2  H2  UNL     1      10.204  15.686  23.403  1.00  0.00     0.162 HD
HETATM    3  C7  UNL     1      11.251  15.583  25.234  1.00  0.00     0.236 C 
HETATM    4  O3  UNL     1      11.742  16.187  26.205  1.00  0.00    -0.272 OA
ENDROOT
BRANCH   3   5
HETATM    5  C8  UNL     1      11.364  14.108  25.172  1.00  0.00     0.247 C 
BRANCH   5   6
HETATM    6  N3  UNL     1      11.957  13.713  23.907  1.00  0.00    -0.228 N 
HETATM    7  C9  UNL     1      13.356  13.803  23.697  1.00  0.00     0.268 A 
HETATM    8  O4  UNL     1      14.034  14.247  24.692  1.00  0.00    -0.266 OA
HETATM    9  C10 UNL     1      14.034  13.433  22.463  1.00  0.00     0.045 A 
HETATM   10  C11 UNL     1      15.415  13.568  22.383  1.00  0.00     0.018 A 
HETATM   11  C19 UNL     1      13.385  12.946  21.341  1.00  0.00     0.013 A 
HETATM   12  C12 UNL     1      16.146  13.249  21.265  1.00  0.00     0.002 A 
HETATM   13  C13 UNL     1      15.509  12.762  20.143  1.00  0.00     0.012 A 
HETATM   14  C14 UNL     1      14.126  12.623  20.215  1.00  0.00    -0.023 A 
HETATM   15  C15 UNL     1      13.555  12.128  19.045  1.00  0.00     0.012 A 
HETATM   16  C16 UNL     1      12.200  11.954  19.007  1.00  0.00     0.002 A 
HETATM   17  C17 UNL     1      11.432  12.260  20.099  1.00  0.00     0.026 A 
HETATM   18  C18 UNL     1      12.013  12.757  21.271  1.00  0.00     0.092 A 
HETATM   19  S2  UNL     1      10.975  13.122  22.623  1.00  0.00     0.268 S 
HETATM   20  O5  UNL     1      10.050  14.229  22.201  1.00  0.00    -0.200 OA
HETATM   21  O6  UNL     1      10.201  11.915  23.069  1.00  0.00    -0.200 OA
ENDBRANCH   5   6
ENDBRANCH   3   5
BRANCH   1  22
HETATM   22  C6  UNL     1      10.433  17.666  24.166  1.00  0.00     0.127 C 
BRANCH  22  23
HETATM   23  C5  UNL     1      11.671  18.388  23.730  1.00  0.00     0.058 C 
BRANCH  23  24
HETATM   24  C4  UNL     1      11.391  19.484  22.785  1.00  0.00    -0.057 A 
HETATM   25  C3  UNL     1      11.496  19.240  21.434  1.00  0.00     0.009 A 
HETATM   26  C2  UNL     1      11.244  20.233  20.495  1.00  0.00     0.026 A 
HETATM   27  C1  UNL     1      10.882  21.488  20.915  1.00  0.00     0.079 A 
HETATM   28  C21 UNL     1      10.779  21.724  22.266  1.00  0.00     0.026 A 
HETATM   29  C20 UNL     1      11.030  20.730  23.218  1.00  0.00     0.009 A 
BRANCH  27  30
HETATM   30  S1  UNL     1      10.561  22.748  19.729  1.00  0.00     0.256 S 
HETATM   31  O1  UNL     1      11.794  23.597  19.594  1.00  0.00    -0.201 OA
HETATM   32  O2  UNL     1       9.427  23.582  20.238  1.00  0.00    -0.201 OA
BRANCH  30  33
HETATM   33  N1  UNL     1      10.173  22.038  18.207  1.00  0.00    -0.324 N 
ATOM     34  H12 UNL     1      10.209  22.533  17.316  1.00  0.00     0.169 HD
ATOM     35  H11 UNL     1       9.907  21.062  18.340  1.00  0.00     0.169 HD
ENDBRANCH  30  33
ENDBRANCH  27  30
ENDBRANCH  23  24
ENDBRANCH  22  23
ENDBRANCH   1  22
TORSDOF 7
ENDMDL
MODEL 2
REMARK VINA RESULT: -8.120465518      4.377      6.130
REMARK  7 active torsions:
REMARK  status: ('A' for Active; 'I' for Inactive)
REMARK    1  A    between atoms: N1_1  and  S1_4 
REMARK    2  A    between atoms: S1_4  and  C1_7 
REMARK    3  A    between atoms: C4_10  and  C5_11 
REMARK    4  A    between atoms: C5_11  and  C6_12 
REMARK    5  A    between atoms: C6_12  and  N2_13 
REMARK       I    between atoms: N2_13  and  C7_15 
REMARK    6  A    between atoms: C7_15  and  C8_17 
REMARK    7  A    between atoms: C8_17  and  N3_18 
ROOT
HETATM    1  N2  UNL     1      10.223  16.670  21.203  1.00  0.00    -0.359 N 
ATOM      2  H2  UNL     1      10.286  17.579  20.745  1.00  0.00     0.162 HD
HETATM    3  C7  UNL     1       9.150  15.805  20.893  1.00  0.00     0.236 C 
HETATM    4  O3  UNL     1       9.007  14.681  21.408  1.00  0.00    -0.272 OA
ENDROOT
BRANCH   3   5
HETATM    5  C8  UNL     1       8.153  16.273  19.903  1.00  0.00     0.247 C 
BRANCH   5   6
HETATM    6  N3  UNL     1       7.738  15.164  19.062  1.00  0.00    -0.228 N 
HETATM    7  C9  UNL     1       6.499  14.509  19.276  1.00  0.00     0.268 A 
HETATM    8  O4  UNL     1       5.795  14.967  20.246  1.00  0.00    -0.266 OA
HETATM    9  C10 UNL     1       6.006  13.390  18.486  1.00  0.00     0.045 A 
HETATM   10  C11 UNL     1       4.771  12.833  18.799  1.00  0.00     0.018 A 
HETATM   11  C19 UNL     1       6.696  12.831  17.424  1.00  0.00     0.013 A 
HETATM   12  C12 UNL     1       4.220  11.777  18.117  1.00  0.00     0.002 A 
HETATM   13  C13 UNL     1       4.899  11.214  17.057  1.00  0.00     0.012 A 
HETATM   14  C14 UNL     1       6.136  11.765  16.737  1.00  0.00    -0.023 A 
HETATM   15  C15 UNL     1       6.760  11.144  15.658  1.00  0.00     0.012 A 
HETATM   16  C16 UNL     1       7.983  11.608  15.260  1.00  0.00     0.002 A 
HETATM   17  C17 UNL     1       8.571  12.659  15.913  1.00  0.00     0.026 A 
HETATM   18  C18 UNL     1       7.936  13.278  16.996  1.00  0.00     0.092 A 
HETATM   19  S2  UNL     1       8.741  14.613  17.776  1.00  0.00     0.268 S 
HETATM   20  O5  UNL     1      10.015  14.088  18.377  1.00  0.00    -0.200 OA
HETATM   21  O6  UNL     1       9.020  15.731  16.814  1.00  0.00    -0.200 OA
ENDBRANCH   5   6
ENDBRANCH   3   5
BRANCH   1  22
HETATM   22  C6  UNL     1      11.227  16.284  22.157  1.00  0.00     0.127 C 
BRANCH  22  23
HETATM   23  C5  UNL     1      11.557  17.365  23.139  1.00  0.00     0.058 C 
BRANCH  23  24
HETATM   24  C4  UNL     1      11.338  18.717  22.598  1.00  0.00    -0.057 A 
HETATM   25  C3  UNL     1      11.646  18.963  21.278  1.00  0.00     0.009 A 
HETATM   26  C2  UNL     1      11.460  20.217  20.710  1.00  0.00     0.026 A 
HETATM   27  C1  UNL     1      10.959  21.241  21.475  1.00  0.00     0.079 A 
HETATM   28  C21 UNL     1      10.654  20.988  22.791  1.00  0.00     0.026 A 
HETATM   29  C20 UNL     1      10.837  19.728  23.371  1.00  0.00     0.009 A 
BRANCH  27  30
HETATM   30  S1  UNL     1      10.722  22.831  20.759  1.00  0.00     0.256 S 
HETATM   31  O1  UNL     1      11.873  23.112  19.835  1.00  0.00    -0.201 OA
HETATM   32  O2  UNL     1      10.707  23.837  21.868  1.00  0.00    -0.201 OA
BRANCH  30  33
HETATM   33  N1  UNL     1       9.243  22.863  19.874  1.00  0.00    -0.324 N 
ATOM     34  H12 UNL     1       9.041  23.514  19.115  1.00  0.00     0.169 HD
ATOM     35  H11 UNL     1       8.615  22.140  20.226  1.00  0.00     0.169 HD
ENDBRANCH  30  33
ENDBRANCH  27  30
ENDBRANCH  23  24
ENDBRANCH  22  23
ENDBRANCH   1  22
TORSDOF 7
ENDMDL
MODEL 3
REMARK VINA RESULT: -8.053901873      5.295      8.060
REMARK  7 active torsions:
REMARK  status: ('A' for Active; 'I' for Inactive)
REMARK    1  A    between atoms: N1_1  and  S1_4 
REMARK    2  A    between atoms: S1_4  and  C1_7 
REMARK    3  A    between atoms: C4_10  and  C5_11 
REMARK    4  A    between atoms: C5_11  and  C6_12 
REMARK    5  A    between atoms: C6_12  and  N2_13 
REMARK       I    between atoms: N2_13  and  C7_15 
REMARK    6  A    between atoms: C7_15  and  C8_17 
REMARK    7  A    between atoms: C8_17  and  N3_18 
ROOT
HETATM    1  N2  UNL     1      13.989  14.892  29.298  1.00  0.00    -0.359 N 
ATOM      2  H2  UNL     1      13.131  15.052  29.826  1.00  0.00     0.162 HD
HETATM    3  C7  UNL     1      13.930  14.214  28.060  1.00  0.00     0.236 C 
HETATM    4  O3  UNL     1      14.932  13.985  27.359  1.00  0.00    -0.272 OA
ENDROOT
BRANCH   3   5
HETATM    5  C8  UNL     1      12.602  13.762  27.586  1.00  0.00     0.247 C 
BRANCH   5   6
HETATM    6  N3  UNL     1      12.123  14.652  26.543  1.00  0.00    -0.228 N 
HETATM    7  C9  UNL     1      11.597  15.930  26.859  1.00  0.00     0.268 A 
HETATM    8  O4  UNL     1      11.584  16.226  28.108  1.00  0.00    -0.266 OA
HETATM    9  C10 UNL     1      11.093  16.883  25.881  1.00  0.00     0.045 A 
HETATM   10  C11 UNL     1      10.601  18.107  26.321  1.00  0.00     0.018 A 
HETATM   11  C19 UNL     1      11.068  16.650  24.517  1.00  0.00     0.013 A 
HETATM   12  C12 UNL     1      10.102  19.072  25.480  1.00  0.00     0.002 A 
HETATM   13  C13 UNL     1      10.075  18.849  24.119  1.00  0.00     0.012 A 
HETATM   14  C14 UNL     1      10.565  17.626  23.671  1.00  0.00    -0.023 A 
HETATM   15  C15 UNL     1      10.502  17.475  22.288  1.00  0.00     0.012 A 
HETATM   16  C16 UNL     1      10.958  16.309  21.741  1.00  0.00     0.002 A 
HETATM   17  C17 UNL     1      11.463  15.319  22.542  1.00  0.00     0.026 A 
HETATM   18  C18 UNL     1      11.523  15.479  23.932  1.00  0.00     0.092 A 
HETATM   19  S2  UNL     1      12.181  14.180  24.889  1.00  0.00     0.268 S 
HETATM   20  O5  UNL     1      11.282  12.987  24.717  1.00  0.00    -0.200 OA
HETATM   21  O6  UNL     1      13.590  13.853  24.487  1.00  0.00    -0.200 OA
ENDBRANCH   5   6
ENDBRANCH   3   5
BRANCH   1  22
HETATM   22  C6  UNL     1      15.244  15.358  29.823  1.00  0.00     0.127 C 
BRANCH  22  23
HETATM   23  C5  UNL     1      15.505  16.804  29.535  1.00  0.00     0.058 C 
BRANCH  23  24
HETATM   24  C4  UNL     1      14.611  17.707  30.280  1.00  0.00    -0.057 A 
HETATM   25  C3  UNL     1      14.482  17.543  31.641  1.00  0.00     0.009 A 
HETATM   26  C2  UNL     1      13.656  18.364  32.397  1.00  0.00     0.026 A 
HETATM   27  C1  UNL     1      12.945  19.364  31.781  1.00  0.00     0.079 A 
HETATM   28  C21 UNL     1      13.078  19.522  30.422  1.00  0.00     0.026 A 
HETATM   29  C20 UNL     1      13.910  18.700  29.653  1.00  0.00     0.009 A 
BRANCH  27  30
HETATM   30  S1  UNL     1      11.896  20.406  32.735  1.00  0.00     0.256 S 
HETATM   31  O1  UNL     1      12.495  20.557  34.105  1.00  0.00    -0.201 OA
HETATM   32  O2  UNL     1      10.558  19.743  32.839  1.00  0.00    -0.201 OA
BRANCH  30  33
HETATM   33  N1  UNL     1      11.763  21.952  31.984  1.00  0.00    -0.324 N 
ATOM     34  H12 UNL     1      11.274  22.749  32.391  1.00  0.00     0.169 HD
ATOM     35  H11 UNL     1      12.243  21.941  31.083  1.00  0.00     0.169 HD
ENDBRANCH  30  33
ENDBRANCH  27  30
ENDBRANCH  23  24
ENDBRANCH  22  23
ENDBRANCH   1  22
TORSDOF 7
ENDMDL
MODEL 4
REMARK VINA RESULT: -7.972126522      1.077      1.504
REMARK  7 active torsions:
REMARK  status: ('A' for Active; 'I' for Inactive)
REMARK    1  A    between atoms: N1_1  and  S1_4 
REMARK    2  A    between atoms: S1_4  and  C1_7 
REMARK    3  A    between atoms: C4_10  and  C5_11 
REMARK    4  A    between atoms: C5_11  and  C6_12 
REMARK    5  A    between atoms: C6_12  and  N2_13 
REMARK       I    between atoms: N2_13  and  C7_15 
REMARK    6  A    between atoms: C7_15  and  C8_17 
REMARK    7  A    between atoms: C8_17  and  N3_18 
ROOT
HETATM    1  N2  UNL     1      10.596  16.221  24.495  1.00  0.00    -0.359 N 
ATOM      2  H2  UNL     1      10.857  15.873  25.417  1.00  0.00     0.162 HD
HETATM    3  C7  UNL     1      10.439  15.313  23.425  1.00  0.00     0.236 C 
HETATM    4  O3  UNL     1      10.119  15.662  22.274  1.00  0.00    -0.272 OA
ENDROOT
BRANCH   3   5
HETATM    5  C8  UNL     1      10.669  13.876  23.701  1.00  0.00     0.247 C 
BRANCH   5   6
HETATM    6  N3  UNL     1      11.626  13.339  22.749  1.00  0.00    -0.228 N 
HETATM    7  C9  UNL     1      13.002  13.670  22.832  1.00  0.00     0.268 A 
HETATM    8  O4  UNL     1      13.321  14.457  23.795  1.00  0.00    -0.266 OA
HETATM    9  C10 UNL     1      14.027  13.182  21.922  1.00  0.00     0.045 A 
HETATM   10  C11 UNL     1      15.346  13.582  22.111  1.00  0.00     0.018 A 
HETATM   11  C19 UNL     1      13.776  12.332  20.859  1.00  0.00     0.013 A 
HETATM   12  C12 UNL     1      16.384  13.180  21.308  1.00  0.00     0.002 A 
HETATM   13  C13 UNL     1      16.143  12.332  20.247  1.00  0.00     0.012 A 
HETATM   14  C14 UNL     1      14.826  11.927  20.051  1.00  0.00    -0.023 A 
HETATM   15  C15 UNL     1      14.663  11.074  18.962  1.00  0.00     0.012 A 
HETATM   16  C16 UNL     1      13.407  10.617  18.678  1.00  0.00     0.002 A 
HETATM   17  C17 UNL     1      12.342  10.993  19.453  1.00  0.00     0.026 A 
HETATM   18  C18 UNL     1      12.514  11.850  20.546  1.00  0.00     0.092 A 
HETATM   19  S2  UNL     1      11.115  12.284  21.489  1.00  0.00     0.268 S 
HETATM   20  O5  UNL     1      10.182  13.050  20.594  1.00  0.00    -0.200 OA
HETATM   21  O6  UNL     1      10.436  11.074  22.063  1.00  0.00    -0.200 OA
ENDBRANCH   5   6
ENDBRANCH   3   5
BRANCH   1  22
HETATM   22  C6  UNL     1      10.392  17.631  24.300  1.00  0.00     0.127 C 
BRANCH  22  23
HETATM   23  C5  UNL     1      11.635  18.357  23.888  1.00  0.00     0.058 C 
BRANCH  23  24
HETATM   24  C4  UNL     1      11.388  19.374  22.852  1.00  0.00    -0.057 A 
HETATM   25  C3  UNL     1      11.022  20.644  23.240  1.00  0.00     0.009 A 
HETATM   26  C2  UNL     1      10.776  21.645  22.309  1.00  0.00     0.026 A 
HETATM   27  C1  UNL     1      10.897  21.372  20.970  1.00  0.00     0.079 A 
HETATM   28  C21 UNL     1      11.263  20.102  20.590  1.00  0.00     0.026 A 
HETATM   29  C20 UNL     1      11.513  19.088  21.521  1.00  0.00     0.009 A 
BRANCH  27  30
HETATM   30  S1  UNL     1      10.587  22.638  19.787  1.00  0.00     0.256 S 
HETATM   31  O1  UNL     1      11.835  23.459  19.633  1.00  0.00    -0.201 OA
HETATM   32  O2  UNL     1       9.478  23.496  20.311  1.00  0.00    -0.201 OA
BRANCH  30  33
HETATM   33  N1  UNL     1      10.161  21.934  18.272  1.00  0.00    -0.324 N 
ATOM     34  H12 UNL     1       9.439  22.300  17.651  1.00  0.00     0.169 HD
ATOM     35  H11 UNL     1      10.736  21.109  18.100  1.00  0.00     0.169 HD
ENDBRANCH  30  33
ENDBRANCH  27  30
ENDBRANCH  23  24
ENDBRANCH  22  23
ENDBRANCH   1  22
TORSDOF 7
ENDMDL
MODEL 5
REMARK VINA RESULT: -7.951466321      4.051      6.120
REMARK  7 active torsions:
REMARK  status: ('A' for Active; 'I' for Inactive)
REMARK    1  A    between atoms: N1_1  and  S1_4 
REMARK    2  A    between atoms: S1_4  and  C1_7 
REMARK    3  A    between atoms: C4_10  and  C5_11 
REMARK    4  A    between atoms: C5_11  and  C6_12 
REMARK    5  A    between atoms: C6_12  and  N2_13 
REMARK       I    between atoms: N2_13  and  C7_15 
REMARK    6  A    between atoms: C7_15  and  C8_17 
REMARK    7  A    between atoms: C8_17  and  N3_18 
ROOT
HETATM    1  N2  UNL     1      10.316  16.829  25.256  1.00  0.00    -0.359 N 
ATOM      2  H2  UNL     1       9.987  17.399  26.035  1.00  0.00     0.162 HD
HETATM    3  C7  UNL     1      10.678  15.482  25.481  1.00  0.00     0.236 C 
HETATM    4  O3  UNL     1      11.085  14.725  24.581  1.00  0.00    -0.272 OA
ENDROOT
BRANCH   3   5
HETATM    5  C8  UNL     1      10.561  14.959  26.861  1.00  0.00     0.247 C 
BRANCH   5   6
HETATM    6  N3  UNL     1      11.768  15.269  27.608  1.00  0.00    -0.228 N 
HETATM    7  C9  UNL     1      11.957  16.547  28.191  1.00  0.00     0.268 A 
HETATM    8  O4  UNL     1      10.997  17.382  28.011  1.00  0.00    -0.266 OA
HETATM    9  C10 UNL     1      13.132  16.946  28.952  1.00  0.00     0.045 A 
HETATM   10  C11 UNL     1      13.197  18.233  29.473  1.00  0.00     0.018 A 
HETATM   11  C19 UNL     1      14.212  16.115  29.196  1.00  0.00     0.013 A 
HETATM   12  C12 UNL     1      14.260  18.705  30.201  1.00  0.00     0.002 A 
HETATM   13  C13 UNL     1      15.340  17.884  30.451  1.00  0.00     0.012 A 
HETATM   14  C14 UNL     1      15.284  16.594  29.933  1.00  0.00    -0.023 A 
HETATM   15  C15 UNL     1      16.409  15.827  30.225  1.00  0.00     0.012 A 
HETATM   16  C16 UNL     1      16.457  14.542  29.762  1.00  0.00     0.002 A 
HETATM   17  C17 UNL     1      15.418  14.030  29.030  1.00  0.00     0.026 A 
HETATM   18  C18 UNL     1      14.291  14.808  28.741  1.00  0.00     0.092 A 
HETATM   19  S2  UNL     1      13.005  14.090  27.808  1.00  0.00     0.268 S 
HETATM   20  O5  UNL     1      13.557  13.764  26.449  1.00  0.00    -0.200 OA
HETATM   21  O6  UNL     1      12.456  12.862  28.475  1.00  0.00    -0.200 OA
ENDBRANCH   5   6
ENDBRANCH   3   5
BRANCH   1  22
HETATM   22  C6  UNL     1      10.407  17.407  23.943  1.00  0.00     0.127 C 
BRANCH  22  23
HETATM   23  C5  UNL     1      11.590  18.309  23.774  1.00  0.00     0.058 C 
BRANCH  23  24
HETATM   24  C4  UNL     1      11.339  19.413  22.832  1.00  0.00    -0.057 A 
HETATM   25  C3  UNL     1      11.455  19.174  21.480  1.00  0.00     0.009 A 
HETATM   26  C2  UNL     1      11.229  20.175  20.544  1.00  0.00     0.026 A 
HETATM   27  C1  UNL     1      10.882  21.434  20.966  1.00  0.00     0.079 A 
HETATM   28  C21 UNL     1      10.768  21.665  22.316  1.00  0.00     0.026 A 
HETATM   29  C20 UNL     1      10.993  20.663  23.266  1.00  0.00     0.009 A 
BRANCH  27  30
HETATM   30  S1  UNL     1      10.595  22.705  19.783  1.00  0.00     0.256 S 
HETATM   31  O1  UNL     1      11.855  23.510  19.636  1.00  0.00    -0.201 OA
HETATM   32  O2  UNL     1       9.495  23.578  20.301  1.00  0.00    -0.201 OA
BRANCH  30  33
HETATM   33  N1  UNL     1      10.168  22.008  18.264  1.00  0.00    -0.324 N 
ATOM     34  H12 UNL     1      10.641  22.215  17.384  1.00  0.00     0.169 HD
ATOM     35  H11 UNL     1       9.382  21.370  18.386  1.00  0.00     0.169 HD
ENDBRANCH  30  33
ENDBRANCH  27  30
ENDBRANCH  23  24
ENDBRANCH  22  23
ENDBRANCH   1  22
TORSDOF 7
ENDMDL
