MODEL 1
REMARK VINA RESULT: -6.082188080      0.000      0.000
REMARK  3 active torsions:
REMARK  status: ('A' for Active; 'I' for Inactive)
REMARK    1  A    between atoms: C2_2  and  C3_3 
REMARK    2  A    between atoms: C6_10  and  O1_11 
REMARK    3  A    between atoms: O1_11  and  C7_12 
ROOT
HETATM    1  C3  UNL     1      28.939  13.053  13.908  1.00  0.00     0.042 A 
HETATM    2  N1  UNL     1      29.316  12.626  12.655  1.00  0.00    -0.346 N 
ATOM      3  H1  UNL     1      29.781  13.286  12.031  1.00  0.00     0.167 HD
HETATM    4  C4  UNL     1      29.097  11.383  12.224  1.00  0.00     0.079 A 
HETATM    5  C5  UNL     1      29.523  10.957  10.855  1.00  0.00     0.089 C 
HETATM    6  N2  UNL     1      28.482  10.492  13.037  1.00  0.00    -0.326 N 
ATOM      7  H2  UNL     1      28.319   9.544  12.697  1.00  0.00     0.169 HD
HETATM    8  C6  UNL     1      28.082  10.817  14.271  1.00  0.00     0.151 A 
HETATM    9  C9  UNL     1      28.317  12.124  14.711  1.00  0.00     0.016 A 
HETATM   10  C10 UNL     1      27.884  12.412  16.100  1.00  0.00     0.055 C 
ENDROOT
BRANCH   8  11
HETATM   11  O1  UNL     1      27.452   9.922  15.114  1.00  0.00    -0.336 OA
BRANCH  11  12
HETATM   12  C7  UNL     1      26.534   8.957  14.731  1.00  0.00     0.173 C 
HETATM   13  C8  UNL     1      27.228   7.814  14.008  1.00  0.00     0.034 C 
ENDBRANCH  11  12
ENDBRANCH   8  11
BRANCH   1  14
HETATM   14  C2  UNL     1      29.230  14.412  14.309  1.00  0.00     0.020 C 
HETATM   15  C1  UNL     1      30.156  15.223  13.929  1.00  0.00     0.013 C 
ENDBRANCH   1  14
TORSDOF 3
ENDMDL
MODEL 2
REMARK VINA RESULT: -6.041240160      1.373      4.455
REMARK  3 active torsions:
REMARK  status: ('A' for Active; 'I' for Inactive)
REMARK    1  A    between atoms: C2_2  and  C3_3 
REMARK    2  A    between atoms: C6_10  and  O1_11 
REMARK    3  A    between atoms: O1_11  and  C7_12 
ROOT
HETATM    1  C3  UNL     1      27.864  10.620  14.015  1.00  0.00     0.042 A 
HETATM    2  N1  UNL     1      28.305  10.301  12.750  1.00  0.00    -0.346 N 
ATOM      3  H1  UNL     1      28.064   9.389  12.362  1.00  0.00     0.167 HD
HETATM    4  C4  UNL     1      29.037  11.138  12.013  1.00  0.00     0.079 A 
HETATM    5  C5  UNL     1      29.496  10.754  10.642  1.00  0.00     0.089 C 
HETATM    6  N2  UNL     1      29.367  12.352  12.510  1.00  0.00    -0.326 N 
ATOM      7  H2  UNL     1      29.928  12.985  11.938  1.00  0.00     0.169 HD
HETATM    8  C6  UNL     1      28.982  12.749  13.729  1.00  0.00     0.151 A 
HETATM    9  C9  UNL     1      28.216  11.862  14.492  1.00  0.00     0.016 A 
HETATM   10  C10 UNL     1      27.789  12.373  15.817  1.00  0.00     0.055 C 
ENDROOT
BRANCH   8  11
HETATM   11  O1  UNL     1      29.311  13.984  14.253  1.00  0.00    -0.336 OA
BRANCH  11  12
HETATM   12  C7  UNL     1      30.133  14.925  13.655  1.00  0.00     0.173 C 
HETATM   13  C8  UNL     1      30.317  16.131  14.562  1.00  0.00     0.034 C 
ENDBRANCH  11  12
ENDBRANCH   8  11
BRANCH   1  14
HETATM   14  C2  UNL     1      27.057   9.665  14.743  1.00  0.00     0.020 C 
HETATM   15  C1  UNL     1      26.825   8.417  14.525  1.00  0.00     0.013 C 
ENDBRANCH   1  14
TORSDOF 3
ENDMDL
MODEL 3
REMARK VINA RESULT: -5.853880883      1.777      2.712
REMARK  3 active torsions:
REMARK  status: ('A' for Active; 'I' for Inactive)
REMARK    1  A    between atoms: C2_2  and  C3_3 
REMARK    2  A    between atoms: C6_10  and  O1_11 
REMARK    3  A    between atoms: O1_11  and  C7_12 
ROOT
HETATM    1  C3  UNL     1      27.883  10.843  14.250  1.00  0.00     0.042 A 
HETATM    2  N1  UNL     1      28.708  11.256  13.228  1.00  0.00    -0.346 N 
ATOM      3  H1  UNL     1      29.156  12.170  13.299  1.00  0.00     0.167 HD
HETATM    4  C4  UNL     1      28.944  10.510  12.149  1.00  0.00     0.079 A 
HETATM    5  C5  UNL     1      29.848  10.995  11.061  1.00  0.00     0.089 C 
HETATM    6  N2  UNL     1      28.359   9.294  12.036  1.00  0.00    -0.326 N 
ATOM      7  H2  UNL     1      28.546   8.731  11.206  1.00  0.00     0.169 HD
HETATM    8  C6  UNL     1      27.544   8.808  12.979  1.00  0.00     0.151 A 
HETATM    9  C9  UNL     1      27.304   9.602  14.106  1.00  0.00     0.016 A 
HETATM   10  C10 UNL     1      26.422   8.995  15.132  1.00  0.00     0.055 C 
ENDROOT
BRANCH   8  11
HETATM   11  O1  UNL     1      26.937   7.571  12.881  1.00  0.00    -0.336 OA
BRANCH  11  12
HETATM   12  C7  UNL     1      27.579   6.346  12.958  1.00  0.00     0.173 C 
HETATM   13  C8  UNL     1      26.720   5.250  12.347  1.00  0.00     0.034 C 
ENDBRANCH  11  12
ENDBRANCH   8  11
BRANCH   1  14
HETATM   14  C2  UNL     1      27.693  11.703  15.398  1.00  0.00     0.020 C 
HETATM   15  C1  UNL     1      28.306  12.778  15.755  1.00  0.00     0.013 C 
ENDBRANCH   1  14
TORSDOF 3
ENDMDL
MODEL 4
REMARK VINA RESULT: -5.451036404      1.264      4.481
REMARK  3 active torsions:
REMARK  status: ('A' for Active; 'I' for Inactive)
REMARK    1  A    between atoms: C2_2  and  C3_3 
REMARK    2  A    between atoms: C6_10  and  O1_11 
REMARK    3  A    between atoms: O1_11  and  C7_12 
ROOT
HETATM    1  C3  UNL     1      27.654   8.665  13.029  1.00  0.00     0.042 A 
HETATM    2  N1  UNL     1      28.466   9.195  12.051  1.00  0.00    -0.346 N 
ATOM      3  H1  UNL     1      28.726   8.608  11.259  1.00  0.00     0.167 HD
HETATM    4  C4  UNL     1      28.925  10.445  12.101  1.00  0.00     0.079 A 
HETATM    5  C5  UNL     1      29.806  10.985  11.018  1.00  0.00     0.089 C 
HETATM    6  N2  UNL     1      28.591  11.240  13.144  1.00  0.00    -0.326 N 
ATOM      7  H2  UNL     1      28.949  12.195  13.173  1.00  0.00     0.169 HD
HETATM    8  C6  UNL     1      27.806  10.811  14.140  1.00  0.00     0.151 A 
HETATM    9  C9  UNL     1      27.331   9.497  14.076  1.00  0.00     0.016 A 
HETATM   10  C10 UNL     1      26.436   9.093  15.188  1.00  0.00     0.055 C 
ENDROOT
BRANCH   8  11
HETATM   11  O1  UNL     1      27.455  11.607  15.213  1.00  0.00    -0.336 OA
BRANCH  11  12
HETATM   12  C7  UNL     1      28.301  12.466  15.895  1.00  0.00     0.173 C 
HETATM   13  C8  UNL     1      28.502  13.755  15.113  1.00  0.00     0.034 C 
ENDBRANCH  11  12
ENDBRANCH   8  11
BRANCH   1  14
HETATM   14  C2  UNL     1      27.179   7.305  12.892  1.00  0.00     0.020 C 
HETATM   15  C1  UNL     1      27.712   6.186  13.245  1.00  0.00     0.013 C 
ENDBRANCH   1  14
TORSDOF 3
ENDMDL
MODEL 5
REMARK VINA RESULT: -5.240242894      2.806      4.235
REMARK  3 active torsions:
REMARK  status: ('A' for Active; 'I' for Inactive)
REMARK    1  A    between atoms: C2_2  and  C3_3 
REMARK    2  A    between atoms: C6_10  and  O1_11 
REMARK    3  A    between atoms: O1_11  and  C7_12 
ROOT
HETATM    1  C3  UNL     1      30.160  16.379  16.039  1.00  0.00     0.042 A 
HETATM    2  N1  UNL     1      30.371  16.801  14.745  1.00  0.00    -0.346 N 
ATOM      3  H1  UNL     1      30.888  17.666  14.589  1.00  0.00     0.167 HD
HETATM    4  C4  UNL     1      29.925  16.122  13.687  1.00  0.00     0.079 A 
HETATM    5  C5  UNL     1      30.175  16.614  12.297  1.00  0.00     0.089 C 
HETATM    6  N2  UNL     1      29.237  14.971  13.872  1.00  0.00    -0.326 N 
ATOM      7  H2  UNL     1      28.899  14.460  13.057  1.00  0.00     0.169 HD
HETATM    8  C6  UNL     1      28.985  14.484  15.093  1.00  0.00     0.151 A 
HETATM    9  C9  UNL     1      29.458  15.205  16.194  1.00  0.00     0.016 A 
HETATM   10  C10 UNL     1      29.180  14.595  17.517  1.00  0.00     0.055 C 
ENDROOT
BRANCH   8  11
HETATM   11  O1  UNL     1      28.284  13.312  15.302  1.00  0.00    -0.336 OA
BRANCH  11  12
HETATM   12  C7  UNL     1      28.033  12.338  14.349  1.00  0.00     0.173 C 
HETATM   13  C8  UNL     1      28.036  10.955  14.982  1.00  0.00     0.034 C 
ENDBRANCH  11  12
ENDBRANCH   8  11
BRANCH   1  14
HETATM   14  C2  UNL     1      30.694  17.161  17.133  1.00  0.00     0.020 C 
HETATM   15  C1  UNL     1      31.910  17.376  17.500  1.00  0.00     0.013 C 
ENDBRANCH   1  14
TORSDOF 3
ENDMDL
