MODEL 1
REMARK VINA RESULT: -5.879901381      0.000      0.000
REMARK  3 active torsions:
REMARK  status: ('A' for Active; 'I' for Inactive)
REMARK    1  A    between atoms: C2_2  and  C3_3 
REMARK    2  A    between atoms: C3_3  and  C4_4 
REMARK    3  A    between atoms: C6_6  and  O1_7 
ROOT
HETATM    1  C4  UNL     1      27.371   6.683  13.416  1.00  0.00     0.166 C 
HETATM    2  C5  UNL     1      28.446   5.644  13.474  1.00  0.00     0.070 C 
HETATM    3  C6  UNL     1      27.816   4.293  13.211  1.00  0.00     0.160 C 
HETATM    4  C8  UNL     1      26.594   4.404  12.335  1.00  0.00     0.115 C 
HETATM    5  C9  UNL     1      26.489   3.247  11.361  1.00  0.00     0.051 C 
HETATM    6  C10 UNL     1      25.310   4.453  13.126  1.00  0.00     0.051 C 
HETATM    7  O2  UNL     1      26.762   5.564  11.558  1.00  0.00    -0.227 OA
HETATM    8  O3  UNL     1      26.577   6.616  12.291  1.00  0.00    -0.234 OA
ENDROOT
BRANCH   1   9
HETATM    9  C3  UNL     1      27.912   8.089  13.547  1.00  0.00     0.061 C 
BRANCH   9  10
HETATM   10  C2  UNL     1      27.023   8.986  14.286  1.00  0.00    -0.034 C 
HETATM   11  C1  UNL     1      27.416  10.198  14.635  1.00  0.00     0.007 C 
ENDBRANCH   9  10
ENDBRANCH   1   9
BRANCH   3  12
HETATM   12  O1  UNL     1      28.795   3.492  12.636  1.00  0.00    -0.388 OA
HETATM   13  C7  UNL     1      30.069   4.036  12.793  1.00  0.00     0.202 C 
ENDBRANCH   3  12
TORSDOF 3
ENDMDL
MODEL 2
REMARK VINA RESULT: -5.793126264      6.913     10.635
REMARK  3 active torsions:
REMARK  status: ('A' for Active; 'I' for Inactive)
REMARK    1  A    between atoms: C2_2  and  C3_3 
REMARK    2  A    between atoms: C3_3  and  C4_4 
REMARK    3  A    between atoms: C6_6  and  O1_7 
ROOT
HETATM    1  C4  UNL     1      28.919  13.890  15.544  1.00  0.00     0.166 C 
HETATM    2  C5  UNL     1      29.340  14.837  16.623  1.00  0.00     0.070 C 
HETATM    3  C6  UNL     1      30.022  16.023  15.975  1.00  0.00     0.160 C 
HETATM    4  C8  UNL     1      29.503  16.278  14.583  1.00  0.00     0.115 C 
HETATM    5  C9  UNL     1      29.403  17.760  14.278  1.00  0.00     0.051 C 
HETATM    6  C10 UNL     1      30.365  15.650  13.514  1.00  0.00     0.051 C 
HETATM    7  O2  UNL     1      28.191  15.774  14.546  1.00  0.00    -0.227 OA
HETATM    8  O3  UNL     1      28.217  14.480  14.514  1.00  0.00    -0.234 OA
ENDROOT
BRANCH   1   9
HETATM    9  C3  UNL     1      28.117  12.723  16.075  1.00  0.00     0.061 C 
BRANCH   9  10
HETATM   10  C2  UNL     1      27.683  11.796  15.030  1.00  0.00    -0.034 C 
HETATM   11  C1  UNL     1      28.446  10.782  14.658  1.00  0.00     0.007 C 
ENDBRANCH   9  10
ENDBRANCH   1   9
BRANCH   3  12
HETATM   12  O1  UNL     1      29.823  17.115  16.811  1.00  0.00    -0.388 OA
HETATM   13  C7  UNL     1      31.027  17.625  17.295  1.00  0.00     0.202 C 
ENDBRANCH   3  12
TORSDOF 3
ENDMDL
MODEL 3
REMARK VINA RESULT: -5.514941929      8.596     11.601
REMARK  3 active torsions:
REMARK  status: ('A' for Active; 'I' for Inactive)
REMARK    1  A    between atoms: C2_2  and  C3_3 
REMARK    2  A    between atoms: C3_3  and  C4_4 
REMARK    3  A    between atoms: C6_6  and  O1_7 
ROOT
HETATM    1  C4  UNL     1      30.425  17.362  16.438  1.00  0.00     0.166 C 
HETATM    2  C5  UNL     1      29.821  16.027  16.741  1.00  0.00     0.070 C 
HETATM    3  C6  UNL     1      29.267  15.453  15.454  1.00  0.00     0.160 C 
HETATM    4  C8  UNL     1      30.025  15.945  14.247  1.00  0.00     0.115 C 
HETATM    5  C9  UNL     1      30.180  14.863  13.197  1.00  0.00     0.051 C 
HETATM    6  C10 UNL     1      29.365  17.131  13.587  1.00  0.00     0.051 C 
HETATM    7  O2  UNL     1      31.321  16.259  14.690  1.00  0.00    -0.227 OA
HETATM    8  O3  UNL     1      31.300  17.360  15.372  1.00  0.00    -0.234 OA
ENDROOT
BRANCH   1   9
HETATM    9  C3  UNL     1      31.118  17.973  17.636  1.00  0.00     0.061 C 
BRANCH   9  10
HETATM   10  C2  UNL     1      32.539  18.234  17.411  1.00  0.00    -0.034 C 
HETATM   11  C1  UNL     1      33.163  19.204  18.058  1.00  0.00     0.007 C 
ENDBRANCH   9  10
ENDBRANCH   1   9
BRANCH   3  12
HETATM   12  O1  UNL     1      29.317  14.069  15.570  1.00  0.00    -0.388 OA
HETATM   13  C7  UNL     1      28.147  13.467  15.110  1.00  0.00     0.202 C 
ENDBRANCH   3  12
TORSDOF 3
ENDMDL
MODEL 4
REMARK VINA RESULT: -5.512462636     14.343     17.562
REMARK  3 active torsions:
REMARK  status: ('A' for Active; 'I' for Inactive)
REMARK    1  A    between atoms: C2_2  and  C3_3 
REMARK    2  A    between atoms: C3_3  and  C4_4 
REMARK    3  A    between atoms: C6_6  and  O1_7 
ROOT
HETATM    1  C4  UNL     1      32.665  20.314  17.874  1.00  0.00     0.166 C 
HETATM    2  C5  UNL     1      34.143  20.097  17.797  1.00  0.00     0.070 C 
HETATM    3  C6  UNL     1      34.780  21.357  17.251  1.00  0.00     0.160 C 
HETATM    4  C8  UNL     1      33.977  22.587  17.595  1.00  0.00     0.115 C 
HETATM    5  C9  UNL     1      34.866  23.772  17.915  1.00  0.00     0.051 C 
HETATM    6  C10 UNL     1      33.043  23.003  16.484  1.00  0.00     0.051 C 
HETATM    7  O2  UNL     1      33.272  22.288  18.773  1.00  0.00    -0.227 OA
HETATM    8  O3  UNL     1      32.295  21.480  18.510  1.00  0.00    -0.234 OA
ENDROOT
BRANCH   1   9
HETATM    9  C3  UNL     1      31.940  19.155  18.521  1.00  0.00     0.061 C 
BRANCH   9  10
HETATM   10  C2  UNL     1      32.334  17.852  17.984  1.00  0.00    -0.034 C 
HETATM   11  C1  UNL     1      31.728  17.340  16.927  1.00  0.00     0.007 C 
ENDBRANCH   9  10
ENDBRANCH   1   9
BRANCH   3  12
HETATM   12  O1  UNL     1      36.069  21.419  17.768  1.00  0.00    -0.388 OA
HETATM   13  C7  UNL     1      37.024  21.567  16.763  1.00  0.00     0.202 C 
ENDBRANCH   3  12
TORSDOF 3
ENDMDL
MODEL 5
REMARK VINA RESULT: -5.264550412      9.813     12.335
REMARK  3 active torsions:
REMARK  status: ('A' for Active; 'I' for Inactive)
REMARK    1  A    between atoms: C2_2  and  C3_3 
REMARK    2  A    between atoms: C3_3  and  C4_4 
REMARK    3  A    between atoms: C6_6  and  O1_7 
ROOT
HETATM    1  C4  UNL     1      31.179  17.573  16.997  1.00  0.00     0.166 C 
HETATM    2  C5  UNL     1      30.350  16.347  17.216  1.00  0.00     0.070 C 
HETATM    3  C6  UNL     1      29.553  16.081  15.957  1.00  0.00     0.160 C 
HETATM    4  C8  UNL     1      30.261  16.590  14.726  1.00  0.00     0.115 C 
HETATM    5  C9  UNL     1      30.076  15.661  13.542  1.00  0.00     0.051 C 
HETATM    6  C10 UNL     1      29.792  17.962  14.308  1.00  0.00     0.051 C 
HETATM    7  O2  UNL     1      31.635  16.586  15.024  1.00  0.00    -0.227 OA
HETATM    8  O3  UNL     1      31.914  17.561  15.831  1.00  0.00    -0.234 OA
ENDROOT
BRANCH   1   9
HETATM    9  C3  UNL     1      32.107  17.863  18.155  1.00  0.00     0.061 C 
BRANCH   9  10
HETATM   10  C2  UNL     1      33.019  18.979  17.902  1.00  0.00    -0.034 C 
HETATM   11  C1  UNL     1      33.379  19.798  18.875  1.00  0.00     0.007 C 
ENDBRANCH   9  10
ENDBRANCH   1   9
BRANCH   3  12
HETATM   12  O1  UNL     1      29.331  14.711  15.897  1.00  0.00    -0.388 OA
HETATM   13  C7  UNL     1      28.954  14.192  17.135  1.00  0.00     0.202 C 
ENDBRANCH   3  12
TORSDOF 3
ENDMDL
