MODEL 1
REMARK VINA RESULT: -5.372021825      0.000      0.000
REMARK  3 active torsions:
REMARK  status: ('A' for Active; 'I' for Inactive)
REMARK    1  A    between atoms: O1_2  and  C2_3 
REMARK    2  A    between atoms: C3_4  and  C4_5 
REMARK    3  A    between atoms: C4_5  and  O2_7 
ROOT
HETATM    1  C2  UNL     1      34.802  22.067  17.256  1.00  0.00     0.060 C 
HETATM    2  C3  UNL     1      33.718  21.714  17.859  1.00  0.00    -0.021 C 
HETATM    3  C7  UNL     1      32.428  22.409  17.914  1.00  0.00     0.049 C 
HETATM    4  C8  UNL     1      32.360  23.774  17.405  1.00  0.00     0.078 C 
HETATM    5  S1  UNL     1      33.381  23.871  15.886  1.00  0.00    -0.162 SA
HETATM    6  C9  UNL     1      35.011  23.300  16.443  1.00  0.00     0.138 C 
ENDROOT
BRANCH   2   7
HETATM    7  C4  UNL     1      33.741  20.415  18.627  1.00  0.00     0.148 C 
HETATM    8  C5  UNL     1      33.119  19.350  17.748  1.00  0.00     0.044 C 
BRANCH   7   9
HETATM    9  O2  UNL     1      33.042  20.473  19.805  1.00  0.00    -0.387 OA
HETATM   10  C6  UNL     1      32.308  19.287  20.013  1.00  0.00     0.202 C 
ENDBRANCH   7   9
ENDBRANCH   2   7
BRANCH   1  11
HETATM   11  O1  UNL     1      35.954  21.254  17.326  1.00  0.00    -0.359 OA
HETATM   12  C1  UNL     1      37.133  21.685  16.655  1.00  0.00     0.209 C 
ENDBRANCH   1  11
TORSDOF 3
ENDMDL
MODEL 2
REMARK VINA RESULT: -4.579081666     11.806     13.378
REMARK  3 active torsions:
REMARK  status: ('A' for Active; 'I' for Inactive)
REMARK    1  A    between atoms: O1_2  and  C2_3 
REMARK    2  A    between atoms: C3_4  and  C4_5 
REMARK    3  A    between atoms: C4_5  and  O2_7 
ROOT
HETATM    1  C2  UNL     1      28.325  11.230  12.986  1.00  0.00     0.060 C 
HETATM    2  C3  UNL     1      27.781  10.658  14.005  1.00  0.00    -0.021 C 
HETATM    3  C7  UNL     1      27.662  11.149  15.382  1.00  0.00     0.049 C 
HETATM    4  C8  UNL     1      28.408  12.347  15.751  1.00  0.00     0.078 C 
HETATM    5  S1  UNL     1      28.324  13.529  14.353  1.00  0.00    -0.162 SA
HETATM    6  C9  UNL     1      28.980  12.570  12.958  1.00  0.00     0.138 C 
ENDROOT
BRANCH   2   7
HETATM    7  C4  UNL     1      27.176   9.292  13.794  1.00  0.00     0.148 C 
HETATM    8  C5  UNL     1      26.282   8.996  14.981  1.00  0.00     0.044 C 
BRANCH   7   9
HETATM    9  O2  UNL     1      28.114   8.296  13.696  1.00  0.00    -0.387 OA
HETATM   10  C6  UNL     1      27.580   7.164  13.045  1.00  0.00     0.202 C 
ENDBRANCH   7   9
ENDBRANCH   2   7
BRANCH   1  11
HETATM   11  O1  UNL     1      28.342  10.585  11.731  1.00  0.00    -0.359 OA
HETATM   12  C1  UNL     1      29.500  10.715  10.914  1.00  0.00     0.209 C 
ENDBRANCH   1  11
TORSDOF 3
ENDMDL
MODEL 3
REMARK VINA RESULT: -4.281424783      1.770      3.031
REMARK  3 active torsions:
REMARK  status: ('A' for Active; 'I' for Inactive)
REMARK    1  A    between atoms: O1_2  and  C2_3 
REMARK    2  A    between atoms: C3_4  and  C4_5 
REMARK    3  A    between atoms: C4_5  and  O2_7 
ROOT
HETATM    1  C2  UNL     1      33.673  22.494  16.967  1.00  0.00     0.060 C 
HETATM    2  C3  UNL     1      34.097  21.428  17.558  1.00  0.00    -0.021 C 
HETATM    3  C7  UNL     1      35.473  20.944  17.705  1.00  0.00     0.049 C 
HETATM    4  C8  UNL     1      36.522  21.608  16.939  1.00  0.00     0.078 C 
HETATM    5  S1  UNL     1      36.186  23.410  16.948  1.00  0.00    -0.162 SA
HETATM    6  C9  UNL     1      34.503  23.522  16.276  1.00  0.00     0.138 C 
ENDROOT
BRANCH   2   7
HETATM    7  C4  UNL     1      33.066  20.528  18.192  1.00  0.00     0.148 C 
HETATM    8  C5  UNL     1      33.018  20.854  19.671  1.00  0.00     0.044 C 
BRANCH   7   9
HETATM    9  O2  UNL     1      33.352  19.194  18.048  1.00  0.00    -0.387 OA
HETATM   10  C6  UNL     1      32.230  18.402  18.366  1.00  0.00     0.202 C 
ENDBRANCH   7   9
ENDBRANCH   2   7
BRANCH   1  11
HETATM   11  O1  UNL     1      32.293  22.787  16.929  1.00  0.00    -0.359 OA
HETATM   12  C1  UNL     1      31.806  23.871  17.710  1.00  0.00     0.209 C 
ENDBRANCH   1  11
TORSDOF 3
ENDMDL
MODEL 4
REMARK VINA RESULT: -4.081167960     11.349     13.081
REMARK  3 active torsions:
REMARK  status: ('A' for Active; 'I' for Inactive)
REMARK    1  A    between atoms: O1_2  and  C2_3 
REMARK    2  A    between atoms: C3_4  and  C4_5 
REMARK    3  A    between atoms: C4_5  and  O2_7 
ROOT
HETATM    1  C2  UNL     1      28.388  10.692  12.911  1.00  0.00     0.060 C 
HETATM    2  C3  UNL     1      28.049  11.063  14.099  1.00  0.00    -0.021 C 
HETATM    3  C7  UNL     1      27.228  10.352  15.085  1.00  0.00     0.049 C 
HETATM    4  C8  UNL     1      26.515   9.156  14.652  1.00  0.00     0.078 C 
HETATM    5  S1  UNL     1      27.611   8.208  13.530  1.00  0.00    -0.162 SA
HETATM    6  C9  UNL     1      28.023   9.413  12.236  1.00  0.00     0.138 C 
ENDROOT
BRANCH   2   7
HETATM    7  C4  UNL     1      28.539  12.408  14.574  1.00  0.00     0.148 C 
HETATM    8  C5  UNL     1      28.444  12.425  16.086  1.00  0.00     0.044 C 
BRANCH   7   9
HETATM    9  O2  UNL     1      27.805  13.456  14.078  1.00  0.00    -0.387 OA
HETATM   10  C6  UNL     1      28.228  14.677  14.642  1.00  0.00     0.202 C 
ENDBRANCH   7   9
ENDBRANCH   2   7
BRANCH   1  11
HETATM   11  O1  UNL     1      29.190  11.528  12.105  1.00  0.00    -0.359 OA
HETATM   12  C1  UNL     1      29.817  10.969  10.957  1.00  0.00     0.209 C 
ENDBRANCH   1  11
TORSDOF 3
ENDMDL
MODEL 5
REMARK VINA RESULT: -3.997140109     10.813     12.734
REMARK  3 active torsions:
REMARK  status: ('A' for Active; 'I' for Inactive)
REMARK    1  A    between atoms: O1_2  and  C2_3 
REMARK    2  A    between atoms: C3_4  and  C4_5 
REMARK    3  A    between atoms: C4_5  and  O2_7 
ROOT
HETATM    1  C2  UNL     1      27.963  10.507  13.960  1.00  0.00     0.060 C 
HETATM    2  C3  UNL     1      28.326  11.744  13.926  1.00  0.00    -0.021 C 
HETATM    3  C7  UNL     1      29.117  12.444  12.909  1.00  0.00     0.049 C 
HETATM    4  C8  UNL     1      29.771  11.646  11.878  1.00  0.00     0.078 C 
HETATM    5  S1  UNL     1      28.625  10.306  11.376  1.00  0.00    -0.162 SA
HETATM    6  C9  UNL     1      28.265   9.460  12.941  1.00  0.00     0.138 C 
ENDROOT
BRANCH   2   7
HETATM    7  C4  UNL     1      27.901  12.625  15.076  1.00  0.00     0.148 C 
HETATM    8  C5  UNL     1      28.204  14.059  14.694  1.00  0.00     0.044 C 
BRANCH   7   9
HETATM    9  O2  UNL     1      28.557  12.337  16.246  1.00  0.00    -0.387 OA
HETATM   10  C6  UNL     1      28.630  13.476  17.074  1.00  0.00     0.202 C 
ENDBRANCH   7   9
ENDBRANCH   2   7
BRANCH   1  11
HETATM   11  O1  UNL     1      27.198  10.018  15.040  1.00  0.00    -0.359 OA
HETATM   12  C1  UNL     1      26.452   8.820  14.858  1.00  0.00     0.209 C 
ENDBRANCH   1  11
TORSDOF 3
ENDMDL
