MODEL 1
REMARK VINA RESULT: -6.668662531      0.000      0.000
REMARK  3 active torsions:
REMARK  status: ('A' for Active; 'I' for Inactive)
REMARK    1  A    between atoms: O1_2  and  N1_3 
REMARK    2  A    between atoms: C2_5  and  C3_6 
REMARK    3  A    between atoms: C3_6  and  N2_7 
ROOT
HETATM    1  N2  UNL     1      33.836  21.674  17.336  1.00  0.00    -0.277 NA
HETATM    2  C4  UNL     1      35.231  21.818  17.765  1.00  0.00     0.096 C 
HETATM    3  C5  UNL     1      36.294  21.744  16.805  1.00  0.00     0.016 C 
HETATM    4  C6  UNL     1      36.902  22.996  16.158  1.00  0.00     0.012 C 
HETATM    5  C7  UNL     1      35.807  23.871  15.470  1.00  0.00     0.081 C 
HETATM    6  C8  UNL     1      34.559  23.447  15.973  1.00  0.00    -0.163 C 
HETATM    7  C9  UNL     1      33.410  22.894  16.577  1.00  0.00     0.124 C 
HETATM    8  C10 UNL     1      32.671  23.863  17.508  1.00  0.00     0.039 C 
ENDROOT
BRANCH   1   9
HETATM    9  C3  UNL     1      33.047  21.391  18.461  1.00  0.00     0.080 C 
BRANCH   9  10
HETATM   10  C2  UNL     1      32.256  20.112  18.339  1.00  0.00     0.125 C 
HETATM   11  N1  UNL     1      32.912  19.066  18.106  1.00  0.00    -0.278 N 
ATOM     12  H1  UNL     1      33.921  19.193  18.020  1.00  0.00     0.193 HD
BRANCH  11  13
HETATM   13  O1  UNL     1      32.478  17.803  17.953  1.00  0.00    -0.286 OA
HETATM   14  C1  UNL     1      31.560  17.440  16.957  1.00  0.00     0.237 C 
ENDBRANCH  11  13
ENDBRANCH   9  10
ENDBRANCH   1   9
TORSDOF 3
ENDMDL
MODEL 2
REMARK VINA RESULT: -6.289314700      7.952     12.484
REMARK  3 active torsions:
REMARK  status: ('A' for Active; 'I' for Inactive)
REMARK    1  A    between atoms: O1_2  and  N1_3 
REMARK    2  A    between atoms: C2_5  and  C3_6 
REMARK    3  A    between atoms: C3_6  and  N2_7 
ROOT
HETATM    1  N2  UNL     1      27.948  11.872  13.963  1.00  0.00    -0.277 NA
HETATM    2  C4  UNL     1      28.041  10.657  14.779  1.00  0.00     0.096 C 
HETATM    3  C5  UNL     1      27.023   9.651  14.697  1.00  0.00     0.016 C 
HETATM    4  C6  UNL     1      27.155   8.426  13.780  1.00  0.00     0.012 C 
HETATM    5  C7  UNL     1      27.417   8.848  12.299  1.00  0.00     0.081 C 
HETATM    6  C8  UNL     1      27.826  10.198  12.317  1.00  0.00    -0.163 C 
HETATM    7  C9  UNL     1      28.212  11.539  12.525  1.00  0.00     0.124 C 
HETATM    8  C10 UNL     1      29.679  11.824  12.179  1.00  0.00     0.039 C 
ENDROOT
BRANCH   1   9
HETATM    9  C3  UNL     1      28.811  12.840  14.497  1.00  0.00     0.080 C 
BRANCH   9  10
HETATM   10  C2  UNL     1      28.204  14.221  14.565  1.00  0.00     0.125 C 
HETATM   11  N1  UNL     1      28.980  15.186  14.348  1.00  0.00    -0.278 N 
ATOM     12  H1  UNL     1      29.947  14.932  14.149  1.00  0.00     0.193 HD
BRANCH  11  13
HETATM   13  O1  UNL     1      28.717  16.504  14.339  1.00  0.00    -0.286 OA
HETATM   14  C1  UNL     1      29.646  17.458  14.780  1.00  0.00     0.237 C 
ENDBRANCH  11  13
ENDBRANCH   9  10
ENDBRANCH   1   9
TORSDOF 3
ENDMDL
MODEL 3
REMARK VINA RESULT: -6.253699647      8.053     12.628
REMARK  3 active torsions:
REMARK  status: ('A' for Active; 'I' for Inactive)
REMARK    1  A    between atoms: O1_2  and  N1_3 
REMARK    2  A    between atoms: C2_5  and  C3_6 
REMARK    3  A    between atoms: C3_6  and  N2_7 
ROOT
HETATM    1  N2  UNL     1      28.022  11.752  13.360  1.00  0.00    -0.277 NA
HETATM    2  C4  UNL     1      28.096  10.829  14.498  1.00  0.00     0.096 C 
HETATM    3  C5  UNL     1      27.077   9.839  14.694  1.00  0.00     0.016 C 
HETATM    4  C6  UNL     1      27.224   8.401  14.179  1.00  0.00     0.012 C 
HETATM    5  C7  UNL     1      27.516   8.372  12.645  1.00  0.00     0.081 C 
HETATM    6  C8  UNL     1      27.928   9.669  12.275  1.00  0.00    -0.163 C 
HETATM    7  C9  UNL     1      28.313  11.014  12.089  1.00  0.00     0.124 C 
HETATM    8  C10 UNL     1      29.787  11.190  11.703  1.00  0.00     0.039 C 
ENDROOT
BRANCH   1   9
HETATM    9  C3  UNL     1      28.876  12.837  13.605  1.00  0.00     0.080 C 
BRANCH   9  10
HETATM   10  C2  UNL     1      28.577  13.565  14.893  1.00  0.00     0.125 C 
HETATM   11  N1  UNL     1      29.342  14.517  15.190  1.00  0.00    -0.278 N 
ATOM     12  H1  UNL     1      30.093  14.698  14.525  1.00  0.00     0.193 HD
BRANCH  11  13
HETATM   13  O1  UNL     1      29.312  15.332  16.259  1.00  0.00    -0.286 OA
HETATM   14  C1  UNL     1      30.124  16.471  16.358  1.00  0.00     0.237 C 
ENDBRANCH  11  13
ENDBRANCH   9  10
ENDBRANCH   1   9
TORSDOF 3
ENDMDL
MODEL 4
REMARK VINA RESULT: -6.216588745     12.307     14.842
REMARK  3 active torsions:
REMARK  status: ('A' for Active; 'I' for Inactive)
REMARK    1  A    between atoms: O1_2  and  N1_3 
REMARK    2  A    between atoms: C2_5  and  C3_6 
REMARK    3  A    between atoms: C3_6  and  N2_7 
ROOT
HETATM    1  N2  UNL     1      27.998   8.969  13.815  1.00  0.00    -0.277 NA
HETATM    2  C4  UNL     1      27.448  10.065  14.620  1.00  0.00     0.096 C 
HETATM    3  C5  UNL     1      28.291  11.142  15.049  1.00  0.00     0.016 C 
HETATM    4  C6  UNL     1      28.400  12.458  14.266  1.00  0.00     0.012 C 
HETATM    5  C7  UNL     1      28.805  12.205  12.779  1.00  0.00     0.081 C 
HETATM    6  C8  UNL     1      28.579  10.838  12.513  1.00  0.00    -0.163 C 
HETATM    7  C9  UNL     1      28.297   9.458  12.430  1.00  0.00     0.124 C 
HETATM    8  C10 UNL     1      27.135   9.117  11.489  1.00  0.00     0.039 C 
ENDROOT
BRANCH   1   9
HETATM    9  C3  UNL     1      27.109   7.885  13.864  1.00  0.00     0.080 C 
BRANCH   9  10
HETATM   10  C2  UNL     1      27.753   6.560  13.537  1.00  0.00     0.125 C 
HETATM   11  N1  UNL     1      27.181   5.859  12.664  1.00  0.00    -0.278 N 
ATOM     12  H1  UNL     1      26.333   6.262  12.267  1.00  0.00     0.193 HD
BRANCH  11  13
HETATM   13  O1  UNL     1      27.527   4.654  12.179  1.00  0.00    -0.286 OA
HETATM   14  C1  UNL     1      26.602   3.611  12.028  1.00  0.00     0.237 C 
ENDBRANCH  11  13
ENDBRANCH   9  10
ENDBRANCH   1   9
TORSDOF 3
ENDMDL
MODEL 5
REMARK VINA RESULT: -5.971883606      2.149      5.443
REMARK  3 active torsions:
REMARK  status: ('A' for Active; 'I' for Inactive)
REMARK    1  A    between atoms: O1_2  and  N1_3 
REMARK    2  A    between atoms: C2_5  and  C3_6 
REMARK    3  A    between atoms: C3_6  and  N2_7 
ROOT
HETATM    1  N2  UNL     1      32.936  20.311  17.912  1.00  0.00    -0.277 NA
HETATM    2  C4  UNL     1      31.739  19.721  17.305  1.00  0.00     0.096 C 
HETATM    3  C5  UNL     1      31.803  18.429  16.685  1.00  0.00     0.016 C 
HETATM    4  C6  UNL     1      31.430  17.142  17.434  1.00  0.00     0.012 C 
HETATM    5  C7  UNL     1      32.253  16.991  18.753  1.00  0.00     0.081 C 
HETATM    6  C8  UNL     1      32.808  18.255  19.044  1.00  0.00    -0.163 C 
HETATM    7  C9  UNL     1      33.278  19.579  19.175  1.00  0.00     0.124 C 
HETATM    8  C10 UNL     1      32.707  20.324  20.388  1.00  0.00     0.039 C 
ENDROOT
BRANCH   1   9
HETATM    9  C3  UNL     1      32.722  21.686  18.084  1.00  0.00     0.080 C 
BRANCH   9  10
HETATM   10  C2  UNL     1      33.593  22.549  17.204  1.00  0.00     0.125 C 
HETATM   11  N1  UNL     1      34.746  22.114  16.956  1.00  0.00    -0.278 N 
ATOM     12  H1  UNL     1      34.974  21.216  17.382  1.00  0.00     0.193 HD
BRANCH  11  13
HETATM   13  O1  UNL     1      35.721  22.662  16.210  1.00  0.00    -0.286 OA
HETATM   14  C1  UNL     1      35.534  23.846  15.482  1.00  0.00     0.237 C 
ENDBRANCH  11  13
ENDBRANCH   9  10
ENDBRANCH   1   9
TORSDOF 3
ENDMDL
