MODEL 1
REMARK VINA RESULT: -8.745093530      0.000      0.000
REMARK  7 active torsions:
REMARK  status: ('A' for Active; 'I' for Inactive)
REMARK    1  A    between atoms: C3_5  and  S1_6 
REMARK    2  A    between atoms: S1_6  and  C4_7 
REMARK    3  A    between atoms: C5_8  and  C6_9 
REMARK    4  A    between atoms: C6_9  and  O1_10 
REMARK    5  A    between atoms: C9_14  and  O2_15 
REMARK    6  A    between atoms: C11_21  and  S2_22 
REMARK    7  A    between atoms: S2_22  and  C12_23 
ROOT
HETATM    1  C4  UNL     1       5.223  31.406  24.356  1.00  0.00     0.077 C 
HETATM    2  C5  UNL     1       5.914  30.098  24.495  1.00  0.00     0.031 C 
HETATM    3  C7  UNL     1       7.399  30.273  24.381  1.00  0.00     0.029 C 
HETATM    4  C8  UNL     1       7.917  30.219  22.960  1.00  0.00     0.068 C 
HETATM    5  C9  UNL     1       9.100  31.145  23.002  1.00  0.00     0.319 C 
HETATM    6  N2  UNL     1       8.716  32.176  23.913  1.00  0.00    -0.043 N 
ATOM      7  H21 UNL     1       8.537  33.060  23.437  1.00  0.00     0.280 HD
ATOM      8  H22 UNL     1       9.494  32.478  24.500  1.00  0.00     0.280 HD
HETATM    9  C10 UNL     1       7.595  31.747  24.687  1.00  0.00     0.208 C 
HETATM   10  C11 UNL     1       6.328  32.410  24.201  1.00  0.00     0.093 C 
ENDROOT
BRANCH   1  11
HETATM   11  S1  UNL     1       4.286  31.863  25.839  1.00  0.00    -0.087 SA
BRANCH  11  12
HETATM   12  C3  UNL     1       2.612  32.337  25.449  1.00  0.00     0.145 A 
HETATM   13  N1  UNL     1       2.286  33.226  24.495  1.00  0.00    -0.339 N 
HETATM   14  C2  UNL     1       1.005  33.565  24.218  1.00  0.00     0.031 A 
ATOM     15  H1  UNL     1       3.034  33.664  23.957  1.00  0.00     0.168 HD
HETATM   16  C1  UNL     1       0.667  34.553  23.156  1.00  0.00     0.070 C 
HETATM   17  C18 UNL     1      -0.010  32.988  24.931  1.00  0.00     0.078 A 
HETATM   18  C16 UNL     1       0.304  32.074  25.913  1.00  0.00     0.031 A 
HETATM   19 CL1  UNL     1      -1.672  33.378  24.626  1.00  0.00    -0.080 Cl
HETATM   20  N3  UNL     1       1.602  31.780  26.138  1.00  0.00    -0.339 N 
HETATM   21  C17 UNL     1      -0.773  31.424  26.709  1.00  0.00     0.070 C 
ATOM     22  H3  UNL     1       1.827  31.103  26.867  1.00  0.00     0.168 HD
ENDBRANCH  11  12
ENDBRANCH   1  11
BRANCH   2  23
HETATM   23  C6  UNL     1       5.452  29.035  23.523  1.00  0.00     0.170 C 
BRANCH  23  24
HETATM   24  O1  UNL     1       4.132  29.385  23.170  1.00  0.00    -0.400 OA
ATOM     25  H1  UNL     1       3.938  28.898  22.378  1.00  0.00     0.209 HD
ENDBRANCH  23  24
ENDBRANCH   2  23
BRANCH  10  26
HETATM   26  S2  UNL     1       5.995  33.824  25.275  1.00  0.00    -0.156 SA
BRANCH  26  27
HETATM   27  C12 UNL     1       7.300  33.950  26.502  1.00  0.00     0.047 C 
HETATM   28  C13 UNL     1       8.232  35.109  26.203  1.00  0.00     0.015 C 
HETATM   29  C14 UNL     1       8.140  35.455  27.692  1.00  0.00     0.002 C 
HETATM   30  C15 UNL     1       6.788  34.774  27.688  1.00  0.00     0.015 C 
ENDBRANCH  26  27
ENDBRANCH  10  26
BRANCH   5  31
HETATM   31  O2  UNL     1       9.287  31.760  21.747  1.00  0.00    -0.370 OA
ATOM     32  H2  UNL     1       9.754  32.581  21.848  1.00  0.00     0.212 HD
ENDBRANCH   5  31
TORSDOF 7
ENDMDL
MODEL 2
REMARK VINA RESULT: -8.730039357      0.101      1.649
REMARK  7 active torsions:
REMARK  status: ('A' for Active; 'I' for Inactive)
REMARK    1  A    between atoms: C3_5  and  S1_6 
REMARK    2  A    between atoms: S1_6  and  C4_7 
REMARK    3  A    between atoms: C5_8  and  C6_9 
REMARK    4  A    between atoms: C6_9  and  O1_10 
REMARK    5  A    between atoms: C9_14  and  O2_15 
REMARK    6  A    between atoms: C11_21  and  S2_22 
REMARK    7  A    between atoms: S2_22  and  C12_23 
ROOT
HETATM    1  C4  UNL     1       5.173  31.431  24.380  1.00  0.00     0.077 C 
HETATM    2  C5  UNL     1       5.855  30.117  24.500  1.00  0.00     0.031 C 
HETATM    3  C7  UNL     1       7.340  30.282  24.379  1.00  0.00     0.029 C 
HETATM    4  C8  UNL     1       7.850  30.240  22.954  1.00  0.00     0.068 C 
HETATM    5  C9  UNL     1       9.039  31.157  22.998  1.00  0.00     0.319 C 
HETATM    6  N2  UNL     1       8.668  32.181  23.923  1.00  0.00    -0.043 N 
ATOM      7  H21 UNL     1       8.493  33.071  23.457  1.00  0.00     0.280 HD
ATOM      8  H22 UNL     1       9.452  32.472  24.507  1.00  0.00     0.280 HD
HETATM    9  C10 UNL     1       7.549  31.752  24.699  1.00  0.00     0.208 C 
HETATM   10  C11 UNL     1       6.284  32.429  24.229  1.00  0.00     0.093 C 
ENDROOT
BRANCH   1  11
HETATM   11  S1  UNL     1       4.248  31.878  25.873  1.00  0.00    -0.087 SA
BRANCH  11  12
HETATM   12  C3  UNL     1       2.553  32.295  25.509  1.00  0.00     0.145 A 
HETATM   13  N1  UNL     1       1.494  31.736  26.119  1.00  0.00    -0.339 N 
HETATM   14  C2  UNL     1       0.218  32.075  25.825  1.00  0.00     0.031 A 
ATOM     15  H1  UNL     1       1.660  31.027  26.834  1.00  0.00     0.168 HD
HETATM   16  C1  UNL     1      -0.941  31.442  26.514  1.00  0.00     0.070 C 
HETATM   17  C18 UNL     1      -0.021  33.023  24.868  1.00  0.00     0.078 A 
HETATM   18  C16 UNL     1       1.052  33.608  24.231  1.00  0.00     0.031 A 
HETATM   19 CL1  UNL     1      -1.632  33.502  24.444  1.00  0.00    -0.080 Cl
HETATM   20  N3  UNL     1       2.300  33.225  24.573  1.00  0.00    -0.339 N 
HETATM   21  C17 UNL     1       0.833  34.645  23.185  1.00  0.00     0.070 C 
ATOM     22  H3  UNL     1       3.089  33.662  24.097  1.00  0.00     0.168 HD
ENDBRANCH  11  12
ENDBRANCH   1  11
BRANCH   2  23
HETATM   23  C6  UNL     1       5.380  29.068  23.520  1.00  0.00     0.170 C 
BRANCH  23  24
HETATM   24  O1  UNL     1       4.039  29.395  23.228  1.00  0.00    -0.400 OA
ATOM     25  H1  UNL     1       3.635  28.589  22.929  1.00  0.00     0.209 HD
ENDBRANCH  23  24
ENDBRANCH   2  23
BRANCH  10  26
HETATM   26  S2  UNL     1       5.968  33.834  25.320  1.00  0.00    -0.156 SA
BRANCH  26  27
HETATM   27  C12 UNL     1       7.300  33.959  26.517  1.00  0.00     0.047 C 
HETATM   28  C13 UNL     1       8.220  35.123  26.202  1.00  0.00     0.015 C 
HETATM   29  C14 UNL     1       8.161  35.461  27.695  1.00  0.00     0.002 C 
HETATM   30  C15 UNL     1       6.812  34.775  27.719  1.00  0.00     0.015 C 
ENDBRANCH  26  27
ENDBRANCH  10  26
BRANCH   5  31
HETATM   31  O2  UNL     1       9.222  31.784  21.749  1.00  0.00    -0.370 OA
ATOM     32  H2  UNL     1       9.540  31.158  21.108  1.00  0.00     0.212 HD
ENDBRANCH   5  31
TORSDOF 7
ENDMDL
MODEL 3
REMARK VINA RESULT: -8.277619228      3.456      5.806
REMARK  7 active torsions:
REMARK  status: ('A' for Active; 'I' for Inactive)
REMARK    1  A    between atoms: C3_5  and  S1_6 
REMARK    2  A    between atoms: S1_6  and  C4_7 
REMARK    3  A    between atoms: C5_8  and  C6_9 
REMARK    4  A    between atoms: C6_9  and  O1_10 
REMARK    5  A    between atoms: C9_14  and  O2_15 
REMARK    6  A    between atoms: C11_21  and  S2_22 
REMARK    7  A    between atoms: S2_22  and  C12_23 
ROOT
HETATM    1  C4  UNL     1       6.001  32.912  24.542  1.00  0.00     0.077 C 
HETATM    2  C5  UNL     1       5.020  32.337  25.499  1.00  0.00     0.031 C 
HETATM    3  C7  UNL     1       5.133  30.843  25.534  1.00  0.00     0.029 C 
HETATM    4  C8  UNL     1       4.293  30.137  24.491  1.00  0.00     0.068 C 
HETATM    5  C9  UNL     1       5.106  28.912  24.182  1.00  0.00     0.319 C 
HETATM    6  N2  UNL     1       6.463  29.347  24.280  1.00  0.00    -0.043 N 
ATOM      7  H21 UNL     1       6.916  29.398  23.368  1.00  0.00     0.280 HD
ATOM      8  H22 UNL     1       7.063  28.640  24.703  1.00  0.00     0.280 HD
HETATM    9  C10 UNL     1       6.525  30.591  24.979  1.00  0.00     0.208 C 
HETATM   10  C11 UNL     1       6.764  31.731  24.018  1.00  0.00     0.093 C 
ENDROOT
BRANCH   1  11
HETATM   11  S1  UNL     1       7.197  34.012  25.345  1.00  0.00    -0.087 SA
BRANCH  11  12
HETATM   12  C3  UNL     1       6.624  35.700  25.390  1.00  0.00     0.145 A 
HETATM   13  N1  UNL     1       5.398  36.088  24.998  1.00  0.00    -0.339 N 
HETATM   14  C2  UNL     1       4.988  37.377  25.047  1.00  0.00     0.031 A 
ATOM     15  H1  UNL     1       4.750  35.382  24.648  1.00  0.00     0.168 HD
HETATM   16  C1  UNL     1       3.625  37.784  24.607  1.00  0.00     0.070 C 
HETATM   17  C18 UNL     1       5.846  38.336  25.512  1.00  0.00     0.078 A 
HETATM   18  C16 UNL     1       7.107  37.958  25.920  1.00  0.00     0.031 A 
HETATM   19 CL1  UNL     1       5.383  40.004  25.602  1.00  0.00    -0.080 Cl
HETATM   20  N3  UNL     1       7.452  36.655  25.845  1.00  0.00    -0.339 N 
HETATM   21  C17 UNL     1       8.068  38.972  26.433  1.00  0.00     0.070 C 
ATOM     22  H3  UNL     1       8.387  36.383  26.148  1.00  0.00     0.168 HD
ENDBRANCH  11  12
ENDBRANCH   1  11
BRANCH   2  23
HETATM   23  C6  UNL     1       3.582  32.731  25.241  1.00  0.00     0.170 C 
BRANCH  23  24
HETATM   24  O1  UNL     1       3.423  34.005  25.825  1.00  0.00    -0.400 OA
ATOM     25  H1  UNL     1       2.548  34.011  26.197  1.00  0.00     0.209 HD
ENDBRANCH  23  24
ENDBRANCH   2  23
BRANCH  10  26
HETATM   26  S2  UNL     1       8.530  32.112  24.040  1.00  0.00    -0.156 SA
BRANCH  26  27
HETATM   27  C12 UNL     1       9.382  31.015  22.903  1.00  0.00     0.047 C 
HETATM   28  C13 UNL     1      10.813  31.460  22.671  1.00  0.00     0.015 C 
HETATM   29  C14 UNL     1      11.208  29.991  22.846  1.00  0.00     0.002 C 
HETATM   30  C15 UNL     1       9.963  29.837  23.693  1.00  0.00     0.015 C 
ENDBRANCH  26  27
ENDBRANCH  10  26
BRANCH   5  31
HETATM   31  O2  UNL     1       4.903  28.512  22.845  1.00  0.00    -0.370 OA
ATOM     32  H2  UNL     1       4.171  28.985  22.467  1.00  0.00     0.212 HD
ENDBRANCH   5  31
TORSDOF 7
ENDMDL
MODEL 4
REMARK VINA RESULT: -8.263121984      3.523      5.866
REMARK  7 active torsions:
REMARK  status: ('A' for Active; 'I' for Inactive)
REMARK    1  A    between atoms: C3_5  and  S1_6 
REMARK    2  A    between atoms: S1_6  and  C4_7 
REMARK    3  A    between atoms: C5_8  and  C6_9 
REMARK    4  A    between atoms: C6_9  and  O1_10 
REMARK    5  A    between atoms: C9_14  and  O2_15 
REMARK    6  A    between atoms: C11_21  and  S2_22 
REMARK    7  A    between atoms: S2_22  and  C12_23 
ROOT
HETATM    1  C4  UNL     1       6.265  32.991  24.586  1.00  0.00     0.077 C 
HETATM    2  C5  UNL     1       5.295  32.442  25.568  1.00  0.00     0.031 C 
HETATM    3  C7  UNL     1       5.366  30.944  25.597  1.00  0.00     0.029 C 
HETATM    4  C8  UNL     1       4.478  30.266  24.576  1.00  0.00     0.068 C 
HETATM    5  C9  UNL     1       5.247  29.019  24.243  1.00  0.00     0.319 C 
HETATM    6  N2  UNL     1       6.618  29.415  24.304  1.00  0.00    -0.043 N 
ATOM      7  H21 UNL     1       7.047  29.456  23.380  1.00  0.00     0.280 HD
ATOM      8  H22 UNL     1       7.209  28.690  24.710  1.00  0.00     0.280 HD
HETATM    9  C10 UNL     1       6.734  30.655  25.004  1.00  0.00     0.208 C 
HETATM   10  C11 UNL     1       6.980  31.790  24.039  1.00  0.00     0.093 C 
ENDROOT
BRANCH   1  11
HETATM   11  S1  UNL     1       7.514  34.054  25.358  1.00  0.00    -0.087 SA
BRANCH  11  12
HETATM   12  C3  UNL     1       6.977  35.752  25.453  1.00  0.00     0.145 A 
HETATM   13  N1  UNL     1       7.739  36.756  25.921  1.00  0.00    -0.339 N 
HETATM   14  C2  UNL     1       7.307  38.037  25.979  1.00  0.00     0.031 A 
ATOM     15  H1  UNL     1       8.683  36.543  26.246  1.00  0.00     0.168 HD
HETATM   16  C1  UNL     1       8.169  39.133  26.501  1.00  0.00     0.070 C 
HETATM   17  C18 UNL     1       6.044  38.338  25.548  1.00  0.00     0.078 A 
HETATM   18  C16 UNL     1       5.247  37.322  25.065  1.00  0.00     0.031 A 
HETATM   19 CL1  UNL     1       5.429  39.958  25.594  1.00  0.00    -0.080 Cl
HETATM   20  N3  UNL     1       5.740  36.066  25.034  1.00  0.00    -0.339 N 
HETATM   21  C17 UNL     1       3.868  37.610  24.585  1.00  0.00     0.070 C 
ATOM     22  H3  UNL     1       5.145  35.320  24.675  1.00  0.00     0.168 HD
ENDBRANCH  11  12
ENDBRANCH   1  11
BRANCH   2  23
HETATM   23  C6  UNL     1       3.863  32.877  25.350  1.00  0.00     0.170 C 
BRANCH  23  24
HETATM   24  O1  UNL     1       3.713  34.079  26.073  1.00  0.00    -0.400 OA
ATOM     25  H1  UNL     1       3.769  34.776  25.430  1.00  0.00     0.209 HD
ENDBRANCH  23  24
ENDBRANCH   2  23
BRANCH  10  26
HETATM   26  S2  UNL     1       8.756  32.121  24.014  1.00  0.00    -0.156 SA
BRANCH  26  27
HETATM   27  C12 UNL     1       9.545  31.000  22.855  1.00  0.00     0.047 C 
HETATM   28  C13 UNL     1      10.973  31.420  22.563  1.00  0.00     0.015 C 
HETATM   29  C14 UNL     1      11.351  29.946  22.736  1.00  0.00     0.002 C 
HETATM   30  C15 UNL     1      10.138  29.819  23.632  1.00  0.00     0.015 C 
ENDBRANCH  26  27
ENDBRANCH  10  26
BRANCH   5  31
HETATM   31  O2  UNL     1       4.996  28.629  22.911  1.00  0.00    -0.370 OA
ATOM     32  H2  UNL     1       4.643  29.358  22.414  1.00  0.00     0.212 HD
ENDBRANCH   5  31
TORSDOF 7
ENDMDL
MODEL 5
REMARK VINA RESULT: -8.067830027      1.772      2.332
REMARK  7 active torsions:
REMARK  status: ('A' for Active; 'I' for Inactive)
REMARK    1  A    between atoms: C3_5  and  S1_6 
REMARK    2  A    between atoms: S1_6  and  C4_7 
REMARK    3  A    between atoms: C5_8  and  C6_9 
REMARK    4  A    between atoms: C6_9  and  O1_10 
REMARK    5  A    between atoms: C9_14  and  O2_15 
REMARK    6  A    between atoms: C11_21  and  S2_22 
REMARK    7  A    between atoms: S2_22  and  C12_23 
ROOT
HETATM    1  C4  UNL     1       4.617  31.907  24.588  1.00  0.00     0.077 C 
HETATM    2  C5  UNL     1       4.762  30.508  25.066  1.00  0.00     0.031 C 
HETATM    3  C7  UNL     1       6.207  30.113  25.108  1.00  0.00     0.029 C 
HETATM    4  C8  UNL     1       6.731  29.556  23.802  1.00  0.00     0.068 C 
HETATM    5  C9  UNL     1       8.171  29.986  23.811  1.00  0.00     0.319 C 
HETATM    6  N2  UNL     1       8.160  31.265  24.446  1.00  0.00    -0.043 N 
ATOM      7  H21 UNL     1       8.346  32.021  23.788  1.00  0.00     0.280 HD
ATOM      8  H22 UNL     1       8.967  31.397  25.056  1.00  0.00     0.280 HD
HETATM    9  C10 UNL     1       6.927  31.450  25.142  1.00  0.00     0.208 C 
HETATM   10  C11 UNL     1       6.022  32.390  24.380  1.00  0.00     0.093 C 
ENDROOT
BRANCH   1  11
HETATM   11  S1  UNL     1       3.852  32.992  25.822  1.00  0.00    -0.087 SA
BRANCH  11  12
HETATM   12  C3  UNL     1       2.626  34.065  25.099  1.00  0.00     0.145 A 
HETATM   13  N1  UNL     1       1.623  33.637  24.312  1.00  0.00    -0.339 N 
HETATM   14  C2  UNL     1       0.703  34.474  23.780  1.00  0.00     0.031 A 
ATOM     15  H1  UNL     1       1.553  32.639  24.108  1.00  0.00     0.168 HD
HETATM   16  C1  UNL     1      -0.399  33.978  22.910  1.00  0.00     0.070 C 
HETATM   17  C18 UNL     1       0.784  35.814  24.043  1.00  0.00     0.078 A 
HETATM   18  C16 UNL     1       1.805  36.272  24.848  1.00  0.00     0.031 A 
HETATM   19 CL1  UNL     1      -0.362  36.940  23.392  1.00  0.00    -0.080 Cl
HETATM   20  N3  UNL     1       2.689  35.384  25.348  1.00  0.00    -0.339 N 
HETATM   21  C17 UNL     1       1.926  37.723  25.158  1.00  0.00     0.070 C 
ATOM     22  H3  UNL     1       3.442  35.730  25.942  1.00  0.00     0.168 HD
ENDBRANCH  11  12
ENDBRANCH   1  11
BRANCH   2  23
HETATM   23  C6  UNL     1       3.980  29.485  24.270  1.00  0.00     0.170 C 
BRANCH  23  24
HETATM   24  O1  UNL     1       2.620  29.788  24.488  1.00  0.00    -0.400 OA
ATOM     25  H1  UNL     1       2.129  29.080  24.087  1.00  0.00     0.209 HD
ENDBRANCH  23  24
ENDBRANCH   2  23
BRANCH  10  26
HETATM   26  S2  UNL     1       6.194  34.035  25.106  1.00  0.00    -0.156 SA
BRANCH  26  27
HETATM   27  C12 UNL     1       7.323  33.947  26.499  1.00  0.00     0.047 C 
HETATM   28  C13 UNL     1       8.498  34.890  26.321  1.00  0.00     0.015 C 
HETATM   29  C14 UNL     1       8.280  35.301  27.780  1.00  0.00     0.002 C 
HETATM   30  C15 UNL     1       6.832  34.898  27.597  1.00  0.00     0.015 C 
ENDBRANCH  26  27
ENDBRANCH  10  26
BRANCH   5  31
HETATM   31  O2  UNL     1       8.630  30.190  22.493  1.00  0.00    -0.370 OA
ATOM     32  H2  UNL     1       8.791  31.114  22.339  1.00  0.00     0.212 HD
ENDBRANCH   5  31
TORSDOF 7
ENDMDL
