MODEL 1
REMARK VINA RESULT: -8.695545911      0.000      0.000
REMARK  6 active torsions:
REMARK  status: ('A' for Active; 'I' for Inactive)
REMARK    1  A    between atoms: C2_2  and  N1_3 
REMARK    2  A    between atoms: N1_3  and  C3_5 
REMARK    3  A    between atoms: C3_5  and  C4_7 
REMARK    4  A    between atoms: C4_7  and  O1_8 
REMARK    5  A    between atoms: N2_13  and  C9_14 
REMARK    6  A    between atoms: N7_28  and  C14_29 
ROOT
HETATM    1  C9  UNL     1       5.642  32.207  25.586  1.00  0.00     0.150 A 
HETATM    2  N3  UNL     1       5.959  33.314  26.223  1.00  0.00    -0.175 N 
ATOM      3  H3  UNL     1       5.254  33.769  26.802  1.00  0.00     0.186 HD
HETATM    4  C10 UNL     1       7.202  33.874  26.134  1.00  0.00     0.679 A 
HETATM    5  N4  UNL     1       7.500  34.956  26.761  1.00  0.00    -0.234 N 
ATOM      6  H41 UNL     1       8.428  35.374  26.695  1.00  0.00     0.174 HD
ATOM      7  H42 UNL     1       6.794  35.410  27.340  1.00  0.00     0.174 HD
HETATM    8  N5  UNL     1       8.136  33.275  25.369  1.00  0.00    -0.174 N 
ATOM      9  H5  UNL     1       9.067  33.685  25.297  1.00  0.00     0.186 HD
HETATM   10  C11 UNL     1       7.858  32.148  24.704  1.00  0.00     0.155 A 
HETATM   11  C12 UNL     1       6.574  31.583  24.804  1.00  0.00     0.123 A 
HETATM   12  N6  UNL     1       6.615  30.488  24.040  1.00  0.00    -0.346 N 
ATOM     13  H6  UNL     1       5.842  29.840  23.889  1.00  0.00     0.167 HD
HETATM   14  C13 UNL     1       7.843  30.382  23.502  1.00  0.00     0.185 A 
HETATM   15  N7  UNL     1       8.629  31.398  23.898  1.00  0.00    -0.322 N 
ENDROOT
BRANCH   1  16
HETATM   16  N2  UNL     1       4.326  31.604  25.669  1.00  0.00    -0.362 N 
HETATM   17  C8  UNL     1       4.181  30.293  25.098  1.00  0.00     0.124 C 
HETATM   18  C7  UNL     1       2.783  30.031  24.660  1.00  0.00     0.023 C 
HETATM   19  C6  UNL     1       1.860  30.349  25.822  1.00  0.00     0.049 C 
HETATM   20  C4  UNL     1       1.906  31.858  26.032  1.00  0.00     0.128 C 
HETATM   21  C19 UNL     1       3.273  32.299  26.330  1.00  0.00     0.170 C 
BRANCH  20  22
HETATM   22  C3  UNL     1       1.396  32.546  24.817  1.00  0.00     0.110 C 
HETATM   23  S1  UNL     1       2.056  33.932  24.338  1.00  0.00    -0.062 SA
BRANCH  22  24
HETATM   24  N1  UNL     1       0.317  31.998  24.080  1.00  0.00    -0.382 N 
ATOM     25  H1  UNL     1       0.321  31.004  23.852  1.00  0.00     0.160 HD
BRANCH  24  26
HETATM   26  C2  UNL     1      -0.789  32.821  23.646  1.00  0.00     0.116 C 
HETATM   27  C1  UNL     1      -1.677  33.243  24.771  1.00  0.00     0.026 C 
ENDBRANCH  24  26
ENDBRANCH  22  24
ENDBRANCH  20  22
BRANCH  20  28
HETATM   28  O1  UNL     1       0.969  32.203  27.021  1.00  0.00    -0.376 OA
HETATM   29  C5  UNL     1       0.142  31.215  27.433  1.00  0.00     0.203 C 
ENDBRANCH  20  28
ENDBRANCH   1  16
BRANCH  15  30
HETATM   30  C14 UNL     1       9.996  31.583  23.506  1.00  0.00     0.092 C 
HETATM   31  C15 UNL     1      10.181  32.078  22.100  1.00  0.00     0.026 C 
HETATM   32  C16 UNL     1      11.431  31.427  21.548  1.00  0.00     0.002 C 
HETATM   33  C17 UNL     1      11.863  30.382  22.554  1.00  0.00     0.002 C 
HETATM   34  C18 UNL     1      10.684  30.236  23.491  1.00  0.00     0.026 C 
ENDBRANCH  15  30
TORSDOF 6
ENDMDL
MODEL 2
REMARK VINA RESULT: -8.572198159      4.295      6.810
REMARK  6 active torsions:
REMARK  status: ('A' for Active; 'I' for Inactive)
REMARK    1  A    between atoms: C2_2  and  N1_3 
REMARK    2  A    between atoms: N1_3  and  C3_5 
REMARK    3  A    between atoms: C3_5  and  C4_7 
REMARK    4  A    between atoms: C4_7  and  O1_8 
REMARK    5  A    between atoms: N2_13  and  C9_14 
REMARK    6  A    between atoms: N7_28  and  C14_29 
ROOT
HETATM    1  C9  UNL     1       6.303  35.595  25.491  1.00  0.00     0.150 A 
HETATM    2  N3  UNL     1       7.611  35.615  25.633  1.00  0.00    -0.175 N 
ATOM      3  H3  UNL     1       8.075  36.508  25.798  1.00  0.00     0.186 HD
HETATM    4  C10 UNL     1       8.368  34.481  25.566  1.00  0.00     0.679 A 
HETATM    5  N4  UNL     1       9.646  34.514  25.706  1.00  0.00    -0.234 N 
ATOM      6  H41 UNL     1      10.211  33.666  25.656  1.00  0.00     0.174 HD
ATOM      7  H42 UNL     1      10.109  35.408  25.871  1.00  0.00     0.174 HD
HETATM    8  N5  UNL     1       7.757  33.299  25.348  1.00  0.00    -0.174 N 
ATOM      9  H5  UNL     1       8.314  32.445  25.297  1.00  0.00     0.186 HD
HETATM   10  C11 UNL     1       6.430  33.230  25.199  1.00  0.00     0.155 A 
HETATM   11  C12 UNL     1       5.662  34.406  25.269  1.00  0.00     0.123 A 
HETATM   12  N6  UNL     1       4.400  34.011  25.084  1.00  0.00    -0.346 N 
ATOM     13  H6  UNL     1       3.582  34.620  25.076  1.00  0.00     0.167 HD
HETATM   14  C13 UNL     1       4.386  32.677  24.911  1.00  0.00     0.185 A 
HETATM   15  N7  UNL     1       5.631  32.172  24.977  1.00  0.00    -0.322 N 
ENDROOT
BRANCH   1  16
HETATM   16  N2  UNL     1       5.487  36.792  25.557  1.00  0.00    -0.362 N 
HETATM   17  C8  UNL     1       4.910  37.246  24.322  1.00  0.00     0.124 C 
HETATM   18  C7  UNL     1       4.658  38.713  24.334  1.00  0.00     0.023 C 
HETATM   19  C6  UNL     1       3.873  39.044  25.590  1.00  0.00     0.049 C 
HETATM   20  C4  UNL     1       4.805  38.818  26.775  1.00  0.00     0.128 C 
HETATM   21  C19 UNL     1       5.266  37.425  26.813  1.00  0.00     0.170 C 
BRANCH  20  22
HETATM   22  C3  UNL     1       5.964  39.742  26.681  1.00  0.00     0.110 C 
HETATM   23  S1  UNL     1       5.725  41.310  26.408  1.00  0.00    -0.062 SA
BRANCH  22  24
HETATM   24  N1  UNL     1       7.287  39.253  26.812  1.00  0.00    -0.382 N 
ATOM     25  H1  UNL     1       7.437  38.263  27.005  1.00  0.00     0.160 HD
BRANCH  24  26
HETATM   26  C2  UNL     1       8.428  40.129  26.679  1.00  0.00     0.116 C 
HETATM   27  C1  UNL     1       9.073  40.449  27.989  1.00  0.00     0.026 C 
ENDBRANCH  24  26
ENDBRANCH  22  24
ENDBRANCH  20  22
BRANCH  20  28
HETATM   28  O1  UNL     1       4.150  39.231  27.947  1.00  0.00    -0.376 OA
HETATM   29  C5  UNL     1       2.797  39.247  27.904  1.00  0.00     0.203 C 
ENDBRANCH  20  28
ENDBRANCH   1  16
BRANCH  15  30
HETATM   30  C14 UNL     1       5.966  30.785  24.834  1.00  0.00     0.092 C 
HETATM   31  C15 UNL     1       6.350  30.377  23.440  1.00  0.00     0.026 C 
HETATM   32  C16 UNL     1       5.829  28.973  23.217  1.00  0.00     0.002 C 
HETATM   33  C17 UNL     1       4.951  28.636  24.403  1.00  0.00     0.002 C 
HETATM   34  C18 UNL     1       4.731  29.957  25.109  1.00  0.00     0.026 C 
ENDBRANCH  15  30
TORSDOF 6
ENDMDL
MODEL 3
REMARK VINA RESULT: -8.404963959      3.890      5.643
REMARK  6 active torsions:
REMARK  status: ('A' for Active; 'I' for Inactive)
REMARK    1  A    between atoms: C2_2  and  N1_3 
REMARK    2  A    between atoms: N1_3  and  C3_5 
REMARK    3  A    between atoms: C3_5  and  C4_7 
REMARK    4  A    between atoms: C4_7  and  O1_8 
REMARK    5  A    between atoms: N2_13  and  C9_14 
REMARK    6  A    between atoms: N7_28  and  C14_29 
ROOT
HETATM    1  C9  UNL     1       6.417  35.488  25.780  1.00  0.00     0.150 A 
HETATM    2  N3  UNL     1       7.733  35.510  25.811  1.00  0.00    -0.175 N 
ATOM      3  H3  UNL     1       8.207  36.394  25.994  1.00  0.00     0.186 HD
HETATM    4  C10 UNL     1       8.484  34.388  25.607  1.00  0.00     0.679 A 
HETATM    5  N4  UNL     1       9.770  34.422  25.640  1.00  0.00    -0.234 N 
ATOM      6  H41 UNL     1      10.331  33.584  25.488  1.00  0.00     0.174 HD
ATOM      7  H42 UNL     1      10.242  35.307  25.822  1.00  0.00     0.174 HD
HETATM    8  N5  UNL     1       7.860  33.217  25.366  1.00  0.00    -0.174 N 
ATOM      9  H5  UNL     1       8.413  32.374  25.213  1.00  0.00     0.186 HD
HETATM   10  C11 UNL     1       6.525  33.148  25.326  1.00  0.00     0.155 A 
HETATM   11  C12 UNL     1       5.763  34.311  25.537  1.00  0.00     0.123 A 
HETATM   12  N6  UNL     1       4.491  33.918  25.434  1.00  0.00    -0.346 N 
ATOM     13  H6  UNL     1       3.674  34.520  25.535  1.00  0.00     0.167 HD
HETATM   14  C13 UNL     1       4.466  32.598  25.177  1.00  0.00     0.185 A 
HETATM   15  N7  UNL     1       5.713  32.100  25.105  1.00  0.00    -0.322 N 
ENDROOT
BRANCH   1  16
HETATM   16  N2  UNL     1       5.607  36.672  25.992  1.00  0.00    -0.362 N 
HETATM   17  C8  UNL     1       5.091  36.870  27.318  1.00  0.00     0.124 C 
HETATM   18  C7  UNL     1       3.835  37.670  27.309  1.00  0.00     0.023 C 
HETATM   19  C6  UNL     1       4.088  38.932  26.505  1.00  0.00     0.049 C 
HETATM   20  C4  UNL     1       4.269  38.510  25.052  1.00  0.00     0.128 C 
HETATM   21  C19 UNL     1       5.398  37.583  24.918  1.00  0.00     0.170 C 
BRANCH  20  22
HETATM   22  C3  UNL     1       3.019  37.874  24.559  1.00  0.00     0.110 C 
HETATM   23  S1  UNL     1       1.588  38.481  24.974  1.00  0.00    -0.062 SA
BRANCH  22  24
HETATM   24  N1  UNL     1       3.074  36.721  23.738  1.00  0.00    -0.382 N 
ATOM     25  H1  UNL     1       3.938  36.180  23.692  1.00  0.00     0.160 HD
BRANCH  24  26
HETATM   26  C2  UNL     1       1.930  36.296  22.964  1.00  0.00     0.116 C 
HETATM   27  C1  UNL     1       2.188  36.306  21.492  1.00  0.00     0.026 C 
ENDBRANCH  24  26
ENDBRANCH  22  24
ENDBRANCH  20  22
BRANCH  20  28
HETATM   28  O1  UNL     1       4.383  39.664  24.259  1.00  0.00    -0.376 OA
HETATM   29  C5  UNL     1       4.599  40.826  24.920  1.00  0.00     0.203 C 
ENDBRANCH  20  28
ENDBRANCH   1  16
BRANCH  15  30
HETATM   30  C14 UNL     1       6.038  30.728  24.844  1.00  0.00     0.092 C 
HETATM   31  C15 UNL     1       6.421  30.436  23.421  1.00  0.00     0.026 C 
HETATM   32  C16 UNL     1       5.890  29.060  23.079  1.00  0.00     0.002 C 
HETATM   33  C17 UNL     1       5.008  28.630  24.231  1.00  0.00     0.002 C 
HETATM   34  C18 UNL     1       4.797  29.888  25.047  1.00  0.00     0.026 C 
ENDBRANCH  15  30
TORSDOF 6
ENDMDL
MODEL 4
REMARK VINA RESULT: -8.395842820      3.941      5.654
REMARK  6 active torsions:
REMARK  status: ('A' for Active; 'I' for Inactive)
REMARK    1  A    between atoms: C2_2  and  N1_3 
REMARK    2  A    between atoms: N1_3  and  C3_5 
REMARK    3  A    between atoms: C3_5  and  C4_7 
REMARK    4  A    between atoms: C4_7  and  O1_8 
REMARK    5  A    between atoms: N2_13  and  C9_14 
REMARK    6  A    between atoms: N7_28  and  C14_29 
ROOT
HETATM    1  C9  UNL     1       6.420  35.495  25.787  1.00  0.00     0.150 A 
HETATM    2  N3  UNL     1       7.736  35.509  25.801  1.00  0.00    -0.175 N 
ATOM      3  H3  UNL     1       8.217  36.393  25.963  1.00  0.00     0.186 HD
HETATM    4  C10 UNL     1       8.478  34.380  25.603  1.00  0.00     0.679 A 
HETATM    5  N4  UNL     1       9.764  34.407  25.619  1.00  0.00    -0.234 N 
ATOM      6  H41 UNL     1      10.318  33.564  25.472  1.00  0.00     0.174 HD
ATOM      7  H42 UNL     1      10.244  35.292  25.781  1.00  0.00     0.174 HD
HETATM    8  N5  UNL     1       7.844  33.209  25.389  1.00  0.00    -0.174 N 
ATOM      9  H5  UNL     1       8.390  32.360  25.241  1.00  0.00     0.186 HD
HETATM   10  C11 UNL     1       6.509  33.148  25.367  1.00  0.00     0.155 A 
HETATM   11  C12 UNL     1       5.756  34.318  25.571  1.00  0.00     0.123 A 
HETATM   12  N6  UNL     1       4.481  33.932  25.492  1.00  0.00    -0.346 N 
ATOM     13  H6  UNL     1       3.668  34.539  25.594  1.00  0.00     0.167 HD
HETATM   14  C13 UNL     1       4.444  32.608  25.255  1.00  0.00     0.185 A 
HETATM   15  N7  UNL     1       5.688  32.101  25.173  1.00  0.00    -0.322 N 
ENDROOT
BRANCH   1  16
HETATM   16  N2  UNL     1       5.620  36.686  25.992  1.00  0.00    -0.362 N 
HETATM   17  C8  UNL     1       5.077  36.879  27.308  1.00  0.00     0.124 C 
HETATM   18  C7  UNL     1       3.832  37.695  27.280  1.00  0.00     0.023 C 
HETATM   19  C6  UNL     1       4.117  38.960  26.492  1.00  0.00     0.049 C 
HETATM   20  C4  UNL     1       4.324  38.549  25.039  1.00  0.00     0.128 C 
HETATM   21  C19 UNL     1       5.445  37.609  24.922  1.00  0.00     0.170 C 
BRANCH  20  22
HETATM   22  C3  UNL     1       3.078  37.932  24.514  1.00  0.00     0.110 C 
HETATM   23  S1  UNL     1       3.159  36.656  23.539  1.00  0.00    -0.062 SA
BRANCH  22  24
HETATM   24  N1  UNL     1       1.812  38.469  24.852  1.00  0.00    -0.382 N 
ATOM     25  H1  UNL     1       1.683  39.481  24.856  1.00  0.00     0.160 HD
BRANCH  24  26
HETATM   26  C2  UNL     1       0.699  37.613  25.193  1.00  0.00     0.116 C 
HETATM   27  C1  UNL     1      -0.263  37.433  24.064  1.00  0.00     0.026 C 
ENDBRANCH  24  26
ENDBRANCH  22  24
ENDBRANCH  20  22
BRANCH  20  28
HETATM   28  O1  UNL     1       4.470  39.708  24.260  1.00  0.00    -0.376 OA
HETATM   29  C5  UNL     1       4.494  40.883  24.932  1.00  0.00     0.203 C 
ENDBRANCH  20  28
ENDBRANCH   1  16
BRANCH  15  30
HETATM   30  C14 UNL     1       6.001  30.723  24.929  1.00  0.00     0.092 C 
HETATM   31  C15 UNL     1       6.448  30.424  23.527  1.00  0.00     0.026 C 
HETATM   32  C16 UNL     1       5.911  29.057  23.160  1.00  0.00     0.002 C 
HETATM   33  C17 UNL     1       4.966  28.643  24.267  1.00  0.00     0.002 C 
HETATM   34  C18 UNL     1       4.737  29.905  25.072  1.00  0.00     0.026 C 
ENDBRANCH  15  30
TORSDOF 6
ENDMDL
MODEL 5
REMARK VINA RESULT: -8.018090736      4.480      6.249
REMARK  6 active torsions:
REMARK  status: ('A' for Active; 'I' for Inactive)
REMARK    1  A    between atoms: C2_2  and  N1_3 
REMARK    2  A    between atoms: N1_3  and  C3_5 
REMARK    3  A    between atoms: C3_5  and  C4_7 
REMARK    4  A    between atoms: C4_7  and  O1_8 
REMARK    5  A    between atoms: N2_13  and  C9_14 
REMARK    6  A    between atoms: N7_28  and  C14_29 
ROOT
HETATM    1  C9  UNL     1       5.503  36.133  26.215  1.00  0.00     0.150 A 
HETATM    2  N3  UNL     1       6.599  36.239  26.936  1.00  0.00    -0.175 N 
ATOM      3  H3  UNL     1       6.862  37.154  27.301  1.00  0.00     0.186 HD
HETATM    4  C10 UNL     1       7.396  35.165  27.211  1.00  0.00     0.679 A 
HETATM    5  N4  UNL     1       8.465  35.281  27.917  1.00  0.00    -0.234 N 
ATOM      6  H41 UNL     1       9.059  34.479  28.123  1.00  0.00     0.174 HD
ATOM      7  H42 UNL     1       8.726  36.197  28.281  1.00  0.00     0.174 HD
HETATM    8  N5  UNL     1       7.051  33.953  26.730  1.00  0.00    -0.174 N 
ATOM      9  H5  UNL     1       7.639  33.145  26.931  1.00  0.00     0.186 HD
HETATM   10  C11 UNL     1       5.945  33.799  25.993  1.00  0.00     0.155 A 
HETATM   11  C12 UNL     1       5.134  34.913  25.716  1.00  0.00     0.123 A 
HETATM   12  N6  UNL     1       4.130  34.439  24.975  1.00  0.00    -0.346 N 
ATOM     13  H6  UNL     1       3.356  34.988  24.600  1.00  0.00     0.167 HD
HETATM   14  C13 UNL     1       4.307  33.116  24.803  1.00  0.00     0.185 A 
HETATM   15  N7  UNL     1       5.424  32.698  25.424  1.00  0.00    -0.322 N 
ENDROOT
BRANCH   1  16
HETATM   16  N2  UNL     1       4.650  37.265  25.912  1.00  0.00    -0.362 N 
HETATM   17  C8  UNL     1       5.212  38.290  25.076  1.00  0.00     0.124 C 
HETATM   18  C7  UNL     1       4.583  39.616  25.327  1.00  0.00     0.023 C 
HETATM   19  C6  UNL     1       3.078  39.446  25.238  1.00  0.00     0.049 C 
HETATM   20  C4  UNL     1       2.650  38.601  26.433  1.00  0.00     0.128 C 
HETATM   21  C19 UNL     1       3.315  37.293  26.407  1.00  0.00     0.170 C 
BRANCH  20  22
HETATM   22  C3  UNL     1       2.975  39.320  27.693  1.00  0.00     0.110 C 
HETATM   23  S1  UNL     1       2.786  40.915  27.782  1.00  0.00    -0.062 SA
BRANCH  22  24
HETATM   24  N1  UNL     1       3.469  38.614  28.816  1.00  0.00    -0.382 N 
ATOM     25  H1  UNL     1       3.952  37.726  28.676  1.00  0.00     0.160 HD
BRANCH  24  26
HETATM   26  C2  UNL     1       3.303  39.126  30.157  1.00  0.00     0.116 C 
HETATM   27  C1  UNL     1       3.601  38.108  31.210  1.00  0.00     0.026 C 
ENDBRANCH  24  26
ENDBRANCH  22  24
ENDBRANCH  20  22
BRANCH  20  28
HETATM   28  O1  UNL     1       1.248  38.526  26.451  1.00  0.00    -0.376 OA
HETATM   29  C5  UNL     1       0.679  37.719  25.524  1.00  0.00     0.203 C 
ENDBRANCH  20  28
ENDBRANCH   1  16
BRANCH  15  30
HETATM   30  C14 UNL     1       5.902  31.346  25.437  1.00  0.00     0.092 C 
HETATM   31  C15 UNL     1       6.840  31.004  24.315  1.00  0.00     0.026 C 
HETATM   32  C16 UNL     1       6.568  29.569  23.915  1.00  0.00     0.002 C 
HETATM   33  C17 UNL     1       5.323  29.134  24.657  1.00  0.00     0.002 C 
HETATM   34  C18 UNL     1       4.732  30.415  25.206  1.00  0.00     0.026 C 
ENDBRANCH  15  30
TORSDOF 6
ENDMDL
