MODEL 1
REMARK VINA RESULT: -7.398735282      0.000      0.000
REMARK  11 active torsions:
REMARK  status: ('A' for Active; 'I' for Inactive)
REMARK    1  A    between atoms: O1_2  and  C2_3 
REMARK    2  A    between atoms: C6_7  and  O2_8 
REMARK    3  A    between atoms: C7_10  and  C8_11 
REMARK    4  A    between atoms: C9_12  and  C11_14 
REMARK    5  A    between atoms: C11_14  and  O3_15 
REMARK    6  A    between atoms: C13_18  and  C14_19 
REMARK    7  A    between atoms: C17_22  and  O4_23 
REMARK    8  A    between atoms: O4_23  and  C18_24 
REMARK    9  A    between atoms: C21_29  and  O6_30 
REMARK   10  A    between atoms: C21_29  and  C22_32 
REMARK   11  A    between atoms: C22_32  and  O7_33 
ROOT
HETATM    1  C2  UNL     1       4.415  35.612  25.567  1.00  0.00     0.133 C 
HETATM    2  C3  UNL     1       5.807  35.868  25.123  1.00  0.00    -0.015 C 
HETATM    3  C4  UNL     1       5.969  37.147  24.787  1.00  0.00    -0.045 C 
HETATM    4  C5  UNL     1       7.223  37.774  24.296  1.00  0.00     0.047 C 
HETATM    5  C6  UNL     1       4.731  37.900  24.962  1.00  0.00     0.158 C 
HETATM    6  C7  UNL     1       3.676  36.785  25.049  1.00  0.00     0.084 C 
HETATM    7  C12 UNL     1       6.969  34.987  25.024  1.00  0.00     0.016 C 
HETATM    8  C13 UNL     1       7.090  33.693  24.795  1.00  0.00    -0.044 C 
HETATM    9  C17 UNL     1       5.948  32.779  24.549  1.00  0.00     0.198 C 
HETATM   10  C20 UNL     1       4.878  33.170  25.542  1.00  0.00     0.243 C 
HETATM   11  F1  UNL     1       4.203  32.026  25.868  1.00  0.00    -0.243 F 
HETATM   12  C21 UNL     1       3.967  34.274  24.980  1.00  0.00     0.148 C 
ENDROOT
BRANCH   6  13
HETATM   13  C8  UNL     1       3.121  36.721  23.696  1.00  0.00    -0.011 C 
HETATM   14  C9  UNL     1       1.816  36.864  23.519  1.00  0.00    -0.064 C 
HETATM   15  C10 UNL     1       0.909  37.090  24.678  1.00  0.00     0.045 C 
BRANCH  14  16
HETATM   16  C11 UNL     1       1.185  36.810  22.172  1.00  0.00     0.197 C 
BRANCH  16  17
HETATM   17  O3  UNL     1      -0.063  37.425  22.198  1.00  0.00    -0.397 OA
ATOM     18  H3  UNL     1      -0.168  37.990  21.441  1.00  0.00     0.209 HD
ENDBRANCH  16  17
ENDBRANCH  14  16
ENDBRANCH   6  13
BRANCH   1  19
HETATM   19  O1  UNL     1       4.440  35.383  26.874  1.00  0.00    -0.376 OA
HETATM   20  C1  UNL     1       5.174  35.891  27.822  1.00  0.00     0.203 C 
ENDBRANCH   1  19
BRANCH   5  21
HETATM   21  O2  UNL     1       4.690  38.792  25.993  1.00  0.00    -0.390 OA
ATOM     22  H2  UNL     1       4.048  39.489  25.934  1.00  0.00     0.210 HD
ENDBRANCH   5  21
BRANCH  12  23
HETATM   23  O6  UNL     1       4.105  34.191  23.617  1.00  0.00    -0.381 OA
ATOM     24  H6  UNL     1       3.859  33.347  23.256  1.00  0.00     0.211 HD
ENDBRANCH  12  23
BRANCH  12  25
HETATM   25  C22 UNL     1       2.589  33.872  25.475  1.00  0.00     0.208 C 
BRANCH  25  26
HETATM   26  O7  UNL     1       1.805  33.465  24.426  1.00  0.00    -0.398 OA
ATOM     27  H7  UNL     1       0.982  33.940  24.425  1.00  0.00     0.209 HD
ENDBRANCH  25  26
ENDBRANCH  12  25
BRANCH   8  28
HETATM   28  C14 UNL     1       8.458  33.125  24.766  1.00  0.00     0.009 C 
HETATM   29  C15 UNL     1       9.435  34.245  25.077  1.00  0.00     0.014 C 
HETATM   30  C16 UNL     1       8.847  32.526  23.443  1.00  0.00     0.014 C 
ENDBRANCH   8  28
BRANCH   9  31
HETATM   31  O4  UNL     1       6.302  31.418  24.675  1.00  0.00    -0.309 OA
BRANCH  31  32
HETATM   32  C18 UNL     1       5.940  30.449  23.714  1.00  0.00     0.255 C 
HETATM   33  C19 UNL     1       5.760  29.022  24.088  1.00  0.00     0.126 C 
HETATM   34  O5  UNL     1       5.783  30.877  22.542  1.00  0.00    -0.266 OA
ENDBRANCH  31  32
ENDBRANCH   9  31
TORSDOF 11
ENDMDL
MODEL 2
REMARK VINA RESULT: -6.883779178      2.426      4.465
REMARK  11 active torsions:
REMARK  status: ('A' for Active; 'I' for Inactive)
REMARK    1  A    between atoms: O1_2  and  C2_3 
REMARK    2  A    between atoms: C6_7  and  O2_8 
REMARK    3  A    between atoms: C7_10  and  C8_11 
REMARK    4  A    between atoms: C9_12  and  C11_14 
REMARK    5  A    between atoms: C11_14  and  O3_15 
REMARK    6  A    between atoms: C13_18  and  C14_19 
REMARK    7  A    between atoms: C17_22  and  O4_23 
REMARK    8  A    between atoms: O4_23  and  C18_24 
REMARK    9  A    between atoms: C21_29  and  O6_30 
REMARK   10  A    between atoms: C21_29  and  C22_32 
REMARK   11  A    between atoms: C22_32  and  O7_33 
ROOT
HETATM    1  C2  UNL     1       4.591  36.845  25.591  1.00  0.00     0.133 C 
HETATM    2  C3  UNL     1       5.234  35.549  25.264  1.00  0.00    -0.015 C 
HETATM    3  C4  UNL     1       6.555  35.689  25.157  1.00  0.00    -0.045 C 
HETATM    4  C5  UNL     1       7.529  34.614  24.841  1.00  0.00     0.047 C 
HETATM    5  C6  UNL     1       6.960  37.070  25.398  1.00  0.00     0.158 C 
HETATM    6  C7  UNL     1       5.636  37.835  25.244  1.00  0.00     0.084 C 
HETATM    7  C12 UNL     1       4.675  34.212  25.074  1.00  0.00     0.016 C 
HETATM    8  C13 UNL     1       3.505  33.789  24.635  1.00  0.00    -0.044 C 
HETATM    9  C17 UNL     1       2.410  34.683  24.183  1.00  0.00     0.198 C 
HETATM   10  C20 UNL     1       2.364  35.822  25.175  1.00  0.00     0.243 C 
HETATM   11  F1  UNL     1       1.057  36.213  25.270  1.00  0.00    -0.243 F 
HETATM   12  C21 UNL     1       3.311  36.963  24.765  1.00  0.00     0.148 C 
ENDROOT
BRANCH   6  13
HETATM   13  C8  UNL     1       5.685  38.349  23.874  1.00  0.00    -0.011 C 
HETATM   14  C9  UNL     1       5.564  39.652  23.662  1.00  0.00    -0.064 C 
HETATM   15  C10 UNL     1       5.379  40.596  24.799  1.00  0.00     0.045 C 
BRANCH  14  16
HETATM   16  C11 UNL     1       5.604  40.242  22.297  1.00  0.00     0.197 C 
BRANCH  16  17
HETATM   17  O3  UNL     1       4.345  40.183  21.708  1.00  0.00    -0.397 OA
ATOM     18  H3  UNL     1       3.857  39.440  22.044  1.00  0.00     0.209 HD
ENDBRANCH  16  17
ENDBRANCH  14  16
ENDBRANCH   6  13
BRANCH   1  19
HETATM   19  O1  UNL     1       4.147  36.776  26.840  1.00  0.00    -0.376 OA
HETATM   20  C1  UNL     1       4.398  37.514  27.884  1.00  0.00     0.203 C 
ENDBRANCH   1  19
BRANCH   5  21
HETATM   21  O2  UNL     1       7.624  37.327  26.562  1.00  0.00    -0.390 OA
ATOM     22  H2  UNL     1       8.086  36.601  26.963  1.00  0.00     0.210 HD
ENDBRANCH   5  21
BRANCH  12  23
HETATM   23  O6  UNL     1       3.502  36.799  23.416  1.00  0.00    -0.381 OA
ATOM     24  H6  UNL     1       3.958  37.522  23.001  1.00  0.00     0.211 HD
ENDBRANCH  12  23
BRANCH  12  25
HETATM   25  C22 UNL     1       2.523  38.212  25.118  1.00  0.00     0.208 C 
BRANCH  25  26
HETATM   26  O7  UNL     1       2.321  38.980  24.001  1.00  0.00    -0.398 OA
ATOM     27  H7  UNL     1       1.522  39.488  24.089  1.00  0.00     0.209 HD
ENDBRANCH  25  26
ENDBRANCH  12  25
BRANCH   8  28
HETATM   28  C14 UNL     1       3.280  32.326  24.576  1.00  0.00     0.009 C 
HETATM   29  C15 UNL     1       2.767  31.878  25.933  1.00  0.00     0.014 C 
HETATM   30  C16 UNL     1       4.513  31.527  24.261  1.00  0.00     0.014 C 
ENDBRANCH   8  28
BRANCH   9  31
HETATM   31  O4  UNL     1       1.166  34.021  24.093  1.00  0.00    -0.309 OA
BRANCH  31  32
HETATM   32  C18 UNL     1       0.347  34.101  22.947  1.00  0.00     0.255 C 
HETATM   33  C19 UNL     1       0.510  35.199  21.958  1.00  0.00     0.126 C 
HETATM   34  O5  UNL     1      -0.514  33.192  22.829  1.00  0.00    -0.266 OA
ENDBRANCH  31  32
ENDBRANCH   9  31
TORSDOF 11
ENDMDL
MODEL 3
REMARK VINA RESULT: -6.620033208      2.394      4.383
REMARK  11 active torsions:
REMARK  status: ('A' for Active; 'I' for Inactive)
REMARK    1  A    between atoms: O1_2  and  C2_3 
REMARK    2  A    between atoms: C6_7  and  O2_8 
REMARK    3  A    between atoms: C7_10  and  C8_11 
REMARK    4  A    between atoms: C9_12  and  C11_14 
REMARK    5  A    between atoms: C11_14  and  O3_15 
REMARK    6  A    between atoms: C13_18  and  C14_19 
REMARK    7  A    between atoms: C17_22  and  O4_23 
REMARK    8  A    between atoms: O4_23  and  C18_24 
REMARK    9  A    between atoms: C21_29  and  O6_30 
REMARK   10  A    between atoms: C21_29  and  C22_32 
REMARK   11  A    between atoms: C22_32  and  O7_33 
ROOT
HETATM    1  C2  UNL     1       6.879  34.408  25.937  1.00  0.00     0.133 C 
HETATM    2  C3  UNL     1       7.332  33.289  25.075  1.00  0.00    -0.015 C 
HETATM    3  C4  UNL     1       8.536  33.543  24.563  1.00  0.00    -0.045 C 
HETATM    4  C5  UNL     1       9.310  32.657  23.656  1.00  0.00     0.047 C 
HETATM    5  C6  UNL     1       9.038  34.839  25.010  1.00  0.00     0.158 C 
HETATM    6  C7  UNL     1       7.764  35.524  25.530  1.00  0.00     0.084 C 
HETATM    7  C12 UNL     1       6.706  32.012  24.738  1.00  0.00     0.016 C 
HETATM    8  C13 UNL     1       5.446  31.638  24.631  1.00  0.00    -0.044 C 
HETATM    9  C17 UNL     1       4.287  32.541  24.840  1.00  0.00     0.198 C 
HETATM   10  C20 UNL     1       4.621  33.377  26.053  1.00  0.00     0.243 C 
HETATM   11  F1  UNL     1       3.440  33.639  26.691  1.00  0.00    -0.243 F 
HETATM   12  C21 UNL     1       5.395  34.648  25.664  1.00  0.00     0.148 C 
ENDROOT
BRANCH   6  13
HETATM   13  C8  UNL     1       7.345  36.379  24.418  1.00  0.00    -0.011 C 
HETATM   14  C9  UNL     1       7.423  37.695  24.542  1.00  0.00    -0.064 C 
HETATM   15  C10 UNL     1       7.931  38.314  25.798  1.00  0.00     0.045 C 
BRANCH  14  16
HETATM   16  C11 UNL     1       7.015  38.623  23.453  1.00  0.00     0.197 C 
BRANCH  16  17
HETATM   17  O3  UNL     1       5.809  39.240  23.770  1.00  0.00    -0.397 OA
ATOM     18  H3  UNL     1       5.902  40.185  23.734  1.00  0.00     0.209 HD
ENDBRANCH  16  17
ENDBRANCH  14  16
ENDBRANCH   6  13
BRANCH   1  19
HETATM   19  O1  UNL     1       6.898  33.987  27.195  1.00  0.00    -0.376 OA
HETATM   20  C1  UNL     1       7.414  34.511  28.270  1.00  0.00     0.203 C 
ENDBRANCH   1  19
BRANCH   5  21
HETATM   21  O2  UNL     1      10.072  34.829  25.898  1.00  0.00    -0.390 OA
ATOM     22  H2  UNL     1      10.867  35.280  25.639  1.00  0.00     0.210 HD
ENDBRANCH   5  21
BRANCH  12  23
HETATM   23  O6  UNL     1       5.099  34.853  24.340  1.00  0.00    -0.381 OA
ATOM     24  H6  UNL     1       4.774  34.080  23.894  1.00  0.00     0.211 HD
ENDBRANCH  12  23
BRANCH  12  25
HETATM   25  C22 UNL     1       4.814  35.704  26.586  1.00  0.00     0.208 C 
BRANCH  25  26
HETATM   26  O7  UNL     1       4.109  36.633  25.864  1.00  0.00    -0.398 OA
ATOM     27  H7  UNL     1       3.585  37.174  26.444  1.00  0.00     0.209 HD
ENDBRANCH  25  26
ENDBRANCH  12  25
BRANCH   8  28
HETATM   28  C14 UNL     1       5.175  30.228  24.264  1.00  0.00     0.009 C 
HETATM   29  C15 UNL     1       6.490  29.473  24.316  1.00  0.00     0.014 C 
HETATM   30  C16 UNL     1       4.594  30.052  22.889  1.00  0.00     0.014 C 
ENDBRANCH   8  28
BRANCH   9  31
HETATM   31  O4  UNL     1       3.072  31.840  25.008  1.00  0.00    -0.309 OA
BRANCH  31  32
HETATM   32  C18 UNL     1       1.839  32.338  24.537  1.00  0.00     0.255 C 
HETATM   33  C19 UNL     1       0.579  31.570  24.713  1.00  0.00     0.126 C 
HETATM   34  O5  UNL     1       1.886  33.459  23.968  1.00  0.00    -0.266 OA
ENDBRANCH  31  32
ENDBRANCH   9  31
TORSDOF 11
ENDMDL
MODEL 4
REMARK VINA RESULT: -6.358207158      2.082      4.690
REMARK  11 active torsions:
REMARK  status: ('A' for Active; 'I' for Inactive)
REMARK    1  A    between atoms: O1_2  and  C2_3 
REMARK    2  A    between atoms: C6_7  and  O2_8 
REMARK    3  A    between atoms: C7_10  and  C8_11 
REMARK    4  A    between atoms: C9_12  and  C11_14 
REMARK    5  A    between atoms: C11_14  and  O3_15 
REMARK    6  A    between atoms: C13_18  and  C14_19 
REMARK    7  A    between atoms: C17_22  and  O4_23 
REMARK    8  A    between atoms: O4_23  and  C18_24 
REMARK    9  A    between atoms: C21_29  and  O6_30 
REMARK   10  A    between atoms: C21_29  and  C22_32 
REMARK   11  A    between atoms: C22_32  and  O7_33 
ROOT
HETATM    1  C2  UNL     1       3.024  36.201  24.021  1.00  0.00     0.133 C 
HETATM    2  C3  UNL     1       2.345  34.924  24.350  1.00  0.00    -0.015 C 
HETATM    3  C4  UNL     1       1.029  35.102  24.460  1.00  0.00    -0.045 C 
HETATM    4  C5  UNL     1       0.025  34.056  24.780  1.00  0.00     0.047 C 
HETATM    5  C6  UNL     1       0.663  36.495  24.219  1.00  0.00     0.158 C 
HETATM    6  C7  UNL     1       2.009  37.220  24.369  1.00  0.00     0.084 C 
HETATM    7  C12 UNL     1       2.866  33.572  24.541  1.00  0.00     0.016 C 
HETATM    8  C13 UNL     1       4.024  33.116  24.978  1.00  0.00    -0.044 C 
HETATM    9  C17 UNL     1       5.145  33.978  25.426  1.00  0.00     0.198 C 
HETATM   10  C20 UNL     1       5.221  35.114  24.432  1.00  0.00     0.243 C 
HETATM   11  F1  UNL     1       6.539  35.467  24.335  1.00  0.00    -0.243 F 
HETATM   12  C21 UNL     1       4.309  36.282  24.843  1.00  0.00     0.148 C 
ENDROOT
BRANCH   6  13
HETATM   13  C8  UNL     1       1.978  37.738  25.738  1.00  0.00    -0.011 C 
HETATM   14  C9  UNL     1       2.216  39.023  25.955  1.00  0.00    -0.064 C 
HETATM   15  C10 UNL     1       2.514  39.945  24.824  1.00  0.00     0.045 C 
BRANCH  14  16
HETATM   16  C11 UNL     1       2.202  39.615  27.320  1.00  0.00     0.197 C 
BRANCH  16  17
HETATM   17  O3  UNL     1       3.117  38.962  28.140  1.00  0.00    -0.397 OA
ATOM     18  H3  UNL     1       3.050  39.284  29.032  1.00  0.00     0.209 HD
ENDBRANCH  16  17
ENDBRANCH  14  16
ENDBRANCH   6  13
BRANCH   1  19
HETATM   19  O1  UNL     1       3.463  36.118  22.770  1.00  0.00    -0.376 OA
HETATM   20  C1  UNL     1       2.901  36.436  21.639  1.00  0.00     0.203 C 
ENDBRANCH   1  19
BRANCH   5  21
HETATM   21  O2  UNL     1       0.004  36.768  23.057  1.00  0.00    -0.390 OA
ATOM     22  H2  UNL     1      -0.245  36.027  22.518  1.00  0.00     0.210 HD
ENDBRANCH   5  21
BRANCH  12  23
HETATM   23  O6  UNL     1       4.116  36.125  26.193  1.00  0.00    -0.381 OA
ATOM     24  H6  UNL     1       3.389  36.629  26.539  1.00  0.00     0.211 HD
ENDBRANCH  12  23
BRANCH  12  25
HETATM   25  C22 UNL     1       5.132  37.507  24.487  1.00  0.00     0.208 C 
BRANCH  25  26
HETATM   26  O7  UNL     1       5.578  38.130  25.625  1.00  0.00    -0.398 OA
ATOM     27  H7  UNL     1       6.397  38.581  25.455  1.00  0.00     0.209 HD
ENDBRANCH  25  26
ENDBRANCH  12  25
BRANCH   8  28
HETATM   28  C14 UNL     1       4.207  31.646  25.038  1.00  0.00     0.009 C 
HETATM   29  C15 UNL     1       4.804  31.197  23.717  1.00  0.00     0.014 C 
HETATM   30  C16 UNL     1       2.934  30.877  25.255  1.00  0.00     0.014 C 
ENDBRANCH   8  28
BRANCH   9  31
HETATM   31  O4  UNL     1       6.370  33.280  25.513  1.00  0.00    -0.309 OA
BRANCH  31  32
HETATM   32  C18 UNL     1       7.504  33.819  26.157  1.00  0.00     0.255 C 
HETATM   33  C19 UNL     1       7.372  34.671  27.368  1.00  0.00     0.126 C 
HETATM   34  O5  UNL     1       8.613  33.530  25.639  1.00  0.00    -0.266 OA
ENDBRANCH  31  32
ENDBRANCH   9  31
TORSDOF 11
ENDMDL
MODEL 5
REMARK VINA RESULT: -6.229412918      2.766      5.090
REMARK  11 active torsions:
REMARK  status: ('A' for Active; 'I' for Inactive)
REMARK    1  A    between atoms: O1_2  and  C2_3 
REMARK    2  A    between atoms: C6_7  and  O2_8 
REMARK    3  A    between atoms: C7_10  and  C8_11 
REMARK    4  A    between atoms: C9_12  and  C11_14 
REMARK    5  A    between atoms: C11_14  and  O3_15 
REMARK    6  A    between atoms: C13_18  and  C14_19 
REMARK    7  A    between atoms: C17_22  and  O4_23 
REMARK    8  A    between atoms: O4_23  and  C18_24 
REMARK    9  A    between atoms: C21_29  and  O6_30 
REMARK   10  A    between atoms: C21_29  and  C22_32 
REMARK   11  A    between atoms: C22_32  and  O7_33 
ROOT
HETATM    1  C2  UNL     1       4.056  37.983  24.656  1.00  0.00     0.133 C 
HETATM    2  C3  UNL     1       3.548  36.590  24.669  1.00  0.00    -0.015 C 
HETATM    3  C4  UNL     1       2.237  36.566  24.908  1.00  0.00    -0.045 C 
HETATM    4  C5  UNL     1       1.383  35.354  24.996  1.00  0.00     0.047 C 
HETATM    5  C6  UNL     1       1.707  37.915  25.079  1.00  0.00     0.158 C 
HETATM    6  C7  UNL     1       2.979  38.739  25.334  1.00  0.00     0.084 C 
HETATM    7  C12 UNL     1       4.222  35.311  24.450  1.00  0.00     0.016 C 
HETATM    8  C13 UNL     1       5.459  34.907  24.670  1.00  0.00    -0.044 C 
HETATM    9  C17 UNL     1       6.522  35.756  25.262  1.00  0.00     0.198 C 
HETATM   10  C20 UNL     1       6.383  37.113  24.612  1.00  0.00     0.243 C 
HETATM   11  F1  UNL     1       7.642  37.642  24.529  1.00  0.00    -0.243 F 
HETATM   12  C21 UNL     1       5.399  38.007  25.384  1.00  0.00     0.148 C 
ENDROOT
BRANCH   6  13
HETATM   13  C8  UNL     1       3.026  38.871  26.791  1.00  0.00    -0.011 C 
HETATM   14  C9  UNL     1       2.922  40.071  27.341  1.00  0.00    -0.064 C 
HETATM   15  C10 UNL     1       2.757  41.286  26.496  1.00  0.00     0.045 C 
BRANCH  14  16
HETATM   16  C11 UNL     1       2.963  40.277  28.815  1.00  0.00     0.197 C 
BRANCH  16  17
HETATM   17  O3  UNL     1       1.772  39.851  29.395  1.00  0.00    -0.397 OA
ATOM     18  H3  UNL     1       1.153  40.571  29.444  1.00  0.00     0.209 HD
ENDBRANCH  16  17
ENDBRANCH  14  16
ENDBRANCH   6  13
BRANCH   1  19
HETATM   19  O1  UNL     1       4.378  38.288  23.404  1.00  0.00    -0.376 OA
HETATM   20  C1  UNL     1       4.072  39.314  22.663  1.00  0.00     0.203 C 
ENDBRANCH   1  19
BRANCH   5  21
HETATM   21  O2  UNL     1       0.914  38.399  24.081  1.00  0.00    -0.390 OA
ATOM     22  H2  UNL     1       0.963  39.331  23.906  1.00  0.00     0.210 HD
ENDBRANCH   5  21
BRANCH  12  23
HETATM   23  O6  UNL     1       5.354  37.478  26.649  1.00  0.00    -0.381 OA
ATOM     24  H6  UNL     1       4.578  37.720  27.141  1.00  0.00     0.211 HD
ENDBRANCH  12  23
BRANCH  12  25
HETATM   25  C22 UNL     1       6.052  39.376  25.322  1.00  0.00     0.208 C 
BRANCH  25  26
HETATM   26  O7  UNL     1       6.415  39.789  26.578  1.00  0.00    -0.398 OA
ATOM     27  H7  UNL     1       7.154  40.385  26.529  1.00  0.00     0.209 HD
ENDBRANCH  25  26
ENDBRANCH  12  25
BRANCH   8  28
HETATM   28  C14 UNL     1       5.798  33.508  24.316  1.00  0.00     0.009 C 
HETATM   29  C15 UNL     1       4.500  32.763  24.065  1.00  0.00     0.014 C 
HETATM   30  C16 UNL     1       6.556  32.771  25.384  1.00  0.00     0.014 C 
ENDBRANCH   8  28
BRANCH   9  31
HETATM   31  O4  UNL     1       7.815  35.219  25.076  1.00  0.00    -0.309 OA
BRANCH  31  32
HETATM   32  C18 UNL     1       8.768  35.165  26.115  1.00  0.00     0.255 C 
HETATM   33  C19 UNL     1       8.458  35.682  27.474  1.00  0.00     0.126 C 
HETATM   34  O5  UNL     1       9.878  34.657  25.811  1.00  0.00    -0.266 OA
ENDBRANCH  31  32
ENDBRANCH   9  31
TORSDOF 11
ENDMDL
