MODEL 1
REMARK VINA RESULT: -7.307765515      0.000      0.000
REMARK  3 active torsions:
REMARK  status: ('A' for Active; 'I' for Inactive)
REMARK    1  A    between atoms: O1_2  and  C2_3 
REMARK    2  A    between atoms: C3_6  and  N2_7 
REMARK    3  A    between atoms: C9_15  and  N4_16 
ROOT
HETATM    1  N2  UNL     1      -1.170   6.705  26.819  1.00  0.00    -0.280 N 
HETATM    2  C4  UNL     1       0.234   6.611  27.179  1.00  0.00     0.153 C 
HETATM    3  C5  UNL     1       1.003   6.548  25.903  1.00  0.00     0.056 C 
HETATM    4  C6  UNL     1       0.671   7.665  24.936  1.00  0.00     0.062 C 
HETATM    5  N3  UNL     1       1.291   7.397  23.687  1.00  0.00    -0.390 N 
ATOM      6  H3  UNL     1       1.591   6.454  23.441  1.00  0.00     0.159 HD
HETATM    7  C7  UNL     1       1.480   8.473  22.799  1.00  0.00     0.058 C 
HETATM    8  C8  UNL     1       2.073   9.717  23.388  1.00  0.00     0.077 C 
HETATM    9  C9  UNL     1       2.242   9.526  24.872  1.00  0.00     0.194 C 
HETATM   10  C10 UNL     1       1.011   9.010  25.529  1.00  0.00     0.049 C 
HETATM   11  C11 UNL     1      -0.307   9.521  24.997  1.00  0.00     0.044 C 
HETATM   12  C12 UNL     1      -0.751   8.053  24.910  1.00  0.00     0.068 C 
HETATM   13  C13 UNL     1      -1.442   7.712  23.603  1.00  0.00     0.042 C 
HETATM   14  N5  UNL     1      -1.546   7.721  26.016  1.00  0.00    -0.321 N 
ATOM     15  H5  UNL     1      -2.401   8.242  26.210  1.00  0.00     0.181 HD
ENDROOT
BRANCH   1  16
HETATM   16  C3  UNL     1      -2.067   5.740  27.324  1.00  0.00     0.125 A 
HETATM   17  N1  UNL     1      -2.036   5.365  28.623  1.00  0.00    -0.320 N 
HETATM   18  C2  UNL     1      -2.834   4.472  29.180  1.00  0.00     0.167 A 
ATOM     19  H1  UNL     1      -1.338   5.808  29.221  1.00  0.00     0.169 HD
HETATM   20  C16 UNL     1      -3.785   3.852  28.412  1.00  0.00     0.106 A 
HETATM   21  C15 UNL     1      -3.876   4.185  27.076  1.00  0.00     0.063 A 
HETATM   22 CL2  UNL     1      -4.860   2.661  29.126  1.00  0.00    -0.078 Cl
HETATM   23  C14 UNL     1      -3.025   5.122  26.531  1.00  0.00     0.076 A 
HETATM   24 CL1  UNL     1      -5.079   3.413  26.065  1.00  0.00    -0.082 Cl
BRANCH  18  25
HETATM   25  O1  UNL     1      -2.697   4.172  30.547  1.00  0.00    -0.339 OA
HETATM   26  C1  UNL     1      -2.669   5.212  31.498  1.00  0.00     0.211 C 
ENDBRANCH  18  25
ENDBRANCH   1  16
BRANCH   9  27
HETATM   27  N4  UNL     1       2.701  10.784  25.422  1.00  0.00    -0.074 N 
ATOM     28  H43 UNL     1       3.287  11.311  24.774  1.00  0.00     0.274 HD
ATOM     29  H42 UNL     1       1.955  11.472  25.518  1.00  0.00     0.274 HD
ATOM     30  H41 UNL     1       3.170  10.579  26.305  1.00  0.00     0.274 HD
ENDBRANCH   9  27
TORSDOF 3
ENDMDL
MODEL 2
REMARK VINA RESULT: -7.192438237      1.338      1.575
REMARK  3 active torsions:
REMARK  status: ('A' for Active; 'I' for Inactive)
REMARK    1  A    between atoms: O1_2  and  C2_3 
REMARK    2  A    between atoms: C3_6  and  N2_7 
REMARK    3  A    between atoms: C9_15  and  N4_16 
ROOT
HETATM    1  N2  UNL     1      -1.134   6.317  26.772  1.00  0.00    -0.280 N 
HETATM    2  C4  UNL     1       0.256   6.357  27.188  1.00  0.00     0.153 C 
HETATM    3  C5  UNL     1       1.076   6.452  25.947  1.00  0.00     0.056 C 
HETATM    4  C6  UNL     1       0.659   7.579  25.026  1.00  0.00     0.062 C 
HETATM    5  N3  UNL     1       1.353   7.453  23.794  1.00  0.00    -0.390 N 
ATOM      6  H3  UNL     1       1.766   6.565  23.512  1.00  0.00     0.159 HD
HETATM    7  C7  UNL     1       1.454   8.593  22.973  1.00  0.00     0.058 C 
HETATM    8  C8  UNL     1       1.880   9.858  23.652  1.00  0.00     0.077 C 
HETATM    9  C9  UNL     1       2.012   9.602  25.130  1.00  0.00     0.194 C 
HETATM   10  C10 UNL     1       0.823   8.918  25.704  1.00  0.00     0.049 C 
HETATM   11  C11 UNL     1      -0.523   9.310  25.141  1.00  0.00     0.044 C 
HETATM   12  C12 UNL     1      -0.796   7.810  24.957  1.00  0.00     0.068 C 
HETATM   13  C13 UNL     1      -1.393   7.470  23.604  1.00  0.00     0.042 C 
HETATM   14  N5  UNL     1      -1.591   7.329  26.007  1.00  0.00    -0.321 N 
ATOM     15  H5  UNL     1      -2.506   7.741  26.190  1.00  0.00     0.181 HD
ENDROOT
BRANCH   1  16
HETATM   16  C3  UNL     1      -1.936   5.232  27.184  1.00  0.00     0.125 A 
HETATM   17  N1  UNL     1      -1.385   4.106  27.692  1.00  0.00    -0.320 N 
HETATM   18  C2  UNL     1      -2.056   3.044  28.102  1.00  0.00     0.167 A 
ATOM     19  H1  UNL     1      -0.368   4.074  27.765  1.00  0.00     0.169 HD
HETATM   20  C16 UNL     1      -3.424   3.044  28.022  1.00  0.00     0.106 A 
HETATM   21  C15 UNL     1      -4.057   4.160  27.513  1.00  0.00     0.063 A 
HETATM   22 CL2  UNL     1      -4.342   1.647  28.558  1.00  0.00    -0.078 Cl
HETATM   23  C14 UNL     1      -3.322   5.249  27.096  1.00  0.00     0.076 A 
HETATM   24 CL1  UNL     1      -5.803   4.196  27.396  1.00  0.00    -0.082 Cl
BRANCH  18  25
HETATM   25  O1  UNL     1      -1.360   1.934  28.611  1.00  0.00    -0.339 OA
HETATM   26  C1  UNL     1      -0.469   1.220  27.784  1.00  0.00     0.211 C 
ENDBRANCH  18  25
ENDBRANCH   1  16
BRANCH   9  27
HETATM   27  N4  UNL     1       2.306  10.869  25.766  1.00  0.00    -0.074 N 
ATOM     28  H43 UNL     1       3.283  10.956  26.048  1.00  0.00     0.274 HD
ATOM     29  H42 UNL     1       2.285  11.654  25.115  1.00  0.00     0.274 HD
ATOM     30  H41 UNL     1       1.657  10.980  26.544  1.00  0.00     0.274 HD
ENDBRANCH   9  27
TORSDOF 3
ENDMDL
MODEL 3
REMARK VINA RESULT: -7.113347235      1.482      2.331
REMARK  3 active torsions:
REMARK  status: ('A' for Active; 'I' for Inactive)
REMARK    1  A    between atoms: O1_2  and  C2_3 
REMARK    2  A    between atoms: C3_6  and  N2_7 
REMARK    3  A    between atoms: C9_15  and  N4_16 
ROOT
HETATM    1  N2  UNL     1      -1.454   6.641  26.708  1.00  0.00    -0.280 N 
HETATM    2  C4  UNL     1      -0.083   6.615  27.186  1.00  0.00     0.153 C 
HETATM    3  C5  UNL     1       0.792   6.505  25.985  1.00  0.00     0.056 C 
HETATM    4  C6  UNL     1       0.511   7.554  24.929  1.00  0.00     0.062 C 
HETATM    5  N3  UNL     1       1.241   7.237  23.753  1.00  0.00    -0.390 N 
ATOM      6  H3  UNL     1       1.588   6.293  23.589  1.00  0.00     0.159 HD
HETATM    7  C7  UNL     1       1.472   8.267  22.821  1.00  0.00     0.058 C 
HETATM    8  C8  UNL     1       1.977   9.561  23.382  1.00  0.00     0.077 C 
HETATM    9  C9  UNL     1       2.026   9.461  24.884  1.00  0.00     0.194 C 
HETATM   10  C10 UNL     1       0.760   8.942  25.467  1.00  0.00     0.049 C 
HETATM   11  C11 UNL     1      -0.523   9.376  24.799  1.00  0.00     0.044 C 
HETATM   12  C12 UNL     1      -0.916   7.891  24.763  1.00  0.00     0.068 C 
HETATM   13  C13 UNL     1      -1.484   7.454  23.426  1.00  0.00     0.042 C 
HETATM   14  N5  UNL     1      -1.790   7.595  25.817  1.00  0.00    -0.321 N 
ATOM     15  H5  UNL     1      -2.674   8.097  25.909  1.00  0.00     0.181 HD
ENDROOT
BRANCH   1  16
HETATM   16  C3  UNL     1      -2.362   5.676  27.193  1.00  0.00     0.125 A 
HETATM   17  N1  UNL     1      -3.341   5.176  26.406  1.00  0.00    -0.320 N 
HETATM   18  C2  UNL     1      -4.232   4.274  26.774  1.00  0.00     0.167 A 
ATOM     19  H1  UNL     1      -3.395   5.525  25.449  1.00  0.00     0.169 HD
HETATM   20  C16 UNL     1      -4.196   3.778  28.052  1.00  0.00     0.106 A 
HETATM   21  C15 UNL     1      -3.223   4.243  28.913  1.00  0.00     0.063 A 
HETATM   22 CL2  UNL     1      -5.369   2.579  28.569  1.00  0.00    -0.078 Cl
HETATM   23  C14 UNL     1      -2.310   5.185  28.491  1.00  0.00     0.076 A 
HETATM   24 CL1  UNL     1      -3.146   3.633  30.552  1.00  0.00    -0.082 Cl
BRANCH  18  25
HETATM   25  O1  UNL     1      -5.202   3.836  25.855  1.00  0.00    -0.339 OA
HETATM   26  C1  UNL     1      -4.914   2.769  24.979  1.00  0.00     0.211 C 
ENDBRANCH  18  25
ENDBRANCH   1  16
BRANCH   9  27
HETATM   27  N4  UNL     1       2.401  10.762  25.394  1.00  0.00    -0.074 N 
ATOM     28  H43 UNL     1       3.124  11.216  24.835  1.00  0.00     0.274 HD
ATOM     29  H42 UNL     1       1.673  11.465  25.265  1.00  0.00     0.274 HD
ATOM     30  H41 UNL     1       2.670  10.643  26.371  1.00  0.00     0.274 HD
ENDBRANCH   9  27
TORSDOF 3
ENDMDL
MODEL 4
REMARK VINA RESULT: -6.983917662      2.045      2.301
REMARK  3 active torsions:
REMARK  status: ('A' for Active; 'I' for Inactive)
REMARK    1  A    between atoms: O1_2  and  C2_3 
REMARK    2  A    between atoms: C3_6  and  N2_7 
REMARK    3  A    between atoms: C9_15  and  N4_16 
ROOT
HETATM    1  N2  UNL     1      -1.121   6.013  26.117  1.00  0.00    -0.280 N 
HETATM    2  C4  UNL     1       0.220   6.039  26.672  1.00  0.00     0.153 C 
HETATM    3  C5  UNL     1       1.140   6.416  25.561  1.00  0.00     0.056 C 
HETATM    4  C6  UNL     1       0.731   7.680  24.834  1.00  0.00     0.062 C 
HETATM    5  N3  UNL     1       1.540   7.833  23.677  1.00  0.00    -0.390 N 
ATOM      6  H3  UNL     1       2.036   7.038  23.274  1.00  0.00     0.159 HD
HETATM    7  C7  UNL     1       1.636   9.115  23.103  1.00  0.00     0.058 C 
HETATM    8  C8  UNL     1       1.912  10.242  24.050  1.00  0.00     0.077 C 
HETATM    9  C9  UNL     1       1.929   9.708  25.458  1.00  0.00     0.194 C 
HETATM   10  C10 UNL     1       0.742   8.866  25.768  1.00  0.00     0.049 C 
HETATM   11  C11 UNL     1      -0.571   9.294  25.156  1.00  0.00     0.044 C 
HETATM   12  C12 UNL     1      -0.724   7.847  24.663  1.00  0.00     0.068 C 
HETATM   13  C13 UNL     1      -1.173   7.751  23.217  1.00  0.00     0.042 C 
HETATM   14  N5  UNL     1      -1.575   7.132  25.517  1.00  0.00    -0.321 N 
ATOM     15  H5  UNL     1      -2.529   7.454  25.682  1.00  0.00     0.181 HD
ENDROOT
BRANCH   1  16
HETATM   16  C3  UNL     1      -1.881   4.830  26.232  1.00  0.00     0.125 A 
HETATM   17  N1  UNL     1      -3.233   4.862  26.230  1.00  0.00    -0.320 N 
HETATM   18  C2  UNL     1      -4.023   3.808  26.333  1.00  0.00     0.167 A 
ATOM     19  H1  UNL     1      -3.679   5.775  26.142  1.00  0.00     0.169 HD
HETATM   20  C16 UNL     1      -3.466   2.562  26.453  1.00  0.00     0.106 A 
HETATM   21  C15 UNL     1      -2.090   2.451  26.463  1.00  0.00     0.063 A 
HETATM   22 CL2  UNL     1      -4.491   1.144  26.592  1.00  0.00    -0.078 Cl
HETATM   23  C14 UNL     1      -1.299   3.574  26.354  1.00  0.00     0.076 A 
HETATM   24 CL1  UNL     1      -1.343   0.876  26.616  1.00  0.00    -0.082 Cl
BRANCH  18  25
HETATM   25  O1  UNL     1      -5.419   3.979  26.317  1.00  0.00    -0.339 OA
HETATM   26  C1  UNL     1      -6.130   4.085  27.530  1.00  0.00     0.211 C 
ENDBRANCH  18  25
ENDBRANCH   1  16
BRANCH   9  27
HETATM   27  N4  UNL     1       2.078  10.838  26.350  1.00  0.00    -0.074 N 
ATOM     28  H43 UNL     1       2.986  10.863  26.813  1.00  0.00     0.274 HD
ATOM     29  H42 UNL     1       2.156  11.727  25.855  1.00  0.00     0.274 HD
ATOM     30  H41 UNL     1       1.298  10.815  27.007  1.00  0.00     0.274 HD
ENDBRANCH   9  27
TORSDOF 3
ENDMDL
MODEL 5
REMARK VINA RESULT: -6.770759461      3.977      7.151
REMARK  3 active torsions:
REMARK  status: ('A' for Active; 'I' for Inactive)
REMARK    1  A    between atoms: O1_2  and  C2_3 
REMARK    2  A    between atoms: C3_6  and  N2_7 
REMARK    3  A    between atoms: C9_15  and  N4_16 
ROOT
HETATM    1  N2  UNL     1      -1.115   7.339  26.104  1.00  0.00    -0.280 N 
HETATM    2  C4  UNL     1      -0.228   6.279  25.658  1.00  0.00     0.153 C 
HETATM    3  C5  UNL     1      -0.186   5.264  26.748  1.00  0.00     0.056 C 
HETATM    4  C6  UNL     1      -1.555   4.796  27.198  1.00  0.00     0.062 C 
HETATM    5  N3  UNL     1      -1.414   4.001  28.365  1.00  0.00    -0.390 N 
ATOM      6  H3  UNL     1      -0.576   4.061  28.943  1.00  0.00     0.159 HD
HETATM    7  C7  UNL     1      -2.465   3.127  28.701  1.00  0.00     0.058 C 
HETATM    8  C8  UNL     1      -2.996   2.277  27.587  1.00  0.00     0.077 C 
HETATM    9  C9  UNL     1      -2.300   2.655  26.306  1.00  0.00     0.194 C 
HETATM   10  C10 UNL     1      -2.293   4.123  26.066  1.00  0.00     0.049 C 
HETATM   11  C11 UNL     1      -3.528   4.884  26.486  1.00  0.00     0.044 C 
HETATM   12  C12 UNL     1      -2.586   5.850  27.223  1.00  0.00     0.068 C 
HETATM   13  C13 UNL     1      -3.057   6.194  28.624  1.00  0.00     0.042 C 
HETATM   14  N5  UNL     1      -2.373   7.001  26.453  1.00  0.00    -0.321 N 
ATOM     15  H5  UNL     1      -3.161   7.578  26.160  1.00  0.00     0.181 HD
ENDROOT
BRANCH   1  16
HETATM   16  C3  UNL     1      -0.624   8.661  26.150  1.00  0.00     0.125 A 
HETATM   17  N1  UNL     1       0.696   8.924  26.025  1.00  0.00    -0.320 N 
HETATM   18  C2  UNL     1       1.243  10.126  26.057  1.00  0.00     0.167 A 
ATOM     19  H1  UNL     1       1.322   8.128  25.897  1.00  0.00     0.169 HD
HETATM   20  C16 UNL     1       0.440  11.223  26.229  1.00  0.00     0.106 A 
HETATM   21  C15 UNL     1      -0.920  11.032  26.363  1.00  0.00     0.063 A 
HETATM   22 CL2  UNL     1       1.138  12.833  26.275  1.00  0.00    -0.078 Cl
HETATM   23  C14 UNL     1      -1.454   9.762  26.325  1.00  0.00     0.076 A 
HETATM   24 CL1  UNL     1      -1.977  12.410  26.584  1.00  0.00    -0.082 Cl
BRANCH  18  25
HETATM   25  O1  UNL     1       2.635  10.263  25.915  1.00  0.00    -0.339 OA
HETATM   26  C1  UNL     1       3.198  10.454  24.636  1.00  0.00     0.211 C 
ENDBRANCH  18  25
ENDBRANCH   1  16
BRANCH   9  27
HETATM   27  N4  UNL     1      -2.921   1.903  25.236  1.00  0.00    -0.074 N 
ATOM     28  H43 UNL     1      -2.782   0.896  25.325  1.00  0.00     0.274 HD
ATOM     29  H42 UNL     1      -3.939   1.901  25.290  1.00  0.00     0.274 HD
ATOM     30  H41 UNL     1      -2.569   2.276  24.354  1.00  0.00     0.274 HD
ENDBRANCH   9  27
TORSDOF 3
ENDMDL
