MODEL 1
REMARK VINA RESULT: -7.770698379      0.000      0.000
REMARK  3 active torsions:
REMARK  status: ('A' for Active; 'I' for Inactive)
REMARK    1  A    between atoms: C4_6  and  C5_7 
REMARK    2  A    between atoms: C7_11  and  C8_12 
REMARK    3  A    between atoms: C15_27  and  N6_28 
ROOT
HETATM    1  C1  UNL     1       1.079   7.594  23.622  1.00  0.00     0.018 C 
HETATM    2  C2  UNL     1       1.319   8.177  25.013  1.00  0.00     0.053 C 
HETATM    3  C3  UNL     1      -0.011   8.256  25.672  1.00  0.00     0.027 A 
HETATM    4  N1  UNL     1      -0.839   7.275  26.078  1.00  0.00    -0.343 N 
ATOM      5  H1  UNL     1      -0.552   6.307  25.934  1.00  0.00     0.167 HD
HETATM    6  C4  UNL     1      -2.021   7.510  26.665  1.00  0.00     0.135 A 
HETATM    7  N5  UNL     1      -2.369   8.803  26.842  1.00  0.00    -0.331 N 
ATOM      8  H5  UNL     1      -3.263   9.013  27.287  1.00  0.00     0.168 HD
HETATM    9  C13 UNL     1      -1.580   9.828  26.455  1.00  0.00     0.115 A 
HETATM   10 CL1  UNL     1      -2.056  11.506  26.698  1.00  0.00    -0.064 Cl
HETATM   11  C14 UNL     1      -0.380   9.571  25.859  1.00  0.00     0.035 A 
HETATM   12  C15 UNL     1       0.672  10.479  25.342  1.00  0.00     0.240 C 
HETATM   13  C16 UNL     1       1.801   9.584  24.907  1.00  0.00     0.127 C 
HETATM   14 CL2  UNL     1       2.316   9.938  23.241  1.00  0.00    -0.122 Cl
ENDROOT
BRANCH   6  15
HETATM   15  C5  UNL     1      -2.903   6.423  27.098  1.00  0.00     0.093 A 
HETATM   16  C6  UNL     1      -3.222   6.204  28.420  1.00  0.00     0.122 A 
HETATM   17  N2  UNL     1      -4.040   5.143  28.466  1.00  0.00    -0.353 N 
HETATM   18  C7  UNL     1      -4.219   4.721  27.210  1.00  0.00     0.086 A 
ATOM     19  H2  UNL     1      -4.451   4.732  29.305  1.00  0.00     0.166 HD
HETATM   20  N4  UNL     1      -3.528   5.500  26.391  1.00  0.00    -0.341 N 
ATOM     21  H4  UNL     1      -3.486   5.402  25.376  1.00  0.00     0.167 HD
BRANCH  18  22
HETATM   22  C8  UNL     1      -5.088   3.535  26.882  1.00  0.00     0.056 C 
HETATM   23  C9  UNL     1      -4.439   2.334  27.530  1.00  0.00     0.040 C 
HETATM   24  C10 UNL     1      -5.372   1.145  27.574  1.00  0.00     0.233 C 
HETATM   25  N3  UNL     1      -6.679   1.472  28.049  1.00  0.00    -0.075 N 
HETATM   26  C11 UNL     1      -6.743   2.801  28.574  1.00  0.00     0.233 C 
ATOM     27  H32 UNL     1      -7.384   1.326  27.325  1.00  0.00     0.277 HD
ATOM     28  H31 UNL     1      -7.006   0.788  28.732  1.00  0.00     0.277 HD
HETATM   29  C12 UNL     1      -6.472   3.777  27.443  1.00  0.00     0.040 C 
ENDBRANCH  18  22
ENDBRANCH   6  15
BRANCH  12  30
HETATM   30  N6  UNL     1       1.170  11.332  26.406  1.00  0.00    -0.069 N 
ATOM     31  H63 UNL     1       2.018  10.956  26.829  1.00  0.00     0.275 HD
ATOM     32  H62 UNL     1       1.557  12.204  26.045  1.00  0.00     0.275 HD
ATOM     33  H61 UNL     1       0.440  11.499  27.099  1.00  0.00     0.275 HD
ENDBRANCH  12  30
TORSDOF 3
ENDMDL
MODEL 2
REMARK VINA RESULT: -7.582905302      3.124      8.315
REMARK  3 active torsions:
REMARK  status: ('A' for Active; 'I' for Inactive)
REMARK    1  A    between atoms: C4_6  and  C5_7 
REMARK    2  A    between atoms: C7_11  and  C8_12 
REMARK    3  A    between atoms: C15_27  and  N6_28 
ROOT
HETATM    1  C1  UNL     1      -2.259   2.395  25.293  1.00  0.00     0.018 C 
HETATM    2  C2  UNL     1      -3.361   3.422  25.547  1.00  0.00     0.053 C 
HETATM    3  C3  UNL     1      -2.729   4.545  26.288  1.00  0.00     0.027 A 
HETATM    4  N1  UNL     1      -1.804   5.437  25.887  1.00  0.00    -0.343 N 
ATOM      5  H1  UNL     1      -1.449   5.375  24.933  1.00  0.00     0.167 HD
HETATM    6  C4  UNL     1      -1.327   6.405  26.683  1.00  0.00     0.135 A 
HETATM    7  N5  UNL     1      -1.819   6.460  27.940  1.00  0.00    -0.331 N 
ATOM      8  H5  UNL     1      -1.475   7.187  28.568  1.00  0.00     0.168 HD
HETATM    9  C13 UNL     1      -2.747   5.592  28.397  1.00  0.00     0.115 A 
HETATM   10 CL1  UNL     1      -3.374   5.686  30.040  1.00  0.00    -0.064 Cl
HETATM   11  C14 UNL     1      -3.222   4.614  27.573  1.00  0.00     0.035 A 
HETATM   12  C15 UNL     1      -4.224   3.544  27.799  1.00  0.00     0.240 C 
HETATM   13  C16 UNL     1      -4.390   2.859  26.469  1.00  0.00     0.127 C 
HETATM   14 CL2  UNL     1      -4.197   1.096  26.609  1.00  0.00    -0.122 Cl
ENDROOT
BRANCH   6  15
HETATM   15  C5  UNL     1      -0.319   7.364  26.223  1.00  0.00     0.093 A 
HETATM   16  C6  UNL     1       0.879   6.976  25.665  1.00  0.00     0.122 A 
HETATM   17  N2  UNL     1       1.559   8.090  25.358  1.00  0.00    -0.353 N 
HETATM   18  C7  UNL     1       0.802   9.132  25.717  1.00  0.00     0.086 A 
ATOM     19  H2  UNL     1       2.483   8.134  24.929  1.00  0.00     0.166 HD
HETATM   20  N4  UNL     1      -0.330   8.684  26.239  1.00  0.00    -0.341 N 
ATOM     21  H4  UNL     1      -1.088   9.266  26.596  1.00  0.00     0.167 HD
BRANCH  18  22
HETATM   22  C8  UNL     1       1.256  10.555  25.518  1.00  0.00     0.056 C 
HETATM   23  C9  UNL     1       0.338  11.419  26.352  1.00  0.00     0.040 C 
HETATM   24  C10 UNL     1       0.881  12.820  26.519  1.00  0.00     0.233 C 
HETATM   25  N3  UNL     1       2.261  12.848  26.890  1.00  0.00    -0.075 N 
HETATM   26  C11 UNL     1       2.755  11.548  27.224  1.00  0.00     0.233 C 
ATOM     27  H32 UNL     1       2.831  13.285  26.164  1.00  0.00     0.277 HD
ATOM     28  H31 UNL     1       2.427  13.513  27.646  1.00  0.00     0.277 HD
HETATM   29  C12 UNL     1       2.690  10.677  25.982  1.00  0.00     0.040 C 
ENDBRANCH  18  22
ENDBRANCH   6  15
BRANCH  12  30
HETATM   30  N6  UNL     1      -5.506   4.120  28.161  1.00  0.00    -0.069 N 
ATOM     31  H63 UNL     1      -5.488   5.139  28.124  1.00  0.00     0.275 HD
ATOM     32  H62 UNL     1      -6.212   3.956  27.445  1.00  0.00     0.275 HD
ATOM     33  H61 UNL     1      -5.803   3.778  29.075  1.00  0.00     0.275 HD
ENDBRANCH  12  30
TORSDOF 3
ENDMDL
MODEL 3
REMARK VINA RESULT: -7.384169908      3.318      8.402
REMARK  3 active torsions:
REMARK  status: ('A' for Active; 'I' for Inactive)
REMARK    1  A    between atoms: C4_6  and  C5_7 
REMARK    2  A    between atoms: C7_11  and  C8_12 
REMARK    3  A    between atoms: C15_27  and  N6_28 
ROOT
HETATM    1  C1  UNL     1      -2.185   4.500  31.442  1.00  0.00     0.018 C 
HETATM    2  C2  UNL     1      -2.033   3.590  30.226  1.00  0.00     0.053 C 
HETATM    3  C3  UNL     1      -2.323   4.427  29.033  1.00  0.00     0.027 A 
HETATM    4  N1  UNL     1      -1.638   5.463  28.512  1.00  0.00    -0.343 N 
ATOM      5  H1  UNL     1      -0.777   5.756  28.972  1.00  0.00     0.167 HD
HETATM    6  C4  UNL     1      -2.035   6.125  27.416  1.00  0.00     0.135 A 
HETATM    7  N5  UNL     1      -3.178   5.709  26.830  1.00  0.00    -0.331 N 
ATOM      8  H5  UNL     1      -3.504   6.194  25.994  1.00  0.00     0.168 HD
HETATM    9  C13 UNL     1      -3.907   4.677  27.308  1.00  0.00     0.115 A 
HETATM   10 CL1  UNL     1      -5.395   4.153  26.526  1.00  0.00    -0.064 Cl
HETATM   11  C14 UNL     1      -3.489   4.014  28.425  1.00  0.00     0.035 A 
HETATM   12  C15 UNL     1      -4.075   2.867  29.160  1.00  0.00     0.240 C 
HETATM   13  C16 UNL     1      -3.082   2.530  30.240  1.00  0.00     0.127 C 
HETATM   14 CL2  UNL     1      -3.856   2.446  31.840  1.00  0.00    -0.122 Cl
ENDROOT
BRANCH   6  15
HETATM   15  C5  UNL     1      -1.271   7.249  26.869  1.00  0.00     0.093 A 
HETATM   16  C6  UNL     1       0.076   7.172  26.592  1.00  0.00     0.122 A 
HETATM   17  N2  UNL     1       0.458   8.362  26.109  1.00  0.00    -0.353 N 
HETATM   18  C7  UNL     1      -0.622   9.150  26.089  1.00  0.00     0.086 A 
ATOM     19  H2  UNL     1       1.399   8.620  25.812  1.00  0.00     0.166 HD
HETATM   20  N4  UNL     1      -1.661   8.470  26.550  1.00  0.00    -0.341 N 
ATOM     21  H4  UNL     1      -2.610   8.831  26.643  1.00  0.00     0.167 HD
BRANCH  18  22
HETATM   22  C8  UNL     1      -0.563  10.574  25.601  1.00  0.00     0.056 C 
HETATM   23  C9  UNL     1      -1.521  11.364  26.464  1.00  0.00     0.040 C 
HETATM   24  C10 UNL     1      -1.314  12.854  26.316  1.00  0.00     0.233 C 
HETATM   25  N3  UNL     1       0.059  13.243  26.403  1.00  0.00    -0.075 N 
HETATM   26  C11 UNL     1       0.898  12.163  26.821  1.00  0.00     0.233 C 
ATOM     27  H32 UNL     1       0.385  13.647  25.525  1.00  0.00     0.277 HD
ATOM     28  H31 UNL     1       0.175  14.056  27.008  1.00  0.00     0.277 HD
HETATM   29  C12 UNL     1       0.854  11.082  25.755  1.00  0.00     0.040 C 
ENDBRANCH  18  22
ENDBRANCH   6  15
BRANCH  12  30
HETATM   30  N6  UNL     1      -4.185   1.712  28.287  1.00  0.00    -0.069 N 
ATOM     31  H63 UNL     1      -4.749   1.912  27.461  1.00  0.00     0.275 HD
ATOM     32  H62 UNL     1      -3.304   1.502  27.820  1.00  0.00     0.275 HD
ATOM     33  H61 UNL     1      -4.541   0.908  28.805  1.00  0.00     0.275 HD
ENDBRANCH  12  30
TORSDOF 3
ENDMDL
MODEL 4
REMARK VINA RESULT: -7.352753885      3.393      8.357
REMARK  3 active torsions:
REMARK  status: ('A' for Active; 'I' for Inactive)
REMARK    1  A    between atoms: C4_6  and  C5_7 
REMARK    2  A    between atoms: C7_11  and  C8_12 
REMARK    3  A    between atoms: C15_27  and  N6_28 
ROOT
HETATM    1  C1  UNL     1      -0.099   1.879  26.953  1.00  0.00     0.018 C 
HETATM    2  C2  UNL     1      -1.480   2.468  26.672  1.00  0.00     0.053 C 
HETATM    3  C3  UNL     1      -1.397   3.915  27.003  1.00  0.00     0.027 A 
HETATM    4  N1  UNL     1      -0.705   4.904  26.406  1.00  0.00    -0.343 N 
ATOM      5  H1  UNL     1      -0.133   4.674  25.593  1.00  0.00     0.167 HD
HETATM    6  C4  UNL     1      -0.732   6.176  26.828  1.00  0.00     0.135 A 
HETATM    7  N5  UNL     1      -1.501   6.445  27.906  1.00  0.00    -0.331 N 
ATOM      8  H5  UNL     1      -1.543   7.405  28.249  1.00  0.00     0.168 HD
HETATM    9  C13 UNL     1      -2.216   5.495  28.546  1.00  0.00     0.115 A 
HETATM   10 CL1  UNL     1      -3.211   5.872  29.949  1.00  0.00    -0.064 Cl
HETATM   11  C14 UNL     1      -2.176   4.205  28.102  1.00  0.00     0.035 A 
HETATM   12  C15 UNL     1      -2.846   2.977  28.597  1.00  0.00     0.240 C 
HETATM   13  C16 UNL     1      -2.487   1.897  27.613  1.00  0.00     0.127 C 
HETATM   14 CL2  UNL     1      -1.826   0.460  28.428  1.00  0.00    -0.122 Cl
ENDROOT
BRANCH   6  15
HETATM   15  C5  UNL     1       0.030   7.233  26.160  1.00  0.00     0.093 A 
HETATM   16  C6  UNL     1       0.929   6.979  25.148  1.00  0.00     0.122 A 
HETATM   17  N2  UNL     1       1.446   8.154  24.763  1.00  0.00    -0.353 N 
HETATM   18  C7  UNL     1       0.883   9.104  25.517  1.00  0.00     0.086 A 
ATOM     19  H2  UNL     1       2.141   8.298  24.031  1.00  0.00     0.166 HD
HETATM   20  N4  UNL     1       0.029   8.539  26.358  1.00  0.00    -0.341 N 
ATOM     21  H4  UNL     1      -0.537   9.033  27.048  1.00  0.00     0.167 HD
BRANCH  18  22
HETATM   22  C8  UNL     1       1.232  10.561  25.359  1.00  0.00     0.056 C 
HETATM   23  C9  UNL     1       0.286  11.329  26.253  1.00  0.00     0.040 C 
HETATM   24  C10 UNL     1       0.739  12.757  26.457  1.00  0.00     0.233 C 
HETATM   25  N3  UNL     1       2.125  12.868  26.785  1.00  0.00    -0.075 N 
HETATM   26  C11 UNL     1       2.717  11.593  27.054  1.00  0.00     0.233 C 
ATOM     27  H32 UNL     1       2.639  13.368  26.059  1.00  0.00     0.277 HD
ATOM     28  H31 UNL     1       2.271  13.514  27.560  1.00  0.00     0.277 HD
HETATM   29  C12 UNL     1       2.670  10.765  25.782  1.00  0.00     0.040 C 
ENDBRANCH  18  22
ENDBRANCH   6  15
BRANCH  12  30
HETATM   30  N6  UNL     1      -4.288   3.141  28.566  1.00  0.00    -0.069 N 
ATOM     31  H63 UNL     1      -4.616   3.758  29.308  1.00  0.00     0.275 HD
ATOM     32  H62 UNL     1      -4.590   3.695  27.765  1.00  0.00     0.275 HD
ATOM     33  H61 UNL     1      -4.749   2.232  28.594  1.00  0.00     0.275 HD
ENDBRANCH  12  30
TORSDOF 3
ENDMDL
MODEL 5
REMARK VINA RESULT: -7.342348244      5.801      8.580
REMARK  3 active torsions:
REMARK  status: ('A' for Active; 'I' for Inactive)
REMARK    1  A    between atoms: C4_6  and  C5_7 
REMARK    2  A    between atoms: C7_11  and  C8_12 
REMARK    3  A    between atoms: C15_27  and  N6_28 
ROOT
HETATM    1  C1  UNL     1       1.714   3.820  18.932  1.00  0.00     0.018 C 
HETATM    2  C2  UNL     1       0.785   4.868  18.322  1.00  0.00     0.053 C 
HETATM    3  C3  UNL     1       0.095   5.533  19.459  1.00  0.00     0.027 A 
HETATM    4  N1  UNL     1       0.586   6.334  20.423  1.00  0.00    -0.343 N 
ATOM      5  H1  UNL     1       1.583   6.549  20.416  1.00  0.00     0.167 HD
HETATM    6  C4  UNL     1      -0.174   6.863  21.393  1.00  0.00     0.135 A 
HETATM    7  N5  UNL     1      -1.490   6.560  21.371  1.00  0.00    -0.331 N 
ATOM      8  H5  UNL     1      -2.094   6.950  22.095  1.00  0.00     0.168 HD
HETATM    9  C13 UNL     1      -2.038   5.763  20.429  1.00  0.00     0.115 A 
HETATM   10 CL1  UNL     1      -3.758   5.383  20.423  1.00  0.00    -0.064 Cl
HETATM   11  C14 UNL     1      -1.249   5.233  19.450  1.00  0.00     0.035 A 
HETATM   12  C15 UNL     1      -1.571   4.342  18.308  1.00  0.00     0.240 C 
HETATM   13  C16 UNL     1      -0.291   4.206  17.529  1.00  0.00     0.127 C 
HETATM   14 CL2  UNL     1       0.120   2.500  17.233  1.00  0.00    -0.122 Cl
ENDROOT
BRANCH   6  15
HETATM   15  C5  UNL     1       0.385   7.732  22.431  1.00  0.00     0.093 A 
HETATM   16  C6  UNL     1       1.617   8.336  22.315  1.00  0.00     0.122 A 
HETATM   17  N2  UNL     1       1.821   9.053  23.428  1.00  0.00    -0.353 N 
HETATM   18  C7  UNL     1       0.747   8.895  24.209  1.00  0.00     0.086 A 
ATOM     19  H2  UNL     1       2.645   9.616  23.642  1.00  0.00     0.166 HD
HETATM   20  N4  UNL     1      -0.115   8.095  23.598  1.00  0.00    -0.341 N 
ATOM     21  H4  UNL     1      -1.020   7.806  23.971  1.00  0.00     0.167 HD
BRANCH  18  22
HETATM   22  C8  UNL     1       0.631   9.563  25.554  1.00  0.00     0.056 C 
HETATM   23  C9  UNL     1       1.379  10.872  25.449  1.00  0.00     0.040 C 
HETATM   24  C10 UNL     1       1.062  11.796  26.603  1.00  0.00     0.233 C 
HETATM   25  N3  UNL     1      -0.338  11.905  26.869  1.00  0.00    -0.075 N 
HETATM   26  C11 UNL     1      -1.128  11.284  25.850  1.00  0.00     0.233 C 
ATOM     27  H32 UNL     1      -0.569  11.537  27.792  1.00  0.00     0.277 HD
ATOM     28  H31 UNL     1      -0.612  12.877  27.009  1.00  0.00     0.277 HD
HETATM   29  C12 UNL     1      -0.833   9.795  25.856  1.00  0.00     0.040 C 
ENDBRANCH  18  22
ENDBRANCH   6  15
BRANCH  12  30
HETATM   30  N6  UNL     1      -2.551   4.969  17.439  1.00  0.00    -0.069 N 
ATOM     31  H63 UNL     1      -3.486   4.590  17.586  1.00  0.00     0.275 HD
ATOM     32  H62 UNL     1      -2.736   5.935  17.710  1.00  0.00     0.275 HD
ATOM     33  H61 UNL     1      -2.259   4.897  16.465  1.00  0.00     0.275 HD
ENDBRANCH  12  30
TORSDOF 3
ENDMDL
