MODEL 1
REMARK VINA RESULT: -7.853565051      0.000      0.000
REMARK  5 active torsions:
REMARK  status: ('A' for Active; 'I' for Inactive)
REMARK    1  A    between atoms: N1_1  and  C1_4 
REMARK    2  A    between atoms: C4_9  and  S1_10 
REMARK    3  A    between atoms: S1_10  and  C5_11 
REMARK    4  A    between atoms: C5_11  and  C6_12 
REMARK       I    between atoms: C6_12  and  N3_14 
REMARK    5  A    between atoms: N3_14  and  C7_16 
ROOT
HETATM    1  C1  UNL     1       2.658  12.345  27.168  1.00  0.00     0.676 A 
HETATM    2  N2  UNL     1       1.452  12.793  27.549  1.00  0.00    -0.195 N 
ATOM      3  H2  UNL     1       1.403  13.485  28.298  1.00  0.00     0.184 HD
HETATM    4  C2  UNL     1       0.311  12.372  26.993  1.00  0.00     0.035 A 
HETATM    5  C3  UNL     1       0.386  11.432  25.976  1.00  0.00    -0.001 A 
HETATM    6  C4  UNL     1       1.612  10.962  25.571  1.00  0.00     0.094 A 
HETATM    7  N5  UNL     1       2.728  11.439  26.188  1.00  0.00    -0.185 N 
ATOM      8  H5  UNL     1       3.642  11.096  25.895  1.00  0.00     0.185 HD
HETATM    9  C10 UNL     1      -0.994  11.113  25.529  1.00  0.00     0.044 C 
HETATM   10  C11 UNL     1      -1.821  11.427  26.756  1.00  0.00     0.011 C 
HETATM   11  C12 UNL     1      -1.134  12.710  27.246  1.00  0.00     0.058 C 
ENDROOT
BRANCH   6  12
HETATM   12  S1  UNL     1       1.805   9.743  24.295  1.00  0.00    -0.102 SA
BRANCH  12  13
HETATM   13  C5  UNL     1       1.158   8.157  24.826  1.00  0.00     0.184 C 
BRANCH  13  14
HETATM   14  C6  UNL     1       0.146   7.630  23.898  1.00  0.00     0.233 C 
HETATM   15  O1  UNL     1       0.434   6.985  22.874  1.00  0.00    -0.272 OA
HETATM   16  N3  UNL     1      -1.243   7.883  24.208  1.00  0.00    -0.306 N 
ATOM     17  H3  UNL     1      -1.791   8.584  23.708  1.00  0.00     0.171 HD
BRANCH  16  18
HETATM   18  C7  UNL     1      -1.760   7.150  25.179  1.00  0.00     0.153 A 
HETATM   19  N4  UNL     1      -2.179   5.882  25.152  1.00  0.00    -0.325 N 
HETATM   20  C8  UNL     1      -2.656   5.363  26.244  1.00  0.00     0.134 A 
ATOM     21  H4  UNL     1      -2.126   5.334  24.293  1.00  0.00     0.169 HD
HETATM   22 CL1  UNL     1      -3.256   3.676  26.340  1.00  0.00    -0.062 Cl
HETATM   23  C9  UNL     1      -2.700   6.152  27.364  1.00  0.00     0.116 A 
HETATM   24 CL2  UNL     1      -3.289   5.741  28.989  1.00  0.00    -0.073 Cl
HETATM   25  S2  UNL     1      -2.048   7.620  26.792  1.00  0.00    -0.038 SA
ENDBRANCH  16  18
ENDBRANCH  13  14
ENDBRANCH  12  13
ENDBRANCH   6  12
BRANCH   1  26
HETATM   26  N1  UNL     1       3.724  12.805  27.763  1.00  0.00    -0.234 N 
ATOM     27  H12 UNL     1       4.548  13.104  27.240  1.00  0.00     0.174 HD
ATOM     28  H11 UNL     1       3.738  12.868  28.781  1.00  0.00     0.174 HD
ENDBRANCH   1  26
TORSDOF 5
ENDMDL
MODEL 2
REMARK VINA RESULT: -7.770970304      1.511      1.967
REMARK  5 active torsions:
REMARK  status: ('A' for Active; 'I' for Inactive)
REMARK    1  A    between atoms: N1_1  and  C1_4 
REMARK    2  A    between atoms: C4_9  and  S1_10 
REMARK    3  A    between atoms: S1_10  and  C5_11 
REMARK    4  A    between atoms: C5_11  and  C6_12 
REMARK       I    between atoms: C6_12  and  N3_14 
REMARK    5  A    between atoms: N3_14  and  C7_16 
ROOT
HETATM    1  C1  UNL     1       2.544  12.002  27.071  1.00  0.00     0.676 A 
HETATM    2  N2  UNL     1       1.434  12.747  27.189  1.00  0.00    -0.195 N 
ATOM      3  H2  UNL     1       1.500  13.650  27.659  1.00  0.00     0.184 HD
HETATM    4  C2  UNL     1       0.244  12.358  26.718  1.00  0.00     0.035 A 
HETATM    5  C3  UNL     1       0.162  11.129  26.081  1.00  0.00    -0.001 A 
HETATM    6  C4  UNL     1       1.288  10.352  25.950  1.00  0.00     0.094 A 
HETATM    7  N5  UNL     1       2.462  10.819  26.457  1.00  0.00    -0.185 N 
ATOM      8  H5  UNL     1       3.303  10.249  26.365  1.00  0.00     0.185 HD
HETATM    9  C10 UNL     1      -1.245  10.911  25.660  1.00  0.00     0.044 C 
HETATM   10  C11 UNL     1      -2.021  11.757  26.647  1.00  0.00     0.011 C 
HETATM   11  C12 UNL     1      -1.119  12.997  26.734  1.00  0.00     0.058 C 
ENDROOT
BRANCH   6  12
HETATM   12  S1  UNL     1       1.275   8.757  25.170  1.00  0.00    -0.102 SA
BRANCH  12  13
HETATM   13  C5  UNL     1       0.236   7.612  26.079  1.00  0.00     0.184 C 
BRANCH  13  14
HETATM   14  C6  UNL     1      -0.973   7.244  25.328  1.00  0.00     0.233 C 
HETATM   15  O1  UNL     1      -0.940   6.707  24.207  1.00  0.00    -0.272 OA
HETATM   16  N3  UNL     1      -2.253   7.524  25.941  1.00  0.00    -0.306 N 
ATOM     17  H3  UNL     1      -2.839   8.302  25.639  1.00  0.00     0.171 HD
BRANCH  16  18
HETATM   18  C7  UNL     1      -2.616   6.710  26.917  1.00  0.00     0.153 A 
HETATM   19  N4  UNL     1      -2.686   6.941  28.230  1.00  0.00    -0.325 N 
HETATM   20  C8  UNL     1      -3.077   5.976  29.010  1.00  0.00     0.134 A 
ATOM     21  H4  UNL     1      -2.438   7.853  28.613  1.00  0.00     0.169 HD
HETATM   22 CL1  UNL     1      -3.208   6.153  30.789  1.00  0.00    -0.062 Cl
HETATM   23  C9  UNL     1      -3.394   4.774  28.433  1.00  0.00     0.116 A 
HETATM   24 CL2  UNL     1      -3.952   3.280  29.216  1.00  0.00    -0.073 Cl
HETATM   25  S2  UNL     1      -3.116   5.086  26.780  1.00  0.00    -0.038 SA
ENDBRANCH  16  18
ENDBRANCH  13  14
ENDBRANCH  12  13
ENDBRANCH   6  12
BRANCH   1  26
HETATM   26  N1  UNL     1       3.667  12.453  27.559  1.00  0.00    -0.234 N 
ATOM     27  H12 UNL     1       4.267  13.090  27.035  1.00  0.00     0.174 HD
ATOM     28  H11 UNL     1       3.957  12.160  28.492  1.00  0.00     0.174 HD
ENDBRANCH   1  26
TORSDOF 5
ENDMDL
MODEL 3
REMARK VINA RESULT: -7.578525152      3.737      4.670
REMARK  5 active torsions:
REMARK  status: ('A' for Active; 'I' for Inactive)
REMARK    1  A    between atoms: N1_1  and  C1_4 
REMARK    2  A    between atoms: C4_9  and  S1_10 
REMARK    3  A    between atoms: S1_10  and  C5_11 
REMARK    4  A    between atoms: C5_11  and  C6_12 
REMARK       I    between atoms: C6_12  and  N3_14 
REMARK    5  A    between atoms: N3_14  and  C7_16 
ROOT
HETATM    1  C1  UNL     1       2.493  10.376  25.879  1.00  0.00     0.676 A 
HETATM    2  N2  UNL     1       1.995  11.604  26.091  1.00  0.00    -0.195 N 
ATOM      3  H2  UNL     1       2.646  12.375  26.242  1.00  0.00     0.184 HD
HETATM    4  C2  UNL     1       0.683  11.862  26.114  1.00  0.00     0.035 A 
HETATM    5  C3  UNL     1      -0.196  10.808  25.909  1.00  0.00    -0.001 A 
HETATM    6  C4  UNL     1       0.296   9.544  25.689  1.00  0.00     0.094 A 
HETATM    7  N5  UNL     1       1.645   9.363  25.681  1.00  0.00    -0.185 N 
ATOM      8  H5  UNL     1       2.019   8.428  25.520  1.00  0.00     0.185 HD
HETATM    9  C10 UNL     1      -1.583  11.331  25.991  1.00  0.00     0.044 C 
HETATM   10  C11 UNL     1      -1.425  12.551  26.872  1.00  0.00     0.011 C 
HETATM   11  C12 UNL     1      -0.106  13.125  26.336  1.00  0.00     0.058 C 
ENDROOT
BRANCH   6  12
HETATM   12  S1  UNL     1      -0.751   8.132  25.439  1.00  0.00    -0.102 SA
BRANCH  12  13
HETATM   13  C5  UNL     1      -0.848   7.712  23.698  1.00  0.00     0.184 C 
BRANCH  13  14
HETATM   14  C6  UNL     1       0.470   7.395  23.129  1.00  0.00     0.233 C 
HETATM   15  O1  UNL     1       1.390   6.879  23.788  1.00  0.00    -0.272 OA
HETATM   16  N3  UNL     1       0.688   7.703  21.732  1.00  0.00    -0.306 N 
ATOM     17  H3  UNL     1       1.244   8.505  21.435  1.00  0.00     0.171 HD
BRANCH  16  18
HETATM   18  C7  UNL     1       0.121   6.882  20.866  1.00  0.00     0.153 A 
HETATM   19  N4  UNL     1       0.676   6.190  19.868  1.00  0.00    -0.325 N 
HETATM   20  C8  UNL     1      -0.088   5.434  19.136  1.00  0.00     0.134 A 
ATOM     21  H4  UNL     1       1.678   6.252  19.684  1.00  0.00     0.169 HD
HETATM   22 CL1  UNL     1       0.530   4.459  17.764  1.00  0.00    -0.062 Cl
HETATM   23  C9  UNL     1      -1.425   5.395  19.434  1.00  0.00     0.116 A 
HETATM   24 CL2  UNL     1      -2.715   4.474  18.631  1.00  0.00    -0.073 Cl
HETATM   25  S2  UNL     1      -1.526   6.455  20.766  1.00  0.00    -0.038 SA
ENDBRANCH  16  18
ENDBRANCH  13  14
ENDBRANCH  12  13
ENDBRANCH   6  12
BRANCH   1  26
HETATM   26  N1  UNL     1       3.787  10.207  25.873  1.00  0.00    -0.234 N 
ATOM     27  H12 UNL     1       4.408  10.804  25.327  1.00  0.00     0.174 HD
ATOM     28  H11 UNL     1       4.193   9.455  26.431  1.00  0.00     0.174 HD
ENDBRANCH   1  26
TORSDOF 5
ENDMDL
MODEL 4
REMARK VINA RESULT: -7.514397701      3.506      4.512
REMARK  5 active torsions:
REMARK  status: ('A' for Active; 'I' for Inactive)
REMARK    1  A    between atoms: N1_1  and  C1_4 
REMARK    2  A    between atoms: C4_9  and  S1_10 
REMARK    3  A    between atoms: S1_10  and  C5_11 
REMARK    4  A    between atoms: C5_11  and  C6_12 
REMARK       I    between atoms: C6_12  and  N3_14 
REMARK    5  A    between atoms: N3_14  and  C7_16 
ROOT
HETATM    1  C1  UNL     1       2.606  10.403  25.863  1.00  0.00     0.676 A 
HETATM    2  N2  UNL     1       2.133  11.631  26.127  1.00  0.00    -0.195 N 
ATOM      3  H2  UNL     1       2.800  12.384  26.300  1.00  0.00     0.184 HD
HETATM    4  C2  UNL     1       0.826  11.912  26.175  1.00  0.00     0.035 A 
HETATM    5  C3  UNL     1      -0.074  10.883  25.939  1.00  0.00    -0.001 A 
HETATM    6  C4  UNL     1       0.391   9.619  25.666  1.00  0.00     0.094 A 
HETATM    7  N5  UNL     1       1.737   9.414  25.636  1.00  0.00    -0.185 N 
ATOM      8  H5  UNL     1       2.091   8.479  25.435  1.00  0.00     0.185 HD
HETATM    9  C10 UNL     1      -1.450  11.427  26.057  1.00  0.00     0.044 C 
HETATM   10  C11 UNL     1      -1.261  12.610  26.982  1.00  0.00     0.011 C 
HETATM   11  C12 UNL     1       0.063  13.180  26.454  1.00  0.00     0.058 C 
ENDROOT
BRANCH   6  12
HETATM   12  S1  UNL     1      -0.684   8.237  25.374  1.00  0.00    -0.102 SA
BRANCH  12  13
HETATM   13  C5  UNL     1      -0.895   7.954  23.616  1.00  0.00     0.184 C 
BRANCH  13  14
HETATM   14  C6  UNL     1       0.324   7.421  22.988  1.00  0.00     0.233 C 
HETATM   15  O1  UNL     1       1.221   6.844  23.627  1.00  0.00    -0.272 OA
HETATM   16  N3  UNL     1       0.466   7.584  21.558  1.00  0.00    -0.306 N 
ATOM     17  H3  UNL     1       1.093   8.278  21.152  1.00  0.00     0.171 HD
BRANCH  16  18
HETATM   18  C7  UNL     1      -0.266   6.778  20.810  1.00  0.00     0.153 A 
HETATM   19  N4  UNL     1      -1.559   6.460  20.922  1.00  0.00    -0.325 N 
HETATM   20  C8  UNL     1      -2.072   5.635  20.058  1.00  0.00     0.134 A 
ATOM     21  H4  UNL     1      -2.130   6.856  21.668  1.00  0.00     0.169 HD
HETATM   22 CL1  UNL     1      -3.790   5.124  20.100  1.00  0.00    -0.062 Cl
HETATM   23  C9  UNL     1      -1.251   5.137  19.080  1.00  0.00     0.116 A 
HETATM   24 CL2  UNL     1      -1.645   4.004  17.770  1.00  0.00    -0.073 Cl
HETATM   25  S2  UNL     1       0.236   5.885  19.448  1.00  0.00    -0.038 SA
ENDBRANCH  16  18
ENDBRANCH  13  14
ENDBRANCH  12  13
ENDBRANCH   6  12
BRANCH   1  26
HETATM   26  N1  UNL     1       3.896  10.211  25.836  1.00  0.00    -0.234 N 
ATOM     27  H12 UNL     1       4.527  10.684  26.483  1.00  0.00     0.174 HD
ATOM     28  H11 UNL     1       4.289   9.569  25.147  1.00  0.00     0.174 HD
ENDBRANCH   1  26
TORSDOF 5
ENDMDL
MODEL 5
REMARK VINA RESULT: -7.506550131      1.935      2.235
REMARK  5 active torsions:
REMARK  status: ('A' for Active; 'I' for Inactive)
REMARK    1  A    between atoms: N1_1  and  C1_4 
REMARK    2  A    between atoms: C4_9  and  S1_10 
REMARK    3  A    between atoms: S1_10  and  C5_11 
REMARK    4  A    between atoms: C5_11  and  C6_12 
REMARK       I    between atoms: C6_12  and  N3_14 
REMARK    5  A    between atoms: N3_14  and  C7_16 
ROOT
HETATM    1  C1  UNL     1       2.797  12.714  28.328  1.00  0.00     0.676 A 
HETATM    2  N2  UNL     1       1.503  13.066  28.367  1.00  0.00    -0.195 N 
ATOM      3  H2  UNL     1       1.194  13.709  29.097  1.00  0.00     0.184 HD
HETATM    4  C2  UNL     1       0.599  12.613  27.491  1.00  0.00     0.035 A 
HETATM    5  C3  UNL     1       1.027  11.740  26.502  1.00  0.00    -0.001 A 
HETATM    6  C4  UNL     1       2.348  11.368  26.446  1.00  0.00     0.094 A 
HETATM    7  N5  UNL     1       3.206  11.873  27.374  1.00  0.00    -0.185 N 
ATOM      8  H5  UNL     1       4.189  11.602  27.340  1.00  0.00     0.185 HD
HETATM    9  C10 UNL     1      -0.144  11.368  25.667  1.00  0.00     0.044 C 
HETATM   10  C11 UNL     1      -1.304  11.559  26.619  1.00  0.00     0.011 C 
HETATM   11  C12 UNL     1      -0.880  12.849  27.335  1.00  0.00     0.058 C 
ENDROOT
BRANCH   6  12
HETATM   12  S1  UNL     1       2.982  10.239  25.230  1.00  0.00    -0.102 SA
BRANCH  12  13
HETATM   13  C5  UNL     1       2.101  10.414  23.678  1.00  0.00     0.184 C 
BRANCH  13  14
HETATM   14  C6  UNL     1       1.870   9.119  23.021  1.00  0.00     0.233 C 
HETATM   15  O1  UNL     1       2.770   8.472  22.457  1.00  0.00    -0.272 OA
HETATM   16  N3  UNL     1       0.525   8.587  23.046  1.00  0.00    -0.306 N 
ATOM     17  H3  UNL     1      -0.081   8.610  22.226  1.00  0.00     0.171 HD
BRANCH  16  18
HETATM   18  C7  UNL     1       0.131   8.069  24.196  1.00  0.00     0.153 A 
HETATM   19  N4  UNL     1      -0.958   8.343  24.919  1.00  0.00    -0.325 N 
HETATM   20  C8  UNL     1      -1.142   7.697  26.033  1.00  0.00     0.134 A 
ATOM     21  H4  UNL     1      -1.630   9.043  24.604  1.00  0.00     0.169 HD
HETATM   22 CL1  UNL     1      -2.557   7.975  27.097  1.00  0.00    -0.062 Cl
HETATM   23  C9  UNL     1      -0.202   6.770  26.399  1.00  0.00     0.116 A 
HETATM   24 CL2  UNL     1      -0.165   5.738  27.845  1.00  0.00    -0.073 Cl
HETATM   25  S2  UNL     1       0.916   6.867  25.115  1.00  0.00    -0.038 SA
ENDBRANCH  16  18
ENDBRANCH  13  14
ENDBRANCH  12  13
ENDBRANCH   6  12
BRANCH   1  26
HETATM   26  N1  UNL     1       3.616  13.200  29.220  1.00  0.00    -0.234 N 
ATOM     27  H12 UNL     1       4.489  12.733  29.464  1.00  0.00     0.174 HD
ATOM     28  H11 UNL     1       3.378  14.073  29.690  1.00  0.00     0.174 HD
ENDBRANCH   1  26
TORSDOF 5
ENDMDL
