MODEL 1
REMARK VINA RESULT: -6.979994365      0.000      0.000
REMARK  3 active torsions:
REMARK  status: ('A' for Active; 'I' for Inactive)
REMARK    1  A    between atoms: C3_5  and  C4_6 
REMARK    2  A    between atoms: C3_5  and  C8_19 
REMARK    3  A    between atoms: C5_9  and  N3_10 
ROOT
HETATM    1  N1  UNL     1       2.506  10.346  22.904  1.00  0.00    -0.190 NA
HETATM    2  C1  UNL     1       1.857   9.617  23.552  1.00  0.00     0.112 C 
HETATM    3  C2  UNL     1       1.042   8.728  24.305  1.00  0.00     0.122 C 
HETATM    4 CL1  UNL     1       0.672   7.172  23.559  1.00  0.00    -0.072 Cl
HETATM    5  C3  UNL     1       0.595   9.051  25.486  1.00  0.00     0.007 C 
ENDROOT
BRANCH   5   6
HETATM    6  C4  UNL     1       0.922  10.326  26.071  1.00  0.00     0.079 A 
HETATM    7  N2  UNL     1       2.196  10.644  26.379  1.00  0.00    -0.190 N 
HETATM    8  C5  UNL     1       2.600  11.794  26.885  1.00  0.00     0.677 A 
ATOM      9  H2  UNL     1       2.908   9.935  26.206  1.00  0.00     0.184 HD
HETATM   10  N4  UNL     1       1.715  12.787  27.143  1.00  0.00    -0.178 N 
HETATM   11  C6  UNL     1       0.422  12.541  26.860  1.00  0.00     0.151 A 
ATOM     12  H4  UNL     1       2.014  13.679  27.535  1.00  0.00     0.185 HD
HETATM   13  N5  UNL     1      -0.549  13.537  27.114  1.00  0.00    -0.081 NA
HETATM   14  C7  UNL     1      -0.001  11.320  26.323  1.00  0.00     0.080 A 
HETATM   15 BR1  UNL     1      -1.848  11.118  25.892  1.00  0.00    -0.045 Br
BRANCH   8  16
HETATM   16  N3  UNL     1       3.849  11.996  27.141  1.00  0.00    -0.234 N 
ATOM     17  H32 UNL     1       4.406  11.222  27.503  1.00  0.00     0.174 HD
ATOM     18  H31 UNL     1       4.269  12.912  26.987  1.00  0.00     0.174 HD
ENDBRANCH   8  16
ENDBRANCH   5   6
BRANCH   5  19
HETATM   19  C8  UNL     1      -0.248   8.058  26.206  1.00  0.00     0.023 C 
HETATM   20  C9  UNL     1      -1.441   7.667  25.357  1.00  0.00     0.009 C 
HETATM   21  C10 UNL     1      -2.234   6.615  26.059  1.00  0.00     0.001 C 
HETATM   22  C11 UNL     1      -1.423   5.435  26.502  1.00  0.00     0.000 C 
HETATM   23  C12 UNL     1      -0.325   5.933  27.421  1.00  0.00     0.001 C 
HETATM   24  C13 UNL     1       0.554   6.863  26.597  1.00  0.00     0.009 C 
ENDBRANCH   5  19
TORSDOF 3
ENDMDL
MODEL 2
REMARK VINA RESULT: -6.931014972      1.940      3.286
REMARK  3 active torsions:
REMARK  status: ('A' for Active; 'I' for Inactive)
REMARK    1  A    between atoms: C3_5  and  C4_6 
REMARK    2  A    between atoms: C3_5  and  C8_19 
REMARK    3  A    between atoms: C5_9  and  N3_10 
ROOT
HETATM    1  N1  UNL     1      -1.268  12.871  25.985  1.00  0.00    -0.190 NA
HETATM    2  C1  UNL     1      -1.432  11.732  26.207  1.00  0.00     0.112 C 
HETATM    3  C2  UNL     1      -1.641  10.362  26.518  1.00  0.00     0.122 C 
HETATM    4 CL1  UNL     1      -3.192   9.945  27.251  1.00  0.00    -0.072 Cl
HETATM    5  C3  UNL     1      -0.731   9.462  26.271  1.00  0.00     0.007 C 
ENDROOT
BRANCH   5   6
HETATM    6  C4  UNL     1       0.521   9.833  25.664  1.00  0.00     0.079 A 
HETATM    7  N2  UNL     1       1.428  10.570  26.336  1.00  0.00    -0.190 N 
HETATM    8  C5  UNL     1       2.614  10.933  25.883  1.00  0.00     0.677 A 
ATOM      9  H2  UNL     1       1.177  10.874  27.277  1.00  0.00     0.184 HD
HETATM   10  N4  UNL     1       3.021  10.569  24.643  1.00  0.00    -0.178 N 
HETATM   11  C6  UNL     1       2.167   9.829  23.911  1.00  0.00     0.151 A 
ATOM     12  H4  UNL     1       3.934  10.843  24.280  1.00  0.00     0.185 HD
HETATM   13  N5  UNL     1       2.534   9.424  22.608  1.00  0.00    -0.081 NA
HETATM   14  C7  UNL     1       0.911   9.447  24.398  1.00  0.00     0.080 A 
HETATM   15 BR1  UNL     1      -0.180   8.335  23.298  1.00  0.00    -0.045 Br
BRANCH   8  16
HETATM   16  N3  UNL     1       3.409  11.640  26.613  1.00  0.00    -0.234 N 
ATOM     17  H32 UNL     1       3.161  11.804  27.589  1.00  0.00     0.174 HD
ATOM     18  H31 UNL     1       4.266  12.028  26.221  1.00  0.00     0.174 HD
ENDBRANCH   8  16
ENDBRANCH   5   6
BRANCH   5  19
HETATM   19  C8  UNL     1      -1.036   8.048  26.625  1.00  0.00     0.023 C 
HETATM   20  C9  UNL     1      -1.991   7.447  25.615  1.00  0.00     0.009 C 
HETATM   21  C10 UNL     1      -2.226   6.009  25.940  1.00  0.00     0.001 C 
HETATM   22  C11 UNL     1      -0.971   5.208  26.101  1.00  0.00     0.000 C 
HETATM   23  C12 UNL     1      -0.142   5.842  27.201  1.00  0.00     0.001 C 
HETATM   24  C13 UNL     1       0.217   7.245  26.732  1.00  0.00     0.009 C 
ENDBRANCH   5  19
TORSDOF 3
ENDMDL
MODEL 3
REMARK VINA RESULT: -6.790608052      1.901      3.413
REMARK  3 active torsions:
REMARK  status: ('A' for Active; 'I' for Inactive)
REMARK    1  A    between atoms: C3_5  and  C4_6 
REMARK    2  A    between atoms: C3_5  and  C8_19 
REMARK    3  A    between atoms: C5_9  and  N3_10 
ROOT
HETATM    1  N1  UNL     1      -1.187  12.138  26.637  1.00  0.00    -0.190 NA
HETATM    2  C1  UNL     1      -1.229  10.974  26.508  1.00  0.00     0.112 C 
HETATM    3  C2  UNL     1      -1.291   9.559  26.394  1.00  0.00     0.122 C 
HETATM    4 CL1  UNL     1      -2.786   8.788  26.927  1.00  0.00    -0.072 Cl
HETATM    5  C3  UNL     1      -0.292   8.871  25.918  1.00  0.00     0.007 C 
ENDROOT
BRANCH   5   6
HETATM    6  C4  UNL     1       0.912   9.531  25.483  1.00  0.00     0.079 A 
HETATM    7  N2  UNL     1       1.611  10.325  26.320  1.00  0.00    -0.190 N 
HETATM    8  C5  UNL     1       2.739  10.945  26.029  1.00  0.00     0.677 A 
ATOM      9  H2  UNL     1       1.236  10.458  27.258  1.00  0.00     0.184 HD
HETATM   10  N4  UNL     1       3.302  10.820  24.802  1.00  0.00    -0.178 N 
HETATM   11  C6  UNL     1       2.660  10.041  23.913  1.00  0.00     0.151 A 
ATOM     12  H4  UNL     1       4.173  11.294  24.564  1.00  0.00     0.185 HD
HETATM   13  N5  UNL     1       3.196   9.876  22.615  1.00  0.00    -0.081 NA
HETATM   14  C7  UNL     1       1.464   9.385  24.227  1.00  0.00     0.080 A 
HETATM   15 BR1  UNL     1       0.688   8.247  22.907  1.00  0.00    -0.045 Br
BRANCH   8  16
HETATM   16  N3  UNL     1       3.329  11.683  26.908  1.00  0.00    -0.234 N 
ATOM     17  H32 UNL     1       3.158  11.499  27.897  1.00  0.00     0.174 HD
ATOM     18  H31 UNL     1       3.954  12.435  26.620  1.00  0.00     0.174 HD
ENDBRANCH   8  16
ENDBRANCH   5   6
BRANCH   5  19
HETATM   19  C8  UNL     1      -0.444   7.392  25.830  1.00  0.00     0.023 C 
HETATM   20  C9  UNL     1      -0.099   6.748  27.156  1.00  0.00     0.009 C 
HETATM   21  C10 UNL     1      -0.330   5.276  27.075  1.00  0.00     0.001 C 
HETATM   22  C11 UNL     1      -1.694   4.900  26.584  1.00  0.00     0.000 C 
HETATM   23  C12 UNL     1      -1.890   5.515  25.212  1.00  0.00     0.001 C 
HETATM   24  C13 UNL     1      -1.821   7.025  25.390  1.00  0.00     0.009 C 
ENDBRANCH   5  19
TORSDOF 3
ENDMDL
MODEL 4
REMARK VINA RESULT: -6.744730129      3.039      5.196
REMARK  3 active torsions:
REMARK  status: ('A' for Active; 'I' for Inactive)
REMARK    1  A    between atoms: C3_5  and  C4_6 
REMARK    2  A    between atoms: C3_5  and  C8_19 
REMARK    3  A    between atoms: C5_9  and  N3_10 
ROOT
HETATM    1  N1  UNL     1      -0.365   7.046  22.762  1.00  0.00    -0.190 NA
HETATM    2  C1  UNL     1       0.172   7.984  23.216  1.00  0.00     0.112 C 
HETATM    3  C2  UNL     1       0.861   9.104  23.755  1.00  0.00     0.122 C 
HETATM    4 CL1  UNL     1       2.027   9.899  22.695  1.00  0.00    -0.072 Cl
HETATM    5  C3  UNL     1       0.638   9.518  24.971  1.00  0.00     0.007 C 
ENDROOT
BRANCH   5   6
HETATM    6  C4  UNL     1      -0.327   8.852  25.807  1.00  0.00     0.079 A 
HETATM    7  N2  UNL     1      -1.480   9.457  26.156  1.00  0.00    -0.190 N 
HETATM    8  C5  UNL     1      -2.439   8.921  26.889  1.00  0.00     0.677 A 
ATOM      9  H2  UNL     1      -1.625  10.410  25.826  1.00  0.00     0.184 HD
HETATM   10  N4  UNL     1      -2.321   7.658  27.366  1.00  0.00    -0.178 N 
HETATM   11  C6  UNL     1      -1.194   6.990  27.057  1.00  0.00     0.151 A 
ATOM     12  H4  UNL     1      -3.054   7.232  27.933  1.00  0.00     0.185 HD
HETATM   13  N5  UNL     1      -1.013   5.671  27.531  1.00  0.00    -0.081 NA
HETATM   14  C7  UNL     1      -0.182   7.564  26.279  1.00  0.00     0.080 A 
HETATM   15 BR1  UNL     1       1.335   6.492  25.844  1.00  0.00    -0.045 Br
BRANCH   8  16
HETATM   16  N3  UNL     1      -3.508   9.590  27.164  1.00  0.00    -0.234 N 
ATOM     17  H32 UNL     1      -4.414   9.173  26.951  1.00  0.00     0.174 HD
ATOM     18  H31 UNL     1      -3.446  10.516  27.584  1.00  0.00     0.174 HD
ENDBRANCH   8  16
ENDBRANCH   5   6
BRANCH   5  19
HETATM   19  C8  UNL     1       1.402  10.702  25.453  1.00  0.00     0.023 C 
HETATM   20  C9  UNL     1       0.556  11.521  26.406  1.00  0.00     0.009 C 
HETATM   21  C10 UNL     1       1.361  12.659  26.940  1.00  0.00     0.001 C 
HETATM   22  C11 UNL     1       2.675  12.251  27.533  1.00  0.00     0.000 C 
HETATM   23  C12 UNL     1       3.473  11.529  26.465  1.00  0.00     0.001 C 
HETATM   24  C13 UNL     1       2.685  10.283  26.089  1.00  0.00     0.009 C 
ENDBRANCH   5  19
TORSDOF 3
ENDMDL
MODEL 5
REMARK VINA RESULT: -6.624314617      3.370      4.898
REMARK  3 active torsions:
REMARK  status: ('A' for Active; 'I' for Inactive)
REMARK    1  A    between atoms: C3_5  and  C4_6 
REMARK    2  A    between atoms: C3_5  and  C8_19 
REMARK    3  A    between atoms: C5_9  and  N3_10 
ROOT
HETATM    1  N1  UNL     1       2.341  10.435  26.368  1.00  0.00    -0.190 NA
HETATM    2  C1  UNL     1       1.980   9.982  25.349  1.00  0.00     0.112 C 
HETATM    3  C2  UNL     1       1.543   9.472  24.096  1.00  0.00     0.122 C 
HETATM    4 CL1  UNL     1       2.502   9.920  22.683  1.00  0.00    -0.072 Cl
HETATM    5  C3  UNL     1       0.489   8.712  24.002  1.00  0.00     0.007 C 
ENDROOT
BRANCH   5   6
HETATM    6  C4  UNL     1      -0.268   8.358  25.175  1.00  0.00     0.079 A 
HETATM    7  N2  UNL     1      -1.287   9.130  25.605  1.00  0.00    -0.190 N 
HETATM    8  C5  UNL     1      -2.058   8.875  26.645  1.00  0.00     0.677 A 
ATOM      9  H2  UNL     1      -1.478   9.983  25.081  1.00  0.00     0.184 HD
HETATM   10  N4  UNL     1      -1.868   7.761  27.393  1.00  0.00    -0.178 N 
HETATM   11  C6  UNL     1      -0.867   6.941  27.023  1.00  0.00     0.151 A 
ATOM     12  H4  UNL     1      -2.456   7.553  28.199  1.00  0.00     0.185 HD
HETATM   13  N5  UNL     1      -0.616   5.766  27.768  1.00  0.00    -0.081 NA
HETATM   14  C7  UNL     1      -0.052   7.216  25.918  1.00  0.00     0.080 A 
HETATM   15 BR1  UNL     1       1.284   5.939  25.446  1.00  0.00    -0.045 Br
BRANCH   8  16
HETATM   16  N3  UNL     1      -3.011   9.684  26.970  1.00  0.00    -0.234 N 
ATOM     17  H32 UNL     1      -2.839  10.688  26.922  1.00  0.00     0.174 HD
ATOM     18  H31 UNL     1      -3.917   9.324  27.270  1.00  0.00     0.174 HD
ENDBRANCH   8  16
ENDBRANCH   5   6
BRANCH   5  19
HETATM   19  C8  UNL     1       0.105   8.220  22.650  1.00  0.00     0.023 C 
HETATM   20  C9  UNL     1       1.109   7.198  22.158  1.00  0.00     0.009 C 
HETATM   21  C10 UNL     1       0.670   6.658  20.837  1.00  0.00     0.001 C 
HETATM   22  C11 UNL     1      -0.737   6.142  20.828  1.00  0.00     0.000 C 
HETATM   23  C12 UNL     1      -1.659   7.272  21.240  1.00  0.00     0.001 C 
HETATM   24  C13 UNL     1      -1.278   7.660  22.662  1.00  0.00     0.009 C 
ENDBRANCH   5  19
TORSDOF 3
ENDMDL
