MODEL 1
REMARK VINA RESULT: -7.333888222      0.000      0.000
REMARK  4 active torsions:
REMARK  status: ('A' for Active; 'I' for Inactive)
REMARK    1  A    between atoms: O1_1  and  C1_3 
REMARK    2  A    between atoms: C4_6  and  O2_7 
REMARK    3  A    between atoms: N1_9  and  C5_10 
REMARK    4  A    between atoms: C5_10  and  C6_11 
ROOT
HETATM    1  C1  UNL     1      -2.543   6.621  27.717  1.00  0.00     0.153 A 
HETATM    2  C2  UNL     1      -2.707   5.520  28.539  1.00  0.00     0.034 A 
HETATM    3  C3  UNL     1      -2.454   4.432  27.764  1.00  0.00     0.072 A 
HETATM    4  C4  UNL     1      -2.143   4.891  26.496  1.00  0.00     0.156 A 
HETATM    5  N1  UNL     1      -2.201   6.262  26.474  1.00  0.00    -0.305 N 
HETATM    6  C15 UNL     1      -2.618   3.225  28.602  1.00  0.00     0.309 C 
HETATM    7 CL1  UNL     1      -4.224   2.492  28.384  1.00  0.00    -0.065 Cl
HETATM    8 CL2  UNL     1      -1.340   2.062  28.178  1.00  0.00    -0.065 Cl
HETATM    9  N3  UNL     1      -2.525   3.686  29.955  1.00  0.00    -0.030 N 
ATOM     10  H31 UNL     1      -1.594   3.604  30.362  1.00  0.00     0.281 HD
ATOM     11  H32 UNL     1      -2.996   3.088  30.635  1.00  0.00     0.281 HD
HETATM   12  C16 UNL     1      -3.038   5.050  29.903  1.00  0.00     0.280 C 
ENDROOT
BRANCH   5  13
HETATM   13  C5  UNL     1      -1.905   7.061  25.303  1.00  0.00     0.169 C 
BRANCH  13  14
HETATM   14  C6  UNL     1      -0.550   7.579  25.197  1.00  0.00     0.242 C 
HETATM   15  C7  UNL     1      -0.184   8.071  23.777  1.00  0.00     0.044 C 
HETATM   16  C8  UNL     1       0.643   9.201  24.051  1.00  0.00     0.021 C 
HETATM   17  C9  UNL     1       1.953   9.490  23.437  1.00  0.00     0.007 C 
HETATM   18  C14 UNL     1       1.212   8.813  25.438  1.00  0.00     0.231 C 
HETATM   19  C10 UNL     1       2.440  10.533  24.476  1.00  0.00     0.007 C 
HETATM   20  C11 UNL     1       1.767  10.121  25.799  1.00  0.00     0.021 C 
HETATM   21  C12 UNL     1       0.499  10.900  26.068  1.00  0.00     0.037 C 
HETATM   22  C13 UNL     1      -0.629   9.854  26.109  1.00  0.00     0.274 C 
HETATM   23  N2  UNL     1      -0.056   8.568  26.088  1.00  0.00     0.100 N 
ENDBRANCH  13  14
ENDBRANCH   5  13
BRANCH   1  24
HETATM   24  O1  UNL     1      -2.739   7.907  28.217  1.00  0.00    -0.345 OA
ATOM     25  H1  UNL     1      -2.021   8.529  28.234  1.00  0.00     0.219 HD
ENDBRANCH   1  24
BRANCH   4  26
HETATM   26  O2  UNL     1      -1.827   4.053  25.436  1.00  0.00    -0.345 OA
ATOM     27  H2  UNL     1      -1.829   4.334  24.528  1.00  0.00     0.219 HD
ENDBRANCH   4  26
TORSDOF 4
ENDMDL
MODEL 2
REMARK VINA RESULT: -7.250009723      3.843      7.321
REMARK  4 active torsions:
REMARK  status: ('A' for Active; 'I' for Inactive)
REMARK    1  A    between atoms: O1_1  and  C1_3 
REMARK    2  A    between atoms: C4_6  and  O2_7 
REMARK    3  A    between atoms: N1_9  and  C5_10 
REMARK    4  A    between atoms: C5_10  and  C6_11 
ROOT
HETATM    1  C1  UNL     1       0.744   9.277  25.461  1.00  0.00     0.153 A 
HETATM    2  C2  UNL     1       1.182  10.537  25.829  1.00  0.00     0.034 A 
HETATM    3  C3  UNL     1       0.126  11.139  26.437  1.00  0.00     0.072 A 
HETATM    4  C4  UNL     1      -0.925  10.238  26.427  1.00  0.00     0.156 A 
HETATM    5  N1  UNL     1      -0.531   9.075  25.814  1.00  0.00    -0.305 N 
HETATM    6  C15 UNL     1       0.546  12.496  26.849  1.00  0.00     0.309 C 
HETATM    7 CL1  UNL     1       0.037  13.725  25.669  1.00  0.00    -0.065 Cl
HETATM    8 CL2  UNL     1      -0.150  12.843  28.449  1.00  0.00    -0.065 Cl
HETATM    9  N3  UNL     1       1.979  12.463  26.859  1.00  0.00    -0.030 N 
ATOM     10  H31 UNL     1       2.386  12.269  27.774  1.00  0.00     0.281 HD
ATOM     11  H32 UNL     1       2.419  13.374  26.731  1.00  0.00     0.281 HD
HETATM   12  C16 UNL     1       2.320  11.484  25.833  1.00  0.00     0.280 C 
ENDROOT
BRANCH   5  13
HETATM   13  C5  UNL     1      -1.387   7.917  25.661  1.00  0.00     0.169 C 
BRANCH  13  14
HETATM   14  C6  UNL     1      -1.395   6.966  26.761  1.00  0.00     0.242 C 
HETATM   15  C7  UNL     1      -2.614   7.115  27.700  1.00  0.00     0.044 C 
HETATM   16  C8  UNL     1      -2.894   5.762  28.052  1.00  0.00     0.021 C 
HETATM   17  C9  UNL     1      -3.132   5.248  29.414  1.00  0.00     0.007 C 
HETATM   18  C14 UNL     1      -1.491   5.127  27.897  1.00  0.00     0.231 C 
HETATM   19  C10 UNL     1      -2.911   3.744  29.107  1.00  0.00     0.007 C 
HETATM   20  C11 UNL     1      -1.902   3.720  27.944  1.00  0.00     0.021 C 
HETATM   21  C12 UNL     1      -2.577   3.581  26.597  1.00  0.00     0.037 C 
HETATM   22  C13 UNL     1      -2.213   4.856  25.817  1.00  0.00     0.274 C 
HETATM   23  N2  UNL     1      -1.242   5.571  26.545  1.00  0.00     0.100 N 
ENDBRANCH  13  14
ENDBRANCH   5  13
BRANCH   1  24
HETATM   24  O1  UNL     1       1.603   8.400  24.801  1.00  0.00    -0.345 OA
ATOM     25  H1  UNL     1       1.451   7.463  24.838  1.00  0.00     0.219 HD
ENDBRANCH   1  24
BRANCH   4  26
HETATM   26  O2  UNL     1      -2.174  10.514  26.967  1.00  0.00    -0.345 OA
ATOM     27  H2  UNL     1      -2.991  10.296  26.534  1.00  0.00     0.219 HD
ENDBRANCH   4  26
TORSDOF 4
ENDMDL
MODEL 3
REMARK VINA RESULT: -6.765202279      3.386      7.062
REMARK  4 active torsions:
REMARK  status: ('A' for Active; 'I' for Inactive)
REMARK    1  A    between atoms: O1_1  and  C1_3 
REMARK    2  A    between atoms: C4_6  and  O2_7 
REMARK    3  A    between atoms: N1_9  and  C5_10 
REMARK    4  A    between atoms: C5_10  and  C6_11 
ROOT
HETATM    1  C1  UNL     1      -1.301   9.361  26.262  1.00  0.00     0.153 A 
HETATM    2  C2  UNL     1      -0.272  10.248  25.995  1.00  0.00     0.034 A 
HETATM    3  C3  UNL     1       0.629   9.562  25.244  1.00  0.00     0.072 A 
HETATM    4  C4  UNL     1       0.133   8.282  25.068  1.00  0.00     0.156 A 
HETATM    5  N1  UNL     1      -1.076   8.163  25.708  1.00  0.00    -0.305 N 
HETATM    6  C15 UNL     1       1.753  10.472  24.934  1.00  0.00     0.309 C 
HETATM    7 CL1  UNL     1       3.118  10.227  26.048  1.00  0.00    -0.065 Cl
HETATM    8 CL2  UNL     1       2.263  10.190  23.253  1.00  0.00    -0.065 Cl
HETATM    9  N3  UNL     1       1.242  11.793  25.147  1.00  0.00    -0.030 N 
ATOM     10  H31 UNL     1       0.895  12.249  24.303  1.00  0.00     0.281 HD
ATOM     11  H32 UNL     1       1.957  12.488  25.363  1.00  0.00     0.281 HD
HETATM   12  C16 UNL     1       0.238  11.623  26.191  1.00  0.00     0.280 C 
ENDROOT
BRANCH   5  13
HETATM   13  C5  UNL     1      -1.875   6.956  25.700  1.00  0.00     0.169 C 
BRANCH  13  14
HETATM   14  C6  UNL     1      -1.742   6.081  26.854  1.00  0.00     0.242 C 
HETATM   15  C7  UNL     1      -2.695   6.440  28.017  1.00  0.00     0.044 C 
HETATM   16  C8  UNL     1      -3.037   5.156  28.536  1.00  0.00     0.021 C 
HETATM   17  C9  UNL     1      -3.019   4.759  29.957  1.00  0.00     0.007 C 
HETATM   18  C14 UNL     1      -1.783   4.340  28.139  1.00  0.00     0.231 C 
HETATM   19  C10 UNL     1      -3.040   3.224  29.741  1.00  0.00     0.007 C 
HETATM   20  C11 UNL     1      -2.326   3.003  28.394  1.00  0.00     0.021 C 
HETATM   21  C12 UNL     1      -3.296   2.869  27.242  1.00  0.00     0.037 C 
HETATM   22  C13 UNL     1      -2.977   4.038  26.294  1.00  0.00     0.274 C 
HETATM   23  N2  UNL     1      -1.796   4.668  26.732  1.00  0.00     0.100 N 
ENDBRANCH  13  14
ENDBRANCH   5  13
BRANCH   1  24
HETATM   24  O1  UNL     1      -2.394   9.762  27.027  1.00  0.00    -0.345 OA
ATOM     25  H1  UNL     1      -2.613  10.684  27.104  1.00  0.00     0.219 HD
ENDBRANCH   1  24
BRANCH   4  26
HETATM   26  O2  UNL     1       0.793   7.298  24.347  1.00  0.00    -0.345 OA
ATOM     27  H2  UNL     1       0.549   6.380  24.367  1.00  0.00     0.219 HD
ENDBRANCH   4  26
TORSDOF 4
ENDMDL
MODEL 4
REMARK VINA RESULT: -6.743733627      1.177      1.846
REMARK  4 active torsions:
REMARK  status: ('A' for Active; 'I' for Inactive)
REMARK    1  A    between atoms: O1_1  and  C1_3 
REMARK    2  A    between atoms: C4_6  and  O2_7 
REMARK    3  A    between atoms: N1_9  and  C5_10 
REMARK    4  A    between atoms: C5_10  and  C6_11 
ROOT
HETATM    1  C1  UNL     1      -2.416   7.303  27.064  1.00  0.00     0.153 A 
HETATM    2  C2  UNL     1      -2.854   6.486  28.092  1.00  0.00     0.034 A 
HETATM    3  C3  UNL     1      -2.608   5.212  27.689  1.00  0.00     0.072 A 
HETATM    4  C4  UNL     1      -2.029   5.279  26.433  1.00  0.00     0.156 A 
HETATM    5  N1  UNL     1      -1.912   6.591  26.049  1.00  0.00    -0.305 N 
HETATM    6  C15 UNL     1      -3.063   4.297  28.759  1.00  0.00     0.309 C 
HETATM    7 CL1  UNL     1      -4.685   3.652  28.422  1.00  0.00    -0.065 Cl
HETATM    8 CL2  UNL     1      -1.885   2.973  28.910  1.00  0.00    -0.065 Cl
HETATM    9  N3  UNL     1      -3.147   5.106  29.939  1.00  0.00    -0.030 N 
ATOM     10  H31 UNL     1      -2.316   5.071  30.530  1.00  0.00     0.281 HD
ATOM     11  H32 UNL     1      -3.798   4.754  30.641  1.00  0.00     0.281 HD
HETATM   12  C16 UNL     1      -3.470   6.436  29.437  1.00  0.00     0.280 C 
ENDROOT
BRANCH   5  13
HETATM   13  C5  UNL     1      -1.323   7.012  24.795  1.00  0.00     0.169 C 
BRANCH  13  14
HETATM   14  C6  UNL     1      -0.523   8.225  24.829  1.00  0.00     0.242 C 
HETATM   15  C7  UNL     1       0.551   8.229  25.941  1.00  0.00     0.044 C 
HETATM   16  C8  UNL     1       1.634   8.914  25.315  1.00  0.00     0.021 C 
HETATM   17  C9  UNL     1       2.418  10.021  25.897  1.00  0.00     0.007 C 
HETATM   18  C14 UNL     1       0.870   9.794  24.297  1.00  0.00     0.231 C 
HETATM   19  C10 UNL     1       3.052  10.539  24.580  1.00  0.00     0.007 C 
HETATM   20  C11 UNL     1       2.020  10.206  23.486  1.00  0.00     0.021 C 
HETATM   21  C12 UNL     1       2.336   8.912  22.769  1.00  0.00     0.037 C 
HETATM   22  C13 UNL     1       1.139   7.984  23.041  1.00  0.00     0.274 C 
HETATM   23  N2  UNL     1       0.121   8.730  23.668  1.00  0.00     0.100 N 
ENDBRANCH  13  14
ENDBRANCH   5  13
BRANCH   1  24
HETATM   24  O1  UNL     1      -2.534   8.688  27.168  1.00  0.00    -0.345 OA
ATOM     25  H1  UNL     1      -2.005   9.256  26.621  1.00  0.00     0.219 HD
ENDBRANCH   1  24
BRANCH   4  26
HETATM   26  O2  UNL     1      -1.642   4.160  25.709  1.00  0.00    -0.345 OA
ATOM     27  H2  UNL     1      -1.401   4.189  24.790  1.00  0.00     0.219 HD
ENDBRANCH   4  26
TORSDOF 4
ENDMDL
MODEL 5
REMARK VINA RESULT: -6.614775979      1.737      2.430
REMARK  4 active torsions:
REMARK  status: ('A' for Active; 'I' for Inactive)
REMARK    1  A    between atoms: O1_1  and  C1_3 
REMARK    2  A    between atoms: C4_6  and  O2_7 
REMARK    3  A    between atoms: N1_9  and  C5_10 
REMARK    4  A    between atoms: C5_10  and  C6_11 
ROOT
HETATM    1  C1  UNL     1      -2.007   5.305  25.707  1.00  0.00     0.153 A 
HETATM    2  C2  UNL     1      -2.984   5.011  26.641  1.00  0.00     0.034 A 
HETATM    3  C3  UNL     1      -2.398   5.161  27.858  1.00  0.00     0.072 A 
HETATM    4  C4  UNL     1      -1.085   5.541  27.640  1.00  0.00     0.156 A 
HETATM    5  N1  UNL     1      -0.847   5.629  26.292  1.00  0.00    -0.305 N 
HETATM    6  C15 UNL     1      -3.407   4.854  28.895  1.00  0.00     0.309 C 
HETATM    7 CL1  UNL     1      -3.251   3.183  29.485  1.00  0.00    -0.065 Cl
HETATM    8 CL2  UNL     1      -3.213   6.009  30.234  1.00  0.00    -0.065 Cl
HETATM    9  N3  UNL     1      -4.675   4.971  28.236  1.00  0.00    -0.030 N 
ATOM     10  H31 UNL     1      -5.121   5.882  28.347  1.00  0.00     0.281 HD
ATOM     11  H32 UNL     1      -5.422   4.427  28.668  1.00  0.00     0.281 HD
HETATM   12  C16 UNL     1      -4.393   4.607  26.853  1.00  0.00     0.280 C 
ENDROOT
BRANCH   5  13
HETATM   13  C5  UNL     1       0.423   6.029  25.724  1.00  0.00     0.169 C 
BRANCH  13  14
HETATM   14  C6  UNL     1       0.862   7.386  26.007  1.00  0.00     0.242 C 
HETATM   15  C7  UNL     1       1.723   8.008  24.883  1.00  0.00     0.044 C 
HETATM   16  C8  UNL     1       1.310   9.373  24.904  1.00  0.00     0.021 C 
HETATM   17  C9  UNL     1       2.198  10.551  24.907  1.00  0.00     0.007 C 
HETATM   18  C14 UNL     1       0.867   9.518  26.380  1.00  0.00     0.231 C 
HETATM   19  C10 UNL     1       1.153  11.594  25.379  1.00  0.00     0.007 C 
HETATM   20  C11 UNL     1       0.164  10.798  26.253  1.00  0.00     0.021 C 
HETATM   21  C12 UNL     1      -1.066  10.368  25.486  1.00  0.00     0.037 C 
HETATM   22  C13 UNL     1      -1.059   8.830  25.519  1.00  0.00     0.274 C 
HETATM   23  N2  UNL     1      -0.049   8.401  26.402  1.00  0.00     0.100 N 
ENDBRANCH  13  14
ENDBRANCH   5  13
BRANCH   1  24
HETATM   24  O1  UNL     1      -2.294   5.237  24.345  1.00  0.00    -0.345 OA
ATOM     25  H1  UNL     1      -3.115   4.864  24.046  1.00  0.00     0.219 HD
ENDBRANCH   1  24
BRANCH   4  26
HETATM   26  O2  UNL     1      -0.180   5.785  28.664  1.00  0.00    -0.345 OA
ATOM     27  H2  UNL     1       0.644   5.320  28.756  1.00  0.00     0.219 HD
ENDBRANCH   4  26
TORSDOF 4
ENDMDL
