MODEL 1
REMARK VINA RESULT: -7.264507971      0.000      0.000
REMARK  17 active torsions:
REMARK  status: ('A' for Active; 'I' for Inactive)
REMARK    1  A    between atoms: C7_8  and  C8_9 
REMARK    2  A    between atoms: C8_9  and  C9_10 
REMARK    3  A    between atoms: C10_11  and  C11_12 
REMARK    4  A    between atoms: N2_19  and  C14_21 
REMARK    5  A    between atoms: C14_21  and  C15_22 
REMARK    6  A    between atoms: C15_22  and  S2_23 
REMARK    7  A    between atoms: S2_23  and  N3_26 
REMARK    8  A    between atoms: C16_28  and  C17_29 
REMARK    9  A    between atoms: C17_29  and  O4_30 
REMARK   10  A    between atoms: O4_30  and  C18_31 
REMARK   11  A    between atoms: C18_31  and  C19_32 
REMARK   12  A    between atoms: C19_32  and  C20_33 
REMARK   13  A    between atoms: C20_33  and  N4_34 
REMARK   14  A    between atoms: N4_34  and  C21_36 
REMARK   15  A    between atoms: C21_36  and  C22_37 
REMARK   16  A    between atoms: C22_37  and  C23_38 
REMARK   17  A    between atoms: C23_38  and  N5_39 
REMARK       I    between atoms: C24_41  and  N6_42 
ROOT
HETATM    1  C1  UNL     1      -3.323   7.883  96.546  1.00  0.00     0.210 C 
HETATM    2  O1  UNL     1      -3.135   6.623  96.714  1.00  0.00    -0.355 OA
HETATM    3  C2  UNL     1      -2.963   5.342  96.925  1.00  0.00     0.081 A 
HETATM    4  C3  UNL     1      -3.455   4.801  98.151  1.00  0.00     0.038 A 
HETATM    5  C4  UNL     1      -3.336   3.457  98.382  1.00  0.00     0.003 A 
HETATM    6  C5  UNL     1      -2.753   2.594  97.489  1.00  0.00     0.001 A 
HETATM    7  C6  UNL     1      -2.280   3.094  96.311  1.00  0.00     0.017 A 
HETATM    8  C7  UNL     1      -2.401   4.500  96.051  1.00  0.00     0.032 A 
ENDROOT
BRANCH   8   9
HETATM    9  C8  UNL     1      -1.592   4.869  94.907  1.00  0.00     0.096 C 
HETATM   10  N2  UNL     1      -0.522   5.235  94.590  1.00  0.00    -0.381 N 
ATOM     11  H2  UNL     1      -0.431   5.383  93.585  1.00  0.00     0.160 HD
BRANCH   9  12
HETATM   12  C9  UNL     1      -2.715   5.318  93.883  1.00  0.00    -0.045 C 
HETATM   13  C10 UNL     1      -3.418   5.739  92.990  1.00  0.00    -0.055 C 
BRANCH  13  14
HETATM   14  C11 UNL     1      -4.116   6.337  91.854  1.00  0.00     0.326 C 
HETATM   15  N1  UNL     1      -3.608   7.739  91.680  1.00  0.00    -0.051 N 
HETATM   16  C12 UNL     1      -3.912   8.408  92.914  1.00  0.00     0.245 C 
ATOM     17  H12 UNL     1      -2.625   7.791  91.415  1.00  0.00     0.279 HD
ATOM     18  H11 UNL     1      -3.978   8.211  90.854  1.00  0.00     0.279 HD
HETATM   19  C13 UNL     1      -5.401   8.348  93.160  1.00  0.00     0.104 C 
HETATM   20  S1  UNL     1      -5.817   6.784  92.268  1.00  0.00    -0.122 SA
ENDBRANCH  13  14
ENDBRANCH   9  12
BRANCH  10  21
HETATM   21  C14 UNL     1       0.676   5.517  95.307  1.00  0.00     0.137 C 
BRANCH  21  22
HETATM   22  C15 UNL     1       1.586   6.371  94.349  1.00  0.00     0.183 C 
BRANCH  22  23
HETATM   23  S2  UNL     1       0.890   8.009  94.421  1.00  0.00     0.231 S 
HETATM   24  O2  UNL     1       1.995   8.939  94.059  1.00  0.00    -0.206 OA
HETATM   25  O3  UNL     1       0.275   8.260  95.745  1.00  0.00    -0.206 OA
BRANCH  23  26
HETATM   26  N3  UNL     1      -0.394   8.136  93.214  1.00  0.00    -0.297 N 
HETATM   27  C16 UNL     1       0.242   8.131  92.010  1.00  0.00     0.099 C 
ATOM     28  H3  UNL     1      -1.398   8.200  93.383  1.00  0.00     0.177 HD
BRANCH  27  29
HETATM   29  C17 UNL     1       0.213   8.083  90.579  1.00  0.00     0.212 C 
BRANCH  29  30
HETATM   30  O4  UNL     1       1.441   8.749  90.109  1.00  0.00    -0.386 OA
BRANCH  30  31
HETATM   31  C18 UNL     1       1.052   9.817  89.353  1.00  0.00     0.169 C 
BRANCH  31  32
HETATM   32  C19 UNL     1       1.822  11.019  89.685  1.00  0.00     0.045 C 
BRANCH  32  33
HETATM   33  C20 UNL     1       1.688  11.598  91.048  1.00  0.00     0.115 C 
BRANCH  33  34
HETATM   34  N4  UNL     1       2.645  11.126  92.022  1.00  0.00    -0.421 N 
ATOM     35  H4  UNL     1       2.439  11.108  93.021  1.00  0.00     0.153 HD
BRANCH  34  36
HETATM   36  C21 UNL     1       3.886  10.691  91.502  1.00  0.00     0.115 C 
BRANCH  36  37
HETATM   37  C22 UNL     1       4.841  10.401  92.678  1.00  0.00     0.039 C 
BRANCH  37  38
HETATM   38  C23 UNL     1       4.432  11.165  93.868  1.00  0.00     0.123 C 
BRANCH  38  39
HETATM   39  N5  UNL     1       4.792  10.521  95.101  1.00  0.00    -0.365 N 
HETATM   40  C24 UNL     1       5.193  11.369  96.020  1.00  0.00     0.181 C 
HETATM   41  N6  UNL     1       5.577  10.966  97.275  1.00  0.00    -0.374 N 
HETATM   42  N7  UNL     1       5.188  12.779  95.632  1.00  0.00    -0.064 NA
ATOM     43  H62 UNL     1       5.581   9.982  97.546  1.00  0.00     0.158 HD
ATOM     44  H61 UNL     1       5.889  11.624  97.989  1.00  0.00     0.158 HD
ATOM     45  H5  UNL     1       4.742   9.513  95.247  1.00  0.00     0.162 HD
ENDBRANCH  38  39
ENDBRANCH  37  38
ENDBRANCH  36  37
ENDBRANCH  34  36
ENDBRANCH  33  34
ENDBRANCH  32  33
ENDBRANCH  31  32
ENDBRANCH  30  31
ENDBRANCH  29  30
ENDBRANCH  27  29
ENDBRANCH  23  26
ENDBRANCH  22  23
ENDBRANCH  21  22
ENDBRANCH  10  21
ENDBRANCH   8   9
TORSDOF 17
ENDMDL
MODEL 2
REMARK VINA RESULT: -7.013526094      2.573      8.256
REMARK  17 active torsions:
REMARK  status: ('A' for Active; 'I' for Inactive)
REMARK    1  A    between atoms: C7_8  and  C8_9 
REMARK    2  A    between atoms: C8_9  and  C9_10 
REMARK    3  A    between atoms: C10_11  and  C11_12 
REMARK    4  A    between atoms: N2_19  and  C14_21 
REMARK    5  A    between atoms: C14_21  and  C15_22 
REMARK    6  A    between atoms: C15_22  and  S2_23 
REMARK    7  A    between atoms: S2_23  and  N3_26 
REMARK    8  A    between atoms: C16_28  and  C17_29 
REMARK    9  A    between atoms: C17_29  and  O4_30 
REMARK   10  A    between atoms: O4_30  and  C18_31 
REMARK   11  A    between atoms: C18_31  and  C19_32 
REMARK   12  A    between atoms: C19_32  and  C20_33 
REMARK   13  A    between atoms: C20_33  and  N4_34 
REMARK   14  A    between atoms: N4_34  and  C21_36 
REMARK   15  A    between atoms: C21_36  and  C22_37 
REMARK   16  A    between atoms: C22_37  and  C23_38 
REMARK   17  A    between atoms: C23_38  and  N5_39 
REMARK       I    between atoms: C24_41  and  N6_42 
ROOT
HETATM    1  C1  UNL     1      -1.023   9.363  92.059  1.00  0.00     0.210 C 
HETATM    2  O1  UNL     1      -0.467   8.238  92.333  1.00  0.00    -0.355 OA
HETATM    3  C2  UNL     1       0.081   7.074  92.579  1.00  0.00     0.081 A 
HETATM    4  C3  UNL     1      -0.220   6.000  91.688  1.00  0.00     0.038 A 
HETATM    5  C4  UNL     1       0.374   4.783  91.885  1.00  0.00     0.003 A 
HETATM    6  C5  UNL     1       1.247   4.536  92.915  1.00  0.00     0.001 A 
HETATM    7  C6  UNL     1       1.548   5.552  93.774  1.00  0.00     0.017 A 
HETATM    8  C7  UNL     1       0.938   6.836  93.578  1.00  0.00     0.032 A 
ENDROOT
BRANCH   8   9
HETATM    9  C8  UNL     1       1.151   7.674  94.740  1.00  0.00     0.096 C 
HETATM   10  N2  UNL     1       0.663   8.025  95.748  1.00  0.00    -0.381 N 
ATOM     11  H2  UNL     1       1.241   8.689  96.264  1.00  0.00     0.160 HD
BRANCH   9  12
HETATM   12  C9  UNL     1       2.167   8.739  94.155  1.00  0.00    -0.045 C 
HETATM   13  C10 UNL     1       3.058   9.510  93.872  1.00  0.00    -0.055 C 
BRANCH  13  14
HETATM   14  C11 UNL     1       4.196  10.412  93.703  1.00  0.00     0.326 C 
HETATM   15  N1  UNL     1       3.730  11.614  92.934  1.00  0.00    -0.051 N 
HETATM   16  C12 UNL     1       3.256  11.099  91.679  1.00  0.00     0.245 C 
ATOM     17  H12 UNL     1       3.044  12.180  93.432  1.00  0.00     0.279 HD
ATOM     18  H11 UNL     1       4.438  12.342  92.838  1.00  0.00     0.279 HD
HETATM   19  C13 UNL     1       4.377  10.358  90.989  1.00  0.00     0.104 C 
HETATM   20  S1  UNL     1       5.355   9.806  92.456  1.00  0.00    -0.122 SA
ENDBRANCH  13  14
ENDBRANCH   9  12
BRANCH  10  21
HETATM   21  C14 UNL     1      -0.564   7.725  96.407  1.00  0.00     0.137 C 
BRANCH  21  22
HETATM   22  C15 UNL     1      -0.657   8.684  97.651  1.00  0.00     0.183 C 
BRANCH  22  23
HETATM   23  S2  UNL     1      -2.392   9.063  97.789  1.00  0.00     0.231 S 
HETATM   24  O2  UNL     1      -2.879   9.261  96.396  1.00  0.00    -0.206 OA
HETATM   25  O3  UNL     1      -2.606  10.218  98.693  1.00  0.00    -0.206 OA
BRANCH  23  26
HETATM   26  N3  UNL     1      -3.224   7.677  98.502  1.00  0.00    -0.297 N 
HETATM   27  C16 UNL     1      -4.212   7.359  97.621  1.00  0.00     0.099 C 
ATOM     28  H3  UNL     1      -3.010   7.215  99.386  1.00  0.00     0.177 HD
BRANCH  27  29
HETATM   29  C17 UNL     1      -5.261   6.491  97.176  1.00  0.00     0.212 C 
BRANCH  29  30
HETATM   30  O4  UNL     1      -4.656   5.161  96.984  1.00  0.00    -0.386 OA
BRANCH  30  31
HETATM   31  C18 UNL     1      -4.762   4.498  98.173  1.00  0.00     0.169 C 
BRANCH  31  32
HETATM   32  C19 UNL     1      -3.510   3.823  98.524  1.00  0.00     0.045 C 
BRANCH  32  33
HETATM   33  C20 UNL     1      -3.240   2.476  97.957  1.00  0.00     0.115 C 
BRANCH  33  34
HETATM   34  N4  UNL     1      -2.963   2.441  96.539  1.00  0.00    -0.421 N 
ATOM     35  H4  UNL     1      -3.704   2.496  95.840  1.00  0.00     0.153 HD
BRANCH  34  36
HETATM   36  C21 UNL     1      -1.600   2.326  96.184  1.00  0.00     0.115 C 
BRANCH  36  37
HETATM   37  C22 UNL     1      -1.111   3.688  95.653  1.00  0.00     0.039 C 
BRANCH  37  38
HETATM   38  C23 UNL     1      -2.114   4.275  94.749  1.00  0.00     0.123 C 
BRANCH  38  39
HETATM   39  N5  UNL     1      -2.351   5.669  95.003  1.00  0.00    -0.365 N 
HETATM   40  C24 UNL     1      -3.017   6.256  94.035  1.00  0.00     0.181 C 
HETATM   41  N6  UNL     1      -3.357   7.587  94.078  1.00  0.00    -0.374 N 
HETATM   42  N7  UNL     1      -3.395   5.401  92.911  1.00  0.00    -0.064 NA
ATOM     43  H62 UNL     1      -3.093   8.183  94.862  1.00  0.00     0.158 HD
ATOM     44  H61 UNL     1      -3.874   8.043  93.327  1.00  0.00     0.158 HD
ATOM     45  H5  UNL     1      -2.036   6.152  95.844  1.00  0.00     0.162 HD
ENDBRANCH  38  39
ENDBRANCH  37  38
ENDBRANCH  36  37
ENDBRANCH  34  36
ENDBRANCH  33  34
ENDBRANCH  32  33
ENDBRANCH  31  32
ENDBRANCH  30  31
ENDBRANCH  29  30
ENDBRANCH  27  29
ENDBRANCH  23  26
ENDBRANCH  22  23
ENDBRANCH  21  22
ENDBRANCH  10  21
ENDBRANCH   8   9
TORSDOF 17
ENDMDL
MODEL 3
REMARK VINA RESULT: -6.984427391      2.963      7.940
REMARK  17 active torsions:
REMARK  status: ('A' for Active; 'I' for Inactive)
REMARK    1  A    between atoms: C7_8  and  C8_9 
REMARK    2  A    between atoms: C8_9  and  C9_10 
REMARK    3  A    between atoms: C10_11  and  C11_12 
REMARK    4  A    between atoms: N2_19  and  C14_21 
REMARK    5  A    between atoms: C14_21  and  C15_22 
REMARK    6  A    between atoms: C15_22  and  S2_23 
REMARK    7  A    between atoms: S2_23  and  N3_26 
REMARK    8  A    between atoms: C16_28  and  C17_29 
REMARK    9  A    between atoms: C17_29  and  O4_30 
REMARK   10  A    between atoms: O4_30  and  C18_31 
REMARK   11  A    between atoms: C18_31  and  C19_32 
REMARK   12  A    between atoms: C19_32  and  C20_33 
REMARK   13  A    between atoms: C20_33  and  N4_34 
REMARK   14  A    between atoms: N4_34  and  C21_36 
REMARK   15  A    between atoms: C21_36  and  C22_37 
REMARK   16  A    between atoms: C22_37  and  C23_38 
REMARK   17  A    between atoms: C23_38  and  N5_39 
REMARK       I    between atoms: C24_41  and  N6_42 
ROOT
HETATM    1  C1  UNL     1      -2.853   8.955  92.777  1.00  0.00     0.210 C 
HETATM    2  O1  UNL     1      -2.213   8.865  91.667  1.00  0.00    -0.355 OA
HETATM    3  C2  UNL     1      -1.596   8.785  90.514  1.00  0.00     0.081 A 
HETATM    4  C3  UNL     1      -2.340   9.115  89.342  1.00  0.00     0.038 A 
HETATM    5  C4  UNL     1      -1.713   9.091  88.125  1.00  0.00     0.003 A 
HETATM    6  C5  UNL     1      -0.392   8.752  87.972  1.00  0.00     0.001 A 
HETATM    7  C6  UNL     1       0.335   8.437  89.083  1.00  0.00     0.017 A 
HETATM    8  C7  UNL     1      -0.306   8.462  90.367  1.00  0.00     0.032 A 
ENDROOT
BRANCH   8   9
HETATM    9  C8  UNL     1       0.535   7.826  91.359  1.00  0.00     0.096 C 
HETATM   10  N2  UNL     1       0.550   6.988  92.182  1.00  0.00    -0.381 N 
ATOM     11  H2  UNL     1       1.444   6.919  92.668  1.00  0.00     0.160 HD
BRANCH   9  12
HETATM   12  C9  UNL     1       1.574   8.984  91.655  1.00  0.00    -0.045 C 
HETATM   13  C10 UNL     1       2.353   9.811  92.077  1.00  0.00    -0.055 C 
BRANCH  13  14
HETATM   14  C11 UNL     1       3.234  10.760  92.755  1.00  0.00     0.326 C 
HETATM   15  N1  UNL     1       4.136  11.377  91.725  1.00  0.00    -0.051 N 
HETATM   16  C12 UNL     1       4.863  10.279  91.152  1.00  0.00     0.245 C 
ATOM     17  H12 UNL     1       3.646  11.949  91.039  1.00  0.00     0.279 HD
ATOM     18  H11 UNL     1       4.734  12.118  92.093  1.00  0.00     0.279 HD
HETATM   19  C13 UNL     1       5.621   9.559  92.243  1.00  0.00     0.104 C 
HETATM   20  S1  UNL     1       4.534   9.922  93.691  1.00  0.00    -0.122 SA
ENDBRANCH  13  14
ENDBRANCH   9  12
BRANCH  10  21
HETATM   21  C14 UNL     1      -0.413   6.047  92.648  1.00  0.00     0.137 C 
BRANCH  21  22
HETATM   22  C15 UNL     1      -0.208   4.734  91.805  1.00  0.00     0.183 C 
BRANCH  22  23
HETATM   23  S2  UNL     1       0.980   3.790  92.738  1.00  0.00     0.231 S 
HETATM   24  O2  UNL     1       1.613   4.751  93.684  1.00  0.00    -0.206 OA
HETATM   25  O3  UNL     1       1.926   3.097  91.831  1.00  0.00    -0.206 OA
BRANCH  23  26
HETATM   26  N3  UNL     1       0.128   2.546  93.657  1.00  0.00    -0.297 N 
HETATM   27  C16 UNL     1      -0.250   3.152  94.817  1.00  0.00     0.099 C 
ATOM     28  H3  UNL     1      -0.045   1.580  93.378  1.00  0.00     0.177 HD
BRANCH  27  29
HETATM   29  C17 UNL     1      -0.972   3.148  96.054  1.00  0.00     0.212 C 
BRANCH  29  30
HETATM   30  O4  UNL     1      -1.739   4.405  96.100  1.00  0.00    -0.386 OA
BRANCH  30  31
HETATM   31  C18 UNL     1      -2.640   4.362  95.075  1.00  0.00     0.169 C 
BRANCH  31  32
HETATM   32  C19 UNL     1      -4.018   4.396  95.571  1.00  0.00     0.045 C 
BRANCH  32  33
HETATM   33  C20 UNL     1      -4.473   5.588  96.334  1.00  0.00     0.115 C 
BRANCH  33  34
HETATM   34  N4  UNL     1      -3.973   5.690  97.686  1.00  0.00    -0.421 N 
ATOM     35  H4  UNL     1      -4.011   4.907  98.340  1.00  0.00     0.153 HD
BRANCH  34  36
HETATM   36  C21 UNL     1      -3.429   6.945  98.045  1.00  0.00     0.115 C 
BRANCH  36  37
HETATM   37  C22 UNL     1      -3.307   7.812  96.776  1.00  0.00     0.039 C 
BRANCH  37  38
HETATM   38  C23 UNL     1      -1.899   8.173  96.537  1.00  0.00     0.123 C 
BRANCH  38  39
HETATM   39  N5  UNL     1      -0.990   7.092  96.797  1.00  0.00    -0.365 N 
HETATM   40  C24 UNL     1       0.104   7.162  96.074  1.00  0.00     0.181 C 
HETATM   41  N6  UNL     1       1.110   6.232  96.172  1.00  0.00    -0.374 N 
HETATM   42  N7  UNL     1       0.198   8.306  95.168  1.00  0.00    -0.064 NA
ATOM     43  H62 UNL     1       1.046   5.434  96.804  1.00  0.00     0.158 HD
ATOM     44  H61 UNL     1       1.960   6.286  95.611  1.00  0.00     0.158 HD
ATOM     45  H5  UNL     1      -1.174   6.349  97.471  1.00  0.00     0.162 HD
ENDBRANCH  38  39
ENDBRANCH  37  38
ENDBRANCH  36  37
ENDBRANCH  34  36
ENDBRANCH  33  34
ENDBRANCH  32  33
ENDBRANCH  31  32
ENDBRANCH  30  31
ENDBRANCH  29  30
ENDBRANCH  27  29
ENDBRANCH  23  26
ENDBRANCH  22  23
ENDBRANCH  21  22
ENDBRANCH  10  21
ENDBRANCH   8   9
TORSDOF 17
ENDMDL
MODEL 4
REMARK VINA RESULT: -6.968875138      2.639      3.613
REMARK  17 active torsions:
REMARK  status: ('A' for Active; 'I' for Inactive)
REMARK    1  A    between atoms: C7_8  and  C8_9 
REMARK    2  A    between atoms: C8_9  and  C9_10 
REMARK    3  A    between atoms: C10_11  and  C11_12 
REMARK    4  A    between atoms: N2_19  and  C14_21 
REMARK    5  A    between atoms: C14_21  and  C15_22 
REMARK    6  A    between atoms: C15_22  and  S2_23 
REMARK    7  A    between atoms: S2_23  and  N3_26 
REMARK    8  A    between atoms: C16_28  and  C17_29 
REMARK    9  A    between atoms: C17_29  and  O4_30 
REMARK   10  A    between atoms: O4_30  and  C18_31 
REMARK   11  A    between atoms: C18_31  and  C19_32 
REMARK   12  A    between atoms: C19_32  and  C20_33 
REMARK   13  A    between atoms: C20_33  and  N4_34 
REMARK   14  A    between atoms: N4_34  and  C21_36 
REMARK   15  A    between atoms: C21_36  and  C22_37 
REMARK   16  A    between atoms: C22_37  and  C23_38 
REMARK   17  A    between atoms: C23_38  and  N5_39 
REMARK       I    between atoms: C24_41  and  N6_42 
ROOT
HETATM    1  C1  UNL     1      -0.515   4.055  93.548  1.00  0.00     0.210 C 
HETATM    2  O1  UNL     1      -1.123   3.703  94.624  1.00  0.00    -0.355 OA
HETATM    3  C2  UNL     1      -1.720   3.307  95.720  1.00  0.00     0.081 A 
HETATM    4  C3  UNL     1      -1.339   2.042  96.261  1.00  0.00     0.038 A 
HETATM    5  C4  UNL     1      -1.907   1.620  97.433  1.00  0.00     0.003 A 
HETATM    6  C5  UNL     1      -2.842   2.355  98.117  1.00  0.00     0.001 A 
HETATM    7  C6  UNL     1      -3.215   3.568  97.616  1.00  0.00     0.017 A 
HETATM    8  C7  UNL     1      -2.626   4.027  96.390  1.00  0.00     0.032 A 
ENDROOT
BRANCH   8   9
HETATM    9  C8  UNL     1      -3.355   5.172  95.883  1.00  0.00     0.096 C 
HETATM   10  N2  UNL     1      -3.367   6.346  95.865  1.00  0.00    -0.381 N 
ATOM     11  H2  UNL     1      -4.155   6.730  95.343  1.00  0.00     0.160 HD
BRANCH   9  12
HETATM   12  C9  UNL     1      -4.799   4.547  95.701  1.00  0.00    -0.045 C 
HETATM   13  C10 UNL     1      -5.955   4.185  95.723  1.00  0.00    -0.055 C 
BRANCH  13  14
HETATM   14  C11 UNL     1      -7.360   3.830  95.916  1.00  0.00     0.326 C 
HETATM   15  N1  UNL     1      -7.724   4.121  97.343  1.00  0.00    -0.051 N 
HETATM   16  C12 UNL     1      -6.846   3.302  98.132  1.00  0.00     0.245 C 
ATOM     17  H12 UNL     1      -7.689   5.112  97.583  1.00  0.00     0.279 HD
ATOM     18  H11 UNL     1      -8.713   3.984  97.552  1.00  0.00     0.279 HD
HETATM   19  C13 UNL     1      -7.048   1.852  97.757  1.00  0.00     0.104 C 
HETATM   20  S1  UNL     1      -7.598   2.041  96.004  1.00  0.00    -0.122 SA
ENDBRANCH  13  14
ENDBRANCH   9  12
BRANCH  10  21
HETATM   21  C14 UNL     1      -2.519   7.350  96.414  1.00  0.00     0.137 C 
BRANCH  21  22
HETATM   22  C15 UNL     1      -1.458   7.703  95.307  1.00  0.00     0.183 C 
BRANCH  22  23
HETATM   23  S2  UNL     1       0.108   7.612  96.150  1.00  0.00     0.231 S 
HETATM   24  O2  UNL     1       0.414   6.161  96.288  1.00  0.00    -0.206 OA
HETATM   25  O3  UNL     1       0.060   8.361  97.428  1.00  0.00    -0.206 OA
BRANCH  23  26
HETATM   26  N3  UNL     1       1.344   8.372  95.142  1.00  0.00    -0.297 N 
HETATM   27  C16 UNL     1       0.863   8.302  93.870  1.00  0.00     0.099 C 
ATOM     28  H3  UNL     1       2.229   8.777  95.448  1.00  0.00     0.177 HD
BRANCH  27  29
HETATM   29  C17 UNL     1       0.945   8.639  92.480  1.00  0.00     0.212 C 
BRANCH  29  30
HETATM   30  O4  UNL     1       0.081   9.816  92.279  1.00  0.00    -0.386 OA
BRANCH  30  31
HETATM   31  C18 UNL     1       0.717  10.632  91.389  1.00  0.00     0.169 C 
BRANCH  31  32
HETATM   32  C19 UNL     1       1.690   9.891  90.582  1.00  0.00     0.045 C 
BRANCH  32  33
HETATM   33  C20 UNL     1       2.929  10.585  90.142  1.00  0.00     0.115 C 
BRANCH  33  34
HETATM   34  N4  UNL     1       3.678  11.246  91.187  1.00  0.00    -0.421 N 
ATOM     35  H4  UNL     1       3.643  12.256  91.323  1.00  0.00     0.153 HD
BRANCH  34  36
HETATM   36  C21 UNL     1       4.462  10.402  92.007  1.00  0.00     0.115 C 
BRANCH  36  37
HETATM   37  C22 UNL     1       3.960  10.521  93.460  1.00  0.00     0.039 C 
BRANCH  37  38
HETATM   38  C23 UNL     1       5.060  10.931  94.349  1.00  0.00     0.123 C 
BRANCH  38  39
HETATM   39  N5  UNL     1       4.720  12.050  95.183  1.00  0.00    -0.365 N 
HETATM   40  C24 UNL     1       5.174  11.927  96.410  1.00  0.00     0.181 C 
HETATM   41  N6  UNL     1       4.968  12.887  97.370  1.00  0.00    -0.374 N 
HETATM   42  N7  UNL     1       5.932  10.708  96.689  1.00  0.00    -0.064 NA
ATOM     43  H62 UNL     1       4.439  13.737  97.175  1.00  0.00     0.158 HD
ATOM     44  H61 UNL     1       5.320  12.792  98.322  1.00  0.00     0.158 HD
ATOM     45  H5  UNL     1       4.184  12.854  94.858  1.00  0.00     0.162 HD
ENDBRANCH  38  39
ENDBRANCH  37  38
ENDBRANCH  36  37
ENDBRANCH  34  36
ENDBRANCH  33  34
ENDBRANCH  32  33
ENDBRANCH  31  32
ENDBRANCH  30  31
ENDBRANCH  29  30
ENDBRANCH  27  29
ENDBRANCH  23  26
ENDBRANCH  22  23
ENDBRANCH  21  22
ENDBRANCH  10  21
ENDBRANCH   8   9
TORSDOF 17
ENDMDL
MODEL 5
REMARK VINA RESULT: -6.779601192      1.990      2.422
REMARK  17 active torsions:
REMARK  status: ('A' for Active; 'I' for Inactive)
REMARK    1  A    between atoms: C7_8  and  C8_9 
REMARK    2  A    between atoms: C8_9  and  C9_10 
REMARK    3  A    between atoms: C10_11  and  C11_12 
REMARK    4  A    between atoms: N2_19  and  C14_21 
REMARK    5  A    between atoms: C14_21  and  C15_22 
REMARK    6  A    between atoms: C15_22  and  S2_23 
REMARK    7  A    between atoms: S2_23  and  N3_26 
REMARK    8  A    between atoms: C16_28  and  C17_29 
REMARK    9  A    between atoms: C17_29  and  O4_30 
REMARK   10  A    between atoms: O4_30  and  C18_31 
REMARK   11  A    between atoms: C18_31  and  C19_32 
REMARK   12  A    between atoms: C19_32  and  C20_33 
REMARK   13  A    between atoms: C20_33  and  N4_34 
REMARK   14  A    between atoms: N4_34  and  C21_36 
REMARK   15  A    between atoms: C21_36  and  C22_37 
REMARK   16  A    between atoms: C22_37  and  C23_38 
REMARK   17  A    between atoms: C23_38  and  N5_39 
REMARK       I    between atoms: C24_41  and  N6_42 
ROOT
HETATM    1  C1  UNL     1      -3.338   8.093  96.385  1.00  0.00     0.210 C 
HETATM    2  O1  UNL     1      -3.176   6.844  96.637  1.00  0.00    -0.355 OA
HETATM    3  C2  UNL     1      -3.030   5.576  96.933  1.00  0.00     0.081 A 
HETATM    4  C3  UNL     1      -3.547   5.125  98.184  1.00  0.00     0.038 A 
HETATM    5  C4  UNL     1      -3.456   3.797  98.503  1.00  0.00     0.003 A 
HETATM    6  C5  UNL     1      -2.878   2.867  97.676  1.00  0.00     0.001 A 
HETATM    7  C6  UNL     1      -2.382   3.281  96.474  1.00  0.00     0.017 A 
HETATM    8  C7  UNL     1      -2.473   4.669  96.122  1.00  0.00     0.032 A 
ENDROOT
BRANCH   8   9
HETATM    9  C8  UNL     1      -1.644   4.949  94.968  1.00  0.00     0.096 C 
HETATM   10  N2  UNL     1      -0.560   5.264  94.642  1.00  0.00    -0.381 N 
ATOM     11  H2  UNL     1      -0.456   5.353  93.631  1.00  0.00     0.160 HD
BRANCH   9  12
HETATM   12  C9  UNL     1      -2.743   5.373  93.909  1.00  0.00    -0.045 C 
HETATM   13  C10 UNL     1      -3.425   5.761  92.986  1.00  0.00    -0.055 C 
BRANCH  13  14
HETATM   14  C11 UNL     1      -4.094   6.311  91.808  1.00  0.00     0.326 C 
HETATM   15  N1  UNL     1      -3.499   7.659  91.520  1.00  0.00    -0.051 N 
HETATM   16  C12 UNL     1      -3.748   8.442  92.699  1.00  0.00     0.245 C 
ATOM     17  H12 UNL     1      -2.517   7.626  91.248  1.00  0.00     0.279 HD
ATOM     18  H11 UNL     1      -3.846   8.087  90.661  1.00  0.00     0.279 HD
HETATM   19  C13 UNL     1      -5.236   8.498  92.954  1.00  0.00     0.104 C 
HETATM   20  S1  UNL     1      -5.759   6.898  92.193  1.00  0.00    -0.122 SA
ENDBRANCH  13  14
ENDBRANCH   9  12
BRANCH  10  21
HETATM   21  C14 UNL     1       0.639   5.551  95.355  1.00  0.00     0.137 C 
BRANCH  21  22
HETATM   22  C15 UNL     1       1.555   6.385  94.384  1.00  0.00     0.183 C 
BRANCH  22  23
HETATM   23  S2  UNL     1       0.908   8.041  94.481  1.00  0.00     0.231 S 
HETATM   24  O2  UNL     1       2.068   8.947  94.247  1.00  0.00    -0.206 OA
HETATM   25  O3  UNL     1       0.203   8.255  95.766  1.00  0.00    -0.206 OA
BRANCH  23  26
HETATM   26  N3  UNL     1      -0.275   8.269  93.189  1.00  0.00    -0.297 N 
HETATM   27  C16 UNL     1       0.313   7.763  92.070  1.00  0.00     0.099 C 
ATOM     28  H3  UNL     1      -1.201   8.689  93.265  1.00  0.00     0.177 HD
BRANCH  27  29
HETATM   29  C17 UNL     1       0.257   7.374  90.692  1.00  0.00     0.212 C 
BRANCH  29  30
HETATM   30  O4  UNL     1       1.084   8.339  89.946  1.00  0.00    -0.386 OA
BRANCH  30  31
HETATM   31  C18 UNL     1       0.386   8.680  88.823  1.00  0.00     0.169 C 
BRANCH  31  32
HETATM   32  C19 UNL     1       0.684  10.052  88.402  1.00  0.00     0.045 C 
BRANCH  32  33
HETATM   33  C20 UNL     1       1.014  11.062  89.442  1.00  0.00     0.115 C 
BRANCH  33  34
HETATM   34  N4  UNL     1       2.336  10.957  90.016  1.00  0.00    -0.421 N 
ATOM     35  H4  UNL     1       3.178  10.943  89.440  1.00  0.00     0.153 HD
BRANCH  34  36
HETATM   36  C21 UNL     1       2.387  10.876  91.427  1.00  0.00     0.115 C 
BRANCH  36  37
HETATM   37  C22 UNL     1       3.865  10.836  91.866  1.00  0.00     0.039 C 
BRANCH  37  38
HETATM   38  C23 UNL     1       4.718  10.398  90.749  1.00  0.00     0.123 C 
BRANCH  38  39
HETATM   39  N5  UNL     1       5.352  11.491  90.064  1.00  0.00    -0.365 N 
HETATM   40  C24 UNL     1       6.560  11.196  89.643  1.00  0.00     0.181 C 
HETATM   41  N6  UNL     1       7.340  12.095  88.958  1.00  0.00    -0.374 N 
HETATM   42  N7  UNL     1       7.022   9.838  89.931  1.00  0.00    -0.064 NA
ATOM     43  H62 UNL     1       7.018  13.041  88.757  1.00  0.00     0.158 HD
ATOM     44  H61 UNL     1       8.278  11.865  88.630  1.00  0.00     0.158 HD
ATOM     45  H5  UNL     1       4.911  12.400  89.921  1.00  0.00     0.162 HD
ENDBRANCH  38  39
ENDBRANCH  37  38
ENDBRANCH  36  37
ENDBRANCH  34  36
ENDBRANCH  33  34
ENDBRANCH  32  33
ENDBRANCH  31  32
ENDBRANCH  30  31
ENDBRANCH  29  30
ENDBRANCH  27  29
ENDBRANCH  23  26
ENDBRANCH  22  23
ENDBRANCH  21  22
ENDBRANCH  10  21
ENDBRANCH   8   9
TORSDOF 17
ENDMDL
