MODEL 1
REMARK VINA RESULT: -7.865050035      0.000      0.000
REMARK  18 active torsions:
REMARK  status: ('A' for Active; 'I' for Inactive)
REMARK    1  A    between atoms: C2_2  and  C3_3 
REMARK    2  A    between atoms: C3_3  and  N1_4 
REMARK    3  A    between atoms: N1_4  and  C4_5 
REMARK    4  A    between atoms: N1_4  and  C7_8 
REMARK    5  A    between atoms: C4_5  and  C5_6 
REMARK    6  A    between atoms: C7_8  and  C8_9 
REMARK    7  A    between atoms: C8_9  and  N2_10 
REMARK    8  A    between atoms: N3_13  and  C11_14 
REMARK    9  A    between atoms: C11_14  and  C12_15 
REMARK   10  A    between atoms: C12_15  and  C13_16 
REMARK   11  A    between atoms: C12_15  and  N7_26 
REMARK   12  A    between atoms: C13_16  and  C14_17 
REMARK   13  A    between atoms: C14_17  and  C15_18 
REMARK   14  A    between atoms: C15_18  and  N4_19 
REMARK       I    between atoms: N4_19  and  C16_21 
REMARK       I    between atoms: N7_26  and  C17_28 
REMARK   15  A    between atoms: C17_28  and  C18_30 
REMARK   16  A    between atoms: C18_30  and  N8_31 
REMARK   17  A    between atoms: C19_34  and  C20_35 
REMARK   18  A    between atoms: C25_44  and  N12_45 
ROOT
HETATM    1  C12 UNL     1      -0.395   6.536  91.927  1.00  0.00     0.113 C 
ENDROOT
BRANCH   1   2
HETATM    2  C11 UNL     1      -1.916   6.888  91.737  1.00  0.00     0.299 C 
BRANCH   2   3
HETATM    3  N3  UNL     1      -2.638   6.234  92.749  1.00  0.00     0.109 N 
HETATM    4  C10 UNL     1      -4.057   6.179  92.520  1.00  0.00     0.294 C 
HETATM    5  C9  UNL     1      -4.613   6.008  93.963  1.00  0.00     0.154 C 
HETATM    6  N2  UNL     1      -3.685   6.711  94.739  1.00  0.00    -0.365 N 
HETATM    7  C26 UNL     1      -2.477   6.948  94.036  1.00  0.00     0.397 C 
BRANCH   6   8
HETATM    8  C8  UNL     1      -3.683   6.654  96.136  1.00  0.00     0.090 C 
BRANCH   8   9
HETATM    9  C7  UNL     1      -2.637   5.699  96.694  1.00  0.00     0.317 C 
BRANCH   9  10
HETATM   10  N1  UNL     1      -3.202   4.506  97.276  1.00  0.00     0.096 N 
BRANCH  10  11
HETATM   11  C3  UNL     1      -4.643   4.628  97.444  1.00  0.00     0.299 C 
BRANCH  11  12
HETATM   12  C2  UNL     1      -5.057   4.465  98.863  1.00  0.00    -0.007 C 
HETATM   13  C1  UNL     1      -4.633   5.347  99.786  1.00  0.00     0.008 C 
ENDBRANCH  11  12
ENDBRANCH  10  11
BRANCH  10  14
HETATM   14  C4  UNL     1      -2.906   3.395  96.390  1.00  0.00     0.273 C 
BRANCH  14  15
HETATM   15  C5  UNL     1      -1.906   2.441  96.949  1.00  0.00     0.026 C 
HETATM   16  C6  UNL     1      -2.653   1.637  98.051  1.00  0.00     0.007 C 
ENDBRANCH  14  15
ENDBRANCH  10  14
ENDBRANCH   9  10
ENDBRANCH   8   9
ENDBRANCH   6   8
ENDBRANCH   2   3
ENDBRANCH   1   2
BRANCH   1  17
HETATM   17  C13 UNL     1      -0.188   5.112  91.661  1.00  0.00     0.028 C 
BRANCH  17  18
HETATM   18  C14 UNL     1       0.492   4.346  92.721  1.00  0.00     0.022 C 
BRANCH  18  19
HETATM   19  C15 UNL     1      -0.116   4.202  94.062  1.00  0.00     0.122 C 
BRANCH  19  20
HETATM   20  N4  UNL     1       0.608   4.751  95.161  1.00  0.00    -0.365 N 
HETATM   21  C16 UNL     1       1.417   5.901  95.011  1.00  0.00     0.181 C 
HETATM   22  N5  UNL     1       0.847   7.066  95.217  1.00  0.00    -0.374 N 
HETATM   23  N6  UNL     1       2.766   5.885  94.626  1.00  0.00    -0.064 NA
ATOM     24  H52 UNL     1      -0.134   7.078  95.497  1.00  0.00     0.158 HD
ATOM     25  H51 UNL     1       1.431   7.895  95.109  1.00  0.00     0.158 HD
ATOM     26  H4  UNL     1       0.540   4.305  96.075  1.00  0.00     0.162 HD
ENDBRANCH  19  20
ENDBRANCH  18  19
ENDBRANCH  17  18
ENDBRANCH   1  17
BRANCH   1  27
HETATM   27  N7  UNL     1       0.300   7.418  91.034  1.00  0.00    -0.353 N 
HETATM   28  C17 UNL     1       0.661   8.747  91.547  1.00  0.00     0.238 C 
HETATM   29  O1  UNL     1       0.297   9.001  92.723  1.00  0.00    -0.272 OA
ATOM     30  H7  UNL     1       0.534   7.135  90.083  1.00  0.00     0.163 HD
BRANCH  28  31
HETATM   31  C18 UNL     1       1.399   9.638  90.678  1.00  0.00     0.270 C 
BRANCH  31  32
HETATM   32  N8  UNL     1       2.565  10.181  91.331  1.00  0.00    -0.114 N 
HETATM   33  N9  UNL     1       2.729  10.315  92.655  1.00  0.00    -0.266 N 
HETATM   34  C19 UNL     1       3.906  10.918  92.884  1.00  0.00     0.163 A 
ATOM     35  H9  UNL     1       2.069  10.009  93.370  1.00  0.00     0.189 HD
HETATM   36  N11 UNL     1       4.488  11.170  91.711  1.00  0.00    -0.172 N 
HETATM   37  C25 UNL     1       3.635  10.703  90.763  1.00  0.00     0.694 A 
ATOM     38  H11 UNL     1       5.390  11.621  91.558  1.00  0.00     0.186 HD
BRANCH  34  39
HETATM   39  C20 UNL     1       4.424  11.280  94.212  1.00  0.00     0.078 A 
HETATM   40  C21 UNL     1       5.103  10.361  94.945  1.00  0.00     0.033 A 
HETATM   41  C22 UNL     1       5.560  10.669  96.226  1.00  0.00     0.004 A 
HETATM   42  C23 UNL     1       5.318  11.908  96.739  1.00  0.00     0.017 A 
HETATM   43  C24 UNL     1       4.612  12.830  95.947  1.00  0.00     0.088 A 
HETATM   44  N10 UNL     1       4.180  12.505  94.706  1.00  0.00    -0.363 N 
ATOM     45  H10 UNL     1       3.670  13.189  94.147  1.00  0.00     0.165 HD
ENDBRANCH  34  39
BRANCH  37  46
HETATM   46  N12 UNL     1       3.885  10.766  89.476  1.00  0.00    -0.233 N 
ATOM     47 2H12 UNL     1       3.606  10.039  88.816  1.00  0.00     0.174 HD
ATOM     48 1H12 UNL     1       4.359  11.524  88.986  1.00  0.00     0.174 HD
ENDBRANCH  37  46
ENDBRANCH  31  32
ENDBRANCH  28  31
ENDBRANCH   1  27
TORSDOF 18
ENDMDL
MODEL 2
REMARK VINA RESULT: -7.789034341      1.435      2.250
REMARK  18 active torsions:
REMARK  status: ('A' for Active; 'I' for Inactive)
REMARK    1  A    between atoms: C2_2  and  C3_3 
REMARK    2  A    between atoms: C3_3  and  N1_4 
REMARK    3  A    between atoms: N1_4  and  C4_5 
REMARK    4  A    between atoms: N1_4  and  C7_8 
REMARK    5  A    between atoms: C4_5  and  C5_6 
REMARK    6  A    between atoms: C7_8  and  C8_9 
REMARK    7  A    between atoms: C8_9  and  N2_10 
REMARK    8  A    between atoms: N3_13  and  C11_14 
REMARK    9  A    between atoms: C11_14  and  C12_15 
REMARK   10  A    between atoms: C12_15  and  C13_16 
REMARK   11  A    between atoms: C12_15  and  N7_26 
REMARK   12  A    between atoms: C13_16  and  C14_17 
REMARK   13  A    between atoms: C14_17  and  C15_18 
REMARK   14  A    between atoms: C15_18  and  N4_19 
REMARK       I    between atoms: N4_19  and  C16_21 
REMARK       I    between atoms: N7_26  and  C17_28 
REMARK   15  A    between atoms: C17_28  and  C18_30 
REMARK   16  A    between atoms: C18_30  and  N8_31 
REMARK   17  A    between atoms: C19_34  and  C20_35 
REMARK   18  A    between atoms: C25_44  and  N12_45 
ROOT
HETATM    1  C12 UNL     1      -0.976   7.301  92.024  1.00  0.00     0.113 C 
ENDROOT
BRANCH   1   2
HETATM    2  C11 UNL     1      -2.392   7.438  91.353  1.00  0.00     0.299 C 
BRANCH   2   3
HETATM    3  N3  UNL     1      -3.297   6.666  92.100  1.00  0.00     0.109 N 
HETATM    4  C10 UNL     1      -4.664   6.772  91.663  1.00  0.00     0.294 C 
HETATM    5  C9  UNL     1      -5.448   6.378  92.948  1.00  0.00     0.154 C 
HETATM    6  N2  UNL     1      -4.618   6.844  93.974  1.00  0.00    -0.365 N 
HETATM    7  C26 UNL     1      -3.303   7.110  93.513  1.00  0.00     0.397 C 
BRANCH   6   8
HETATM    8  C8  UNL     1      -4.838   6.526  95.317  1.00  0.00     0.090 C 
BRANCH   8   9
HETATM    9  C7  UNL     1      -4.246   5.182  95.718  1.00  0.00     0.317 C 
BRANCH   9  10
HETATM   10  N1  UNL     1      -3.204   5.287  96.710  1.00  0.00     0.096 N 
BRANCH  10  11
HETATM   11  C3  UNL     1      -3.422   4.358  97.809  1.00  0.00     0.299 C 
BRANCH  11  12
HETATM   12  C2  UNL     1      -2.685   3.081  97.617  1.00  0.00    -0.007 C 
HETATM   13  C1  UNL     1      -3.103   1.968  98.248  1.00  0.00     0.008 C 
ENDBRANCH  11  12
ENDBRANCH  10  11
BRANCH  10  14
HETATM   14  C4  UNL     1      -1.940   4.989  96.062  1.00  0.00     0.273 C 
BRANCH  14  15
HETATM   15  C5  UNL     1      -0.948   6.097  96.159  1.00  0.00     0.026 C 
HETATM   16  C6  UNL     1       0.445   5.444  95.929  1.00  0.00     0.007 C 
ENDBRANCH  14  15
ENDBRANCH  10  14
ENDBRANCH   9  10
ENDBRANCH   8   9
ENDBRANCH   6   8
ENDBRANCH   2   3
ENDBRANCH   1   2
BRANCH   1  17
HETATM   17  C13 UNL     1      -0.716   5.894  92.328  1.00  0.00     0.028 C 
BRANCH  17  18
HETATM   18  C14 UNL     1       0.695   5.468  92.274  1.00  0.00     0.022 C 
BRANCH  18  19
HETATM   19  C15 UNL     1       1.096   4.268  91.507  1.00  0.00     0.122 C 
BRANCH  19  20
HETATM   20  N4  UNL     1       1.535   3.139  92.258  1.00  0.00    -0.365 N 
HETATM   21  C16 UNL     1       0.615   2.229  92.829  1.00  0.00     0.181 C 
HETATM   22  N5  UNL     1       0.256   1.200  92.095  1.00  0.00    -0.374 N 
HETATM   23  N6  UNL     1       0.035   2.368  94.099  1.00  0.00    -0.064 NA
ATOM     24  H52 UNL     1       0.678   1.100  91.172  1.00  0.00     0.158 HD
ATOM     25  H51 UNL     1      -0.407   0.544  92.507  1.00  0.00     0.158 HD
ATOM     26  H4  UNL     1       2.534   2.984  92.387  1.00  0.00     0.162 HD
ENDBRANCH  19  20
ENDBRANCH  18  19
ENDBRANCH  17  18
ENDBRANCH   1  17
BRANCH   1  27
HETATM   27  N7  UNL     1      -0.065   7.887  91.081  1.00  0.00    -0.353 N 
HETATM   28  C17 UNL     1       0.420   9.244  91.368  1.00  0.00     0.238 C 
HETATM   29  O1  UNL     1      -0.036   9.783  92.408  1.00  0.00    -0.272 OA
ATOM     30  H7  UNL     1       0.233   7.381  90.247  1.00  0.00     0.163 HD
BRANCH  28  31
HETATM   31  C18 UNL     1       1.370   9.838  90.453  1.00  0.00     0.270 C 
BRANCH  31  32
HETATM   32  N8  UNL     1       2.552  10.303  91.135  1.00  0.00    -0.114 N 
HETATM   33  N9  UNL     1       2.693  10.426  92.463  1.00  0.00    -0.266 N 
HETATM   34  C19 UNL     1       3.900  10.952  92.722  1.00  0.00     0.163 A 
ATOM     35  H9  UNL     1       1.997  10.164  93.161  1.00  0.00     0.189 HD
HETATM   36  N11 UNL     1       4.525  11.165  91.565  1.00  0.00    -0.172 N 
HETATM   37  C25 UNL     1       3.668  10.754  90.594  1.00  0.00     0.694 A 
ATOM     38  H11 UNL     1       5.459  11.557  91.434  1.00  0.00     0.186 HD
BRANCH  34  39
HETATM   39  C20 UNL     1       4.408  11.279  94.063  1.00  0.00     0.078 A 
HETATM   40  C21 UNL     1       5.084  10.343  94.776  1.00  0.00     0.033 A 
HETATM   41  C22 UNL     1       5.531  10.617  96.068  1.00  0.00     0.004 A 
HETATM   42  C23 UNL     1       5.282  11.842  96.613  1.00  0.00     0.017 A 
HETATM   43  C24 UNL     1       4.578  12.782  95.841  1.00  0.00     0.088 A 
HETATM   44  N10 UNL     1       4.156  12.490  94.589  1.00  0.00    -0.363 N 
ATOM     45  H10 UNL     1       3.648  13.187  94.045  1.00  0.00     0.165 HD
ENDBRANCH  34  39
BRANCH  37  46
HETATM   46  N12 UNL     1       3.953  10.801  89.315  1.00  0.00    -0.233 N 
ATOM     47 2H12 UNL     1       4.468  10.066  88.830  1.00  0.00     0.174 HD
ATOM     48 1H12 UNL     1       3.696  11.541  88.662  1.00  0.00     0.174 HD
ENDBRANCH  37  46
ENDBRANCH  31  32
ENDBRANCH  28  31
ENDBRANCH   1  27
TORSDOF 18
ENDMDL
MODEL 3
REMARK VINA RESULT: -7.767256462      1.518      2.563
REMARK  18 active torsions:
REMARK  status: ('A' for Active; 'I' for Inactive)
REMARK    1  A    between atoms: C2_2  and  C3_3 
REMARK    2  A    between atoms: C3_3  and  N1_4 
REMARK    3  A    between atoms: N1_4  and  C4_5 
REMARK    4  A    between atoms: N1_4  and  C7_8 
REMARK    5  A    between atoms: C4_5  and  C5_6 
REMARK    6  A    between atoms: C7_8  and  C8_9 
REMARK    7  A    between atoms: C8_9  and  N2_10 
REMARK    8  A    between atoms: N3_13  and  C11_14 
REMARK    9  A    between atoms: C11_14  and  C12_15 
REMARK   10  A    between atoms: C12_15  and  C13_16 
REMARK   11  A    between atoms: C12_15  and  N7_26 
REMARK   12  A    between atoms: C13_16  and  C14_17 
REMARK   13  A    between atoms: C14_17  and  C15_18 
REMARK   14  A    between atoms: C15_18  and  N4_19 
REMARK       I    between atoms: N4_19  and  C16_21 
REMARK       I    between atoms: N7_26  and  C17_28 
REMARK   15  A    between atoms: C17_28  and  C18_30 
REMARK   16  A    between atoms: C18_30  and  N8_31 
REMARK   17  A    between atoms: C19_34  and  C20_35 
REMARK   18  A    between atoms: C25_44  and  N12_45 
ROOT
HETATM    1  C12 UNL     1      -0.174   6.770  92.754  1.00  0.00     0.113 C 
ENDROOT
BRANCH   1   2
HETATM    2  C11 UNL     1      -1.414   6.241  91.944  1.00  0.00     0.299 C 
BRANCH   2   3
HETATM    3  N3  UNL     1      -2.508   6.184  92.823  1.00  0.00     0.109 N 
HETATM    4  C10 UNL     1      -3.782   6.040  92.170  1.00  0.00     0.294 C 
HETATM    5  C9  UNL     1      -4.761   6.614  93.235  1.00  0.00     0.154 C 
HETATM    6  N2  UNL     1      -3.991   7.599  93.864  1.00  0.00    -0.365 N 
HETATM    7  C26 UNL     1      -2.607   7.442  93.599  1.00  0.00     0.397 C 
BRANCH   6   8
HETATM    8  C8  UNL     1      -4.411   8.245  95.031  1.00  0.00     0.090 C 
BRANCH   8   9
HETATM    9  C7  UNL     1      -4.623   7.291  96.198  1.00  0.00     0.317 C 
BRANCH   9  10
HETATM   10  N1  UNL     1      -4.034   7.754  97.432  1.00  0.00     0.096 N 
BRANCH  10  11
HETATM   11  C3  UNL     1      -3.707   6.643  98.314  1.00  0.00     0.299 C 
BRANCH  11  12
HETATM   12  C2  UNL     1      -3.526   5.370  97.567  1.00  0.00    -0.007 C 
HETATM   13  C1  UNL     1      -3.414   4.211  98.242  1.00  0.00     0.008 C 
ENDBRANCH  11  12
ENDBRANCH  10  11
BRANCH  10  14
HETATM   14  C4  UNL     1      -2.825   8.487  97.101  1.00  0.00     0.273 C 
BRANCH  14  15
HETATM   15  C5  UNL     1      -1.899   8.657  98.256  1.00  0.00     0.026 C 
HETATM   16  C6  UNL     1      -0.467   8.438  97.691  1.00  0.00     0.007 C 
ENDBRANCH  14  15
ENDBRANCH  10  14
ENDBRANCH   9  10
ENDBRANCH   8   9
ENDBRANCH   6   8
ENDBRANCH   2   3
ENDBRANCH   1   2
BRANCH   1  17
HETATM   17  C13 UNL     1       0.459   5.655  93.458  1.00  0.00     0.028 C 
BRANCH  17  18
HETATM   18  C14 UNL     1       0.590   5.801  94.920  1.00  0.00     0.022 C 
BRANCH  18  19
HETATM   19  C15 UNL     1      -0.293   5.051  95.840  1.00  0.00     0.122 C 
BRANCH  19  20
HETATM   20  N4  UNL     1       0.069   3.703  96.126  1.00  0.00    -0.365 N 
HETATM   21  C16 UNL     1      -0.547   2.616  95.462  1.00  0.00     0.181 C 
HETATM   22  N5  UNL     1       0.016   2.195  94.353  1.00  0.00    -0.374 N 
HETATM   23  N6  UNL     1      -1.728   1.986  95.883  1.00  0.00    -0.064 NA
ATOM     24  H52 UNL     1       0.874   2.653  94.046  1.00  0.00     0.158 HD
ATOM     25  H51 UNL     1      -0.428   1.412  93.874  1.00  0.00     0.158 HD
ATOM     26  H4  UNL     1       0.787   3.517  96.825  1.00  0.00     0.162 HD
ENDBRANCH  19  20
ENDBRANCH  18  19
ENDBRANCH  17  18
ENDBRANCH   1  17
BRANCH   1  27
HETATM   27  N7  UNL     1       0.658   7.409  91.775  1.00  0.00    -0.353 N 
HETATM   28  C17 UNL     1       0.616   8.876  91.709  1.00  0.00     0.238 C 
HETATM   29  O1  UNL     1      -0.176   9.440  92.505  1.00  0.00    -0.272 OA
ATOM     30  H7  UNL     1       1.255   6.866  91.150  1.00  0.00     0.163 HD
BRANCH  28  31
HETATM   31  C18 UNL     1       1.478   9.543  90.758  1.00  0.00     0.270 C 
BRANCH  31  32
HETATM   32  N8  UNL     1       2.624  10.139  91.398  1.00  0.00    -0.114 N 
HETATM   33  N9  UNL     1       2.796  10.282  92.720  1.00  0.00    -0.266 N 
HETATM   34  C19 UNL     1       3.946  10.939  92.937  1.00  0.00     0.163 A 
ATOM     35  H9  UNL     1       2.158   9.947  93.442  1.00  0.00     0.189 HD
HETATM   36  N11 UNL     1       4.504  11.216  91.759  1.00  0.00    -0.172 N 
HETATM   37  C25 UNL     1       3.664  10.709  90.819  1.00  0.00     0.694 A 
ATOM     38  H11 UNL     1       5.382  11.708  91.596  1.00  0.00     0.186 HD
BRANCH  34  39
HETATM   39  C20 UNL     1       4.460  11.326  94.259  1.00  0.00     0.078 A 
HETATM   40  C21 UNL     1       5.141  10.423  95.010  1.00  0.00     0.033 A 
HETATM   41  C22 UNL     1       5.595  10.754  96.286  1.00  0.00     0.004 A 
HETATM   42  C23 UNL     1       5.348  12.002  96.777  1.00  0.00     0.017 A 
HETATM   43  C24 UNL     1       4.639  12.906  95.968  1.00  0.00     0.088 A 
HETATM   44  N10 UNL     1       4.211  12.559  94.732  1.00  0.00    -0.363 N 
ATOM     45  H10 UNL     1       3.699  13.231  94.160  1.00  0.00     0.165 HD
ENDBRANCH  34  39
BRANCH  37  46
HETATM   46  N12 UNL     1       3.897  10.782  89.530  1.00  0.00    -0.233 N 
ATOM     47 2H12 UNL     1       4.400  10.062  89.011  1.00  0.00     0.174 HD
ATOM     48 1H12 UNL     1       3.608  11.531  88.901  1.00  0.00     0.174 HD
ENDBRANCH  37  46
ENDBRANCH  31  32
ENDBRANCH  28  31
ENDBRANCH   1  27
TORSDOF 18
ENDMDL
MODEL 4
REMARK VINA RESULT: -7.728222363      2.164      4.407
REMARK  18 active torsions:
REMARK  status: ('A' for Active; 'I' for Inactive)
REMARK    1  A    between atoms: C2_2  and  C3_3 
REMARK    2  A    between atoms: C3_3  and  N1_4 
REMARK    3  A    between atoms: N1_4  and  C4_5 
REMARK    4  A    between atoms: N1_4  and  C7_8 
REMARK    5  A    between atoms: C4_5  and  C5_6 
REMARK    6  A    between atoms: C7_8  and  C8_9 
REMARK    7  A    between atoms: C8_9  and  N2_10 
REMARK    8  A    between atoms: N3_13  and  C11_14 
REMARK    9  A    between atoms: C11_14  and  C12_15 
REMARK   10  A    between atoms: C12_15  and  C13_16 
REMARK   11  A    between atoms: C12_15  and  N7_26 
REMARK   12  A    between atoms: C13_16  and  C14_17 
REMARK   13  A    between atoms: C14_17  and  C15_18 
REMARK   14  A    between atoms: C15_18  and  N4_19 
REMARK       I    between atoms: N4_19  and  C16_21 
REMARK       I    between atoms: N7_26  and  C17_28 
REMARK   15  A    between atoms: C17_28  and  C18_30 
REMARK   16  A    between atoms: C18_30  and  N8_31 
REMARK   17  A    between atoms: C19_34  and  C20_35 
REMARK   18  A    between atoms: C25_44  and  N12_45 
ROOT
HETATM    1  C12 UNL     1      -1.545   8.593  91.058  1.00  0.00     0.113 C 
ENDROOT
BRANCH   1   2
HETATM    2  C11 UNL     1      -2.085   9.143  92.429  1.00  0.00     0.299 C 
BRANCH   2   3
HETATM    3  N3  UNL     1      -2.162   8.063  93.324  1.00  0.00     0.109 N 
HETATM    4  C10 UNL     1      -3.154   8.220  94.354  1.00  0.00     0.294 C 
HETATM    5  C9  UNL     1      -2.616   7.280  95.470  1.00  0.00     0.154 C 
HETATM    6  N2  UNL     1      -1.228   7.364  95.305  1.00  0.00    -0.365 N 
HETATM    7  C26 UNL     1      -0.876   7.901  94.042  1.00  0.00     0.397 C 
BRANCH   6   8
HETATM    8  C8  UNL     1      -0.343   6.516  95.978  1.00  0.00     0.090 C 
BRANCH   8   9
HETATM    9  C7  UNL     1       0.537   5.705  95.038  1.00  0.00     0.317 C 
BRANCH   9  10
HETATM   10  N1  UNL     1       0.085   4.346  94.859  1.00  0.00     0.096 N 
BRANCH  10  11
HETATM   11  C3  UNL     1      -0.834   3.949  95.915  1.00  0.00     0.299 C 
BRANCH  11  12
HETATM   12  C2  UNL     1      -0.738   2.497  96.224  1.00  0.00    -0.007 C 
HETATM   13  C1  UNL     1      -1.796   1.856  96.754  1.00  0.00     0.008 C 
ENDBRANCH  11  12
ENDBRANCH  10  11
BRANCH  10  14
HETATM   14  C4  UNL     1      -0.583   4.264  93.573  1.00  0.00     0.273 C 
BRANCH  14  15
HETATM   15  C5  UNL     1       0.266   3.674  92.500  1.00  0.00     0.026 C 
HETATM   16  C6  UNL     1       0.619   4.846  91.541  1.00  0.00     0.007 C 
ENDBRANCH  14  15
ENDBRANCH  10  14
ENDBRANCH   9  10
ENDBRANCH   8   9
ENDBRANCH   6   8
ENDBRANCH   2   3
ENDBRANCH   1   2
BRANCH   1  17
HETATM   17  C13 UNL     1      -2.674   8.248  90.193  1.00  0.00     0.028 C 
BRANCH  17  18
HETATM   18  C14 UNL     1      -2.803   9.034  88.951  1.00  0.00     0.022 C 
BRANCH  18  19
HETATM   19  C15 UNL     1      -3.097   8.371  87.662  1.00  0.00     0.122 C 
BRANCH  19  20
HETATM   20  N4  UNL     1      -2.068   8.392  86.676  1.00  0.00    -0.365 N 
HETATM   21  C16 UNL     1      -0.798   8.955  86.945  1.00  0.00     0.181 C 
HETATM   22  N5  UNL     1       0.122   8.152  87.429  1.00  0.00    -0.374 N 
HETATM   23  N6  UNL     1      -0.468  10.307  86.768  1.00  0.00    -0.064 NA
ATOM     24  H52 UNL     1      -0.118   7.169  87.559  1.00  0.00     0.158 HD
ATOM     25  H51 UNL     1       1.037   8.558  87.624  1.00  0.00     0.158 HD
ATOM     26  H4  UNL     1      -2.251   7.993  85.756  1.00  0.00     0.162 HD
ENDBRANCH  19  20
ENDBRANCH  18  19
ENDBRANCH  17  18
ENDBRANCH   1  17
BRANCH   1  27
HETATM   27  N7  UNL     1      -0.700   9.637  90.551  1.00  0.00    -0.353 N 
HETATM   28  C17 UNL     1       0.751   9.412  90.600  1.00  0.00     0.238 C 
HETATM   29  O1  UNL     1       1.123   8.327  91.115  1.00  0.00    -0.272 OA
ATOM     30  H7  UNL     1      -1.092  10.499  90.172  1.00  0.00     0.163 HD
BRANCH  28  31
HETATM   31  C18 UNL     1       1.619  10.434  90.057  1.00  0.00     0.270 C 
BRANCH  31  32
HETATM   32  N8  UNL     1       2.785  10.640  90.881  1.00  0.00    -0.114 N 
HETATM   33  N9  UNL     1       2.790  10.741  92.218  1.00  0.00    -0.266 N 
HETATM   34  C19 UNL     1       4.043  10.998  92.626  1.00  0.00     0.163 A 
ATOM     35  H9  UNL     1       1.977  10.640  92.825  1.00  0.00     0.189 HD
HETATM   36  N11 UNL     1       4.832  11.063  91.554  1.00  0.00    -0.172 N 
HETATM   37  C25 UNL     1       4.027  10.837  90.483  1.00  0.00     0.694 A 
ATOM     38  H11 UNL     1       5.836  11.244  91.541  1.00  0.00     0.186 HD
BRANCH  34  39
HETATM   39  C20 UNL     1       4.447  11.219  94.023  1.00  0.00     0.078 A 
HETATM   40  C21 UNL     1       4.239  12.429  94.602  1.00  0.00     0.033 A 
HETATM   41  C22 UNL     1       4.659  12.675  95.909  1.00  0.00     0.004 A 
HETATM   42  C23 UNL     1       5.283  11.683  96.605  1.00  0.00     0.017 A 
HETATM   43  C24 UNL     1       5.478  10.445  95.968  1.00  0.00     0.088 A 
HETATM   44  N10 UNL     1       5.060  10.233  94.699  1.00  0.00    -0.363 N 
ATOM     45  H10 UNL     1       5.211   9.327  94.255  1.00  0.00     0.165 HD
ENDBRANCH  34  39
BRANCH  37  46
HETATM   46  N12 UNL     1       4.465  10.812  89.246  1.00  0.00    -0.233 N 
ATOM     47 2H12 UNL     1       5.284  10.278  88.954  1.00  0.00     0.174 HD
ATOM     48 1H12 UNL     1       4.053  11.291  88.446  1.00  0.00     0.174 HD
ENDBRANCH  37  46
ENDBRANCH  31  32
ENDBRANCH  28  31
ENDBRANCH   1  27
TORSDOF 18
ENDMDL
MODEL 5
REMARK VINA RESULT: -7.686598570      2.220      4.534
REMARK  18 active torsions:
REMARK  status: ('A' for Active; 'I' for Inactive)
REMARK    1  A    between atoms: C2_2  and  C3_3 
REMARK    2  A    between atoms: C3_3  and  N1_4 
REMARK    3  A    between atoms: N1_4  and  C4_5 
REMARK    4  A    between atoms: N1_4  and  C7_8 
REMARK    5  A    between atoms: C4_5  and  C5_6 
REMARK    6  A    between atoms: C7_8  and  C8_9 
REMARK    7  A    between atoms: C8_9  and  N2_10 
REMARK    8  A    between atoms: N3_13  and  C11_14 
REMARK    9  A    between atoms: C11_14  and  C12_15 
REMARK   10  A    between atoms: C12_15  and  C13_16 
REMARK   11  A    between atoms: C12_15  and  N7_26 
REMARK   12  A    between atoms: C13_16  and  C14_17 
REMARK   13  A    between atoms: C14_17  and  C15_18 
REMARK   14  A    between atoms: C15_18  and  N4_19 
REMARK       I    between atoms: N4_19  and  C16_21 
REMARK       I    between atoms: N7_26  and  C17_28 
REMARK   15  A    between atoms: C17_28  and  C18_30 
REMARK   16  A    between atoms: C18_30  and  N8_31 
REMARK   17  A    between atoms: C19_34  and  C20_35 
REMARK   18  A    between atoms: C25_44  and  N12_45 
ROOT
HETATM    1  C12 UNL     1      -1.499   8.424  91.099  1.00  0.00     0.113 C 
ENDROOT
BRANCH   1   2
HETATM    2  C11 UNL     1      -1.842   8.946  92.543  1.00  0.00     0.299 C 
BRANCH   2   3
HETATM    3  N3  UNL     1      -1.872   7.836  93.404  1.00  0.00     0.109 N 
HETATM    4  C10 UNL     1      -2.895   7.900  94.414  1.00  0.00     0.294 C 
HETATM    5  C9  UNL     1      -2.325   6.961  95.515  1.00  0.00     0.154 C 
HETATM    6  N2  UNL     1      -0.942   7.134  95.386  1.00  0.00    -0.365 N 
HETATM    7  C26 UNL     1      -0.596   7.731  94.148  1.00  0.00     0.397 C 
BRANCH   6   8
HETATM    8  C8  UNL     1      -0.021   6.322  96.055  1.00  0.00     0.090 C 
BRANCH   8   9
HETATM    9  C7  UNL     1       0.560   5.227  95.173  1.00  0.00     0.317 C 
BRANCH   9  10
HETATM   10  N1  UNL     1      -0.416   4.249  94.754  1.00  0.00     0.096 N 
BRANCH  10  11
HETATM   11  C3  UNL     1      -0.027   3.613  93.504  1.00  0.00     0.299 C 
BRANCH  11  12
HETATM   12  C2  UNL     1      -0.421   4.421  92.319  1.00  0.00    -0.007 C 
HETATM   13  C1  UNL     1       0.529   4.989  91.554  1.00  0.00     0.008 C 
ENDBRANCH  11  12
ENDBRANCH  10  11
BRANCH  10  14
HETATM   14  C4  UNL     1      -0.522   3.248  95.800  1.00  0.00     0.273 C 
BRANCH  14  15
HETATM   15  C5  UNL     1      -1.923   2.994  96.238  1.00  0.00     0.026 C 
HETATM   16  C6  UNL     1      -1.860   1.748  97.167  1.00  0.00     0.007 C 
ENDBRANCH  14  15
ENDBRANCH  10  14
ENDBRANCH   9  10
ENDBRANCH   8   9
ENDBRANCH   6   8
ENDBRANCH   2   3
ENDBRANCH   1   2
BRANCH   1  17
HETATM   17  C13 UNL     1      -2.739   8.157  90.371  1.00  0.00     0.028 C 
BRANCH  17  18
HETATM   18  C14 UNL     1      -3.421   9.333  89.798  1.00  0.00     0.022 C 
BRANCH  18  19
HETATM   19  C15 UNL     1      -3.717   9.408  88.351  1.00  0.00     0.122 C 
BRANCH  19  20
HETATM   20  N4  UNL     1      -2.716   9.984  87.516  1.00  0.00    -0.365 N 
HETATM   21  C16 UNL     1      -1.785   9.180  86.817  1.00  0.00     0.181 C 
HETATM   22  N5  UNL     1      -2.118   8.791  85.608  1.00  0.00    -0.374 N 
HETATM   23  N6  UNL     1      -0.558   8.743  87.337  1.00  0.00    -0.064 NA
ATOM     24  H52 UNL     1      -3.010   9.109  85.230  1.00  0.00     0.158 HD
ATOM     25  H51 UNL     1      -1.446   8.212  85.105  1.00  0.00     0.158 HD
ATOM     26  H4  UNL     1      -2.670  10.998  87.420  1.00  0.00     0.162 HD
ENDBRANCH  19  20
ENDBRANCH  18  19
ENDBRANCH  17  18
ENDBRANCH   1  17
BRANCH   1  27
HETATM   27  N7  UNL     1      -0.677   9.451  90.524  1.00  0.00    -0.353 N 
HETATM   28  C17 UNL     1       0.779   9.284  90.628  1.00  0.00     0.238 C 
HETATM   29  O1  UNL     1       1.174   8.261  91.244  1.00  0.00    -0.272 OA
ATOM     30  H7  UNL     1      -1.087  10.262  90.062  1.00  0.00     0.163 HD
BRANCH  28  31
HETATM   31  C18 UNL     1       1.627  10.285  90.020  1.00  0.00     0.270 C 
BRANCH  31  32
HETATM   32  N8  UNL     1       2.793  10.561  90.822  1.00  0.00    -0.114 N 
HETATM   33  N9  UNL     1       2.815  10.675  92.158  1.00  0.00    -0.266 N 
HETATM   34  C19 UNL     1       4.059  11.000  92.542  1.00  0.00     0.163 A 
ATOM     35  H9  UNL     1       2.018  10.538  92.780  1.00  0.00     0.189 HD
HETATM   36  N11 UNL     1       4.826  11.095  91.457  1.00  0.00    -0.172 N 
HETATM   37  C25 UNL     1       4.017  10.818  90.402  1.00  0.00     0.694 A 
ATOM     38  H11 UNL     1       5.819  11.328  91.426  1.00  0.00     0.186 HD
BRANCH  34  39
HETATM   39  C20 UNL     1       4.473  11.257  93.930  1.00  0.00     0.078 A 
HETATM   40  C21 UNL     1       5.164  10.310  94.615  1.00  0.00     0.033 A 
HETATM   41  C22 UNL     1       5.523  10.514  95.946  1.00  0.00     0.004 A 
HETATM   42  C23 UNL     1       5.173  11.680  96.560  1.00  0.00     0.017 A 
HETATM   43  C24 UNL     1       4.457  12.633  95.815  1.00  0.00     0.088 A 
HETATM   44  N10 UNL     1       4.122  12.410  94.524  1.00  0.00    -0.363 N 
ATOM     45  H10 UNL     1       3.603  13.116  94.000  1.00  0.00     0.165 HD
ENDBRANCH  34  39
BRANCH  37  46
HETATM   46  N12 UNL     1       4.436  10.802  89.158  1.00  0.00    -0.233 N 
ATOM     47 2H12 UNL     1       4.714  11.643  88.651  1.00  0.00     0.174 HD
ATOM     48 1H12 UNL     1       4.546   9.980  88.565  1.00  0.00     0.174 HD
ENDBRANCH  37  46
ENDBRANCH  31  32
ENDBRANCH  28  31
ENDBRANCH   1  27
TORSDOF 18
ENDMDL
