MODEL 1
REMARK VINA RESULT: -7.524219710      0.000      0.000
REMARK  19 active torsions:
REMARK  status: ('A' for Active; 'I' for Inactive)
REMARK    1  A    between atoms: C2_2  and  C3_3 
REMARK    2  A    between atoms: C3_3  and  N1_4 
REMARK    3  A    between atoms: N1_4  and  C4_5 
REMARK    4  A    between atoms: N1_4  and  C19_41 
REMARK    5  A    between atoms: N2_6  and  C5_8 
REMARK    6  A    between atoms: C5_8  and  C6_9 
REMARK    7  A    between atoms: C6_9  and  C7_10 
REMARK    8  A    between atoms: C7_10  and  N3_11 
REMARK    9  A    between atoms: N3_11  and  N4_13 
REMARK       I    between atoms: C8_15  and  N6_17 
REMARK   10  A    between atoms: N6_17  and  C9_19 
REMARK   11  A    between atoms: N7_21  and  C11_23 
REMARK   12  A    between atoms: C11_23  and  C12_24 
REMARK   13  A    between atoms: C12_24  and  C13_25 
REMARK   14  A    between atoms: C13_25  and  C14_26 
REMARK       I    between atoms: C14_26  and  N8_28 
REMARK   15  A    between atoms: N8_28  and  C15_30 
REMARK   16  A    between atoms: C18_33  and  N9_34 
REMARK   17  A    between atoms: C19_41  and  C20_42 
REMARK   18  A    between atoms: C20_42  and  C21_43 
REMARK   19  A    between atoms: C21_43  and  N12_44 
ROOT
HETATM    1  N4  UNL     1       1.094   6.659  95.784  1.00  0.00    -0.278 N 
ATOM      2  H4  UNL     1       1.848   6.776  96.460  1.00  0.00     0.189 HD
HETATM    3  C8  UNL     1       1.317   6.118  94.645  1.00  0.00     0.208 C 
HETATM    4  N5  UNL     1       2.622   5.681  94.332  1.00  0.00    -0.062 NA
HETATM    5  N6  UNL     1       0.253   5.966  93.727  1.00  0.00    -0.320 N 
ATOM      6  H6  UNL     1      -0.686   5.860  94.109  1.00  0.00     0.169 HD
ENDROOT
BRANCH   1   7
HETATM    7  N3  UNL     1      -0.196   7.086  96.081  1.00  0.00    -0.334 N 
ATOM      8  H3  UNL     1      -1.002   6.568  95.730  1.00  0.00     0.180 HD
BRANCH   7   9
HETATM    9  C7  UNL     1      -0.385   8.265  96.889  1.00  0.00     0.141 C 
BRANCH   9  10
HETATM   10  C6  UNL     1      -1.829   8.261  97.397  1.00  0.00     0.041 C 
BRANCH  10  11
HETATM   11  C5  UNL     1      -2.608   7.475  96.327  1.00  0.00     0.122 C 
BRANCH  11  12
HETATM   12  N2  UNL     1      -3.474   6.589  97.094  1.00  0.00    -0.386 N 
HETATM   13  C4  UNL     1      -3.018   5.433  97.418  1.00  0.00     0.173 C 
ATOM     14  H2  UNL     1      -4.414   6.878  97.364  1.00  0.00     0.160 HD
BRANCH  13  15
HETATM   15  N1  UNL     1      -3.850   4.563  98.166  1.00  0.00    -0.377 N 
BRANCH  15  16
HETATM   16  C3  UNL     1      -5.108   5.093  98.696  1.00  0.00     0.123 C 
BRANCH  16  17
HETATM   17  C2  UNL     1      -6.224   4.106  98.635  1.00  0.00     0.015 C 
HETATM   18  C1  UNL     1      -7.497   4.829  99.034  1.00  0.00     0.006 C 
ENDBRANCH  16  17
ENDBRANCH  15  16
BRANCH  15  19
HETATM   19  C19 UNL     1      -3.432   3.228  98.432  1.00  0.00     0.125 C 
BRANCH  19  20
HETATM   20  C20 UNL     1      -3.174   2.336  97.289  1.00  0.00     0.039 C 
BRANCH  20  21
HETATM   21  C21 UNL     1      -1.753   1.844  97.202  1.00  0.00     0.123 C 
BRANCH  21  22
HETATM   22  N12 UNL     1      -1.327   1.818  95.795  1.00  0.00    -0.367 N 
HETATM   23  C22 UNL     1      -0.512   2.706  95.378  1.00  0.00     0.196 C 
HETATM   24  N13 UNL     1      -0.077   2.718  94.032  1.00  0.00    -0.067 NA
HETATM   25  N14 UNL     1      -0.027   3.693  96.252  1.00  0.00    -0.067 NA
ATOM     26  H12 UNL     1      -1.678   1.101  95.161  1.00  0.00     0.161 HD
ENDBRANCH  21  22
ENDBRANCH  20  21
ENDBRANCH  19  20
ENDBRANCH  15  19
ENDBRANCH  13  15
ENDBRANCH  11  12
ENDBRANCH  10  11
ENDBRANCH   9  10
ENDBRANCH   7   9
ENDBRANCH   1   7
BRANCH   5  27
HETATM   27  C9  UNL     1       0.390   5.950  92.313  1.00  0.00     0.075 C 
HETATM   28  C10 UNL     1       0.953   4.702  91.714  1.00  0.00     0.089 C 
HETATM   29  N7  UNL     1       0.040   6.958  91.634  1.00  0.00    -0.380 N 
ATOM     30  H7  UNL     1       0.138   6.949  90.618  1.00  0.00     0.160 HD
BRANCH  29  31
HETATM   31  C11 UNL     1      -0.499   8.124  92.301  1.00  0.00     0.121 C 
BRANCH  31  32
HETATM   32  C12 UNL     1      -0.770   9.160  91.202  1.00  0.00     0.029 C 
BRANCH  32  33
HETATM   33  C13 UNL     1      -0.170  10.487  91.614  1.00  0.00     0.105 C 
BRANCH  33  34
HETATM   34  C14 UNL     1       1.121  10.681  90.916  1.00  0.00     0.223 C 
HETATM   35  O1  UNL     1       1.224  11.540  90.020  1.00  0.00    -0.273 OA
HETATM   36  N8  UNL     1       2.233   9.850  91.308  1.00  0.00    -0.312 N 
ATOM     37  H8  UNL     1       2.460   8.989  90.811  1.00  0.00     0.170 HD
BRANCH  36  38
HETATM   38  C15 UNL     1       2.939  10.263  92.339  1.00  0.00     0.122 A 
HETATM   39  C16 UNL     1       3.295   9.395  93.343  1.00  0.00     0.054 A 
HETATM   40  C17 UNL     1       4.041   9.827  94.409  1.00  0.00     0.060 A 
HETATM   41  C18 UNL     1       4.409  11.160  94.416  1.00  0.00     0.188 A 
HETATM   42  N10 UNL     1       4.032  11.982  93.397  1.00  0.00    -0.279 N 
HETATM   43  N11 UNL     1       3.312  11.545  92.380  1.00  0.00    -0.284 N 
ATOM     44  H10 UNL     1       4.313  12.963  93.420  1.00  0.00     0.189 HD
ATOM     45  H11 UNL     1       3.043  12.181  91.630  1.00  0.00     0.188 HD
BRANCH  41  46
HETATM   46  N9  UNL     1       5.186  11.676  95.481  1.00  0.00    -0.097 N 
HETATM   47  O2  UNL     1       5.318  12.914  95.670  1.00  0.00    -0.530 OA
HETATM   48  O3  UNL     1       5.817  10.810  96.331  1.00  0.00    -0.530 OA
ENDBRANCH  41  46
ENDBRANCH  36  38
ENDBRANCH  33  34
ENDBRANCH  32  33
ENDBRANCH  31  32
ENDBRANCH  29  31
ENDBRANCH   5  27
TORSDOF 19
ENDMDL
MODEL 2
REMARK VINA RESULT: -7.375114335      2.456      4.807
REMARK  19 active torsions:
REMARK  status: ('A' for Active; 'I' for Inactive)
REMARK    1  A    between atoms: C2_2  and  C3_3 
REMARK    2  A    between atoms: C3_3  and  N1_4 
REMARK    3  A    between atoms: N1_4  and  C4_5 
REMARK    4  A    between atoms: N1_4  and  C19_41 
REMARK    5  A    between atoms: N2_6  and  C5_8 
REMARK    6  A    between atoms: C5_8  and  C6_9 
REMARK    7  A    between atoms: C6_9  and  C7_10 
REMARK    8  A    between atoms: C7_10  and  N3_11 
REMARK    9  A    between atoms: N3_11  and  N4_13 
REMARK       I    between atoms: C8_15  and  N6_17 
REMARK   10  A    between atoms: N6_17  and  C9_19 
REMARK   11  A    between atoms: N7_21  and  C11_23 
REMARK   12  A    between atoms: C11_23  and  C12_24 
REMARK   13  A    between atoms: C12_24  and  C13_25 
REMARK   14  A    between atoms: C13_25  and  C14_26 
REMARK       I    between atoms: C14_26  and  N8_28 
REMARK   15  A    between atoms: N8_28  and  C15_30 
REMARK   16  A    between atoms: C18_33  and  N9_34 
REMARK   17  A    between atoms: C19_41  and  C20_42 
REMARK   18  A    between atoms: C20_42  and  C21_43 
REMARK   19  A    between atoms: C21_43  and  N12_44 
ROOT
HETATM    1  N4  UNL     1      -3.487   8.829  89.913  1.00  0.00    -0.278 N 
ATOM      2  H4  UNL     1      -4.493   8.672  89.877  1.00  0.00     0.189 HD
HETATM    3  C8  UNL     1      -2.872   9.354  88.919  1.00  0.00     0.208 C 
HETATM    4  N5  UNL     1      -3.604   9.713  87.767  1.00  0.00    -0.062 NA
HETATM    5  N6  UNL     1      -1.477   9.563  88.996  1.00  0.00    -0.320 N 
ATOM      6  H6  UNL     1      -1.076   9.724  89.920  1.00  0.00     0.169 HD
ENDROOT
BRANCH   1   7
HETATM    7  N3  UNL     1      -2.755   8.479  91.042  1.00  0.00    -0.334 N 
ATOM      8  H3  UNL     1      -1.757   8.684  91.093  1.00  0.00     0.180 HD
BRANCH   7   9
HETATM    9  C7  UNL     1      -3.418   7.823  92.141  1.00  0.00     0.141 C 
BRANCH   9  10
HETATM   10  C6  UNL     1      -3.486   6.327  91.824  1.00  0.00     0.041 C 
BRANCH  10  11
HETATM   11  C5  UNL     1      -3.751   5.660  93.186  1.00  0.00     0.122 C 
BRANCH  11  12
HETATM   12  N2  UNL     1      -2.451   5.139  93.589  1.00  0.00    -0.386 N 
HETATM   13  C4  UNL     1      -2.369   4.532  94.717  1.00  0.00     0.173 C 
ATOM     14  H2  UNL     1      -1.632   5.252  92.993  1.00  0.00     0.160 HD
BRANCH  13  15
HETATM   15  N1  UNL     1      -1.111   4.018  95.121  1.00  0.00    -0.377 N 
BRANCH  15  16
HETATM   16  C3  UNL     1      -1.088   2.958  96.130  1.00  0.00     0.123 C 
BRANCH  16  17
HETATM   17  C2  UNL     1      -2.302   2.957  96.997  1.00  0.00     0.015 C 
HETATM   18  C1  UNL     1      -2.337   1.631  97.735  1.00  0.00     0.006 C 
ENDBRANCH  16  17
ENDBRANCH  15  16
BRANCH  15  19
HETATM   19  C19 UNL     1       0.089   4.569  94.589  1.00  0.00     0.125 C 
BRANCH  19  20
HETATM   20  C20 UNL     1       0.741   5.665  95.325  1.00  0.00     0.039 C 
BRANCH  20  21
HETATM   21  C21 UNL     1       0.727   6.985  94.600  1.00  0.00     0.123 C 
BRANCH  21  22
HETATM   22  N12 UNL     1       0.754   6.750  93.149  1.00  0.00    -0.367 N 
HETATM   23  C22 UNL     1       0.347   7.670  92.366  1.00  0.00     0.196 C 
HETATM   24  N13 UNL     1       0.355   7.486  90.962  1.00  0.00    -0.067 NA
HETATM   25  N14 UNL     1      -0.117   8.891  92.883  1.00  0.00    -0.067 NA
ATOM     26  H12 UNL     1       1.093   5.864  92.775  1.00  0.00     0.161 HD
ENDBRANCH  21  22
ENDBRANCH  20  21
ENDBRANCH  19  20
ENDBRANCH  15  19
ENDBRANCH  13  15
ENDBRANCH  11  12
ENDBRANCH  10  11
ENDBRANCH   9  10
ENDBRANCH   7   9
ENDBRANCH   1   7
BRANCH   5  27
HETATM   27  C9  UNL     1      -0.588   9.567  87.888  1.00  0.00     0.075 C 
HETATM   28  C10 UNL     1      -0.392   8.261  87.188  1.00  0.00     0.089 C 
HETATM   29  N7  UNL     1      -0.013  10.640  87.543  1.00  0.00    -0.380 N 
ATOM     30  H7  UNL     1       0.626  10.645  86.748  1.00  0.00     0.160 HD
BRANCH  29  31
HETATM   31  C11 UNL     1      -0.266  11.860  88.280  1.00  0.00     0.121 C 
BRANCH  31  32
HETATM   32  C12 UNL     1       1.078  12.278  88.892  1.00  0.00     0.029 C 
BRANCH  32  33
HETATM   33  C13 UNL     1       1.226  11.628  90.251  1.00  0.00     0.105 C 
BRANCH  33  34
HETATM   34  C14 UNL     1       2.373  10.693  90.226  1.00  0.00     0.223 C 
HETATM   35  O1  UNL     1       3.170  10.707  89.268  1.00  0.00    -0.273 OA
HETATM   36  N8  UNL     1       2.528   9.781  91.333  1.00  0.00    -0.312 N 
ATOM     37  H8  UNL     1       2.164   8.829  91.299  1.00  0.00     0.170 HD
BRANCH  36  38
HETATM   38  C15 UNL     1       3.164  10.243  92.388  1.00  0.00     0.122 A 
HETATM   39  C16 UNL     1       3.531   9.406  93.415  1.00  0.00     0.054 A 
HETATM   40  C17 UNL     1       4.204   9.890  94.506  1.00  0.00     0.060 A 
HETATM   41  C18 UNL     1       4.491  11.243  94.516  1.00  0.00     0.188 A 
HETATM   42  N10 UNL     1       4.107  12.033  93.474  1.00  0.00    -0.279 N 
HETATM   43  N11 UNL     1       3.458  11.546  92.432  1.00  0.00    -0.284 N 
ATOM     44  H10 UNL     1       4.328  13.029  93.500  1.00  0.00     0.189 HD
ATOM     45  H11 UNL     1       3.182  12.160  91.666  1.00  0.00     0.188 HD
BRANCH  41  46
HETATM   46  N9  UNL     1       5.190  11.812  95.606  1.00  0.00    -0.097 N 
HETATM   47  O2  UNL     1       5.282  13.058  95.760  1.00  0.00    -0.530 OA
HETATM   48  O3  UNL     1       5.787  10.990  96.522  1.00  0.00    -0.530 OA
ENDBRANCH  41  46
ENDBRANCH  36  38
ENDBRANCH  33  34
ENDBRANCH  32  33
ENDBRANCH  31  32
ENDBRANCH  29  31
ENDBRANCH   5  27
TORSDOF 19
ENDMDL
MODEL 3
REMARK VINA RESULT: -7.131752176      1.790      3.566
REMARK  19 active torsions:
REMARK  status: ('A' for Active; 'I' for Inactive)
REMARK    1  A    between atoms: C2_2  and  C3_3 
REMARK    2  A    between atoms: C3_3  and  N1_4 
REMARK    3  A    between atoms: N1_4  and  C4_5 
REMARK    4  A    between atoms: N1_4  and  C19_41 
REMARK    5  A    between atoms: N2_6  and  C5_8 
REMARK    6  A    between atoms: C5_8  and  C6_9 
REMARK    7  A    between atoms: C6_9  and  C7_10 
REMARK    8  A    between atoms: C7_10  and  N3_11 
REMARK    9  A    between atoms: N3_11  and  N4_13 
REMARK       I    between atoms: C8_15  and  N6_17 
REMARK   10  A    between atoms: N6_17  and  C9_19 
REMARK   11  A    between atoms: N7_21  and  C11_23 
REMARK   12  A    between atoms: C11_23  and  C12_24 
REMARK   13  A    between atoms: C12_24  and  C13_25 
REMARK   14  A    between atoms: C13_25  and  C14_26 
REMARK       I    between atoms: C14_26  and  N8_28 
REMARK   15  A    between atoms: N8_28  and  C15_30 
REMARK   16  A    between atoms: C18_33  and  N9_34 
REMARK   17  A    between atoms: C19_41  and  C20_42 
REMARK   18  A    between atoms: C20_42  and  C21_43 
REMARK   19  A    between atoms: C21_43  and  N12_44 
ROOT
HETATM    1  N4  UNL     1       0.011   2.607  94.148  1.00  0.00    -0.278 N 
ATOM      2  H4  UNL     1       0.286   1.636  94.005  1.00  0.00     0.189 HD
HETATM    3  C8  UNL     1       0.564   3.548  93.478  1.00  0.00     0.208 C 
HETATM    4  N5  UNL     1       1.565   3.227  92.536  1.00  0.00    -0.062 NA
HETATM    5  N6  UNL     1       0.162   4.885  93.694  1.00  0.00    -0.320 N 
ATOM      6  H6  UNL     1      -0.798   5.044  94.000  1.00  0.00     0.169 HD
ENDROOT
BRANCH   1   7
HETATM    7  N3  UNL     1      -0.974   2.936  95.074  1.00  0.00    -0.334 N 
ATOM      8  H3  UNL     1      -1.721   3.583  94.823  1.00  0.00     0.180 HD
BRANCH   7   9
HETATM    9  C7  UNL     1      -0.930   2.353  96.392  1.00  0.00     0.141 C 
BRANCH   9  10
HETATM   10  C6  UNL     1      -2.269   1.654  96.642  1.00  0.00     0.041 C 
BRANCH  10  11
HETATM   11  C5  UNL     1      -2.687   2.120  98.048  1.00  0.00     0.122 C 
BRANCH  11  12
HETATM   12  N2  UNL     1      -3.024   3.527  97.873  1.00  0.00    -0.386 N 
HETATM   13  C4  UNL     1      -4.266   3.841  97.780  1.00  0.00     0.173 C 
ATOM     14  H2  UNL     1      -2.297   4.240  97.825  1.00  0.00     0.160 HD
BRANCH  13  15
HETATM   15  N1  UNL     1      -4.609   5.206  97.612  1.00  0.00    -0.377 N 
BRANCH  15  16
HETATM   16  C3  UNL     1      -4.270   6.142  98.686  1.00  0.00     0.123 C 
BRANCH  16  17
HETATM   17  C2  UNL     1      -4.799   5.715 100.014  1.00  0.00     0.015 C 
HETATM   18  C1  UNL     1      -6.255   6.138 100.084  1.00  0.00     0.006 C 
ENDBRANCH  16  17
ENDBRANCH  15  16
BRANCH  15  19
HETATM   19  C19 UNL     1      -5.312   5.628  96.448  1.00  0.00     0.125 C 
BRANCH  19  20
HETATM   20  C20 UNL     1      -4.840   6.834  95.745  1.00  0.00     0.039 C 
BRANCH  20  21
HETATM   21  C21 UNL     1      -3.615   6.612  94.899  1.00  0.00     0.123 C 
BRANCH  21  22
HETATM   22  N12 UNL     1      -2.595   7.615  95.238  1.00  0.00    -0.367 N 
HETATM   23  C22 UNL     1      -1.550   7.247  95.870  1.00  0.00     0.196 C 
HETATM   24  N13 UNL     1      -0.544   8.180  96.217  1.00  0.00    -0.067 NA
HETATM   25  N14 UNL     1      -1.376   5.902  96.235  1.00  0.00    -0.067 NA
ATOM     26  H12 UNL     1      -2.721   8.591  94.972  1.00  0.00     0.161 HD
ENDBRANCH  21  22
ENDBRANCH  20  21
ENDBRANCH  19  20
ENDBRANCH  15  19
ENDBRANCH  13  15
ENDBRANCH  11  12
ENDBRANCH  10  11
ENDBRANCH   9  10
ENDBRANCH   7   9
ENDBRANCH   1   7
BRANCH   5  27
HETATM   27  C9  UNL     1       0.989   6.026  93.518  1.00  0.00     0.075 C 
HETATM   28  C10 UNL     1       2.139   6.166  94.462  1.00  0.00     0.089 C 
HETATM   29  N7  UNL     1       0.732   6.857  92.599  1.00  0.00    -0.380 N 
ATOM     30  H7  UNL     1       1.324   7.678  92.472  1.00  0.00     0.160 HD
BRANCH  29  31
HETATM   31  C11 UNL     1      -0.404   6.639  91.729  1.00  0.00     0.121 C 
BRANCH  31  32
HETATM   32  C12 UNL     1      -1.266   7.906  91.822  1.00  0.00     0.029 C 
BRANCH  32  33
HETATM   33  C13 UNL     1      -0.920   8.825  90.671  1.00  0.00     0.105 C 
BRANCH  33  34
HETATM   34  C14 UNL     1      -0.627  10.179  91.194  1.00  0.00     0.223 C 
HETATM   35  O1  UNL     1      -1.325  10.661  92.106  1.00  0.00    -0.273 OA
HETATM   36  N8  UNL     1       0.478  10.903  90.615  1.00  0.00    -0.312 N 
ATOM     37  H8  UNL     1       0.342  11.575  89.859  1.00  0.00     0.170 HD
BRANCH  36  38
HETATM   38  C15 UNL     1       1.669  10.653  91.114  1.00  0.00     0.122 A 
HETATM   39  C16 UNL     1       2.802  10.806  90.351  1.00  0.00     0.054 A 
HETATM   40  C17 UNL     1       4.041  10.556  90.880  1.00  0.00     0.060 A 
HETATM   41  C18 UNL     1       4.088  10.150  92.201  1.00  0.00     0.188 A 
HETATM   42  N10 UNL     1       2.937  10.012  92.918  1.00  0.00    -0.279 N 
HETATM   43  N11 UNL     1       1.753  10.258  92.388  1.00  0.00    -0.284 N 
ATOM     44  H10 UNL     1       2.992   9.711  93.891  1.00  0.00     0.189 HD
ATOM     45  H11 UNL     1       0.907  10.146  92.947  1.00  0.00     0.188 HD
BRANCH  41  46
HETATM   46  N9  UNL     1       5.333   9.880  92.816  1.00  0.00    -0.097 N 
HETATM   47  O2  UNL     1       5.508  10.024  94.055  1.00  0.00    -0.530 OA
HETATM   48  O3  UNL     1       6.382   9.452  92.049  1.00  0.00    -0.530 OA
ENDBRANCH  41  46
ENDBRANCH  36  38
ENDBRANCH  33  34
ENDBRANCH  32  33
ENDBRANCH  31  32
ENDBRANCH  29  31
ENDBRANCH   5  27
TORSDOF 19
ENDMDL
MODEL 4
REMARK VINA RESULT: -7.082009570      2.684      5.281
REMARK  19 active torsions:
REMARK  status: ('A' for Active; 'I' for Inactive)
REMARK    1  A    between atoms: C2_2  and  C3_3 
REMARK    2  A    between atoms: C3_3  and  N1_4 
REMARK    3  A    between atoms: N1_4  and  C4_5 
REMARK    4  A    between atoms: N1_4  and  C19_41 
REMARK    5  A    between atoms: N2_6  and  C5_8 
REMARK    6  A    between atoms: C5_8  and  C6_9 
REMARK    7  A    between atoms: C6_9  and  C7_10 
REMARK    8  A    between atoms: C7_10  and  N3_11 
REMARK    9  A    between atoms: N3_11  and  N4_13 
REMARK       I    between atoms: C8_15  and  N6_17 
REMARK   10  A    between atoms: N6_17  and  C9_19 
REMARK   11  A    between atoms: N7_21  and  C11_23 
REMARK   12  A    between atoms: C11_23  and  C12_24 
REMARK   13  A    between atoms: C12_24  and  C13_25 
REMARK   14  A    between atoms: C13_25  and  C14_26 
REMARK       I    between atoms: C14_26  and  N8_28 
REMARK   15  A    between atoms: N8_28  and  C15_30 
REMARK   16  A    between atoms: C18_33  and  N9_34 
REMARK   17  A    between atoms: C19_41  and  C20_42 
REMARK   18  A    between atoms: C20_42  and  C21_43 
REMARK   19  A    between atoms: C21_43  and  N12_44 
ROOT
HETATM    1  N4  UNL     1      -5.124   8.600  91.454  1.00  0.00    -0.278 N 
ATOM      2  H4  UNL     1      -6.007   8.954  91.820  1.00  0.00     0.189 HD
HETATM    3  C8  UNL     1      -4.544   9.182  90.472  1.00  0.00     0.208 C 
HETATM    4  N5  UNL     1      -5.142  10.324  89.896  1.00  0.00    -0.062 NA
HETATM    5  N6  UNL     1      -3.319   8.673  89.986  1.00  0.00    -0.320 N 
ATOM      6  H6  UNL     1      -2.718   8.183  90.649  1.00  0.00     0.169 HD
ENDROOT
BRANCH   1   7
HETATM    7  N3  UNL     1      -4.525   7.476  92.013  1.00  0.00    -0.334 N 
ATOM      8  H3  UNL     1      -3.684   7.079  91.594  1.00  0.00     0.180 HD
BRANCH   7   9
HETATM    9  C7  UNL     1      -5.103   6.876  93.190  1.00  0.00     0.141 C 
BRANCH   9  10
HETATM   10  C6  UNL     1      -4.240   5.673  93.577  1.00  0.00     0.041 C 
BRANCH  10  11
HETATM   11  C5  UNL     1      -3.950   5.877  95.075  1.00  0.00     0.122 C 
BRANCH  11  12
HETATM   12  N2  UNL     1      -2.511   5.682  95.191  1.00  0.00    -0.386 N 
HETATM   13  C4  UNL     1      -1.960   4.797  94.441  1.00  0.00     0.173 C 
ATOM     14  H2  UNL     1      -1.957   6.232  95.848  1.00  0.00     0.160 HD
BRANCH  13  15
HETATM   15  N1  UNL     1      -0.560   4.599  94.542  1.00  0.00    -0.377 N 
BRANCH  15  16
HETATM   16  C3  UNL     1       0.017   3.409  93.914  1.00  0.00     0.123 C 
BRANCH  16  17
HETATM   17  C2  UNL     1       0.029   3.488  92.425  1.00  0.00     0.015 C 
HETATM   18  C1  UNL     1       1.475   3.395  91.973  1.00  0.00     0.006 C 
ENDBRANCH  16  17
ENDBRANCH  15  16
BRANCH  15  19
HETATM   19  C19 UNL     1       0.239   5.514  95.285  1.00  0.00     0.125 C 
BRANCH  19  20
HETATM   20  C20 UNL     1       1.312   6.236  94.580  1.00  0.00     0.039 C 
BRANCH  20  21
HETATM   21  C21 UNL     1       0.875   6.885  93.295  1.00  0.00     0.123 C 
BRANCH  21  22
HETATM   22  N12 UNL     1      -0.116   7.932  93.584  1.00  0.00    -0.367 N 
HETATM   23  C22 UNL     1      -1.162   8.012  92.859  1.00  0.00     0.196 C 
HETATM   24  N13 UNL     1      -2.141   9.005  93.103  1.00  0.00    -0.067 NA
HETATM   25  N14 UNL     1      -1.365   7.111  91.800  1.00  0.00    -0.067 NA
ATOM     26  H12 UNL     1       0.030   8.585  94.354  1.00  0.00     0.161 HD
ENDBRANCH  21  22
ENDBRANCH  20  21
ENDBRANCH  19  20
ENDBRANCH  15  19
ENDBRANCH  13  15
ENDBRANCH  11  12
ENDBRANCH  10  11
ENDBRANCH   9  10
ENDBRANCH   7   9
ENDBRANCH   1   7
BRANCH   5  27
HETATM   27  C9  UNL     1      -2.859   8.788  88.647  1.00  0.00     0.075 C 
HETATM   28  C10 UNL     1      -3.753   8.233  87.586  1.00  0.00     0.089 C 
HETATM   29  N7  UNL     1      -1.746   9.339  88.408  1.00  0.00    -0.380 N 
ATOM     30  H7  UNL     1      -1.412   9.422  87.447  1.00  0.00     0.160 HD
BRANCH  29  31
HETATM   31  C11 UNL     1      -0.946   9.851  89.500  1.00  0.00     0.121 C 
BRANCH  31  32
HETATM   32  C12 UNL     1       0.447   9.227  89.342  1.00  0.00     0.029 C 
BRANCH  32  33
HETATM   33  C13 UNL     1       1.268   9.529  90.578  1.00  0.00     0.105 C 
BRANCH  33  34
HETATM   34  C14 UNL     1       2.255  10.587  90.266  1.00  0.00     0.223 C 
HETATM   35  O1  UNL     1       1.885  11.649  89.729  1.00  0.00    -0.273 OA
HETATM   36  N8  UNL     1       3.637  10.344  90.600  1.00  0.00    -0.312 N 
ATOM     37  H8  UNL     1       4.297   9.974  89.916  1.00  0.00     0.170 HD
BRANCH  36  38
HETATM   38  C15 UNL     1       4.001  10.625  91.832  1.00  0.00     0.122 A 
HETATM   39  C16 UNL     1       4.896   9.827  92.504  1.00  0.00     0.054 A 
HETATM   40  C17 UNL     1       5.281  10.132  93.784  1.00  0.00     0.060 A 
HETATM   41  C18 UNL     1       4.729  11.266  94.351  1.00  0.00     0.188 A 
HETATM   42  N10 UNL     1       3.845  12.026  93.645  1.00  0.00    -0.279 N 
HETATM   43  N11 UNL     1       3.487  11.713  92.413  1.00  0.00    -0.284 N 
ATOM     44  H10 UNL     1       3.449  12.859  94.080  1.00  0.00     0.189 HD
ATOM     45  H11 UNL     1       2.823  12.299  91.907  1.00  0.00     0.188 HD
BRANCH  41  46
HETATM   46  N9  UNL     1       5.085  11.647  95.666  1.00  0.00    -0.097 N 
HETATM   47  O2  UNL     1       5.791  10.911  96.404  1.00  0.00    -0.530 OA
HETATM   48  O3  UNL     1       4.651  12.848  96.157  1.00  0.00    -0.530 OA
ENDBRANCH  41  46
ENDBRANCH  36  38
ENDBRANCH  33  34
ENDBRANCH  32  33
ENDBRANCH  31  32
ENDBRANCH  29  31
ENDBRANCH   5  27
TORSDOF 19
ENDMDL
MODEL 5
REMARK VINA RESULT: -7.061149071      1.433      3.213
REMARK  19 active torsions:
REMARK  status: ('A' for Active; 'I' for Inactive)
REMARK    1  A    between atoms: C2_2  and  C3_3 
REMARK    2  A    between atoms: C3_3  and  N1_4 
REMARK    3  A    between atoms: N1_4  and  C4_5 
REMARK    4  A    between atoms: N1_4  and  C19_41 
REMARK    5  A    between atoms: N2_6  and  C5_8 
REMARK    6  A    between atoms: C5_8  and  C6_9 
REMARK    7  A    between atoms: C6_9  and  C7_10 
REMARK    8  A    between atoms: C7_10  and  N3_11 
REMARK    9  A    between atoms: N3_11  and  N4_13 
REMARK       I    between atoms: C8_15  and  N6_17 
REMARK   10  A    between atoms: N6_17  and  C9_19 
REMARK   11  A    between atoms: N7_21  and  C11_23 
REMARK   12  A    between atoms: C11_23  and  C12_24 
REMARK   13  A    between atoms: C12_24  and  C13_25 
REMARK   14  A    between atoms: C13_25  and  C14_26 
REMARK       I    between atoms: C14_26  and  N8_28 
REMARK   15  A    between atoms: N8_28  and  C15_30 
REMARK   16  A    between atoms: C18_33  and  N9_34 
REMARK   17  A    between atoms: C19_41  and  C20_42 
REMARK   18  A    between atoms: C20_42  and  C21_43 
REMARK   19  A    between atoms: C21_43  and  N12_44 
ROOT
HETATM    1  N4  UNL     1      -0.347   3.657  93.224  1.00  0.00    -0.278 N 
ATOM      2  H4  UNL     1      -0.354   2.846  92.606  1.00  0.00     0.189 HD
HETATM    3  C8  UNL     1       0.321   4.706  92.917  1.00  0.00     0.208 C 
HETATM    4  N5  UNL     1       1.050   4.730  91.708  1.00  0.00    -0.062 NA
HETATM    5  N6  UNL     1       0.312   5.816  93.790  1.00  0.00    -0.320 N 
ATOM      6  H6  UNL     1      -0.516   5.953  94.368  1.00  0.00     0.169 HD
ENDROOT
BRANCH   1   7
HETATM    7  N3  UNL     1      -1.061   3.645  94.417  1.00  0.00    -0.334 N 
ATOM      8  H3  UNL     1      -1.896   4.221  94.523  1.00  0.00     0.180 HD
BRANCH   7   9
HETATM    9  C7  UNL     1      -0.612   2.810  95.503  1.00  0.00     0.141 C 
BRANCH   9  10
HETATM   10  C6  UNL     1      -1.751   1.853  95.864  1.00  0.00     0.041 C 
BRANCH  10  11
HETATM   11  C5  UNL     1      -1.917   2.013  97.386  1.00  0.00     0.122 C 
BRANCH  11  12
HETATM   12  N2  UNL     1      -2.571   3.306  97.541  1.00  0.00    -0.386 N 
HETATM   13  C4  UNL     1      -3.820   3.387  97.258  1.00  0.00     0.173 C 
ATOM     14  H2  UNL     1      -2.052   4.122  97.865  1.00  0.00     0.160 HD
BRANCH  13  15
HETATM   15  N1  UNL     1      -4.470   4.638  97.406  1.00  0.00    -0.377 N 
BRANCH  15  16
HETATM   16  C3  UNL     1      -4.183   5.427  98.606  1.00  0.00     0.123 C 
BRANCH  16  17
HETATM   17  C2  UNL     1      -5.287   5.379  99.608  1.00  0.00     0.015 C 
HETATM   18  C1  UNL     1      -5.976   6.731  99.596  1.00  0.00     0.006 C 
ENDBRANCH  16  17
ENDBRANCH  15  16
BRANCH  15  19
HETATM   19  C19 UNL     1      -5.413   5.074  96.433  1.00  0.00     0.125 C 
BRANCH  19  20
HETATM   20  C20 UNL     1      -5.180   6.365  95.763  1.00  0.00     0.039 C 
BRANCH  20  21
HETATM   21  C21 UNL     1      -3.877   6.442  95.013  1.00  0.00     0.123 C 
BRANCH  21  22
HETATM   22  N12 UNL     1      -3.109   7.606  95.480  1.00  0.00    -0.367 N 
HETATM   23  C22 UNL     1      -1.981   7.418  96.045  1.00  0.00     0.196 C 
HETATM   24  N13 UNL     1      -1.210   8.510  96.509  1.00  0.00    -0.067 NA
HETATM   25  N14 UNL     1      -1.480   6.117  96.217  1.00  0.00    -0.067 NA
ATOM     26  H12 UNL     1      -3.473   8.550  95.353  1.00  0.00     0.161 HD
ENDBRANCH  21  22
ENDBRANCH  20  21
ENDBRANCH  19  20
ENDBRANCH  15  19
ENDBRANCH  13  15
ENDBRANCH  11  12
ENDBRANCH  10  11
ENDBRANCH   9  10
ENDBRANCH   7   9
ENDBRANCH   1   7
BRANCH   5  27
HETATM   27  C9  UNL     1       1.368   6.757  93.927  1.00  0.00     0.075 C 
HETATM   28  C10 UNL     1       2.629   6.256  94.552  1.00  0.00     0.089 C 
HETATM   29  N7  UNL     1       1.209   7.947  93.528  1.00  0.00    -0.380 N 
ATOM     30  H7  UNL     1       1.965   8.625  93.626  1.00  0.00     0.160 HD
BRANCH  29  31
HETATM   31  C11 UNL     1      -0.049   8.344  92.932  1.00  0.00     0.121 C 
BRANCH  31  32
HETATM   32  C12 UNL     1       0.258   9.564  92.053  1.00  0.00     0.029 C 
BRANCH  32  33
HETATM   33  C13 UNL     1       1.436   9.246  91.158  1.00  0.00     0.105 C 
BRANCH  33  34
HETATM   34  C14 UNL     1       2.179  10.492  90.863  1.00  0.00     0.223 C 
HETATM   35  O1  UNL     1       1.575  11.492  90.430  1.00  0.00    -0.273 OA
HETATM   36  N8  UNL     1       3.603  10.501  91.092  1.00  0.00    -0.312 N 
ATOM     37  H8  UNL     1       4.268  10.308  90.343  1.00  0.00     0.170 HD
BRANCH  36  38
HETATM   38  C15 UNL     1       3.999  10.773  92.317  1.00  0.00     0.122 A 
HETATM   39  C16 UNL     1       4.878   9.947  92.975  1.00  0.00     0.054 A 
HETATM   40  C17 UNL     1       5.296  10.242  94.247  1.00  0.00     0.060 A 
HETATM   41  C18 UNL     1       4.796  11.396  94.819  1.00  0.00     0.188 A 
HETATM   42  N10 UNL     1       3.926  12.185  94.126  1.00  0.00    -0.279 N 
HETATM   43  N11 UNL     1       3.535  11.881  92.902  1.00  0.00    -0.284 N 
ATOM     44  H10 UNL     1       3.567  13.033  94.566  1.00  0.00     0.189 HD
ATOM     45  H11 UNL     1       2.883  12.488  92.406  1.00  0.00     0.188 HD
BRANCH  41  46
HETATM   46  N9  UNL     1       5.189  11.769  96.127  1.00  0.00    -0.097 N 
HETATM   47  O2  UNL     1       4.853  12.871  96.634  1.00  0.00    -0.530 OA
HETATM   48  O3  UNL     1       5.958  10.911  96.865  1.00  0.00    -0.530 OA
ENDBRANCH  41  46
ENDBRANCH  36  38
ENDBRANCH  33  34
ENDBRANCH  32  33
ENDBRANCH  31  32
ENDBRANCH  29  31
ENDBRANCH   5  27
TORSDOF 19
ENDMDL
