MODEL 1
REMARK VINA RESULT: -6.929692052      0.000      0.000
REMARK  21 active torsions:
REMARK  status: ('A' for Active; 'I' for Inactive)
REMARK    1  A    between atoms: C1_2  and  C2_4 
REMARK    2  A    between atoms: C2_4  and  N2_5 
REMARK    3  A    between atoms: C2_4  and  C3_9 
REMARK    4  A    between atoms: C3_9  and  S1_10 
REMARK    5  A    between atoms: S1_10  and  C4_12 
REMARK    6  A    between atoms: C4_12  and  C5_13 
REMARK    7  A    between atoms: C5_13  and  C6_14 
REMARK    8  A    between atoms: C6_14  and  N3_15 
REMARK    9  A    between atoms: C8_20  and  S2_21 
REMARK   10  A    between atoms: S2_21  and  C9_22 
REMARK   11  A    between atoms: C9_22  and  C10_23 
REMARK   12  A    between atoms: C10_23  and  C11_24 
REMARK   13  A    between atoms: C11_24  and  C12_25 
REMARK   14  A    between atoms: C12_25  and  C13_26 
REMARK   15  A    between atoms: C13_26  and  C14_27 
REMARK   16  A    between atoms: C14_27  and  O4_28 
REMARK   17  A    between atoms: O4_28  and  C15_29 
REMARK   18  A    between atoms: C21_35  and  O5_36 
REMARK   19  A    between atoms: C22_38  and  O6_39 
REMARK   20  A    between atoms: C23_41  and  C24_42 
REMARK   21  A    between atoms: C24_42  and  O7_43 
ROOT
HETATM    1  N3  UNL     1      -0.362   6.721  93.594  1.00  0.00    -0.302 N 
HETATM    2  C7  UNL     1      -1.547   6.586  94.360  1.00  0.00     0.323 C 
HETATM    3  O3  UNL     1      -2.346   7.589  94.361  1.00  0.00    -0.247 OA
HETATM    4  N4  UNL     1      -2.013   5.497  95.152  1.00  0.00    -0.327 N 
ATOM      5  H4  UNL     1      -2.511   5.753  96.004  1.00  0.00     0.165 HD
HETATM    6  C8  UNL     1      -1.876   4.083  94.914  1.00  0.00     0.179 C 
HETATM    7  C21 UNL     1      -0.449   3.706  94.579  1.00  0.00     0.185 C 
HETATM    8  C22 UNL     1       0.186   4.342  93.434  1.00  0.00     0.197 C 
HETATM    9  C23 UNL     1       0.675   5.732  93.494  1.00  0.00     0.048 C 
ENDROOT
BRANCH   1  10
HETATM   10  C6  UNL     1      -0.254   7.981  92.864  1.00  0.00     0.134 C 
BRANCH  10  11
HETATM   11  C5  UNL     1       0.394   7.815  91.547  1.00  0.00     0.033 C 
BRANCH  11  12
HETATM   12  C4  UNL     1       0.715   9.028  90.773  1.00  0.00     0.110 C 
BRANCH  12  13
HETATM   13  S1  UNL     1       1.960  10.102  91.238  1.00  0.00     0.017 S 
HETATM   14  O2  UNL     1       1.553  11.728  91.136  1.00  0.00    -0.258 OA
BRANCH  13  15
HETATM   15  C3  UNL     1       3.045   9.729  92.515  1.00  0.00     0.150 C 
BRANCH  15  16
HETATM   16  C2  UNL     1       4.327  10.549  92.475  1.00  0.00     0.283 C 
BRANCH  16  17
HETATM   17  C1  UNL     1       5.542   9.716  92.561  1.00  0.00     0.262 C 
HETATM   18  N1  UNL     1       6.356   9.571  91.409  1.00  0.00    -0.060 NA
HETATM   19  O1  UNL     1       5.861   9.136  93.650  1.00  0.00    -0.275 OA
ENDBRANCH  16  17
BRANCH  16  20
HETATM   20  N2  UNL     1       4.410  11.378  91.294  1.00  0.00    -0.066 N 
ATOM     21  H23 UNL     1       5.342  11.372  90.880  1.00  0.00     0.275 HD
ATOM     22  H22 UNL     1       3.901  10.982  90.504  1.00  0.00     0.275 HD
ATOM     23  H21 UNL     1       4.095  12.319  91.528  1.00  0.00     0.275 HD
ENDBRANCH  16  20
ENDBRANCH  15  16
ENDBRANCH  13  15
ENDBRANCH  12  13
ENDBRANCH  11  12
ENDBRANCH  10  11
ENDBRANCH   1  10
BRANCH   9  24
HETATM   24  C24 UNL     1       1.850   6.011  94.383  1.00  0.00     0.219 C 
BRANCH  24  25
HETATM   25  O7  UNL     1       1.524   6.265  95.709  1.00  0.00    -0.395 OA
ATOM     26  H7  UNL     1       1.591   5.512  96.283  1.00  0.00     0.209 HD
ENDBRANCH  24  25
ENDBRANCH   9  24
BRANCH   8  27
HETATM   27  O6  UNL     1       1.249   3.534  93.005  1.00  0.00    -0.387 OA
ATOM     28  H6  UNL     1       0.893   2.738  92.629  1.00  0.00     0.210 HD
ENDBRANCH   8  27
BRANCH   6  29
HETATM   29  S2  UNL     1      -2.281   3.166  96.439  1.00  0.00    -0.141 SA
BRANCH  29  30
HETATM   30  C9  UNL     1      -4.047   2.832  96.463  1.00  0.00     0.076 C 
BRANCH  30  31
HETATM   31  C10 UNL     1      -4.664   3.168  97.777  1.00  0.00     0.010 C 
BRANCH  31  32
HETATM   32  C11 UNL     1      -3.661   3.978  98.619  1.00  0.00     0.001 C 
BRANCH  32  33
HETATM   33  C12 UNL     1      -4.454   4.823  99.603  1.00  0.00     0.002 C 
BRANCH  33  34
HETATM   34  C13 UNL     1      -5.734   5.338  99.059  1.00  0.00     0.027 C 
BRANCH  34  35
HETATM   35  C14 UNL     1      -5.851   6.824  99.121  1.00  0.00     0.175 C 
BRANCH  35  36
HETATM   36  O4  UNL     1      -5.292   7.339  97.894  1.00  0.00    -0.351 OA
BRANCH  36  37
HETATM   37  C15 UNL     1      -4.170   8.128  97.983  1.00  0.00     0.068 A 
HETATM   38  C16 UNL     1      -4.225   9.493  98.128  1.00  0.00     0.037 A 
HETATM   39  C17 UNL     1      -3.084  10.286  98.214  1.00  0.00     0.003 A 
HETATM   40  C18 UNL     1      -1.840   9.702  98.154  1.00  0.00     0.000 A 
HETATM   41  C19 UNL     1      -1.772   8.327  98.007  1.00  0.00     0.003 A 
HETATM   42  C20 UNL     1      -2.910   7.552  97.924  1.00  0.00     0.037 A 
ENDBRANCH  36  37
ENDBRANCH  35  36
ENDBRANCH  34  35
ENDBRANCH  33  34
ENDBRANCH  32  33
ENDBRANCH  31  32
ENDBRANCH  30  31
ENDBRANCH  29  30
ENDBRANCH   6  29
BRANCH   7  43
HETATM   43  O5  UNL     1       0.243   3.642  95.764  1.00  0.00    -0.390 OA
ATOM     44  H5  UNL     1       0.035   2.806  96.166  1.00  0.00     0.210 HD
ENDBRANCH   7  43
TORSDOF 21
ENDMDL
MODEL 2
REMARK VINA RESULT: -6.908286174      1.372      1.734
REMARK  21 active torsions:
REMARK  status: ('A' for Active; 'I' for Inactive)
REMARK    1  A    between atoms: C1_2  and  C2_4 
REMARK    2  A    between atoms: C2_4  and  N2_5 
REMARK    3  A    between atoms: C2_4  and  C3_9 
REMARK    4  A    between atoms: C3_9  and  S1_10 
REMARK    5  A    between atoms: S1_10  and  C4_12 
REMARK    6  A    between atoms: C4_12  and  C5_13 
REMARK    7  A    between atoms: C5_13  and  C6_14 
REMARK    8  A    between atoms: C6_14  and  N3_15 
REMARK    9  A    between atoms: C8_20  and  S2_21 
REMARK   10  A    between atoms: S2_21  and  C9_22 
REMARK   11  A    between atoms: C9_22  and  C10_23 
REMARK   12  A    between atoms: C10_23  and  C11_24 
REMARK   13  A    between atoms: C11_24  and  C12_25 
REMARK   14  A    between atoms: C12_25  and  C13_26 
REMARK   15  A    between atoms: C13_26  and  C14_27 
REMARK   16  A    between atoms: C14_27  and  O4_28 
REMARK   17  A    between atoms: O4_28  and  C15_29 
REMARK   18  A    between atoms: C21_35  and  O5_36 
REMARK   19  A    between atoms: C22_38  and  O6_39 
REMARK   20  A    between atoms: C23_41  and  C24_42 
REMARK   21  A    between atoms: C24_42  and  O7_43 
ROOT
HETATM    1  N3  UNL     1      -0.284   6.842  92.778  1.00  0.00    -0.302 N 
HETATM    2  C7  UNL     1      -1.266   5.823  92.861  1.00  0.00     0.323 C 
HETATM    3  O3  UNL     1      -2.211   5.867  91.995  1.00  0.00    -0.247 OA
HETATM    4  N4  UNL     1      -1.384   4.729  93.766  1.00  0.00    -0.327 N 
ATOM      5  H4  UNL     1      -2.336   4.482  94.036  1.00  0.00     0.165 HD
HETATM    6  C8  UNL     1      -0.344   3.925  94.353  1.00  0.00     0.179 C 
HETATM    7  C21 UNL     1       0.753   4.777  94.953  1.00  0.00     0.185 C 
HETATM    8  C22 UNL     1       1.450   5.720  94.090  1.00  0.00     0.197 C 
HETATM    9  C23 UNL     1       0.830   6.991  93.673  1.00  0.00     0.048 C 
ENDROOT
BRANCH   1  10
HETATM   10  C6  UNL     1      -0.469   7.772  91.668  1.00  0.00     0.134 C 
BRANCH  10  11
HETATM   11  C5  UNL     1       0.810   8.313  91.167  1.00  0.00     0.033 C 
BRANCH  11  12
HETATM   12  C4  UNL     1       0.767   9.484  90.272  1.00  0.00     0.110 C 
BRANCH  12  13
HETATM   13  S1  UNL     1       1.874  10.778  90.412  1.00  0.00     0.017 S 
HETATM   14  O2  UNL     1       1.279  12.119  91.231  1.00  0.00    -0.258 OA
BRANCH  13  15
HETATM   15  C3  UNL     1       3.555  10.509  90.633  1.00  0.00     0.150 C 
BRANCH  15  16
HETATM   16  C2  UNL     1       3.962  10.405  92.096  1.00  0.00     0.283 C 
BRANCH  16  17
HETATM   17  C1  UNL     1       5.301   9.812  92.277  1.00  0.00     0.262 C 
HETATM   18  N1  UNL     1       5.795   9.626  93.592  1.00  0.00    -0.060 NA
HETATM   19  O1  UNL     1       6.005   9.469  91.271  1.00  0.00    -0.275 OA
ENDBRANCH  16  17
BRANCH  16  20
HETATM   20  N2  UNL     1       3.921  11.684  92.768  1.00  0.00    -0.066 N 
ATOM     21  H23 UNL     1       3.086  11.795  93.342  1.00  0.00     0.275 HD
ATOM     22  H22 UNL     1       4.615  11.755  93.511  1.00  0.00     0.275 HD
ATOM     23  H21 UNL     1       4.018  12.425  92.074  1.00  0.00     0.275 HD
ENDBRANCH  16  20
ENDBRANCH  15  16
ENDBRANCH  13  15
ENDBRANCH  12  13
ENDBRANCH  11  12
ENDBRANCH  10  11
ENDBRANCH   1  10
BRANCH   9  24
HETATM   24  C24 UNL     1       0.605   8.028  94.734  1.00  0.00     0.219 C 
BRANCH  24  25
HETATM   25  O7  UNL     1       1.657   8.919  94.903  1.00  0.00    -0.395 OA
ATOM     26  H7  UNL     1       1.935   9.356  94.108  1.00  0.00     0.209 HD
ENDBRANCH  24  25
ENDBRANCH   9  24
BRANCH   8  27
HETATM   27  O6  UNL     1       2.693   6.021  94.666  1.00  0.00    -0.387 OA
ATOM     28  H6  UNL     1       2.958   5.291  95.213  1.00  0.00     0.210 HD
ENDBRANCH   8  27
BRANCH   6  29
HETATM   29  S2  UNL     1      -1.030   2.959  95.741  1.00  0.00    -0.141 SA
BRANCH  29  30
HETATM   30  C9  UNL     1      -2.760   3.399  95.955  1.00  0.00     0.076 C 
BRANCH  30  31
HETATM   31  C10 UNL     1      -2.951   4.414  97.027  1.00  0.00     0.010 C 
BRANCH  31  32
HETATM   32  C11 UNL     1      -3.369   3.708  98.330  1.00  0.00     0.001 C 
BRANCH  32  33
HETATM   33  C12 UNL     1      -4.753   4.211  98.710  1.00  0.00     0.002 C 
BRANCH  33  34
HETATM   34  C13 UNL     1      -4.746   5.245  99.773  1.00  0.00     0.027 C 
BRANCH  34  35
HETATM   35  C14 UNL     1      -5.531   6.464  99.420  1.00  0.00     0.175 C 
BRANCH  35  36
HETATM   36  O4  UNL     1      -5.031   6.929  98.149  1.00  0.00    -0.351 OA
BRANCH  36  37
HETATM   37  C15 UNL     1      -4.150   7.985  98.155  1.00  0.00     0.068 A 
HETATM   38  C16 UNL     1      -2.786   7.821  98.130  1.00  0.00     0.037 A 
HETATM   39  C17 UNL     1      -1.900   8.895  98.140  1.00  0.00     0.003 A 
HETATM   40  C18 UNL     1      -2.387  10.182  98.176  1.00  0.00     0.000 A 
HETATM   41  C19 UNL     1      -3.759  10.358  98.202  1.00  0.00     0.003 A 
HETATM   42  C20 UNL     1      -4.626   9.286  98.191  1.00  0.00     0.037 A 
ENDBRANCH  36  37
ENDBRANCH  35  36
ENDBRANCH  34  35
ENDBRANCH  33  34
ENDBRANCH  32  33
ENDBRANCH  31  32
ENDBRANCH  30  31
ENDBRANCH  29  30
ENDBRANCH   6  29
BRANCH   7  43
HETATM   43  O5  UNL     1       0.305   5.212  96.177  1.00  0.00    -0.390 OA
ATOM     44  H5  UNL     1      -0.003   6.103  96.062  1.00  0.00     0.210 HD
ENDBRANCH   7  43
TORSDOF 21
ENDMDL
MODEL 3
REMARK VINA RESULT: -6.881869377      1.899      2.752
REMARK  21 active torsions:
REMARK  status: ('A' for Active; 'I' for Inactive)
REMARK    1  A    between atoms: C1_2  and  C2_4 
REMARK    2  A    between atoms: C2_4  and  N2_5 
REMARK    3  A    between atoms: C2_4  and  C3_9 
REMARK    4  A    between atoms: C3_9  and  S1_10 
REMARK    5  A    between atoms: S1_10  and  C4_12 
REMARK    6  A    between atoms: C4_12  and  C5_13 
REMARK    7  A    between atoms: C5_13  and  C6_14 
REMARK    8  A    between atoms: C6_14  and  N3_15 
REMARK    9  A    between atoms: C8_20  and  S2_21 
REMARK   10  A    between atoms: S2_21  and  C9_22 
REMARK   11  A    between atoms: C9_22  and  C10_23 
REMARK   12  A    between atoms: C10_23  and  C11_24 
REMARK   13  A    between atoms: C11_24  and  C12_25 
REMARK   14  A    between atoms: C12_25  and  C13_26 
REMARK   15  A    between atoms: C13_26  and  C14_27 
REMARK   16  A    between atoms: C14_27  and  O4_28 
REMARK   17  A    between atoms: O4_28  and  C15_29 
REMARK   18  A    between atoms: C21_35  and  O5_36 
REMARK   19  A    between atoms: C22_38  and  O6_39 
REMARK   20  A    between atoms: C23_41  and  C24_42 
REMARK   21  A    between atoms: C24_42  and  O7_43 
ROOT
HETATM    1  N3  UNL     1      -0.335   6.724  93.522  1.00  0.00    -0.302 N 
HETATM    2  C7  UNL     1      -1.505   6.565  94.307  1.00  0.00     0.323 C 
HETATM    3  O3  UNL     1      -2.324   7.552  94.318  1.00  0.00    -0.247 OA
HETATM    4  N4  UNL     1      -1.937   5.468  95.106  1.00  0.00    -0.327 N 
ATOM      5  H4  UNL     1      -2.428   5.715  95.966  1.00  0.00     0.165 HD
HETATM    6  C8  UNL     1      -1.775   4.057  94.867  1.00  0.00     0.179 C 
HETATM    7  C21 UNL     1      -0.347   3.708  94.511  1.00  0.00     0.185 C 
HETATM    8  C22 UNL     1       0.258   4.355  93.356  1.00  0.00     0.197 C 
HETATM    9  C23 UNL     1       0.720   5.756  93.407  1.00  0.00     0.048 C 
ENDROOT
BRANCH   1  10
HETATM   10  C6  UNL     1      -0.264   7.985  92.790  1.00  0.00     0.134 C 
BRANCH  10  11
HETATM   11  C5  UNL     1       0.354   7.827  91.458  1.00  0.00     0.033 C 
BRANCH  11  12
HETATM   12  C4  UNL     1       0.705   9.047  90.706  1.00  0.00     0.110 C 
BRANCH  12  13
HETATM   13  S1  UNL     1       1.941  10.108  91.218  1.00  0.00     0.017 S 
HETATM   14  O2  UNL     1       1.521  11.735  91.187  1.00  0.00    -0.258 OA
BRANCH  13  15
HETATM   15  C3  UNL     1       3.029   9.688  92.477  1.00  0.00     0.150 C 
BRANCH  15  16
HETATM   16  C2  UNL     1       4.292  10.538  92.492  1.00  0.00     0.283 C 
BRANCH  16  17
HETATM   17  C1  UNL     1       5.522   9.733  92.609  1.00  0.00     0.262 C 
HETATM   18  N1  UNL     1       6.345   9.569  91.467  1.00  0.00    -0.060 NA
HETATM   19  O1  UNL     1       5.847   9.192  93.718  1.00  0.00    -0.275 OA
ENDBRANCH  16  17
BRANCH  16  20
HETATM   20  N2  UNL     1       4.395  11.384  91.325  1.00  0.00    -0.066 N 
ATOM     21  H23 UNL     1       3.893  12.264  91.436  1.00  0.00     0.275 HD
ATOM     22  H22 UNL     1       5.332  11.770  91.205  1.00  0.00     0.275 HD
ATOM     23  H21 UNL     1       4.084  10.859  90.508  1.00  0.00     0.275 HD
ENDBRANCH  16  20
ENDBRANCH  15  16
ENDBRANCH  13  15
ENDBRANCH  12  13
ENDBRANCH  11  12
ENDBRANCH  10  11
ENDBRANCH   1  10
BRANCH   9  24
HETATM   24  C24 UNL     1       1.903   6.059  94.279  1.00  0.00     0.219 C 
BRANCH  24  25
HETATM   25  O7  UNL     1       1.596   6.260  95.618  1.00  0.00    -0.395 OA
ATOM     26  H7  UNL     1       2.260   5.954  96.225  1.00  0.00     0.209 HD
ENDBRANCH  24  25
ENDBRANCH   9  24
BRANCH   8  27
HETATM   27  O6  UNL     1       1.330   3.569  92.912  1.00  0.00    -0.387 OA
ATOM     28  H6  UNL     1       2.078   4.135  92.757  1.00  0.00     0.210 HD
ENDBRANCH   8  27
BRANCH   6  29
HETATM   29  S2  UNL     1      -2.140   3.134  96.399  1.00  0.00    -0.141 SA
BRANCH  29  30
HETATM   30  C9  UNL     1      -3.864   2.629  96.376  1.00  0.00     0.076 C 
BRANCH  30  31
HETATM   31  C10 UNL     1      -4.519   2.807  97.702  1.00  0.00     0.010 C 
BRANCH  31  32
HETATM   32  C11 UNL     1      -3.604   3.645  98.614  1.00  0.00     0.001 C 
BRANCH  32  33
HETATM   33  C12 UNL     1      -4.374   4.889  99.030  1.00  0.00     0.002 C 
BRANCH  33  34
HETATM   34  C13 UNL     1      -3.945   6.124  98.332  1.00  0.00     0.027 C 
BRANCH  34  35
HETATM   35  C14 UNL     1      -4.935   6.614  97.329  1.00  0.00     0.175 C 
BRANCH  35  36
HETATM   36  O4  UNL     1      -4.598   5.992  96.071  1.00  0.00    -0.351 OA
BRANCH  36  37
HETATM   37  C15 UNL     1      -5.613   5.782  95.168  1.00  0.00     0.068 A 
HETATM   38  C16 UNL     1      -5.631   6.352  93.918  1.00  0.00     0.037 A 
HETATM   39  C17 UNL     1      -6.665   6.138  93.010  1.00  0.00     0.003 A 
HETATM   40  C18 UNL     1      -7.721   5.327  93.356  1.00  0.00     0.000 A 
HETATM   41  C19 UNL     1      -7.713   4.749  94.613  1.00  0.00     0.003 A 
HETATM   42  C20 UNL     1      -6.683   4.968  95.503  1.00  0.00     0.037 A 
ENDBRANCH  36  37
ENDBRANCH  35  36
ENDBRANCH  34  35
ENDBRANCH  33  34
ENDBRANCH  32  33
ENDBRANCH  31  32
ENDBRANCH  30  31
ENDBRANCH  29  30
ENDBRANCH   6  29
BRANCH   7  43
HETATM   43  O5  UNL     1       0.364   3.660  95.686  1.00  0.00    -0.390 OA
ATOM     44  H5  UNL     1      -0.170   3.191  96.317  1.00  0.00     0.210 HD
ENDBRANCH   7  43
TORSDOF 21
ENDMDL
MODEL 4
REMARK VINA RESULT: -6.765125570      1.956      2.730
REMARK  21 active torsions:
REMARK  status: ('A' for Active; 'I' for Inactive)
REMARK    1  A    between atoms: C1_2  and  C2_4 
REMARK    2  A    between atoms: C2_4  and  N2_5 
REMARK    3  A    between atoms: C2_4  and  C3_9 
REMARK    4  A    between atoms: C3_9  and  S1_10 
REMARK    5  A    between atoms: S1_10  and  C4_12 
REMARK    6  A    between atoms: C4_12  and  C5_13 
REMARK    7  A    between atoms: C5_13  and  C6_14 
REMARK    8  A    between atoms: C6_14  and  N3_15 
REMARK    9  A    between atoms: C8_20  and  S2_21 
REMARK   10  A    between atoms: S2_21  and  C9_22 
REMARK   11  A    between atoms: C9_22  and  C10_23 
REMARK   12  A    between atoms: C10_23  and  C11_24 
REMARK   13  A    between atoms: C11_24  and  C12_25 
REMARK   14  A    between atoms: C12_25  and  C13_26 
REMARK   15  A    between atoms: C13_26  and  C14_27 
REMARK   16  A    between atoms: C14_27  and  O4_28 
REMARK   17  A    between atoms: O4_28  and  C15_29 
REMARK   18  A    between atoms: C21_35  and  O5_36 
REMARK   19  A    between atoms: C22_38  and  O6_39 
REMARK   20  A    between atoms: C23_41  and  C24_42 
REMARK   21  A    between atoms: C24_42  and  O7_43 
ROOT
HETATM    1  N3  UNL     1      -0.546   6.586  92.790  1.00  0.00    -0.302 N 
HETATM    2  C7  UNL     1      -1.397   5.456  92.883  1.00  0.00     0.323 C 
HETATM    3  O3  UNL     1      -2.336   5.374  92.013  1.00  0.00    -0.247 OA
HETATM    4  N4  UNL     1      -1.388   4.369  93.804  1.00  0.00    -0.327 N 
ATOM      5  H4  UNL     1      -2.304   4.012  94.073  1.00  0.00     0.165 HD
HETATM    6  C8  UNL     1      -0.261   3.706  94.406  1.00  0.00     0.179 C 
HETATM    7  C21 UNL     1       0.721   4.692  94.999  1.00  0.00     0.185 C 
HETATM    8  C22 UNL     1       1.304   5.701  94.125  1.00  0.00     0.197 C 
HETATM    9  C23 UNL     1       0.536   6.882  93.687  1.00  0.00     0.048 C 
ENDROOT
BRANCH   1  10
HETATM   10  C6  UNL     1      -0.836   7.472  91.666  1.00  0.00     0.134 C 
BRANCH  10  11
HETATM   11  C5  UNL     1       0.387   7.908  90.963  1.00  0.00     0.033 C 
BRANCH  11  12
HETATM   12  C4  UNL     1       0.509   9.333  90.600  1.00  0.00     0.110 C 
BRANCH  12  13
HETATM   13  S1  UNL     1       1.847  10.282  91.077  1.00  0.00     0.017 S 
HETATM   14  O2  UNL     1       1.548  11.934  91.122  1.00  0.00    -0.258 OA
BRANCH  13  15
HETATM   15  C3  UNL     1       2.965   9.738  92.260  1.00  0.00     0.150 C 
BRANCH  15  16
HETATM   16  C2  UNL     1       4.254  10.549  92.289  1.00  0.00     0.283 C 
BRANCH  16  17
HETATM   17  C1  UNL     1       5.448   9.716  92.530  1.00  0.00     0.262 C 
HETATM   18  N1  UNL     1       5.721   9.277  93.850  1.00  0.00    -0.060 NA
HETATM   19  O1  UNL     1       6.224   9.393  91.571  1.00  0.00    -0.275 OA
ENDBRANCH  16  17
BRANCH  16  20
HETATM   20  N2  UNL     1       4.450  11.308  91.075  1.00  0.00    -0.066 N 
ATOM     21  H23 UNL     1       5.430  11.348  90.796  1.00  0.00     0.275 HD
ATOM     22  H22 UNL     1       4.087  10.827  90.252  1.00  0.00     0.275 HD
ATOM     23  H21 UNL     1       4.042  12.235  91.195  1.00  0.00     0.275 HD
ENDBRANCH  16  20
ENDBRANCH  15  16
ENDBRANCH  13  15
ENDBRANCH  12  13
ENDBRANCH  11  12
ENDBRANCH  10  11
ENDBRANCH   1  10
BRANCH   9  24
HETATM   24  C24 UNL     1       0.181   7.898  94.732  1.00  0.00     0.219 C 
BRANCH  24  25
HETATM   25  O7  UNL     1       1.255   8.641  95.203  1.00  0.00    -0.395 OA
ATOM     26  H7  UNL     1       1.309   9.523  94.855  1.00  0.00     0.209 HD
ENDBRANCH  24  25
ENDBRANCH   9  24
BRANCH   8  27
HETATM   27  O6  UNL     1       2.497   6.158  94.702  1.00  0.00    -0.387 OA
ATOM     28  H6  UNL     1       2.413   7.088  94.877  1.00  0.00     0.210 HD
ENDBRANCH   8  27
BRANCH   6  29
HETATM   29  S2  UNL     1      -0.833   2.682  95.805  1.00  0.00    -0.141 SA
BRANCH  29  30
HETATM   30  C9  UNL     1      -2.552   3.079  96.150  1.00  0.00     0.076 C 
BRANCH  30  31
HETATM   31  C10 UNL     1      -3.012   2.505  97.445  1.00  0.00     0.010 C 
BRANCH  31  32
HETATM   32  C11 UNL     1      -3.413   3.647  98.396  1.00  0.00     0.001 C 
BRANCH  32  33
HETATM   33  C12 UNL     1      -3.186   4.962  97.667  1.00  0.00     0.002 C 
BRANCH  33  34
HETATM   34  C13 UNL     1      -3.928   6.107  98.247  1.00  0.00     0.027 C 
BRANCH  34  35
HETATM   35  C14 UNL     1      -4.119   7.236  97.291  1.00  0.00     0.175 C 
BRANCH  35  36
HETATM   36  O4  UNL     1      -3.348   6.920  96.112  1.00  0.00    -0.351 OA
BRANCH  36  37
HETATM   37  C15 UNL     1      -3.969   7.036  94.891  1.00  0.00     0.068 A 
HETATM   38  C16 UNL     1      -3.744   8.088  94.035  1.00  0.00     0.037 A 
HETATM   39  C17 UNL     1      -4.379   8.200  92.801  1.00  0.00     0.003 A 
HETATM   40  C18 UNL     1      -5.272   7.232  92.401  1.00  0.00     0.000 A 
HETATM   41  C19 UNL     1      -5.506   6.169  93.256  1.00  0.00     0.003 A 
HETATM   42  C20 UNL     1      -4.870   6.069  94.475  1.00  0.00     0.037 A 
ENDBRANCH  36  37
ENDBRANCH  35  36
ENDBRANCH  34  35
ENDBRANCH  33  34
ENDBRANCH  32  33
ENDBRANCH  31  32
ENDBRANCH  30  31
ENDBRANCH  29  30
ENDBRANCH   6  29
BRANCH   7  43
HETATM   43  O5  UNL     1       0.217   5.087  96.214  1.00  0.00    -0.390 OA
ATOM     44  H5  UNL     1       0.400   4.390  96.834  1.00  0.00     0.210 HD
ENDBRANCH   7  43
TORSDOF 21
ENDMDL
MODEL 5
REMARK VINA RESULT: -6.748345070      3.679      6.662
REMARK  21 active torsions:
REMARK  status: ('A' for Active; 'I' for Inactive)
REMARK    1  A    between atoms: C1_2  and  C2_4 
REMARK    2  A    between atoms: C2_4  and  N2_5 
REMARK    3  A    between atoms: C2_4  and  C3_9 
REMARK    4  A    between atoms: C3_9  and  S1_10 
REMARK    5  A    between atoms: S1_10  and  C4_12 
REMARK    6  A    between atoms: C4_12  and  C5_13 
REMARK    7  A    between atoms: C5_13  and  C6_14 
REMARK    8  A    between atoms: C6_14  and  N3_15 
REMARK    9  A    between atoms: C8_20  and  S2_21 
REMARK   10  A    between atoms: S2_21  and  C9_22 
REMARK   11  A    between atoms: C9_22  and  C10_23 
REMARK   12  A    between atoms: C10_23  and  C11_24 
REMARK   13  A    between atoms: C11_24  and  C12_25 
REMARK   14  A    between atoms: C12_25  and  C13_26 
REMARK   15  A    between atoms: C13_26  and  C14_27 
REMARK   16  A    between atoms: C14_27  and  O4_28 
REMARK   17  A    between atoms: O4_28  and  C15_29 
REMARK   18  A    between atoms: C21_35  and  O5_36 
REMARK   19  A    between atoms: C22_38  and  O6_39 
REMARK   20  A    between atoms: C23_41  and  C24_42 
REMARK   21  A    between atoms: C24_42  and  O7_43 
ROOT
HETATM    1  N3  UNL     1       0.473  10.160  89.253  1.00  0.00    -0.302 N 
HETATM    2  C7  UNL     1      -0.017   8.864  89.550  1.00  0.00     0.323 C 
HETATM    3  O3  UNL     1       0.833   7.905  89.499  1.00  0.00    -0.247 OA
HETATM    4  N4  UNL     1      -1.329   8.433  89.902  1.00  0.00    -0.327 N 
ATOM      5  H4  UNL     1      -1.606   7.522  89.537  1.00  0.00     0.165 HD
HETATM    6  C8  UNL     1      -2.316   9.108  90.704  1.00  0.00     0.179 C 
HETATM    7  C21 UNL     1      -2.510  10.543  90.265  1.00  0.00     0.185 C 
HETATM    8  C22 UNL     1      -1.356  11.431  90.267  1.00  0.00     0.197 C 
HETATM    9  C23 UNL     1      -0.322  11.356  89.218  1.00  0.00     0.048 C 
ENDROOT
BRANCH   1  10
HETATM   10  C6  UNL     1       1.907  10.218  88.984  1.00  0.00     0.134 C 
BRANCH  10  11
HETATM   11  C5  UNL     1       2.646  10.959  90.027  1.00  0.00     0.033 C 
BRANCH  11  12
HETATM   12  C4  UNL     1       4.038  10.560  90.309  1.00  0.00     0.110 C 
BRANCH  12  13
HETATM   13  S1  UNL     1       4.564  10.137  91.878  1.00  0.00     0.017 S 
HETATM   14  O2  UNL     1       6.072   9.399  91.932  1.00  0.00    -0.258 OA
BRANCH  13  15
HETATM   15  C3  UNL     1       4.212  11.116  93.243  1.00  0.00     0.150 C 
BRANCH  15  16
HETATM   16  C2  UNL     1       5.178  10.905  94.401  1.00  0.00     0.283 C 
BRANCH  16  17
HETATM   17  C1  UNL     1       5.067  11.951  95.437  1.00  0.00     0.262 C 
HETATM   18  N1  UNL     1       5.695  11.743  96.690  1.00  0.00    -0.060 NA
HETATM   19  O1  UNL     1       4.420  13.026  95.213  1.00  0.00    -0.275 OA
ENDBRANCH  16  17
BRANCH  16  20
HETATM   20  N2  UNL     1       5.013   9.611  95.023  1.00  0.00    -0.066 N 
ATOM     21  H23 UNL     1       4.548   9.671  95.929  1.00  0.00     0.275 HD
ATOM     22  H22 UNL     1       4.319   9.036  94.545  1.00  0.00     0.275 HD
ATOM     23  H21 UNL     1       5.923   9.154  95.082  1.00  0.00     0.275 HD
ENDBRANCH  16  20
ENDBRANCH  15  16
ENDBRANCH  13  15
ENDBRANCH  12  13
ENDBRANCH  11  12
ENDBRANCH  10  11
ENDBRANCH   1  10
BRANCH   9  24
HETATM   24  C24 UNL     1      -0.718  11.766  87.830  1.00  0.00     0.219 C 
BRANCH  24  25
HETATM   25  O7  UNL     1      -1.106  13.094  87.708  1.00  0.00    -0.395 OA
ATOM     26  H7  UNL     1      -1.693  13.268  86.983  1.00  0.00     0.209 HD
ENDBRANCH  24  25
ENDBRANCH   9  24
BRANCH   8  27
HETATM   27  O6  UNL     1      -1.810  12.756  90.324  1.00  0.00    -0.387 OA
ATOM     28  H6  UNL     1      -1.146  13.287  90.747  1.00  0.00     0.210 HD
ENDBRANCH   8  27
BRANCH   6  29
HETATM   29  S2  UNL     1      -3.938   8.302  90.479  1.00  0.00    -0.141 SA
BRANCH  29  30
HETATM   30  C9  UNL     1      -4.440   7.563  92.039  1.00  0.00     0.076 C 
BRANCH  30  31
HETATM   31  C10 UNL     1      -3.924   6.174  92.193  1.00  0.00     0.010 C 
BRANCH  31  32
HETATM   32  C11 UNL     1      -2.614   6.204  93.001  1.00  0.00     0.001 C 
BRANCH  32  33
HETATM   33  C12 UNL     1      -1.632   5.254  92.333  1.00  0.00     0.002 C 
BRANCH  33  34
HETATM   34  C13 UNL     1      -0.254   5.335  92.873  1.00  0.00     0.027 C 
BRANCH  34  35
HETATM   35  C14 UNL     1       0.214   4.065  93.501  1.00  0.00     0.175 C 
BRANCH  35  36
HETATM   36  O4  UNL     1       0.336   4.320  94.916  1.00  0.00    -0.351 OA
BRANCH  36  37
HETATM   37  C15 UNL     1      -0.630   3.800  95.745  1.00  0.00     0.068 A 
HETATM   38  C16 UNL     1      -0.651   2.482  96.135  1.00  0.00     0.037 A 
HETATM   39  C17 UNL     1      -1.634   1.963  96.973  1.00  0.00     0.003 A 
HETATM   40  C18 UNL     1      -2.636   2.782  97.441  1.00  0.00     0.000 A 
HETATM   41  C19 UNL     1      -2.625   4.111  97.054  1.00  0.00     0.003 A 
HETATM   42  C20 UNL     1      -1.645   4.614  96.225  1.00  0.00     0.037 A 
ENDBRANCH  36  37
ENDBRANCH  35  36
ENDBRANCH  34  35
ENDBRANCH  33  34
ENDBRANCH  32  33
ENDBRANCH  31  32
ENDBRANCH  30  31
ENDBRANCH  29  30
ENDBRANCH   6  29
BRANCH   7  43
HETATM   43  O5  UNL     1      -3.324  10.522  89.159  1.00  0.00    -0.390 OA
ATOM     44  H5  UNL     1      -4.197  10.294  89.456  1.00  0.00     0.210 HD
ENDBRANCH   7  43
TORSDOF 21
ENDMDL
