MODEL 1
REMARK VINA RESULT: -5.311164603      0.000      0.000
REMARK  4 active torsions:
REMARK  status: ('A' for Active; 'I' for Inactive)
REMARK    1  A    between atoms: N1_2  and  C3_4 
REMARK    2  A    between atoms: C3_4  and  C4_5 
REMARK    3  A    between atoms: C4_5  and  C5_6 
REMARK    4  A    between atoms: C5_6  and  C6_7 
ROOT
HETATM    1  C6  UNL     1     -39.752   8.964  25.352  1.00  0.00     0.197 C 
HETATM    2  O1  UNL     1     -39.040   9.899  24.604  1.00  0.00    -0.229 OA
HETATM    3  O2  UNL     1     -38.231   9.393  23.740  1.00  0.00    -0.197 OA
HETATM    4  C7  UNL     1     -38.861   9.525  22.478  1.00  0.00     0.229 C 
HETATM    5  C8  UNL     1     -38.008   8.906  21.410  1.00  0.00     0.074 C 
HETATM    6  C9  UNL     1     -38.675   9.162  20.076  1.00  0.00     0.006 C 
HETATM    7  C10 UNL     1     -38.601  10.657  19.842  1.00  0.00     0.000 C 
HETATM    8  C11 UNL     1     -39.408  11.398  20.873  1.00  0.00     0.006 C 
HETATM    9  C12 UNL     1     -39.157  10.981  22.276  1.00  0.00     0.074 C 
HETATM   10  O3  UNL     1     -40.028   8.759  22.590  1.00  0.00    -0.197 OA
HETATM   11  O4  UNL     1     -39.702   7.701  23.287  1.00  0.00    -0.225 OA
HETATM   12  C13 UNL     1     -40.122   7.735  24.604  1.00  0.00     0.118 C 
HETATM   13  C14 UNL     1     -41.622   7.464  24.589  1.00  0.00     0.052 C 
HETATM   14  C15 UNL     1     -39.514   6.485  25.262  1.00  0.00     0.052 C 
ENDROOT
BRANCH   1  15
HETATM   15  C5  UNL     1     -40.977   9.691  25.844  1.00  0.00     0.040 C 
BRANCH  15  16
HETATM   16  C4  UNL     1     -41.192  11.047  25.360  1.00  0.00     0.022 C 
BRANCH  16  17
HETATM   17  C3  UNL     1     -41.450  12.180  26.243  1.00  0.00     0.116 C 
BRANCH  17  18
HETATM   18  N1  UNL     1     -40.678  13.360  26.039  1.00  0.00    -0.421 N 
HETATM   19  C1  UNL     1     -39.563  13.308  25.158  1.00  0.00     0.142 C 
HETATM   20  C2  UNL     1     -40.400  14.113  27.232  1.00  0.00     0.142 C 
ENDBRANCH  17  18
ENDBRANCH  16  17
ENDBRANCH  15  16
ENDBRANCH   1  15
TORSDOF 4
ENDMDL
MODEL 2
REMARK VINA RESULT: -5.283032379      1.622      4.045
REMARK  4 active torsions:
REMARK  status: ('A' for Active; 'I' for Inactive)
REMARK    1  A    between atoms: N1_2  and  C3_4 
REMARK    2  A    between atoms: C3_4  and  C4_5 
REMARK    3  A    between atoms: C4_5  and  C5_6 
REMARK    4  A    between atoms: C5_6  and  C6_7 
ROOT
HETATM    1  C6  UNL     1     -39.561   9.748  23.225  1.00  0.00     0.197 C 
HETATM    2  O1  UNL     1     -40.209   8.691  23.861  1.00  0.00    -0.229 OA
HETATM    3  O2  UNL     1     -40.374   7.644  23.131  1.00  0.00    -0.197 OA
HETATM    4  C7  UNL     1     -39.395   6.709  23.547  1.00  0.00     0.229 C 
HETATM    5  C8  UNL     1     -39.478   5.469  22.705  1.00  0.00     0.074 C 
HETATM    6  C9  UNL     1     -38.484   4.469  23.252  1.00  0.00     0.006 C 
HETATM    7  C10 UNL     1     -38.992   4.067  24.622  1.00  0.00     0.000 C 
HETATM    8  C11 UNL     1     -38.978   5.242  25.561  1.00  0.00     0.006 C 
HETATM    9  C12 UNL     1     -39.589   6.480  25.016  1.00  0.00     0.074 C 
HETATM   10  O3  UNL     1     -38.175   7.335  23.266  1.00  0.00    -0.197 OA
HETATM   11  O4  UNL     1     -38.343   7.964  22.131  1.00  0.00    -0.225 OA
HETATM   12  C13 UNL     1     -38.514   9.331  22.258  1.00  0.00     0.118 C 
HETATM   13  C14 UNL     1     -37.139   9.914  22.565  1.00  0.00     0.052 C 
HETATM   14  C15 UNL     1     -38.837   9.838  20.842  1.00  0.00     0.052 C 
ENDROOT
BRANCH   1  15
HETATM   15  C5  UNL     1     -38.977  10.587  24.332  1.00  0.00     0.040 C 
BRANCH  15  16
HETATM   16  C4  UNL     1     -39.685  11.808  24.694  1.00  0.00     0.022 C 
BRANCH  16  17
HETATM   17  C3  UNL     1     -40.927  11.814  25.459  1.00  0.00     0.116 C 
BRANCH  17  18
HETATM   18  N1  UNL     1     -41.130  12.888  26.373  1.00  0.00    -0.421 N 
HETATM   19  C1  UNL     1     -40.377  14.082  26.207  1.00  0.00     0.142 C 
HETATM   20  C2  UNL     1     -41.238  12.495  27.752  1.00  0.00     0.142 C 
ENDBRANCH  17  18
ENDBRANCH  16  17
ENDBRANCH  15  16
ENDBRANCH   1  15
TORSDOF 4
ENDMDL
MODEL 3
REMARK VINA RESULT: -5.262272966      1.912      3.593
REMARK  4 active torsions:
REMARK  status: ('A' for Active; 'I' for Inactive)
REMARK    1  A    between atoms: N1_2  and  C3_4 
REMARK    2  A    between atoms: C3_4  and  C4_5 
REMARK    3  A    between atoms: C4_5  and  C5_6 
REMARK    4  A    between atoms: C5_6  and  C6_7 
ROOT
HETATM    1  C6  UNL     1     -39.521   9.757  23.239  1.00  0.00     0.197 C 
HETATM    2  O1  UNL     1     -39.404   8.410  22.903  1.00  0.00    -0.229 OA
HETATM    3  O2  UNL     1     -38.998   8.189  21.701  1.00  0.00    -0.197 OA
HETATM    4  C7  UNL     1     -37.634   7.822  21.802  1.00  0.00     0.229 C 
HETATM    5  C8  UNL     1     -37.059   7.599  20.434  1.00  0.00     0.074 C 
HETATM    6  C9  UNL     1     -35.635   7.114  20.602  1.00  0.00     0.006 C 
HETATM    7  C10 UNL     1     -35.724   5.742  21.237  1.00  0.00     0.000 C 
HETATM    8  C11 UNL     1     -36.311   5.831  22.618  1.00  0.00     0.006 C 
HETATM    9  C12 UNL     1     -37.556   6.635  22.714  1.00  0.00     0.074 C 
HETATM   10  O3  UNL     1     -37.010   8.951  22.348  1.00  0.00    -0.197 OA
HETATM   11  O4  UNL     1     -37.588   9.987  21.798  1.00  0.00    -0.225 OA
HETATM   12  C13 UNL     1     -38.496  10.634  22.617  1.00  0.00     0.118 C 
HETATM   13  C14 UNL     1     -37.678  11.424  23.632  1.00  0.00     0.052 C 
HETATM   14  C15 UNL     1     -39.152  11.709  21.734  1.00  0.00     0.052 C 
ENDROOT
BRANCH   1  15
HETATM   15  C5  UNL     1     -39.438   9.805  24.743  1.00  0.00     0.040 C 
BRANCH  15  16
HETATM   16  C4  UNL     1     -40.621  10.250  25.466  1.00  0.00     0.022 C 
BRANCH  16  17
HETATM   17  C3  UNL     1     -41.357  11.463  25.126  1.00  0.00     0.116 C 
BRANCH  17  18
HETATM   18  N1  UNL     1     -41.168  12.602  25.962  1.00  0.00    -0.421 N 
HETATM   19  C1  UNL     1     -40.108  13.501  25.668  1.00  0.00     0.142 C 
HETATM   20  C2  UNL     1     -41.293  12.343  27.371  1.00  0.00     0.142 C 
ENDBRANCH  17  18
ENDBRANCH  16  17
ENDBRANCH  15  16
ENDBRANCH   1  15
TORSDOF 4
ENDMDL
MODEL 4
REMARK VINA RESULT: -5.232076124      2.875      3.892
REMARK  4 active torsions:
REMARK  status: ('A' for Active; 'I' for Inactive)
REMARK    1  A    between atoms: N1_2  and  C3_4 
REMARK    2  A    between atoms: C3_4  and  C4_5 
REMARK    3  A    between atoms: C4_5  and  C5_6 
REMARK    4  A    between atoms: C5_6  and  C6_7 
ROOT
HETATM    1  C6  UNL     1     -37.450   9.731  22.856  1.00  0.00     0.197 C 
HETATM    2  O1  UNL     1     -36.072   9.649  22.663  1.00  0.00    -0.229 OA
HETATM    3  O2  UNL     1     -35.654   8.501  22.257  1.00  0.00    -0.197 OA
HETATM    4  C7  UNL     1     -35.390   8.640  20.872  1.00  0.00     0.229 C 
HETATM    5  C8  UNL     1     -34.947   7.325  20.299  1.00  0.00     0.074 C 
HETATM    6  C9  UNL     1     -34.584   7.551  18.847  1.00  0.00     0.006 C 
HETATM    7  C10 UNL     1     -33.352   8.432  18.848  1.00  0.00     0.000 C 
HETATM    8  C11 UNL     1     -33.664   9.785  19.425  1.00  0.00     0.006 C 
HETATM    9  C12 UNL     1     -34.400   9.755  20.714  1.00  0.00     0.074 C 
HETATM   10  O3  UNL     1     -36.634   8.954  20.311  1.00  0.00    -0.197 OA
HETATM   11  O4  UNL     1     -37.515   8.232  20.955  1.00  0.00    -0.225 OA
HETATM   12  C13 UNL     1     -38.251   8.935  21.891  1.00  0.00     0.118 C 
HETATM   13  C14 UNL     1     -39.262   9.769  21.112  1.00  0.00     0.052 C 
HETATM   14  C15 UNL     1     -39.103   7.882  22.619  1.00  0.00     0.052 C 
ENDROOT
BRANCH   1  15
HETATM   15  C5  UNL     1     -37.783  11.198  22.761  1.00  0.00     0.040 C 
BRANCH  15  16
HETATM   16  C4  UNL     1     -38.462  11.806  23.896  1.00  0.00     0.022 C 
BRANCH  16  17
HETATM   17  C3  UNL     1     -39.652  11.232  24.516  1.00  0.00     0.116 C 
BRANCH  17  18
HETATM   18  N1  UNL     1     -40.458  12.095  25.314  1.00  0.00    -0.421 N 
HETATM   19  C1  UNL     1     -39.991  13.410  25.590  1.00  0.00     0.142 C 
HETATM   20  C2  UNL     1     -41.052  11.472  26.467  1.00  0.00     0.142 C 
ENDBRANCH  17  18
ENDBRANCH  16  17
ENDBRANCH  15  16
ENDBRANCH   1  15
TORSDOF 4
ENDMDL
MODEL 5
REMARK VINA RESULT: -5.136072742      2.552      5.097
REMARK  4 active torsions:
REMARK  status: ('A' for Active; 'I' for Inactive)
REMARK    1  A    between atoms: N1_2  and  C3_4 
REMARK    2  A    between atoms: C3_4  and  C4_5 
REMARK    3  A    between atoms: C4_5  and  C5_6 
REMARK    4  A    between atoms: C5_6  and  C6_7 
ROOT
HETATM    1  C6  UNL     1     -39.767   5.971  23.345  1.00  0.00     0.197 C 
HETATM    2  O1  UNL     1     -39.952   7.262  22.854  1.00  0.00    -0.229 OA
HETATM    3  O2  UNL     1     -40.908   7.918  23.414  1.00  0.00    -0.197 OA
HETATM    4  C7  UNL     1     -40.296   8.827  24.312  1.00  0.00     0.229 C 
HETATM    5  C8  UNL     1     -41.345   9.601  25.056  1.00  0.00     0.074 C 
HETATM    6  C9  UNL     1     -40.642  10.621  25.923  1.00  0.00     0.006 C 
HETATM    7  C10 UNL     1     -39.996  11.613  24.978  1.00  0.00     0.000 C 
HETATM    8  C11 UNL     1     -38.931  10.946  24.152  1.00  0.00     0.006 C 
HETATM    9  C12 UNL     1     -39.344   9.670  23.517  1.00  0.00     0.074 C 
HETATM   10  O3  UNL     1     -39.634   8.009  25.236  1.00  0.00    -0.197 OA
HETATM   11  O4  UNL     1     -40.421   6.986  25.445  1.00  0.00    -0.225 OA
HETATM   12  C13 UNL     1     -40.030   5.826  24.800  1.00  0.00     0.118 C 
HETATM   13  C14 UNL     1     -38.839   5.277  25.577  1.00  0.00     0.052 C 
HETATM   14  C15 UNL     1     -41.157   4.812  25.058  1.00  0.00     0.052 C 
ENDROOT
BRANCH   1  15
HETATM   15  C5  UNL     1     -38.342   5.614  23.010  1.00  0.00     0.040 C 
BRANCH  15  16
HETATM   16  C4  UNL     1     -37.708   6.336  21.916  1.00  0.00     0.022 C 
BRANCH  16  17
HETATM   17  C3  UNL     1     -36.389   6.950  22.022  1.00  0.00     0.116 C 
BRANCH  17  18
HETATM   18  N1  UNL     1     -36.232   8.263  21.494  1.00  0.00    -0.421 N 
HETATM   19  C1  UNL     1     -35.738   9.291  22.343  1.00  0.00     0.142 C 
HETATM   20  C2  UNL     1     -37.316   8.713  20.662  1.00  0.00     0.142 C 
ENDBRANCH  17  18
ENDBRANCH  16  17
ENDBRANCH  15  16
ENDBRANCH   1  15
TORSDOF 4
ENDMDL
