MODEL 1
REMARK VINA RESULT: -6.439726823      0.000      0.000
REMARK  3 active torsions:
REMARK  status: ('A' for Active; 'I' for Inactive)
REMARK    1  A    between atoms: O1_2  and  C2_3 
REMARK    2  A    between atoms: C6_8  and  C7_9 
REMARK    3  A    between atoms: C10_12  and  C11_13 
ROOT
HETATM    1  C7  UNL     1     -37.603   9.500  22.116  1.00  0.00     0.121 C 
HETATM    2  C8  UNL     1     -36.881  10.094  23.271  1.00  0.00     0.077 C 
HETATM    3  C9  UNL     1     -37.371  11.559  23.417  1.00  0.00     0.077 C 
HETATM    4  C10 UNL     1     -38.872  11.569  23.159  1.00  0.00     0.114 C 
HETATM    5  O4  UNL     1     -39.268  10.870  22.095  1.00  0.00    -0.194 OA
HETATM    6  O5  UNL     1     -38.193  10.467  21.335  1.00  0.00    -0.194 OA
ENDROOT
BRANCH   1   7
HETATM    7  C6  UNL     1     -37.291   8.185  21.632  1.00  0.00     0.141 A 
HETATM    8  C2  UNL     1     -36.377   7.787  20.652  1.00  0.00     0.112 A 
HETATM    9  C3  UNL     1     -36.461   6.421  20.515  1.00  0.00    -0.003 A 
HETATM   10  C4  UNL     1     -35.630   5.607  19.594  1.00  0.00     0.053 C 
HETATM   11  C5  UNL     1     -37.426   6.000  21.423  1.00  0.00     0.152 A 
HETATM   12  O2  UNL     1     -37.861   7.054  22.031  1.00  0.00    -0.317 OA
BRANCH   8  13
HETATM   13  O1  UNL     1     -35.553   8.569  19.956  1.00  0.00    -0.352 OA
HETATM   14  C1  UNL     1     -34.357   9.200  20.114  1.00  0.00     0.210 C 
ENDBRANCH   8  13
ENDBRANCH   1   7
BRANCH   4  15
HETATM   15  C11 UNL     1     -39.588  11.571  24.431  1.00  0.00     0.096 A 
HETATM   16  N1  UNL     1     -39.708  12.771  25.122  1.00  0.00    -0.336 N 
HETATM   17  C12 UNL     1     -40.530  12.573  26.152  1.00  0.00     0.120 A 
ATOM     18  H1  UNL     1     -39.248  13.649  24.883  1.00  0.00     0.168 HD
HETATM   19  C13 UNL     1     -40.980  13.549  27.172  1.00  0.00     0.098 C 
HETATM   20  O3  UNL     1     -40.906  11.335  26.133  1.00  0.00    -0.300 OA
HETATM   21  C14 UNL     1     -40.366  10.701  25.118  1.00  0.00     0.080 A 
HETATM   22  C15 UNL     1     -40.563   9.298  24.781  1.00  0.00     0.079 C 
ENDBRANCH   4  15
TORSDOF 3
ENDMDL
MODEL 2
REMARK VINA RESULT: -6.361646842      2.002      6.758
REMARK  3 active torsions:
REMARK  status: ('A' for Active; 'I' for Inactive)
REMARK    1  A    between atoms: O1_2  and  C2_3 
REMARK    2  A    between atoms: C6_8  and  C7_9 
REMARK    3  A    between atoms: C10_12  and  C11_13 
ROOT
HETATM    1  C7  UNL     1     -38.748  11.516  23.684  1.00  0.00     0.121 C 
HETATM    2  C8  UNL     1     -39.457  10.951  22.506  1.00  0.00     0.077 C 
HETATM    3  C9  UNL     1     -38.378  10.386  21.546  1.00  0.00     0.077 C 
HETATM    4  C10 UNL     1     -37.313   9.707  22.399  1.00  0.00     0.114 C 
HETATM    5  O4  UNL     1     -36.915  10.402  23.465  1.00  0.00    -0.194 OA
HETATM    6  O5  UNL     1     -37.407  11.688  23.434  1.00  0.00    -0.194 OA
ENDROOT
BRANCH   1   7
HETATM    7  C6  UNL     1     -39.452  12.230  24.712  1.00  0.00     0.141 A 
HETATM    8  C2  UNL     1     -40.270  11.744  25.736  1.00  0.00     0.112 A 
HETATM    9  C3  UNL     1     -40.747  12.819  26.451  1.00  0.00    -0.003 A 
HETATM   10  C4  UNL     1     -41.628  12.724  27.641  1.00  0.00     0.053 C 
HETATM   11  C5  UNL     1     -40.205  13.951  25.854  1.00  0.00     0.152 A 
HETATM   12  O2  UNL     1     -39.474  13.548  24.867  1.00  0.00    -0.317 OA
BRANCH   8  13
HETATM   13  O1  UNL     1     -40.556  10.471  26.002  1.00  0.00    -0.352 OA
HETATM   14  C1  UNL     1     -41.039   9.371  25.362  1.00  0.00     0.210 C 
ENDBRANCH   8  13
ENDBRANCH   1   7
BRANCH   4  15
HETATM   15  C11 UNL     1     -37.548   8.267  22.421  1.00  0.00     0.096 A 
HETATM   16  N1  UNL     1     -38.285   7.732  23.471  1.00  0.00    -0.336 N 
HETATM   17  C12 UNL     1     -38.515   6.448  23.201  1.00  0.00     0.120 A 
ATOM     18  H1  UNL     1     -38.594   8.234  24.303  1.00  0.00     0.168 HD
HETATM   19  C13 UNL     1     -39.266   5.456  24.007  1.00  0.00     0.098 C 
HETATM   20  O3  UNL     1     -37.961   6.172  22.064  1.00  0.00    -0.300 OA
HETATM   21  C14 UNL     1     -37.373   7.233  21.564  1.00  0.00     0.080 A 
HETATM   22  C15 UNL     1     -36.651   7.297  20.300  1.00  0.00     0.079 C 
ENDBRANCH   4  15
TORSDOF 3
ENDMDL
MODEL 3
REMARK VINA RESULT: -6.286027217      0.977      2.000
REMARK  3 active torsions:
REMARK  status: ('A' for Active; 'I' for Inactive)
REMARK    1  A    between atoms: O1_2  and  C2_3 
REMARK    2  A    between atoms: C6_8  and  C7_9 
REMARK    3  A    between atoms: C10_12  and  C11_13 
ROOT
HETATM    1  C7  UNL     1     -37.692   9.567  21.975  1.00  0.00     0.121 C 
HETATM    2  C8  UNL     1     -36.971  10.057  23.178  1.00  0.00     0.077 C 
HETATM    3  C9  UNL     1     -37.450  11.509  23.444  1.00  0.00     0.077 C 
HETATM    4  C10 UNL     1     -38.951  11.552  23.181  1.00  0.00     0.114 C 
HETATM    5  O4  UNL     1     -39.347  10.946  22.061  1.00  0.00    -0.194 OA
HETATM    6  O5  UNL     1     -38.271  10.599  21.275  1.00  0.00    -0.194 OA
ENDROOT
BRANCH   1   7
HETATM    7  C6  UNL     1     -37.388   8.293  21.385  1.00  0.00     0.141 A 
HETATM    8  C2  UNL     1     -37.528   7.007  21.916  1.00  0.00     0.112 A 
HETATM    9  C3  UNL     1     -37.070   6.106  20.983  1.00  0.00    -0.003 A 
HETATM   10  C4  UNL     1     -37.077   4.631  21.153  1.00  0.00     0.053 C 
HETATM   11  C5  UNL     1     -36.661   6.857  19.888  1.00  0.00     0.152 A 
HETATM   12  O2  UNL     1     -36.869   8.098  20.179  1.00  0.00    -0.317 OA
BRANCH   8  13
HETATM   13  O1  UNL     1     -38.017   6.679  23.110  1.00  0.00    -0.352 OA
HETATM   14  C1  UNL     1     -39.083   6.018  23.638  1.00  0.00     0.210 C 
ENDBRANCH   8  13
ENDBRANCH   1   7
BRANCH   4  15
HETATM   15  C11 UNL     1     -39.672  11.454  24.446  1.00  0.00     0.096 A 
HETATM   16  N1  UNL     1     -39.848  12.609  25.200  1.00  0.00    -0.336 N 
HETATM   17  C12 UNL     1     -40.665  12.320  26.212  1.00  0.00     0.120 A 
ATOM     18  H1  UNL     1     -39.426  13.517  25.011  1.00  0.00     0.168 HD
HETATM   19  C13 UNL     1     -41.163  13.219  27.279  1.00  0.00     0.098 C 
HETATM   20  O3  UNL     1     -40.986  11.069  26.123  1.00  0.00    -0.300 OA
HETATM   21  C14 UNL     1     -40.414  10.515  25.080  1.00  0.00     0.080 A 
HETATM   22  C15 UNL     1     -40.548   9.125  24.667  1.00  0.00     0.079 C 
ENDBRANCH   4  15
TORSDOF 3
ENDMDL
MODEL 4
REMARK VINA RESULT: -6.219267918      2.428      7.067
REMARK  3 active torsions:
REMARK  status: ('A' for Active; 'I' for Inactive)
REMARK    1  A    between atoms: O1_2  and  C2_3 
REMARK    2  A    between atoms: C6_8  and  C7_9 
REMARK    3  A    between atoms: C10_12  and  C11_13 
ROOT
HETATM    1  C7  UNL     1     -38.864  10.217  23.166  1.00  0.00     0.121 C 
HETATM    2  C8  UNL     1     -38.399   8.867  23.578  1.00  0.00     0.077 C 
HETATM    3  C9  UNL     1     -38.064   8.080  22.284  1.00  0.00     0.077 C 
HETATM    4  C10 UNL     1     -37.374   9.044  21.326  1.00  0.00     0.114 C 
HETATM    5  O4  UNL     1     -37.955  10.239  21.211  1.00  0.00    -0.194 OA
HETATM    6  O5  UNL     1     -39.185  10.257  21.829  1.00  0.00    -0.194 OA
ENDROOT
BRANCH   1   7
HETATM    7  C6  UNL     1     -39.371  11.160  24.122  1.00  0.00     0.141 A 
HETATM    8  C2  UNL     1     -40.341  10.991  25.115  1.00  0.00     0.112 A 
HETATM    9  C3  UNL     1     -40.511  12.195  25.759  1.00  0.00    -0.003 A 
HETATM   10  C4  UNL     1     -41.434  12.426  26.898  1.00  0.00     0.053 C 
HETATM   11  C5  UNL     1     -39.633  13.085  25.152  1.00  0.00     0.152 A 
HETATM   12  O2  UNL     1     -39.010  12.434  24.227  1.00  0.00    -0.317 OA
BRANCH   8  13
HETATM   13  O1  UNL     1     -41.002   9.874  25.411  1.00  0.00    -0.352 OA
HETATM   14  C1  UNL     1     -41.725   8.909  24.779  1.00  0.00     0.210 C 
ENDBRANCH   8  13
ENDBRANCH   1   7
BRANCH   4  15
HETATM   15  C11 UNL     1     -35.929   8.857  21.398  1.00  0.00     0.096 A 
HETATM   16  N1  UNL     1     -35.320   8.028  20.463  1.00  0.00    -0.336 N 
HETATM   17  C12 UNL     1     -34.001   8.137  20.613  1.00  0.00     0.120 A 
ATOM     18  H1  UNL     1     -35.800   7.439  19.782  1.00  0.00     0.168 HD
HETATM   19  C13 UNL     1     -32.928   7.463  19.844  1.00  0.00     0.098 C 
HETATM   20  O3  UNL     1     -33.774   8.968  21.578  1.00  0.00    -0.300 OA
HETATM   21  C14 UNL     1     -34.901   9.423  22.074  1.00  0.00     0.080 A 
HETATM   22  C15 UNL     1     -35.033  10.375  23.169  1.00  0.00     0.079 C 
ENDBRANCH   4  15
TORSDOF 3
ENDMDL
MODEL 5
REMARK VINA RESULT: -6.158336031      1.866      3.064
REMARK  3 active torsions:
REMARK  status: ('A' for Active; 'I' for Inactive)
REMARK    1  A    between atoms: O1_2  and  C2_3 
REMARK    2  A    between atoms: C6_8  and  C7_9 
REMARK    3  A    between atoms: C10_12  and  C11_13 
ROOT
HETATM    1  C7  UNL     1     -39.711   7.930  24.366  1.00  0.00     0.121 C 
HETATM    2  C8  UNL     1     -40.746   8.720  23.650  1.00  0.00     0.077 C 
HETATM    3  C9  UNL     1     -41.597   9.445  24.724  1.00  0.00     0.077 C 
HETATM    4  C10 UNL     1     -40.647   9.934  25.811  1.00  0.00     0.114 C 
HETATM    5  O4  UNL     1     -39.742   9.041  26.213  1.00  0.00    -0.194 OA
HETATM    6  O5  UNL     1     -40.012   7.792  25.701  1.00  0.00    -0.194 OA
ENDROOT
BRANCH   1   7
HETATM    7  C6  UNL     1     -38.828   7.040  23.666  1.00  0.00     0.141 A 
HETATM    8  C2  UNL     1     -37.942   7.303  22.617  1.00  0.00     0.112 A 
HETATM    9  C3  UNL     1     -37.339   6.121  22.257  1.00  0.00    -0.003 A 
HETATM   10  C4  UNL     1     -36.308   5.981  21.199  1.00  0.00     0.053 C 
HETATM   11  C5  UNL     1     -37.862   5.147  23.100  1.00  0.00     0.152 A 
HETATM   12  O2  UNL     1     -38.706   5.735  23.882  1.00  0.00    -0.317 OA
BRANCH   8  13
HETATM   13  O1  UNL     1     -37.701   8.482  22.046  1.00  0.00    -0.352 OA
HETATM   14  C1  UNL     1     -38.082   9.189  20.947  1.00  0.00     0.210 C 
ENDBRANCH   8  13
ENDBRANCH   1   7
BRANCH   4  15
HETATM   15  C11 UNL     1     -40.345  11.345  25.598  1.00  0.00     0.096 A 
HETATM   16  N1  UNL     1     -40.813  12.270  26.524  1.00  0.00    -0.336 N 
HETATM   17  C12 UNL     1     -40.284  13.456  26.226  1.00  0.00     0.120 A 
ATOM     18  H1  UNL     1     -41.450  12.075  27.296  1.00  0.00     0.168 HD
HETATM   19  C13 UNL     1     -40.470  14.750  26.925  1.00  0.00     0.098 C 
HETATM   20  O3  UNL     1     -39.536  13.310  25.180  1.00  0.00    -0.300 OA
HETATM   21  C14 UNL     1     -39.543  12.062  24.775  1.00  0.00     0.080 A 
HETATM   22  C15 UNL     1     -38.817  11.529  23.630  1.00  0.00     0.079 C 
ENDBRANCH   4  15
TORSDOF 3
ENDMDL
