MODEL 1
REMARK VINA RESULT: -7.228156240      0.000      0.000
REMARK  4 active torsions:
REMARK  status: ('A' for Active; 'I' for Inactive)
REMARK    1  A    between atoms: C3_6  and  S1_7 
REMARK    2  A    between atoms: S1_7  and  C4_8 
REMARK    3  A    between atoms: C8_13  and  C9_14 
REMARK    4  A    between atoms: C14_19  and  N2_20 
ROOT
HETATM    1  C4  UNL     1     -39.069  10.989  24.032  1.00  0.00     0.011 A 
HETATM    2  C5  UNL     1     -39.826  11.743  24.765  1.00  0.00     0.069 A 
HETATM    3  C6  UNL     1     -41.062  11.298  25.448  1.00  0.00     0.154 A 
HETATM    4  O2  UNL     1     -41.718  12.125  26.149  1.00  0.00    -0.293 OA
HETATM    5  C7  UNL     1     -41.503   9.902  25.297  1.00  0.00     0.118 A 
HETATM    6  C8  UNL     1     -40.589   9.107  24.450  1.00  0.00    -0.064 A 
HETATM    7  C13 UNL     1     -39.511   9.580  23.888  1.00  0.00     0.023 A 
ENDROOT
BRANCH   1   8
HETATM    8  S1  UNL     1     -37.589  11.495  23.207  1.00  0.00    -0.068 SA
BRANCH   8   9
HETATM    9  C3  UNL     1     -36.394  10.232  22.942  1.00  0.00     0.132 A 
HETATM   10  N1  UNL     1     -36.520   8.981  22.487  1.00  0.00    -0.252 N 
HETATM   11  O1  UNL     1     -35.366   8.373  22.447  1.00  0.00    -0.239 OA
ATOM     12  H1  UNL     1     -37.404   8.556  22.207  1.00  0.00     0.195 HD
HETATM   13  C2  UNL     1     -34.427   9.156  22.861  1.00  0.00     0.108 A 
HETATM   14  C1  UNL     1     -32.966   8.890  22.984  1.00  0.00     0.081 C 
HETATM   15  C14 UNL     1     -35.019  10.353  23.190  1.00  0.00     0.169 A 
BRANCH  15  16
HETATM   16  N2  UNL     1     -34.431  11.527  23.688  1.00  0.00    -0.110 N 
HETATM   17  O3  UNL     1     -34.648  12.621  23.156  1.00  0.00    -0.532 OA
HETATM   18  O4  UNL     1     -33.608  11.452  24.774  1.00  0.00    -0.532 OA
ENDBRANCH  15  16
ENDBRANCH   8   9
ENDBRANCH   1   8
BRANCH   6  19
HETATM   19  C9  UNL     1     -40.976   7.659  24.257  1.00  0.00    -0.027 C 
HETATM   20  C10 UNL     1     -40.282   6.831  25.319  1.00  0.00     0.019 C 
HETATM   21  C11 UNL     1     -40.466   7.182  22.915  1.00  0.00     0.019 C 
HETATM   22  C12 UNL     1     -42.465   7.572  24.302  1.00  0.00     0.019 C 
ENDBRANCH   6  19
TORSDOF 4
ENDMDL
MODEL 2
REMARK VINA RESULT: -6.835807296      4.460      7.175
REMARK  4 active torsions:
REMARK  status: ('A' for Active; 'I' for Inactive)
REMARK    1  A    between atoms: C3_6  and  S1_7 
REMARK    2  A    between atoms: S1_7  and  C4_8 
REMARK    3  A    between atoms: C8_13  and  C9_14 
REMARK    4  A    between atoms: C14_19  and  N2_20 
ROOT
HETATM    1  C4  UNL     1     -40.498   8.581  25.012  1.00  0.00     0.011 A 
HETATM    2  C5  UNL     1     -41.003   9.507  25.765  1.00  0.00     0.069 A 
HETATM    3  C6  UNL     1     -40.719  10.955  25.637  1.00  0.00     0.154 A 
HETATM    4  O2  UNL     1     -41.283  11.771  26.426  1.00  0.00    -0.293 OA
HETATM    5  C7  UNL     1     -39.788  11.414  24.594  1.00  0.00     0.118 A 
HETATM    6  C8  UNL     1     -39.256  10.303  23.778  1.00  0.00    -0.064 A 
HETATM    7  C13 UNL     1     -39.565   9.048  23.956  1.00  0.00     0.023 A 
ENDROOT
BRANCH   1   8
HETATM    8  S1  UNL     1     -40.820   6.847  25.144  1.00  0.00    -0.068 SA
BRANCH   8   9
HETATM    9  C3  UNL     1     -42.327   6.296  24.423  1.00  0.00     0.132 A 
HETATM   10  N1  UNL     1     -43.488   6.926  24.217  1.00  0.00    -0.252 N 
HETATM   11  O1  UNL     1     -44.360   6.139  23.647  1.00  0.00    -0.239 OA
ATOM     12  H1  UNL     1     -43.669   7.897  24.471  1.00  0.00     0.195 HD
HETATM   13  C2  UNL     1     -43.850   4.970  23.445  1.00  0.00     0.108 A 
HETATM   14  C1  UNL     1     -44.474   3.767  22.827  1.00  0.00     0.081 C 
HETATM   15  C14 UNL     1     -42.559   5.008  23.918  1.00  0.00     0.169 A 
BRANCH  15  16
HETATM   16  N2  UNL     1     -41.588   3.993  23.931  1.00  0.00    -0.110 N 
HETATM   17  O3  UNL     1     -41.485   3.226  24.893  1.00  0.00    -0.532 OA
HETATM   18  O4  UNL     1     -40.750   3.860  22.863  1.00  0.00    -0.532 OA
ENDBRANCH  15  16
ENDBRANCH   8   9
ENDBRANCH   1   8
BRANCH   6  19
HETATM   19  C9  UNL     1     -38.297  10.703  22.681  1.00  0.00    -0.027 C 
HETATM   20  C10 UNL     1     -39.058  11.513  21.651  1.00  0.00     0.019 C 
HETATM   21  C11 UNL     1     -37.790   9.459  21.985  1.00  0.00     0.019 C 
HETATM   22  C12 UNL     1     -37.162  11.441  23.309  1.00  0.00     0.019 C 
ENDBRANCH   6  19
TORSDOF 4
ENDMDL
MODEL 3
REMARK VINA RESULT: -6.832941273      0.813      2.111
REMARK  4 active torsions:
REMARK  status: ('A' for Active; 'I' for Inactive)
REMARK    1  A    between atoms: C3_6  and  S1_7 
REMARK    2  A    between atoms: S1_7  and  C4_8 
REMARK    3  A    between atoms: C8_13  and  C9_14 
REMARK    4  A    between atoms: C14_19  and  N2_20 
ROOT
HETATM    1  C4  UNL     1     -38.938  11.195  23.865  1.00  0.00     0.011 A 
HETATM    2  C5  UNL     1     -39.587  11.899  24.736  1.00  0.00     0.069 A 
HETATM    3  C6  UNL     1     -40.687  11.392  25.589  1.00  0.00     0.154 A 
HETATM    4  O2  UNL     1     -41.243  12.175  26.416  1.00  0.00    -0.293 OA
HETATM    5  C7  UNL     1     -41.110   9.989  25.456  1.00  0.00     0.118 A 
HETATM    6  C8  UNL     1     -40.322   9.252  24.445  1.00  0.00    -0.064 A 
HETATM    7  C13 UNL     1     -39.360   9.778  23.738  1.00  0.00     0.023 A 
ENDROOT
BRANCH   1   8
HETATM    8  S1  UNL     1     -37.622  11.775  22.835  1.00  0.00    -0.068 SA
BRANCH   8   9
HETATM    9  C3  UNL     1     -36.026  11.133  23.204  1.00  0.00     0.132 A 
HETATM   10  N1  UNL     1     -35.036  11.613  23.964  1.00  0.00    -0.252 N 
HETATM   11  O1  UNL     1     -34.007  10.811  23.966  1.00  0.00    -0.239 OA
ATOM     12  H1  UNL     1     -35.080  12.494  24.477  1.00  0.00     0.195 HD
HETATM   13  C2  UNL     1     -34.239   9.776  23.229  1.00  0.00     0.108 A 
HETATM   14  C1  UNL     1     -33.358   8.610  22.942  1.00  0.00     0.081 C 
HETATM   15  C14 UNL     1     -35.507   9.924  22.718  1.00  0.00     0.169 A 
BRANCH  15  16
HETATM   16  N2  UNL     1     -36.224   9.072  21.862  1.00  0.00    -0.110 N 
HETATM   17  O3  UNL     1     -36.822   8.085  22.303  1.00  0.00    -0.532 OA
HETATM   18  O4  UNL     1     -36.255   9.342  20.525  1.00  0.00    -0.532 OA
ENDBRANCH  15  16
ENDBRANCH   8   9
ENDBRANCH   1   8
BRANCH   6  19
HETATM   19  C9  UNL     1     -40.698   7.801  24.260  1.00  0.00    -0.027 C 
HETATM   20  C10 UNL     1     -39.932   6.974  25.274  1.00  0.00     0.019 C 
HETATM   21  C11 UNL     1     -40.259   7.343  22.887  1.00  0.00     0.019 C 
HETATM   22  C12 UNL     1     -42.181   7.690  24.390  1.00  0.00     0.019 C 
ENDBRANCH   6  19
TORSDOF 4
ENDMDL
MODEL 4
REMARK VINA RESULT: -6.624805567      3.033      6.556
REMARK  4 active torsions:
REMARK  status: ('A' for Active; 'I' for Inactive)
REMARK    1  A    between atoms: C3_6  and  S1_7 
REMARK    2  A    between atoms: S1_7  and  C4_8 
REMARK    3  A    between atoms: C8_13  and  C9_14 
REMARK    4  A    between atoms: C14_19  and  N2_20 
ROOT
HETATM    1  C4  UNL     1     -37.323  10.737  23.182  1.00  0.00     0.011 A 
HETATM    2  C5  UNL     1     -36.489  11.635  23.604  1.00  0.00     0.069 A 
HETATM    3  C6  UNL     1     -35.016  11.553  23.474  1.00  0.00     0.154 A 
HETATM    4  O2  UNL     1     -34.300  12.501  23.916  1.00  0.00    -0.293 OA
HETATM    5  C7  UNL     1     -34.416  10.373  22.833  1.00  0.00     0.118 A 
HETATM    6  C8  UNL     1     -35.429   9.397  22.379  1.00  0.00    -0.064 A 
HETATM    7  C13 UNL     1     -36.715   9.551  22.529  1.00  0.00     0.023 A 
ENDROOT
BRANCH   1   8
HETATM    8  S1  UNL     1     -39.084  10.809  23.324  1.00  0.00    -0.068 SA
BRANCH   8   9
HETATM    9  C3  UNL     1     -39.703  11.847  24.602  1.00  0.00     0.132 A 
HETATM   10  N1  UNL     1     -39.596  13.166  24.797  1.00  0.00    -0.252 N 
HETATM   11  O1  UNL     1     -40.211  13.535  25.887  1.00  0.00    -0.239 OA
ATOM     12  H1  UNL     1     -39.097  13.801  24.174  1.00  0.00     0.195 HD
HETATM   13  C2  UNL     1     -40.751  12.517  26.469  1.00  0.00     0.108 A 
HETATM   14  C1  UNL     1     -41.546  12.466  27.728  1.00  0.00     0.081 C 
HETATM   15  C14 UNL     1     -40.462  11.415  25.699  1.00  0.00     0.169 A 
BRANCH  15  16
HETATM   16  N2  UNL     1     -40.821  10.072  25.901  1.00  0.00    -0.110 N 
HETATM   17  O3  UNL     1     -40.351   9.423  26.841  1.00  0.00    -0.532 OA
HETATM   18  O4  UNL     1     -41.702   9.481  25.043  1.00  0.00    -0.532 OA
ENDBRANCH  15  16
ENDBRANCH   8   9
ENDBRANCH   1   8
BRANCH   6  19
HETATM   19  C9  UNL     1     -34.883   8.160  21.704  1.00  0.00    -0.027 C 
HETATM   20  C10 UNL     1     -33.604   7.754  22.408  1.00  0.00     0.019 C 
HETATM   21  C11 UNL     1     -34.519   8.493  20.274  1.00  0.00     0.019 C 
HETATM   22  C12 UNL     1     -35.946   7.112  21.735  1.00  0.00     0.019 C 
ENDBRANCH   6  19
TORSDOF 4
ENDMDL
MODEL 5
REMARK VINA RESULT: -6.583274772      2.403      3.638
REMARK  4 active torsions:
REMARK  status: ('A' for Active; 'I' for Inactive)
REMARK    1  A    between atoms: C3_6  and  S1_7 
REMARK    2  A    between atoms: S1_7  and  C4_8 
REMARK    3  A    between atoms: C8_13  and  C9_14 
REMARK    4  A    between atoms: C14_19  and  N2_20 
ROOT
HETATM    1  C4  UNL     1     -37.511  10.359  23.420  1.00  0.00     0.011 A 
HETATM    2  C5  UNL     1     -37.963   9.215  23.014  1.00  0.00     0.069 A 
HETATM    3  C6  UNL     1     -39.314   8.683  23.308  1.00  0.00     0.154 A 
HETATM    4  O2  UNL     1     -39.651   7.552  22.846  1.00  0.00    -0.293 OA
HETATM    5  C7  UNL     1     -40.237   9.482  24.131  1.00  0.00     0.118 A 
HETATM    6  C8  UNL     1     -39.650  10.771  24.553  1.00  0.00    -0.064 A 
HETATM    7  C13 UNL     1     -38.446  11.166  24.243  1.00  0.00     0.023 A 
ENDROOT
BRANCH   1   8
HETATM    8  S1  UNL     1     -35.904  11.017  23.084  1.00  0.00    -0.068 SA
BRANCH   8   9
HETATM    9  C3  UNL     1     -34.611   9.833  22.944  1.00  0.00     0.132 A 
HETATM   10  N1  UNL     1     -33.809   9.290  23.867  1.00  0.00    -0.252 N 
HETATM   11  O1  UNL     1     -32.974   8.443  23.329  1.00  0.00    -0.239 OA
ATOM     12  H1  UNL     1     -33.847   9.508  24.862  1.00  0.00     0.195 HD
HETATM   13  C2  UNL     1     -33.159   8.372  22.053  1.00  0.00     0.108 A 
HETATM   14  C1  UNL     1     -32.443   7.543  21.044  1.00  0.00     0.081 C 
HETATM   15  C14 UNL     1     -34.187   9.234  21.749  1.00  0.00     0.169 A 
BRANCH  15  16
HETATM   16  N2  UNL     1     -34.766   9.519  20.502  1.00  0.00    -0.110 N 
HETATM   17  O3  UNL     1     -35.847   9.020  20.174  1.00  0.00    -0.532 OA
HETATM   18  O4  UNL     1     -34.119  10.360  19.644  1.00  0.00    -0.532 OA
ENDBRANCH  15  16
ENDBRANCH   8   9
ENDBRANCH   1   8
BRANCH   6  19
HETATM   19  C9  UNL     1     -40.545  11.647  25.397  1.00  0.00    -0.027 C 
HETATM   20  C10 UNL     1     -40.717  10.994  26.753  1.00  0.00     0.019 C 
HETATM   21  C11 UNL     1     -41.915  11.720  24.759  1.00  0.00     0.019 C 
HETATM   22  C12 UNL     1     -39.933  13.008  25.457  1.00  0.00     0.019 C 
ENDBRANCH   6  19
TORSDOF 4
ENDMDL
