MODEL 1
REMARK VINA RESULT: -7.924816635      0.000      0.000
REMARK  4 active torsions:
REMARK  status: ('A' for Active; 'I' for Inactive)
REMARK    1  A    between atoms: C4_4  and  N1_5 
REMARK    2  A    between atoms: N1_5  and  C5_7 
REMARK    3  A    between atoms: C6_10  and  C7_11 
REMARK    4  A    between atoms: C7_11  and  N3_12 
ROOT
HETATM    1  C5  UNL     1      -0.537   9.763  24.270  1.00  0.00     0.134 A 
HETATM    2  N2  UNL     1      -0.830  10.631  23.286  1.00  0.00    -0.326 N 
ATOM      3  H2  UNL     1      -0.201  10.673  22.484  1.00  0.00     0.169 HD
HETATM    4  C6  UNL     1      -1.901  11.446  23.290  1.00  0.00     0.126 A 
HETATM    5  N4  UNL     1      -2.698  11.353  24.369  1.00  0.00    -0.325 N 
ATOM      6  H4  UNL     1      -3.522  11.952  24.417  1.00  0.00     0.169 HD
HETATM    7  C8  UNL     1      -2.462  10.507  25.388  1.00  0.00     0.139 A 
HETATM    8  N5  UNL     1      -3.132  10.261  26.552  1.00  0.00    -0.337 N 
ATOM      9  H5  UNL     1      -3.990  10.712  26.868  1.00  0.00     0.168 HD
HETATM   10  C9  UNL     1      -2.445   9.312  27.198  1.00  0.00     0.182 A 
HETATM   11  N6  UNL     1      -1.374   8.949  26.499  1.00  0.00    -0.346 N 
ATOM     12  H6  UNL     1      -0.688   8.246  26.772  1.00  0.00     0.167 HD
HETATM   13  C10 UNL     1      -1.358   9.672  25.373  1.00  0.00     0.122 A 
ENDROOT
BRANCH   1  14
HETATM   14  N1  UNL     1       0.484   9.054  24.159  1.00  0.00    -0.370 N 
ATOM     15  H1  UNL     1       1.244   9.365  24.765  1.00  0.00     0.161 HD
BRANCH  14  16
HETATM   16  C4  UNL     1       0.834   7.928  23.397  1.00  0.00     0.085 C 
HETATM   17  C3  UNL     1       0.443   6.643  24.152  1.00  0.00     0.049 C 
HETATM   18  C2  UNL     1      -0.004   5.617  23.158  1.00  0.00     0.074 C 
HETATM   19  C1  UNL     1       0.354   4.202  23.606  1.00  0.00     0.032 C 
HETATM   20  N7  UNL     1       0.489   5.825  21.846  1.00  0.00    -0.417 N 
HETATM   21  C13 UNL     1       1.890   5.764  21.669  1.00  0.00     0.114 C 
ATOM     22  H7  UNL     1      -0.139   6.011  21.064  1.00  0.00     0.153 HD
HETATM   23  C12 UNL     1       2.638   7.022  21.876  1.00  0.00     0.021 C 
HETATM   24  C11 UNL     1       2.305   7.796  23.099  1.00  0.00     0.027 C 
ENDBRANCH  14  16
ENDBRANCH   1  14
BRANCH   4  25
HETATM   25  C7  UNL     1      -2.176  12.371  22.197  1.00  0.00     0.167 C 
BRANCH  25  26
HETATM   26  N3  UNL     1      -3.202  12.249  21.471  1.00  0.00    -0.232 N 
HETATM   27  F1  UNL     1      -3.567  13.201  20.595  1.00  0.00    -0.102 F 
ATOM     28  H3  UNL     1      -3.769  11.405  21.551  1.00  0.00     0.199 HD
ENDBRANCH  25  26
ENDBRANCH   4  25
TORSDOF 4
ENDMDL
MODEL 2
REMARK VINA RESULT: -7.857437054      1.069      1.844
REMARK  4 active torsions:
REMARK  status: ('A' for Active; 'I' for Inactive)
REMARK    1  A    between atoms: C4_4  and  N1_5 
REMARK    2  A    between atoms: N1_5  and  C5_7 
REMARK    3  A    between atoms: C6_10  and  C7_11 
REMARK    4  A    between atoms: C7_11  and  N3_12 
ROOT
HETATM    1  C5  UNL     1      -0.872   9.823  24.199  1.00  0.00     0.134 A 
HETATM    2  N2  UNL     1      -1.392  10.710  23.332  1.00  0.00    -0.326 N 
ATOM      3  H2  UNL     1      -0.909  10.850  22.445  1.00  0.00     0.169 HD
HETATM    4  C6  UNL     1      -2.508  11.426  23.562  1.00  0.00     0.126 A 
HETATM    5  N4  UNL     1      -3.105  11.207  24.746  1.00  0.00    -0.325 N 
ATOM      6  H4  UNL     1      -3.955  11.728  24.965  1.00  0.00     0.169 HD
HETATM    7  C8  UNL     1      -2.638  10.335  25.657  1.00  0.00     0.139 A 
HETATM    8  N5  UNL     1      -3.084   9.971  26.895  1.00  0.00    -0.337 N 
ATOM      9  H5  UNL     1      -3.911  10.328  27.373  1.00  0.00     0.168 HD
HETATM   10  C9  UNL     1      -2.227   9.056  27.359  1.00  0.00     0.182 A 
HETATM   11  N6  UNL     1      -1.261   8.825  26.475  1.00  0.00    -0.346 N 
ATOM     12  H6  UNL     1      -0.485   8.173  26.588  1.00  0.00     0.167 HD
HETATM   13  C10 UNL     1      -1.489   9.604  25.411  1.00  0.00     0.122 A 
ENDROOT
BRANCH   1  14
HETATM   14  N1  UNL     1       0.170   9.214  23.879  1.00  0.00    -0.370 N 
ATOM     15  H1  UNL     1       0.900   9.841  23.540  1.00  0.00     0.161 HD
BRANCH  14  16
HETATM   16  C4  UNL     1       0.574   7.870  23.877  1.00  0.00     0.085 C 
HETATM   17  C3  UNL     1       1.804   7.694  22.966  1.00  0.00     0.049 C 
HETATM   18  C2  UNL     1       2.702   6.656  23.563  1.00  0.00     0.074 C 
HETATM   19  C1  UNL     1       3.431   5.853  22.489  1.00  0.00     0.032 C 
HETATM   20  N7  UNL     1       2.049   5.761  24.446  1.00  0.00    -0.417 N 
HETATM   21  C13 UNL     1       1.036   4.942  23.898  1.00  0.00     0.114 C 
ATOM     22  H7  UNL     1       2.299   5.710  25.434  1.00  0.00     0.153 HD
HETATM   23  C12 UNL     1      -0.329   5.509  23.870  1.00  0.00     0.021 C 
HETATM   24  C11 UNL     1      -0.458   6.899  23.364  1.00  0.00     0.027 C 
ENDBRANCH  14  16
ENDBRANCH   1  14
BRANCH   4  25
HETATM   25  C7  UNL     1      -3.033  12.377  22.589  1.00  0.00     0.167 C 
BRANCH  25  26
HETATM   26  N3  UNL     1      -3.044  12.121  21.353  1.00  0.00    -0.232 N 
HETATM   27  F1  UNL     1      -2.061  12.534  20.535  1.00  0.00    -0.102 F 
ATOM     28  H3  UNL     1      -3.820  11.585  20.964  1.00  0.00     0.199 HD
ENDBRANCH  25  26
ENDBRANCH   4  25
TORSDOF 4
ENDMDL
MODEL 3
REMARK VINA RESULT: -7.747916057      3.324      6.587
REMARK  4 active torsions:
REMARK  status: ('A' for Active; 'I' for Inactive)
REMARK    1  A    between atoms: C4_4  and  N1_5 
REMARK    2  A    between atoms: N1_5  and  C5_7 
REMARK    3  A    between atoms: C6_10  and  C7_11 
REMARK    4  A    between atoms: C7_11  and  N3_12 
ROOT
HETATM    1  C5  UNL     1      -0.328   8.180  24.834  1.00  0.00     0.134 A 
HETATM    2  N2  UNL     1      -0.391   8.101  26.175  1.00  0.00    -0.326 N 
ATOM      3  H2  UNL     1      -1.200   8.513  26.640  1.00  0.00     0.169 HD
HETATM    4  C6  UNL     1       0.546   7.514  26.942  1.00  0.00     0.126 A 
HETATM    5  N4  UNL     1       1.592   6.989  26.281  1.00  0.00    -0.325 N 
ATOM      6  H4  UNL     1       2.328   6.533  26.821  1.00  0.00     0.169 HD
HETATM    7  C8  UNL     1       1.716   7.034  24.943  1.00  0.00     0.139 A 
HETATM    8  N5  UNL     1       2.679   6.571  24.092  1.00  0.00    -0.337 N 
ATOM      9  H5  UNL     1       3.532   6.075  24.351  1.00  0.00     0.168 HD
HETATM   10  C9  UNL     1       2.287   6.894  22.855  1.00  0.00     0.182 A 
HETATM   11  N6  UNL     1       1.125   7.538  22.883  1.00  0.00    -0.346 N 
ATOM     12  H6  UNL     1       0.614   7.892  22.075  1.00  0.00     0.167 HD
HETATM   13  C10 UNL     1       0.747   7.640  24.163  1.00  0.00     0.122 A 
ENDROOT
BRANCH   1  14
HETATM   14  N1  UNL     1      -1.257   8.749  24.224  1.00  0.00    -0.370 N 
ATOM     15  H1  UNL     1      -2.072   8.147  24.103  1.00  0.00     0.161 HD
BRANCH  14  16
HETATM   16  C4  UNL     1      -1.445  10.023  23.665  1.00  0.00     0.085 C 
HETATM   17  C3  UNL     1      -0.493  11.033  24.334  1.00  0.00     0.049 C 
HETATM   18  C2  UNL     1      -0.047  12.028  23.308  1.00  0.00     0.074 C 
HETATM   19  C1  UNL     1       0.176  13.409  23.919  1.00  0.00     0.032 C 
HETATM   20  N7  UNL     1      -0.920  12.150  22.198  1.00  0.00    -0.417 N 
HETATM   21  C13 UNL     1      -2.229  12.614  22.458  1.00  0.00     0.114 C 
ATOM     22  H7  UNL     1      -0.617  11.912  21.254  1.00  0.00     0.153 HD
HETATM   23  C12 UNL     1      -3.235  11.592  22.814  1.00  0.00     0.021 C 
HETATM   24  C11 UNL     1      -2.831  10.592  23.835  1.00  0.00     0.027 C 
ENDBRANCH  14  16
ENDBRANCH   1  14
BRANCH   4  25
HETATM   25  C7  UNL     1       0.433   7.453  28.395  1.00  0.00     0.167 C 
BRANCH  25  26
HETATM   26  N3  UNL     1      -0.655   7.152  28.961  1.00  0.00    -0.232 N 
HETATM   27  F1  UNL     1      -0.805   6.002  29.640  1.00  0.00    -0.102 F 
ATOM     28  H3  UNL     1      -1.440   7.799  28.902  1.00  0.00     0.199 HD
ENDBRANCH  25  26
ENDBRANCH   4  25
TORSDOF 4
ENDMDL
MODEL 4
REMARK VINA RESULT: -7.675261001      2.696      5.873
REMARK  4 active torsions:
REMARK  status: ('A' for Active; 'I' for Inactive)
REMARK    1  A    between atoms: C4_4  and  N1_5 
REMARK    2  A    between atoms: N1_5  and  C5_7 
REMARK    3  A    between atoms: C6_10  and  C7_11 
REMARK    4  A    between atoms: C7_11  and  N3_12 
ROOT
HETATM    1  C5  UNL     1      -0.052   8.059  24.300  1.00  0.00     0.134 A 
HETATM    2  N2  UNL     1       0.688   7.612  23.271  1.00  0.00    -0.326 N 
ATOM      3  H2  UNL     1       0.371   7.829  22.325  1.00  0.00     0.169 HD
HETATM    4  C6  UNL     1       1.819   6.896  23.407  1.00  0.00     0.126 A 
HETATM    5  N4  UNL     1       2.193   6.636  24.672  1.00  0.00    -0.325 N 
ATOM      6  H4  UNL     1       3.044   6.095  24.826  1.00  0.00     0.169 HD
HETATM    7  C8  UNL     1       1.498   7.053  25.746  1.00  0.00     0.139 A 
HETATM    8  N5  UNL     1       1.700   6.900  27.088  1.00  0.00    -0.337 N 
ATOM      9  H5  UNL     1       2.471   6.404  27.535  1.00  0.00     0.168 HD
HETATM   10  C9  UNL     1       0.691   7.526  27.703  1.00  0.00     0.182 A 
HETATM   11  N6  UNL     1      -0.138   8.066  26.814  1.00  0.00    -0.346 N 
ATOM     12  H6  UNL     1      -0.984   8.595  27.025  1.00  0.00     0.167 HD
HETATM   13  C10 UNL     1       0.336   7.789  25.594  1.00  0.00     0.122 A 
ENDROOT
BRANCH   1  14
HETATM   14  N1  UNL     1      -1.085   8.716  24.054  1.00  0.00    -0.370 N 
ATOM     15  H1  UNL     1      -1.937   8.190  24.246  1.00  0.00     0.161 HD
BRANCH  14  16
HETATM   16  C4  UNL     1      -1.350  10.009  23.576  1.00  0.00     0.085 C 
HETATM   17  C3  UNL     1      -0.394  11.018  24.241  1.00  0.00     0.049 C 
HETATM   18  C2  UNL     1      -0.046  12.081  23.246  1.00  0.00     0.074 C 
HETATM   19  C1  UNL     1       0.167  13.436  23.916  1.00  0.00     0.032 C 
HETATM   20  N7  UNL     1      -0.987  12.226  22.197  1.00  0.00    -0.417 N 
HETATM   21  C13 UNL     1      -2.294  12.628  22.557  1.00  0.00     0.114 C 
ATOM     22  H7  UNL     1      -0.734  12.049  21.225  1.00  0.00     0.153 HD
HETATM   23  C12 UNL     1      -3.240  11.551  22.916  1.00  0.00     0.021 C 
HETATM   24  C11 UNL     1      -2.741  10.516  23.856  1.00  0.00     0.027 C 
ENDBRANCH  14  16
ENDBRANCH   1  14
BRANCH   4  25
HETATM   25  C7  UNL     1       2.588   6.433  22.258  1.00  0.00     0.167 C 
BRANCH  25  26
HETATM   26  N3  UNL     1       2.773   7.166  21.247  1.00  0.00    -0.232 N 
HETATM   27  F1  UNL     1       3.100   8.464  21.363  1.00  0.00    -0.102 F 
ATOM     28  H3  UNL     1       2.672   6.762  20.316  1.00  0.00     0.199 HD
ENDBRANCH  25  26
ENDBRANCH   4  25
TORSDOF 4
ENDMDL
MODEL 5
REMARK VINA RESULT: -7.569456693      1.470      1.739
REMARK  4 active torsions:
REMARK  status: ('A' for Active; 'I' for Inactive)
REMARK    1  A    between atoms: C4_4  and  N1_5 
REMARK    2  A    between atoms: N1_5  and  C5_7 
REMARK    3  A    between atoms: C6_10  and  C7_11 
REMARK    4  A    between atoms: C7_11  and  N3_12 
ROOT
HETATM    1  C5  UNL     1      -1.421   8.152  24.387  1.00  0.00     0.134 A 
HETATM    2  N2  UNL     1      -1.812   9.297  23.801  1.00  0.00    -0.326 N 
ATOM      3  H2  UNL     1      -1.769   9.351  22.783  1.00  0.00     0.169 HD
HETATM    4  C6  UNL     1      -2.256  10.377  24.471  1.00  0.00     0.126 A 
HETATM    5  N4  UNL     1      -2.292  10.255  25.809  1.00  0.00    -0.325 N 
ATOM      6  H4  UNL     1      -2.622  11.048  26.360  1.00  0.00     0.169 HD
HETATM    7  C8  UNL     1      -1.915   9.139  26.458  1.00  0.00     0.139 A 
HETATM    8  N5  UNL     1      -1.875   8.815  27.784  1.00  0.00    -0.337 N 
ATOM      9  H5  UNL     1      -2.146   9.413  28.565  1.00  0.00     0.168 HD
HETATM   10  C9  UNL     1      -1.413   7.562  27.860  1.00  0.00     0.182 A 
HETATM   11  N6  UNL     1      -1.159   7.080  26.648  1.00  0.00    -0.346 N 
ATOM     12  H6  UNL     1      -0.798   6.151  26.433  1.00  0.00     0.167 HD
HETATM   13  C10 UNL     1      -1.460   8.034  25.759  1.00  0.00     0.122 A 
ENDROOT
BRANCH   1  14
HETATM   14  N1  UNL     1      -1.026   7.214  23.664  1.00  0.00    -0.370 N 
ATOM     15  H1  UNL     1      -1.759   6.528  23.480  1.00  0.00     0.161 HD
BRANCH  14  16
HETATM   16  C4  UNL     1       0.188   6.880  23.044  1.00  0.00     0.085 C 
HETATM   17  C3  UNL     1       0.592   5.443  23.424  1.00  0.00     0.049 C 
HETATM   18  C2  UNL     1       1.264   4.804  22.249  1.00  0.00     0.074 C 
HETATM   19  C1  UNL     1       2.348   3.820  22.682  1.00  0.00     0.032 C 
HETATM   20  N7  UNL     1       1.818   5.724  21.325  1.00  0.00    -0.417 N 
HETATM   21  C13 UNL     1       2.857   6.560  21.794  1.00  0.00     0.114 C 
ATOM     22  H7  UNL     1       1.481   5.782  20.363  1.00  0.00     0.153 HD
HETATM   23  C12 UNL     1       2.448   7.831  22.427  1.00  0.00     0.021 C 
HETATM   24  C11 UNL     1       1.357   7.750  23.432  1.00  0.00     0.027 C 
ENDBRANCH  14  16
ENDBRANCH   1  14
BRANCH   4  25
HETATM   25  C7  UNL     1      -2.670  11.597  23.789  1.00  0.00     0.167 C 
BRANCH  25  26
HETATM   26  N3  UNL     1      -3.419  11.565  22.772  1.00  0.00    -0.232 N 
HETATM   27  F1  UNL     1      -3.006  12.012  21.574  1.00  0.00    -0.102 F 
ATOM     28  H3  UNL     1      -4.362  11.190  22.863  1.00  0.00     0.199 HD
ENDBRANCH  25  26
ENDBRANCH   4  25
TORSDOF 4
ENDMDL
