MODEL 1
REMARK VINA RESULT: -6.485568958      0.000      0.000
REMARK  4 active torsions:
REMARK  status: ('A' for Active; 'I' for Inactive)
REMARK    1  A    between atoms: C2_2  and  C3_3 
REMARK    2  A    between atoms: C5_7  and  C7_9 
REMARK       I    between atoms: C7_9  and  N1_11 
REMARK    3  A    between atoms: N1_11  and  C8_13 
REMARK    4  A    between atoms: N2_19  and  O4_20 
ROOT
HETATM    1  C3  UNL     1       0.328   6.104  23.758  1.00  0.00     0.189 C 
HETATM    2  C4  UNL     1       0.492   7.564  23.377  1.00  0.00     0.074 C 
HETATM    3  O1  UNL     1       1.272   5.716  24.705  1.00  0.00    -0.206 OA
HETATM    4  O2  UNL     1       2.471   5.716  24.179  1.00  0.00    -0.215 OA
HETATM    5  C5  UNL     1       2.660   4.619  23.330  1.00  0.00     0.204 C 
HETATM    6  C6  UNL     1       3.538   5.067  22.154  1.00  0.00     0.063 C 
HETATM    7  C12 UNL     1       1.354   4.164  22.772  1.00  0.00     0.232 C 
HETATM    8 CL1  UNL     1       0.710   2.808  23.723  1.00  0.00    -0.102 Cl
HETATM    9  N2  UNL     1       0.385   5.228  22.633  1.00  0.00    -0.136 NA
ENDROOT
BRANCH   5  10
HETATM   10  C7  UNL     1       3.423   3.557  24.028  1.00  0.00     0.259 C 
HETATM   11  O3  UNL     1       4.019   2.664  23.351  1.00  0.00    -0.270 OA
HETATM   12  N1  UNL     1       3.472   3.562  25.450  1.00  0.00    -0.350 N 
ATOM     13  H1  UNL     1       2.980   4.298  25.956  1.00  0.00     0.163 HD
BRANCH  12  14
HETATM   14  C8  UNL     1       4.197   2.558  26.205  1.00  0.00     0.022 C 
HETATM   15  C9  UNL     1       3.715   1.161  25.875  1.00  0.00     0.037 C 
HETATM   16  C10 UNL     1       3.918   2.810  27.677  1.00  0.00     0.037 C 
HETATM   17  C11 UNL     1       5.681   2.601  25.924  1.00  0.00     0.037 C 
ENDBRANCH  12  14
ENDBRANCH   5  10
BRANCH   9  18
HETATM   18  O4  UNL     1       0.618   5.913  21.481  1.00  0.00    -0.308 OA
ATOM     19  H4  UNL     1      -0.146   5.911  20.916  1.00  0.00     0.237 HD
ENDBRANCH   9  18
BRANCH   1  20
HETATM   20  C2  UNL     1      -1.015   6.012  24.446  1.00  0.00     0.022 C 
HETATM   21  C1  UNL     1      -1.344   6.844  25.418  1.00  0.00     0.011 C 
ENDBRANCH   1  20
TORSDOF 4
ENDMDL
MODEL 2
REMARK VINA RESULT: -6.222269110      2.603      6.349
REMARK  4 active torsions:
REMARK  status: ('A' for Active; 'I' for Inactive)
REMARK    1  A    between atoms: C2_2  and  C3_3 
REMARK    2  A    between atoms: C5_7  and  C7_9 
REMARK       I    between atoms: C7_9  and  N1_11 
REMARK    3  A    between atoms: N1_11  and  C8_13 
REMARK    4  A    between atoms: N2_19  and  O4_20 
ROOT
HETATM    1  C3  UNL     1       2.322   5.123  23.897  1.00  0.00     0.189 C 
HETATM    2  C4  UNL     1       2.139   3.677  24.321  1.00  0.00     0.074 C 
HETATM    3  O1  UNL     1       2.070   5.999  24.950  1.00  0.00    -0.206 OA
HETATM    4  O2  UNL     1       0.799   5.977  25.265  1.00  0.00    -0.215 OA
HETATM    5  C5  UNL     1       0.024   6.661  24.321  1.00  0.00     0.204 C 
HETATM    6  C6  UNL     1      -1.315   5.926  24.176  1.00  0.00     0.063 C 
HETATM    7  C12 UNL     1       0.695   6.646  22.989  1.00  0.00     0.232 C 
HETATM    8 CL1  UNL     1       1.609   8.149  22.737  1.00  0.00    -0.102 Cl
HETATM    9  N2  UNL     1       1.518   5.477  22.773  1.00  0.00    -0.136 NA
ENDROOT
BRANCH   5  10
HETATM   10  C7  UNL     1      -0.307   8.019  24.817  1.00  0.00     0.259 C 
HETATM   11  O3  UNL     1       0.382   8.531  25.752  1.00  0.00    -0.270 OA
HETATM   12  N1  UNL     1      -1.394   8.723  24.229  1.00  0.00    -0.350 N 
ATOM     13  H1  UNL     1      -1.921   8.275  23.479  1.00  0.00     0.163 HD
BRANCH  12  14
HETATM   14  C8  UNL     1      -1.780  10.053  24.658  1.00  0.00     0.022 C 
HETATM   15  C9  UNL     1      -3.002  10.544  23.911  1.00  0.00     0.037 C 
HETATM   16  C10 UNL     1      -0.628  10.988  24.328  1.00  0.00     0.037 C 
HETATM   17  C11 UNL     1      -2.104  10.101  26.133  1.00  0.00     0.037 C 
ENDBRANCH  12  14
ENDBRANCH   5  10
BRANCH   9  18
HETATM   18  O4  UNL     1       0.740   4.436  22.371  1.00  0.00    -0.308 OA
ATOM     19  H4  UNL     1      -0.179   4.679  22.348  1.00  0.00     0.237 HD
ENDBRANCH   9  18
BRANCH   1  20
HETATM   20  C2  UNL     1       3.792   5.269  23.577  1.00  0.00     0.022 C 
HETATM   21  C1  UNL     1       4.283   4.866  22.419  1.00  0.00     0.011 C 
ENDBRANCH   1  20
TORSDOF 4
ENDMDL
MODEL 3
REMARK VINA RESULT: -6.194843517      1.869      5.433
REMARK  4 active torsions:
REMARK  status: ('A' for Active; 'I' for Inactive)
REMARK    1  A    between atoms: C2_2  and  C3_3 
REMARK    2  A    between atoms: C5_7  and  C7_9 
REMARK       I    between atoms: C7_9  and  N1_11 
REMARK    3  A    between atoms: N1_11  and  C8_13 
REMARK    4  A    between atoms: N2_19  and  O4_20 
ROOT
HETATM    1  C3  UNL     1       4.038   2.304  25.208  1.00  0.00     0.189 C 
HETATM    2  C4  UNL     1       3.583   0.956  25.738  1.00  0.00     0.074 C 
HETATM    3  O1  UNL     1       3.126   3.309  25.520  1.00  0.00    -0.206 OA
HETATM    4  O2  UNL     1       2.009   3.131  24.860  1.00  0.00    -0.215 OA
HETATM    5  C5  UNL     1       2.149   3.479  23.512  1.00  0.00     0.204 C 
HETATM    6  C6  UNL     1       1.300   2.512  22.676  1.00  0.00     0.063 C 
HETATM    7  C12 UNL     1       3.569   3.324  23.080  1.00  0.00     0.232 C 
HETATM    8 CL1  UNL     1       4.415   4.884  23.156  1.00  0.00    -0.102 Cl
HETATM    9  N2  UNL     1       4.280   2.293  23.802  1.00  0.00    -0.136 NA
ENDROOT
BRANCH   5  10
HETATM   10  C7  UNL     1       1.587   4.830  23.270  1.00  0.00     0.259 C 
HETATM   11  O3  UNL     1       1.240   5.164  22.096  1.00  0.00    -0.270 OA
HETATM   12  N1  UNL     1       1.447   5.725  24.366  1.00  0.00    -0.350 N 
ATOM     13  H1  UNL     1       1.738   5.417  25.294  1.00  0.00     0.163 HD
BRANCH  12  14
HETATM   14  C8  UNL     1       0.906   7.062  24.211  1.00  0.00     0.022 C 
HETATM   15  C9  UNL     1       1.767   7.906  23.295  1.00  0.00     0.037 C 
HETATM   16  C10 UNL     1       0.911   7.715  25.583  1.00  0.00     0.037 C 
HETATM   17  C11 UNL     1      -0.488   7.045  23.629  1.00  0.00     0.037 C 
ENDBRANCH  12  14
ENDBRANCH   5  10
BRANCH   9  18
HETATM   18  O4  UNL     1       4.002   1.077  23.259  1.00  0.00    -0.308 OA
ATOM     19  H4  UNL     1       4.288   1.028  22.354  1.00  0.00     0.237 HD
ENDBRANCH   9  18
BRANCH   1  20
HETATM   20  C2  UNL     1       5.300   2.635  25.971  1.00  0.00     0.022 C 
HETATM   21  C1  UNL     1       6.458   2.772  25.350  1.00  0.00     0.011 C 
ENDBRANCH   1  20
TORSDOF 4
ENDMDL
MODEL 4
REMARK VINA RESULT: -6.163044887      0.922      1.011
REMARK  4 active torsions:
REMARK  status: ('A' for Active; 'I' for Inactive)
REMARK    1  A    between atoms: C2_2  and  C3_3 
REMARK    2  A    between atoms: C5_7  and  C7_9 
REMARK       I    between atoms: C7_9  and  N1_11 
REMARK    3  A    between atoms: N1_11  and  C8_13 
REMARK    4  A    between atoms: N2_19  and  O4_20 
ROOT
HETATM    1  C3  UNL     1       1.203   6.483  23.124  1.00  0.00     0.189 C 
HETATM    2  C4  UNL     1       1.779   7.862  22.856  1.00  0.00     0.074 C 
HETATM    3  O1  UNL     1       1.699   5.944  24.308  1.00  0.00    -0.206 OA
HETATM    4  O2  UNL     1       2.975   5.675  24.185  1.00  0.00    -0.215 OA
HETATM    5  C5  UNL     1       3.186   4.531  23.407  1.00  0.00     0.204 C 
HETATM    6  C6  UNL     1       4.462   4.742  22.581  1.00  0.00     0.063 C 
HETATM    7  C12 UNL     1       2.056   4.336  22.453  1.00  0.00     0.232 C 
HETATM    8 CL1  UNL     1       0.878   3.181  23.114  1.00  0.00    -0.102 Cl
HETATM    9  N2  UNL     1       1.425   5.572  22.049  1.00  0.00    -0.136 NA
ENDROOT
BRANCH   5  10
HETATM   10  C7  UNL     1       3.452   3.361  24.278  1.00  0.00     0.259 C 
HETATM   11  O3  UNL     1       3.818   2.263  23.759  1.00  0.00    -0.270 OA
HETATM   12  N1  UNL     1       3.292   3.497  25.685  1.00  0.00    -0.350 N 
ATOM     13  H1  UNL     1       2.997   4.398  26.062  1.00  0.00     0.163 HD
BRANCH  12  14
HETATM   14  C8  UNL     1       3.533   2.400  26.603  1.00  0.00     0.022 C 
HETATM   15  C9  UNL     1       2.509   1.297  26.430  1.00  0.00     0.037 C 
HETATM   16  C10 UNL     1       3.390   2.948  28.012  1.00  0.00     0.037 C 
HETATM   17  C11 UNL     1       4.897   1.783  26.402  1.00  0.00     0.037 C 
ENDBRANCH  12  14
ENDBRANCH   5  10
BRANCH   9  18
HETATM   18  O4  UNL     1       2.144   6.149  21.048  1.00  0.00    -0.308 OA
ATOM     19  H4  UNL     1       3.071   5.961  21.135  1.00  0.00     0.237 HD
ENDBRANCH   9  18
BRANCH   1  20
HETATM   20  C2  UNL     1      -0.276   6.699  23.352  1.00  0.00     0.022 C 
HETATM   21  C1  UNL     1      -0.884   6.202  24.414  1.00  0.00     0.011 C 
ENDBRANCH   1  20
TORSDOF 4
ENDMDL
MODEL 5
REMARK VINA RESULT: -5.923380715      1.130      1.680
REMARK  4 active torsions:
REMARK  status: ('A' for Active; 'I' for Inactive)
REMARK    1  A    between atoms: C2_2  and  C3_3 
REMARK    2  A    between atoms: C5_7  and  C7_9 
REMARK       I    between atoms: C7_9  and  N1_11 
REMARK    3  A    between atoms: N1_11  and  C8_13 
REMARK    4  A    between atoms: N2_19  and  O4_20 
ROOT
HETATM    1  C3  UNL     1       0.879   6.463  23.797  1.00  0.00     0.189 C 
HETATM    2  C4  UNL     1       0.933   7.875  23.242  1.00  0.00     0.074 C 
HETATM    3  O1  UNL     1       2.117   6.063  24.293  1.00  0.00    -0.206 OA
HETATM    4  O2  UNL     1       2.977   5.927  23.314  1.00  0.00    -0.215 OA
HETATM    5  C5  UNL     1       2.735   4.763  22.577  1.00  0.00     0.204 C 
HETATM    6  C6  UNL     1       3.049   5.054  21.103  1.00  0.00     0.063 C 
HETATM    7  C12 UNL     1       1.296   4.381  22.666  1.00  0.00     0.232 C 
HETATM    8 CL1  UNL     1       1.056   3.152  23.926  1.00  0.00    -0.102 Cl
HETATM    9  N2  UNL     1       0.411   5.510  22.844  1.00  0.00    -0.136 NA
ENDROOT
BRANCH   5  10
HETATM   10  C7  UNL     1       3.673   3.690  22.990  1.00  0.00     0.259 C 
HETATM   11  O3  UNL     1       3.766   2.636  22.291  1.00  0.00    -0.270 OA
HETATM   12  N1  UNL     1       4.451   3.870  24.166  1.00  0.00    -0.350 N 
ATOM     13  H1  UNL     1       4.346   4.733  24.699  1.00  0.00     0.163 HD
BRANCH  12  14
HETATM   14  C8  UNL     1       5.390   2.869  24.636  1.00  0.00     0.022 C 
HETATM   15  C9  UNL     1       6.184   3.367  25.825  1.00  0.00     0.037 C 
HETATM   16  C10 UNL     1       6.368   2.599  23.505  1.00  0.00     0.037 C 
HETATM   17  C11 UNL     1       4.695   1.596  25.060  1.00  0.00     0.037 C 
ENDBRANCH  12  14
ENDBRANCH   5  10
BRANCH   9  18
HETATM   18  O4  UNL     1       0.162   6.093  21.640  1.00  0.00    -0.308 OA
ATOM     19  H4  UNL     1      -0.743   5.975  21.378  1.00  0.00     0.237 HD
ENDBRANCH   9  18
BRANCH   1  20
HETATM   20  C2  UNL     1      -0.046   6.531  24.991  1.00  0.00     0.022 C 
HETATM   21  C1  UNL     1      -1.357   6.467  24.845  1.00  0.00     0.011 C 
ENDBRANCH   1  20
TORSDOF 4
ENDMDL
