MODEL 1
REMARK VINA RESULT: -7.061256601      0.000      0.000
REMARK  5 active torsions:
REMARK  status: ('A' for Active; 'I' for Inactive)
REMARK    1  A    between atoms: O1_1  and  N1_3 
REMARK    2  A    between atoms: C1_5  and  O2_6 
REMARK    3  A    between atoms: C1_5  and  C2_8 
REMARK    4  A    between atoms: C5_11  and  O3_12 
REMARK    5  A    between atoms: C7_16  and  C8_17 
ROOT
HETATM    1  C2  UNL     1       1.517   7.666  23.563  1.00  0.00     0.072 C 
HETATM    2  C3  UNL     1       1.774   6.523  24.553  1.00  0.00     0.016 C 
HETATM    3  C4  UNL     1       0.479   5.691  24.449  1.00  0.00     0.041 C 
HETATM    4  C5  UNL     1      -0.490   6.837  24.522  1.00  0.00     0.086 C 
HETATM    5  C6  UNL     1      -0.479   7.507  25.877  1.00  0.00     0.207 C 
HETATM    6  O4  UNL     1       0.204   8.735  25.690  1.00  0.00    -0.378 OA
HETATM    7  C7  UNL     1      -0.363   9.099  24.472  1.00  0.00     0.166 C 
HETATM    8  C12 UNL     1       0.045   7.939  23.627  1.00  0.00     0.068 C 
ENDROOT
BRANCH   1   9
HETATM    9  C1  UNL     1       1.971   7.150  22.243  1.00  0.00     0.140 C 
HETATM   10  N1  UNL     1       2.930   7.733  21.573  1.00  0.00    -0.251 N 
ATOM     11  H1  UNL     1       3.365   8.560  21.981  1.00  0.00     0.196 HD
BRANCH  10  12
HETATM   12  O1  UNL     1       3.384   7.303  20.363  1.00  0.00    -0.288 OA
ATOM     13  H1  UNL     1       3.682   7.881  19.671  1.00  0.00     0.244 HD
ENDBRANCH  10  12
BRANCH   9  14
HETATM   14  O2  UNL     1       1.431   6.030  21.617  1.00  0.00    -0.348 OA
ATOM     15  H2  UNL     1       1.256   5.301  22.200  1.00  0.00     0.219 HD
ENDBRANCH   9  14
ENDBRANCH   1   9
BRANCH   4  16
HETATM   16  O3  UNL     1      -1.764   6.499  24.107  1.00  0.00    -0.387 OA
ATOM     17  H3  UNL     1      -2.315   7.254  23.941  1.00  0.00     0.210 HD
ENDBRANCH   4  16
BRANCH   7  18
HETATM   18  C8  UNL     1      -0.112  10.427  24.016  1.00  0.00     0.017 A 
HETATM   19  C9  UNL     1       1.041  11.163  23.911  1.00  0.00     0.152 A 
HETATM   20  O5  UNL     1       0.761  12.363  23.421  1.00  0.00    -0.332 OA
HETATM   21  C10 UNL     1      -0.502  12.475  23.194  1.00  0.00     0.165 A 
HETATM   22  C11 UNL     1      -1.107  11.292  23.547  1.00  0.00     0.067 A 
HETATM   23 CL1  UNL     1      -2.820  10.888  23.446  1.00  0.00    -0.082 Cl
ENDBRANCH   7  18
TORSDOF 5
ENDMDL
MODEL 2
REMARK VINA RESULT: -6.845796669      4.261      6.327
REMARK  5 active torsions:
REMARK  status: ('A' for Active; 'I' for Inactive)
REMARK    1  A    between atoms: O1_1  and  N1_3 
REMARK    2  A    between atoms: C1_5  and  O2_6 
REMARK    3  A    between atoms: C1_5  and  C2_8 
REMARK    4  A    between atoms: C5_11  and  O3_12 
REMARK    5  A    between atoms: C7_16  and  C8_17 
ROOT
HETATM    1  C2  UNL     1       2.457   5.709  21.890  1.00  0.00     0.072 C 
HETATM    2  C3  UNL     1       1.020   5.440  21.427  1.00  0.00     0.016 C 
HETATM    3  C4  UNL     1       0.181   5.968  22.608  1.00  0.00     0.041 C 
HETATM    4  C5  UNL     1       0.979   5.329  23.710  1.00  0.00     0.086 C 
HETATM    5  C6  UNL     1       0.863   3.823  23.697  1.00  0.00     0.207 C 
HETATM    6  O4  UNL     1       2.099   3.349  23.191  1.00  0.00    -0.378 OA
HETATM    7  C7  UNL     1       2.945   4.215  23.877  1.00  0.00     0.166 C 
HETATM    8  C12 UNL     1       2.446   5.530  23.379  1.00  0.00     0.068 C 
ENDROOT
BRANCH   1   9
HETATM    9  C1  UNL     1       2.753   7.103  21.460  1.00  0.00     0.140 C 
HETATM   10  N1  UNL     1       3.338   7.358  20.320  1.00  0.00    -0.251 N 
ATOM     11  H1  UNL     1       3.592   6.569  19.725  1.00  0.00     0.196 HD
BRANCH  10  12
HETATM   12  O1  UNL     1       3.631   8.613  19.877  1.00  0.00    -0.288 OA
ATOM     13  H1  UNL     1       3.566   8.885  18.970  1.00  0.00     0.244 HD
ENDBRANCH  10  12
BRANCH   9  14
HETATM   14  O2  UNL     1       2.442   8.233  22.212  1.00  0.00    -0.348 OA
ATOM     15  H2  UNL     1       3.059   8.423  22.907  1.00  0.00     0.219 HD
ENDBRANCH   9  14
ENDBRANCH   1   9
BRANCH   4  16
HETATM   16  O3  UNL     1       0.720   5.872  24.953  1.00  0.00    -0.387 OA
ATOM     17  H3  UNL     1       1.411   5.710  25.583  1.00  0.00     0.210 HD
ENDBRANCH   4  16
BRANCH   7  18
HETATM   18  C8  UNL     1       4.341   3.926  23.828  1.00  0.00     0.017 A 
HETATM   19  C9  UNL     1       5.341   4.346  22.988  1.00  0.00     0.152 A 
HETATM   20  O5  UNL     1       6.491   3.796  23.353  1.00  0.00    -0.332 OA
HETATM   21  C10 UNL     1       6.323   3.037  24.381  1.00  0.00     0.165 A 
HETATM   22  C11 UNL     1       4.993   3.076  24.728  1.00  0.00     0.067 A 
HETATM   23 CL1  UNL     1       4.203   2.226  26.056  1.00  0.00    -0.082 Cl
ENDBRANCH   7  18
TORSDOF 5
ENDMDL
MODEL 3
REMARK VINA RESULT: -6.796353139      4.211      6.578
REMARK  5 active torsions:
REMARK  status: ('A' for Active; 'I' for Inactive)
REMARK    1  A    between atoms: O1_1  and  N1_3 
REMARK    2  A    between atoms: C1_5  and  O2_6 
REMARK    3  A    between atoms: C1_5  and  C2_8 
REMARK    4  A    between atoms: C5_11  and  O3_12 
REMARK    5  A    between atoms: C7_16  and  C8_17 
ROOT
HETATM    1  C2  UNL     1       2.618   5.433  21.657  1.00  0.00     0.072 C 
HETATM    2  C3  UNL     1       1.113   5.541  21.933  1.00  0.00     0.016 C 
HETATM    3  C4  UNL     1       1.033   6.746  22.891  1.00  0.00     0.041 C 
HETATM    4  C5  UNL     1       2.159   6.342  23.801  1.00  0.00     0.086 C 
HETATM    5  C6  UNL     1       1.831   5.098  24.595  1.00  0.00     0.207 C 
HETATM    6  O4  UNL     1       2.587   4.057  24.001  1.00  0.00    -0.378 OA
HETATM    7  C7  UNL     1       3.775   4.754  23.805  1.00  0.00     0.166 C 
HETATM    8  C12 UNL     1       3.297   5.859  22.923  1.00  0.00     0.068 C 
ENDROOT
BRANCH   1   9
HETATM    9  C1  UNL     1       2.872   6.345  20.509  1.00  0.00     0.140 C 
HETATM   10  N1  UNL     1       3.336   7.554  20.684  1.00  0.00    -0.251 N 
ATOM     11  H1  UNL     1       3.521   7.862  21.639  1.00  0.00     0.196 HD
BRANCH  10  12
HETATM   12  O1  UNL     1       3.587   8.429  19.670  1.00  0.00    -0.288 OA
ATOM     13  H1  UNL     1       4.413   8.882  19.552  1.00  0.00     0.244 HD
ENDBRANCH  10  12
BRANCH   9  14
HETATM   14  O2  UNL     1       2.646   6.004  19.178  1.00  0.00    -0.348 OA
ATOM     15  H2  UNL     1       3.398   6.119  18.610  1.00  0.00     0.219 HD
ENDBRANCH   9  14
ENDBRANCH   1   9
BRANCH   4  16
HETATM   16  O3  UNL     1       2.612   7.376  24.597  1.00  0.00    -0.387 OA
ATOM     17  H3  UNL     1       1.917   7.806  25.082  1.00  0.00     0.210 HD
ENDBRANCH   4  16
BRANCH   7  18
HETATM   18  C8  UNL     1       4.916   3.988  23.422  1.00  0.00     0.017 A 
HETATM   19  C9  UNL     1       5.573   3.848  22.227  1.00  0.00     0.152 A 
HETATM   20  O5  UNL     1       6.595   3.015  22.374  1.00  0.00    -0.332 OA
HETATM   21  C10 UNL     1       6.661   2.591  23.589  1.00  0.00     0.165 A 
HETATM   22  C11 UNL     1       5.633   3.166  24.299  1.00  0.00     0.067 A 
HETATM   23 CL1  UNL     1       5.247   2.941  26.004  1.00  0.00    -0.082 Cl
ENDBRANCH   7  18
TORSDOF 5
ENDMDL
MODEL 4
REMARK VINA RESULT: -6.735706435      4.307      6.680
REMARK  5 active torsions:
REMARK  status: ('A' for Active; 'I' for Inactive)
REMARK    1  A    between atoms: O1_1  and  N1_3 
REMARK    2  A    between atoms: C1_5  and  O2_6 
REMARK    3  A    between atoms: C1_5  and  C2_8 
REMARK    4  A    between atoms: C5_11  and  O3_12 
REMARK    5  A    between atoms: C7_16  and  C8_17 
ROOT
HETATM    1  C2  UNL     1       2.443   5.652  21.952  1.00  0.00     0.072 C 
HETATM    2  C3  UNL     1       0.917   5.564  22.089  1.00  0.00     0.016 C 
HETATM    3  C4  UNL     1       0.680   6.061  23.529  1.00  0.00     0.041 C 
HETATM    4  C5  UNL     1       1.759   5.252  24.191  1.00  0.00     0.086 C 
HETATM    5  C6  UNL     1       1.462   3.770  24.158  1.00  0.00     0.207 C 
HETATM    6  O4  UNL     1       2.333   3.228  23.180  1.00  0.00    -0.378 OA
HETATM    7  C7  UNL     1       3.480   3.944  23.510  1.00  0.00     0.166 C 
HETATM    8  C12 UNL     1       2.992   5.341  23.312  1.00  0.00     0.068 C 
ENDROOT
BRANCH   1   9
HETATM    9  C1  UNL     1       2.717   7.044  21.503  1.00  0.00     0.140 C 
HETATM   10  N1  UNL     1       3.321   7.291  20.371  1.00  0.00    -0.251 N 
ATOM     11  H1  UNL     1       3.605   6.497  19.796  1.00  0.00     0.196 HD
BRANCH  10  12
HETATM   12  O1  UNL     1       3.596   8.544  19.912  1.00  0.00    -0.288 OA
ATOM     13  H1  UNL     1       3.459   8.823  19.015  1.00  0.00     0.244 HD
ENDBRANCH  10  12
BRANCH   9  14
HETATM   14  O2  UNL     1       2.363   8.179  22.226  1.00  0.00    -0.348 OA
ATOM     15  H2  UNL     1       1.846   8.004  23.003  1.00  0.00     0.219 HD
ENDBRANCH   9  14
ENDBRANCH   1   9
BRANCH   4  16
HETATM   16  O3  UNL     1       2.076   5.703  25.458  1.00  0.00    -0.387 OA
ATOM     17  H3  UNL     1       2.936   5.425  25.749  1.00  0.00     0.210 HD
ENDBRANCH   4  16
BRANCH   7  18
HETATM   18  C8  UNL     1       4.698   3.528  22.895  1.00  0.00     0.017 A 
HETATM   19  C9  UNL     1       5.039   3.300  21.586  1.00  0.00     0.152 A 
HETATM   20  O5  UNL     1       6.309   2.926  21.515  1.00  0.00    -0.332 OA
HETATM   21  C10 UNL     1       6.836   2.889  22.690  1.00  0.00     0.165 A 
HETATM   22  C11 UNL     1       5.875   3.257  23.602  1.00  0.00     0.067 A 
HETATM   23 CL1  UNL     1       6.044   3.380  25.352  1.00  0.00    -0.082 Cl
ENDBRANCH   7  18
TORSDOF 5
ENDMDL
MODEL 5
REMARK VINA RESULT: -6.700170741      4.686      7.408
REMARK  5 active torsions:
REMARK  status: ('A' for Active; 'I' for Inactive)
REMARK    1  A    between atoms: O1_1  and  N1_3 
REMARK    2  A    between atoms: C1_5  and  O2_6 
REMARK    3  A    between atoms: C1_5  and  C2_8 
REMARK    4  A    between atoms: C5_11  and  O3_12 
REMARK    5  A    between atoms: C7_16  and  C8_17 
ROOT
HETATM    1  C2  UNL     1       3.093   5.452  23.375  1.00  0.00     0.072 C 
HETATM    2  C3  UNL     1       2.893   6.123  22.010  1.00  0.00     0.016 C 
HETATM    3  C4  UNL     1       1.738   5.304  21.398  1.00  0.00     0.041 C 
HETATM    4  C5  UNL     1       2.270   3.940  21.739  1.00  0.00     0.086 C 
HETATM    5  C6  UNL     1       3.529   3.611  20.969  1.00  0.00     0.207 C 
HETATM    6  O4  UNL     1       4.588   3.722  21.905  1.00  0.00    -0.378 OA
HETATM    7  C7  UNL     1       3.967   3.106  22.988  1.00  0.00     0.166 C 
HETATM    8  C12 UNL     1       2.785   4.000  23.164  1.00  0.00     0.068 C 
ENDROOT
BRANCH   1   9
HETATM    9  C1  UNL     1       2.140   6.136  24.291  1.00  0.00     0.140 C 
HETATM   10  N1  UNL     1       2.362   7.347  24.729  1.00  0.00    -0.251 N 
ATOM     11  H1  UNL     1       3.214   7.818  24.425  1.00  0.00     0.196 HD
BRANCH  10  12
HETATM   12  O1  UNL     1       1.524   8.020  25.567  1.00  0.00    -0.288 OA
ATOM     13  H1  UNL     1       0.726   8.451  25.287  1.00  0.00     0.244 HD
ENDBRANCH  10  12
BRANCH   9  14
HETATM   14  O2  UNL     1       0.957   5.565  24.752  1.00  0.00    -0.348 OA
ATOM     15  H2  UNL     1       0.577   6.004  25.504  1.00  0.00     0.219 HD
ENDBRANCH   9  14
ENDBRANCH   1   9
BRANCH   4  16
HETATM   16  O3  UNL     1       1.316   2.946  21.646  1.00  0.00    -0.387 OA
ATOM     17  H3  UNL     1       0.646   3.008  22.316  1.00  0.00     0.210 HD
ENDBRANCH   4  16
BRANCH   7  18
HETATM   18  C8  UNL     1       4.790   2.795  24.110  1.00  0.00     0.017 A 
HETATM   19  C9  UNL     1       6.027   3.243  24.499  1.00  0.00     0.152 A 
HETATM   20  O5  UNL     1       6.379   2.653  25.633  1.00  0.00    -0.332 OA
HETATM   21  C10 UNL     1       5.459   1.841  26.025  1.00  0.00     0.165 A 
HETATM   22  C11 UNL     1       4.432   1.884  25.111  1.00  0.00     0.067 A 
HETATM   23 CL1  UNL     1       2.921   0.977  25.147  1.00  0.00    -0.082 Cl
ENDBRANCH   7  18
TORSDOF 5
ENDMDL
