MODEL 1
REMARK VINA RESULT: -6.152240531      0.000      0.000
REMARK  6 active torsions:
REMARK  status: ('A' for Active; 'I' for Inactive)
REMARK    1  A    between atoms: C2_2  and  N1_3 
REMARK    2  A    between atoms: C8_15  and  C9_16 
REMARK    3  A    between atoms: C9_16  and  C10_17 
REMARK    4  A    between atoms: C10_17  and  C11_18 
REMARK    5  A    between atoms: C11_18  and  S1_19 
REMARK    6  A    between atoms: C14_27  and  C15_28 
ROOT
HETATM    1  N1  UNL     1     -68.991  11.868   4.070  1.00  0.00    -0.371 N 
ATOM      2  H1  UNL     1     -69.865  11.402   4.315  1.00  0.00     0.161 HD
HETATM    3  C3  UNL     1     -68.159  12.080   5.029  1.00  0.00     0.137 C 
HETATM    4  N2  UNL     1     -66.938  12.722   4.740  1.00  0.00    -0.354 N 
ATOM      5  H2  UNL     1     -66.562  12.617   3.799  1.00  0.00     0.163 HD
HETATM    6  C4  UNL     1     -66.176  13.520   5.680  1.00  0.00     0.105 C 
HETATM    7  C5  UNL     1     -67.065  14.592   6.204  1.00  0.00     0.048 C 
HETATM    8  C6  UNL     1     -65.047  14.215   4.905  1.00  0.00     0.048 C 
HETATM    9  C7  UNL     1     -65.518  12.686   6.710  1.00  0.00     0.246 C 
HETATM   10  O1  UNL     1     -64.774  11.770   6.186  1.00  0.00    -0.271 OA
HETATM   11  N3  UNL     1     -65.596  12.762   8.089  1.00  0.00    -0.346 N 
ATOM     12  H3  UNL     1     -65.889  11.905   8.558  1.00  0.00     0.163 HD
HETATM   13  C8  UNL     1     -65.327  13.868   8.950  1.00  0.00     0.176 C 
HETATM   14  C13 UNL     1     -65.629  13.675  10.373  1.00  0.00     0.241 C 
HETATM   15  O4  UNL     1     -65.190  14.637  11.116  1.00  0.00    -0.271 OA
HETATM   16  N4  UNL     1     -66.319  12.600  10.983  1.00  0.00    -0.346 N 
ATOM     17  H4  UNL     1     -65.829  12.116  11.735  1.00  0.00     0.163 HD
HETATM   18  C14 UNL     1     -67.640  12.111  10.659  1.00  0.00     0.180 C 
HETATM   19  C18 UNL     1     -67.718  10.639  10.962  1.00  0.00     0.240 C 
HETATM   20  O5  UNL     1     -66.828  10.158  11.745  1.00  0.00    -0.271 OA
HETATM   21  N5  UNL     1     -68.686   9.769  10.451  1.00  0.00    -0.359 N 
ATOM     22  H5  UNL     1     -69.105   9.107  11.103  1.00  0.00     0.162 HD
HETATM   23  C19 UNL     1     -69.148   9.724   9.083  1.00  0.00     0.123 C 
HETATM   24  C20 UNL     1     -68.048   9.315   8.117  1.00  0.00     0.030 C 
HETATM   25  C21 UNL     1     -68.531   9.720   6.716  1.00  0.00     0.084 C 
HETATM   26  S2  UNL     1     -68.637  11.536   6.649  1.00  0.00    -0.094 SA
ENDROOT
BRANCH  13  27
HETATM   27  C9  UNL     1     -63.983  14.506   8.770  1.00  0.00     0.036 C 
BRANCH  27  28
HETATM   28  C10 UNL     1     -62.798  13.849   9.338  1.00  0.00     0.017 C 
BRANCH  28  29
HETATM   29  C11 UNL     1     -62.279  12.717   8.530  1.00  0.00     0.140 C 
BRANCH  29  30
HETATM   30  S1  UNL     1     -62.335  11.180   9.473  1.00  0.00     0.140 S 
HETATM   31  C12 UNL     1     -61.118  11.178  10.740  1.00  0.00     0.161 C 
HETATM   32  O2  UNL     1     -62.040  10.061   8.514  1.00  0.00    -0.228 OA
HETATM   33  O3  UNL     1     -63.731  10.969   9.991  1.00  0.00    -0.228 OA
ENDBRANCH  29  30
ENDBRANCH  28  29
ENDBRANCH  27  28
ENDBRANCH  13  27
BRANCH  18  34
HETATM   34  C15 UNL     1     -68.649  12.751  11.629  1.00  0.00     0.009 C 
HETATM   35  C16 UNL     1     -67.976  13.092  12.940  1.00  0.00     0.012 C 
HETATM   36  C17 UNL     1     -69.265  13.995  11.081  1.00  0.00     0.012 C 
ENDBRANCH  18  34
BRANCH   1  37
HETATM   37  C2  UNL     1     -68.814  12.219   2.698  1.00  0.00     0.117 C 
HETATM   38  C1  UNL     1     -69.609  13.453   2.380  1.00  0.00     0.026 C 
ENDBRANCH   1  37
TORSDOF 6
ENDMDL
MODEL 2
REMARK VINA RESULT: -6.029666223      2.648      3.799
REMARK  6 active torsions:
REMARK  status: ('A' for Active; 'I' for Inactive)
REMARK    1  A    between atoms: C2_2  and  N1_3 
REMARK    2  A    between atoms: C8_15  and  C9_16 
REMARK    3  A    between atoms: C9_16  and  C10_17 
REMARK    4  A    between atoms: C10_17  and  C11_18 
REMARK    5  A    between atoms: C11_18  and  S1_19 
REMARK    6  A    between atoms: C14_27  and  C15_28 
ROOT
HETATM    1  N1  UNL     1     -64.926  15.419   5.943  1.00  0.00    -0.371 N 
ATOM      2  H1  UNL     1     -65.804  15.924   6.071  1.00  0.00     0.161 HD
HETATM    3  C3  UNL     1     -64.793  14.317   6.594  1.00  0.00     0.137 C 
HETATM    4  N2  UNL     1     -63.598  13.584   6.452  1.00  0.00    -0.354 N 
ATOM      5  H2  UNL     1     -63.085  13.685   5.577  1.00  0.00     0.163 HD
HETATM    6  C4  UNL     1     -63.042  12.697   7.455  1.00  0.00     0.105 C 
HETATM    7  C5  UNL     1     -62.876  13.471   8.716  1.00  0.00     0.048 C 
HETATM    8  C6  UNL     1     -61.635  12.285   6.996  1.00  0.00     0.048 C 
HETATM    9  C7  UNL     1     -63.819  11.445   7.581  1.00  0.00     0.246 C 
HETATM   10  O1  UNL     1     -63.935  10.833   6.449  1.00  0.00    -0.271 OA
HETATM   11  N3  UNL     1     -64.406  10.879   8.698  1.00  0.00    -0.346 N 
ATOM     12  H3  UNL     1     -65.405  10.688   8.618  1.00  0.00     0.163 HD
HETATM   13  C8  UNL     1     -63.814  10.522   9.947  1.00  0.00     0.176 C 
HETATM   14  C13 UNL     1     -64.731  10.057  10.994  1.00  0.00     0.241 C 
HETATM   15  O4  UNL     1     -64.117   9.577  12.025  1.00  0.00    -0.271 OA
HETATM   16  N4  UNL     1     -66.146  10.081  10.991  1.00  0.00    -0.346 N 
ATOM     17  H4  UNL     1     -66.615   9.190  11.155  1.00  0.00     0.163 HD
HETATM   18  C14 UNL     1     -67.002  11.227  10.781  1.00  0.00     0.180 C 
HETATM   19  C18 UNL     1     -68.296  10.778  10.155  1.00  0.00     0.240 C 
HETATM   20  O5  UNL     1     -68.585   9.535  10.245  1.00  0.00    -0.271 OA
HETATM   21  N5  UNL     1     -69.193  11.618   9.489  1.00  0.00    -0.359 N 
ATOM     22  H5  UNL     1     -70.184  11.497   9.696  1.00  0.00     0.162 HD
HETATM   23  C19 UNL     1     -68.843  12.643   8.533  1.00  0.00     0.123 C 
HETATM   24  C20 UNL     1     -68.208  12.068   7.277  1.00  0.00     0.030 C 
HETATM   25  C21 UNL     1     -67.512  13.239   6.569  1.00  0.00     0.084 C 
HETATM   26  S2  UNL     1     -66.147  13.818   7.627  1.00  0.00    -0.094 SA
ENDROOT
BRANCH  13  27
HETATM   27  C9  UNL     1     -62.612   9.633   9.855  1.00  0.00     0.036 C 
BRANCH  27  28
HETATM   28  C10 UNL     1     -61.284  10.193  10.142  1.00  0.00     0.017 C 
BRANCH  28  29
HETATM   29  C11 UNL     1     -60.295  10.011   9.049  1.00  0.00     0.140 C 
BRANCH  29  30
HETATM   30  S1  UNL     1     -58.695  10.704   9.514  1.00  0.00     0.140 S 
HETATM   31  C12 UNL     1     -57.995  11.610   8.183  1.00  0.00     0.161 C 
HETATM   32  O2  UNL     1     -57.792   9.549   9.844  1.00  0.00    -0.228 OA
HETATM   33  O3  UNL     1     -58.856  11.519  10.767  1.00  0.00    -0.228 OA
ENDBRANCH  29  30
ENDBRANCH  28  29
ENDBRANCH  27  28
ENDBRANCH  13  27
BRANCH  18  34
HETATM   34  C15 UNL     1     -67.419  11.782  12.155  1.00  0.00     0.009 C 
HETATM   35  C16 UNL     1     -67.514  13.291  12.106  1.00  0.00     0.012 C 
HETATM   36  C17 UNL     1     -68.732  11.245  12.619  1.00  0.00     0.012 C 
ENDBRANCH  18  34
BRANCH   1  37
HETATM   37  C2  UNL     1     -63.971  16.006   5.061  1.00  0.00     0.117 C 
HETATM   38  C1  UNL     1     -64.364  15.745   3.635  1.00  0.00     0.026 C 
ENDBRANCH   1  37
TORSDOF 6
ENDMDL
MODEL 3
REMARK VINA RESULT: -5.833142449      2.307      5.814
REMARK  6 active torsions:
REMARK  status: ('A' for Active; 'I' for Inactive)
REMARK    1  A    between atoms: C2_2  and  N1_3 
REMARK    2  A    between atoms: C8_15  and  C9_16 
REMARK    3  A    between atoms: C9_16  and  C10_17 
REMARK    4  A    between atoms: C10_17  and  C11_18 
REMARK    5  A    between atoms: C11_18  and  S1_19 
REMARK    6  A    between atoms: C14_27  and  C15_28 
ROOT
HETATM    1  N1  UNL     1     -71.190  13.632  11.547  1.00  0.00    -0.371 N 
ATOM      2  H1  UNL     1     -72.063  13.339  11.106  1.00  0.00     0.161 HD
HETATM    3  C3  UNL     1     -70.141  13.644  10.802  1.00  0.00     0.137 C 
HETATM    4  N2  UNL     1     -68.911  14.041  11.365  1.00  0.00    -0.354 N 
ATOM      5  H2  UNL     1     -68.942  14.684  12.156  1.00  0.00     0.163 HD
HETATM    6  C4  UNL     1     -67.608  13.604  10.907  1.00  0.00     0.105 C 
HETATM    7  C5  UNL     1     -67.584  12.116  10.930  1.00  0.00     0.048 C 
HETATM    8  C6  UNL     1     -66.563  14.082  11.926  1.00  0.00     0.048 C 
HETATM    9  C7  UNL     1     -67.238  14.221   9.615  1.00  0.00     0.246 C 
HETATM   10  O1  UNL     1     -67.292  15.511   9.663  1.00  0.00    -0.271 OA
HETATM   11  N3  UNL     1     -66.862  13.623   8.426  1.00  0.00    -0.346 N 
ATOM     12  H3  UNL     1     -67.419  13.879   7.612  1.00  0.00     0.163 HD
HETATM   13  C8  UNL     1     -65.805  12.696   8.175  1.00  0.00     0.176 C 
HETATM   14  C13 UNL     1     -65.738  12.134   6.822  1.00  0.00     0.241 C 
HETATM   15  O4  UNL     1     -64.658  11.455   6.611  1.00  0.00    -0.271 OA
HETATM   16  N4  UNL     1     -66.687  12.251   5.778  1.00  0.00    -0.346 N 
ATOM     17  H4  UNL     1     -66.343  12.620   4.892  1.00  0.00     0.163 HD
HETATM   18  C14 UNL     1     -68.090  11.907   5.828  1.00  0.00     0.180 C 
HETATM   19  C18 UNL     1     -68.857  12.788   4.878  1.00  0.00     0.240 C 
HETATM   20  O5  UNL     1     -68.184  13.388   3.969  1.00  0.00    -0.271 OA
HETATM   21  N5  UNL     1     -70.239  12.995   4.921  1.00  0.00    -0.359 N 
ATOM     22  H5  UNL     1     -70.739  12.971   4.032  1.00  0.00     0.162 HD
HETATM   23  C19 UNL     1     -71.022  13.239   6.109  1.00  0.00     0.123 C 
HETATM   24  C20 UNL     1     -70.650  14.547   6.787  1.00  0.00     0.030 C 
HETATM   25  C21 UNL     1     -71.219  14.473   8.211  1.00  0.00     0.084 C 
HETATM   26  S2  UNL     1     -70.345  13.151   9.109  1.00  0.00    -0.094 SA
ENDROOT
BRANCH  13  27
HETATM   27  C9  UNL     1     -64.449  13.131   8.642  1.00  0.00     0.036 C 
BRANCH  27  28
HETATM   28  C10 UNL     1     -63.873  12.512   9.843  1.00  0.00     0.017 C 
BRANCH  28  29
HETATM   29  C11 UNL     1     -64.101  11.048   9.944  1.00  0.00     0.140 C 
BRANCH  29  30
HETATM   30  S1  UNL     1     -62.566  10.189  10.348  1.00  0.00     0.140 S 
HETATM   31  C12 UNL     1     -61.246  11.330  10.554  1.00  0.00     0.161 C 
HETATM   32  O2  UNL     1     -62.249   9.283   9.193  1.00  0.00    -0.228 OA
HETATM   33  O3  UNL     1     -62.790   9.318  11.553  1.00  0.00    -0.228 OA
ENDBRANCH  29  30
ENDBRANCH  28  29
ENDBRANCH  27  28
ENDBRANCH  13  27
BRANCH  18  34
HETATM   34  C15 UNL     1     -68.266  10.489   5.254  1.00  0.00     0.009 C 
HETATM   35  C16 UNL     1     -67.090  10.129   4.373  1.00  0.00     0.012 C 
HETATM   36  C17 UNL     1     -68.391   9.450   6.317  1.00  0.00     0.012 C 
ENDBRANCH  18  34
BRANCH   1  37
HETATM   37  C2  UNL     1     -71.257  13.988  12.927  1.00  0.00     0.117 C 
HETATM   38  C1  UNL     1     -71.111  12.760  13.779  1.00  0.00     0.026 C 
ENDBRANCH   1  37
TORSDOF 6
ENDMDL
MODEL 4
REMARK VINA RESULT: -5.799971694      1.509      1.656
REMARK  6 active torsions:
REMARK  status: ('A' for Active; 'I' for Inactive)
REMARK    1  A    between atoms: C2_2  and  N1_3 
REMARK    2  A    between atoms: C8_15  and  C9_16 
REMARK    3  A    between atoms: C9_16  and  C10_17 
REMARK    4  A    between atoms: C10_17  and  C11_18 
REMARK    5  A    between atoms: C11_18  and  S1_19 
REMARK    6  A    between atoms: C14_27  and  C15_28 
ROOT
HETATM    1  N1  UNL     1     -70.209  11.017   4.415  1.00  0.00    -0.371 N 
ATOM      2  H1  UNL     1     -71.133  10.738   4.744  1.00  0.00     0.161 HD
HETATM    3  C3  UNL     1     -69.295  11.162   5.309  1.00  0.00     0.137 C 
HETATM    4  N2  UNL     1     -68.002  11.548   4.903  1.00  0.00    -0.354 N 
ATOM      5  H2  UNL     1     -67.709  11.295   3.960  1.00  0.00     0.163 HD
HETATM    6  C4  UNL     1     -67.056  12.277   5.725  1.00  0.00     0.105 C 
HETATM    7  C5  UNL     1     -67.712  13.532   6.181  1.00  0.00     0.048 C 
HETATM    8  C6  UNL     1     -65.874  12.689   4.834  1.00  0.00     0.048 C 
HETATM    9  C7  UNL     1     -66.489  11.434   6.800  1.00  0.00     0.246 C 
HETATM   10  O1  UNL     1     -65.949  10.357   6.334  1.00  0.00    -0.271 OA
HETATM   11  N3  UNL     1     -66.466  11.643   8.166  1.00  0.00    -0.346 N 
ATOM     12  H3  UNL     1     -66.873  10.897   8.730  1.00  0.00     0.163 HD
HETATM   13  C8  UNL     1     -65.956  12.755   8.902  1.00  0.00     0.176 C 
HETATM   14  C13 UNL     1     -66.198  12.746  10.349  1.00  0.00     0.241 C 
HETATM   15  O4  UNL     1     -65.553  13.676  10.974  1.00  0.00    -0.271 OA
HETATM   16  N4  UNL     1     -67.024  11.868  11.092  1.00  0.00    -0.346 N 
ATOM     17  H4  UNL     1     -66.579  11.373  11.865  1.00  0.00     0.163 HD
HETATM   18  C14 UNL     1     -68.427  11.596  10.879  1.00  0.00     0.180 C 
HETATM   19  C18 UNL     1     -68.740  10.193  11.328  1.00  0.00     0.240 C 
HETATM   20  O5  UNL     1     -67.899   9.632  12.113  1.00  0.00    -0.271 OA
HETATM   21  N5  UNL     1     -69.874   9.469  10.950  1.00  0.00    -0.359 N 
ATOM     22  H5  UNL     1     -70.359   8.951  11.682  1.00  0.00     0.162 HD
HETATM   23  C19 UNL     1     -70.421   9.386   9.616  1.00  0.00     0.123 C 
HETATM   24  C20 UNL     1     -69.471   8.704   8.644  1.00  0.00     0.030 C 
HETATM   25  C21 UNL     1     -69.963   9.063   7.235  1.00  0.00     0.084 C 
HETATM   26  S2  UNL     1     -69.757  10.857   6.995  1.00  0.00    -0.094 SA
ENDROOT
BRANCH  13  27
HETATM   27  C9  UNL     1     -64.536  13.125   8.599  1.00  0.00     0.036 C 
BRANCH  27  28
HETATM   28  C10 UNL     1     -63.539  12.059   8.432  1.00  0.00     0.017 C 
BRANCH  28  29
HETATM   29  C11 UNL     1     -62.598  11.918   9.572  1.00  0.00     0.140 C 
BRANCH  29  30
HETATM   30  S1  UNL     1     -62.544  10.209  10.149  1.00  0.00     0.140 S 
HETATM   31  C12 UNL     1     -64.127   9.685  10.702  1.00  0.00     0.161 C 
HETATM   32  O2  UNL     1     -61.585  10.162  11.304  1.00  0.00    -0.228 OA
HETATM   33  O3  UNL     1     -61.978   9.339   9.061  1.00  0.00    -0.228 OA
ENDBRANCH  29  30
ENDBRANCH  28  29
ENDBRANCH  27  28
ENDBRANCH  13  27
BRANCH  18  34
HETATM   34  C15 UNL     1     -69.248  12.488  11.827  1.00  0.00     0.009 C 
HETATM   35  C16 UNL     1     -68.454  12.797  13.078  1.00  0.00     0.012 C 
HETATM   36  C17 UNL     1     -69.651  13.780  11.197  1.00  0.00     0.012 C 
ENDBRANCH  18  34
BRANCH   1  37
HETATM   37  C2  UNL     1     -70.060  11.209   3.009  1.00  0.00     0.117 C 
HETATM   38  C1  UNL     1     -71.380  11.002   2.322  1.00  0.00     0.026 C 
ENDBRANCH   1  37
TORSDOF 6
ENDMDL
MODEL 5
REMARK VINA RESULT: -5.760133696      1.382      1.486
REMARK  6 active torsions:
REMARK  status: ('A' for Active; 'I' for Inactive)
REMARK    1  A    between atoms: C2_2  and  N1_3 
REMARK    2  A    between atoms: C8_15  and  C9_16 
REMARK    3  A    between atoms: C9_16  and  C10_17 
REMARK    4  A    between atoms: C10_17  and  C11_18 
REMARK    5  A    between atoms: C11_18  and  S1_19 
REMARK    6  A    between atoms: C14_27  and  C15_28 
ROOT
HETATM    1  N1  UNL     1     -68.258  10.900   4.155  1.00  0.00    -0.371 N 
ATOM      2  H1  UNL     1     -69.238  10.620   4.204  1.00  0.00     0.161 HD
HETATM    3  C3  UNL     1     -67.667  11.134   5.273  1.00  0.00     0.137 C 
HETATM    4  N2  UNL     1     -66.313  11.526   5.258  1.00  0.00    -0.354 N 
ATOM      5  H2  UNL     1     -65.741  11.214   4.474  1.00  0.00     0.163 HD
HETATM    6  C4  UNL     1     -65.671  12.340   6.272  1.00  0.00     0.105 C 
HETATM    7  C5  UNL     1     -66.441  13.606   6.404  1.00  0.00     0.048 C 
HETATM    8  C6  UNL     1     -64.273  12.718   5.760  1.00  0.00     0.048 C 
HETATM    9  C7  UNL     1     -65.462  11.593   7.531  1.00  0.00     0.246 C 
HETATM   10  O1  UNL     1     -64.799  10.501   7.341  1.00  0.00    -0.271 OA
HETATM   11  N3  UNL     1     -65.865  11.902   8.818  1.00  0.00    -0.346 N 
ATOM     12  H3  UNL     1     -66.423  11.188   9.285  1.00  0.00     0.163 HD
HETATM   13  C8  UNL     1     -65.612  13.079   9.586  1.00  0.00     0.176 C 
HETATM   14  C13 UNL     1     -66.291  13.168  10.884  1.00  0.00     0.241 C 
HETATM   15  O4  UNL     1     -65.875  14.159  11.603  1.00  0.00    -0.271 OA
HETATM   16  N4  UNL     1     -67.303  12.325  11.402  1.00  0.00    -0.346 N 
ATOM     17  H4  UNL     1     -67.117  11.900  12.311  1.00  0.00     0.163 HD
HETATM   18  C14 UNL     1     -68.570  11.998  10.788  1.00  0.00     0.180 C 
HETATM   19  C18 UNL     1     -69.000  10.624  11.226  1.00  0.00     0.240 C 
HETATM   20  O5  UNL     1     -68.441  10.146  12.274  1.00  0.00    -0.271 OA
HETATM   21  N5  UNL     1     -69.958   9.842  10.574  1.00  0.00    -0.359 N 
ATOM     22  H5  UNL     1     -70.645   9.367  11.159  1.00  0.00     0.162 HD
HETATM   23  C19 UNL     1     -70.064   9.648   9.147  1.00  0.00     0.123 C 
HETATM   24  C20 UNL     1     -68.858   8.923   8.573  1.00  0.00     0.030 C 
HETATM   25  C21 UNL     1     -68.890   9.164   7.057  1.00  0.00     0.084 C 
HETATM   26  S2  UNL     1     -68.627  10.941   6.753  1.00  0.00    -0.094 SA
ENDROOT
BRANCH  13  27
HETATM   27  C9  UNL     1     -64.170  13.465   9.708  1.00  0.00     0.036 C 
BRANCH  27  28
HETATM   28  C10 UNL     1     -63.187  12.445  10.098  1.00  0.00     0.017 C 
BRANCH  28  29
HETATM   29  C11 UNL     1     -62.104  12.229   9.105  1.00  0.00     0.140 C 
BRANCH  29  30
HETATM   30  S1  UNL     1     -61.045  10.855   9.604  1.00  0.00     0.140 S 
HETATM   31  C12 UNL     1     -60.100  10.268   8.244  1.00  0.00     0.161 C 
HETATM   32  O2  UNL     1     -61.947   9.753  10.082  1.00  0.00    -0.228 OA
HETATM   33  O3  UNL     1     -60.201  11.282  10.772  1.00  0.00    -0.228 OA
ENDBRANCH  29  30
ENDBRANCH  28  29
ENDBRANCH  27  28
ENDBRANCH  13  27
BRANCH  18  34
HETATM   34  C15 UNL     1     -69.647  12.935  11.363  1.00  0.00     0.009 C 
HETATM   35  C16 UNL     1     -69.263  13.386  12.755  1.00  0.00     0.012 C 
HETATM   36  C17 UNL     1     -69.866  14.147  10.521  1.00  0.00     0.012 C 
ENDBRANCH  18  34
BRANCH   1  37
HETATM   37  C2  UNL     1     -67.681  10.992   2.853  1.00  0.00     0.117 C 
HETATM   38  C1  UNL     1     -68.389  12.049   2.054  1.00  0.00     0.026 C 
ENDBRANCH   1  37
TORSDOF 6
ENDMDL
