MODEL 1
REMARK VINA RESULT: -8.061049709      0.000      0.000
REMARK  8 active torsions:
REMARK  status: ('A' for Active; 'I' for Inactive)
REMARK       I    between atoms: N1_2  and  C2_4 
REMARK       I    between atoms: C2_4  and  N2_6 
REMARK    1  A    between atoms: N2_6  and  C3_8 
REMARK    2  A    between atoms: C3_8  and  C4_9 
REMARK    3  A    between atoms: C4_9  and  C5_10 
REMARK    4  A    between atoms: C9_20  and  C10_21 
REMARK    5  A    between atoms: C10_21  and  C11_22 
REMARK    6  A    between atoms: C15_28  and  C16_29 
REMARK    7  A    between atoms: C19_32  and  C20_33 
REMARK    8  A    between atoms: C20_33  and  O6_34 
ROOT
HETATM    1  C5  UNL     1     -63.019  11.380   9.502  1.00  0.00     0.112 C 
HETATM    2  C6  UNL     1     -63.830  10.181   9.549  1.00  0.00     0.225 C 
HETATM    3  O2  UNL     1     -63.143   9.119   9.734  1.00  0.00    -0.273 OA
HETATM    4  N3  UNL     1     -65.227  10.076   9.418  1.00  0.00    -0.344 N 
ATOM      5  H3  UNL     1     -65.498   9.242   8.897  1.00  0.00     0.163 HD
HETATM    6  C7  UNL     1     -66.360  10.838   9.828  1.00  0.00     0.207 C 
HETATM    7  C8  UNL     1     -66.588  10.499  11.233  1.00  0.00     0.245 C 
HETATM    8  O3  UNL     1     -65.627  10.754  12.047  1.00  0.00    -0.271 OA
HETATM    9  N4  UNL     1     -67.715   9.932  11.817  1.00  0.00    -0.345 N 
ATOM     10  H4  UNL     1     -67.607   9.671  12.798  1.00  0.00     0.163 HD
HETATM   11  C9  UNL     1     -69.018   9.655  11.253  1.00  0.00     0.184 C 
HETATM   12  C14 UNL     1     -69.440  10.599  10.190  1.00  0.00     0.282 C 
HETATM   13  O4  UNL     1     -70.222  10.044   9.326  1.00  0.00    -0.263 OA
HETATM   14  O5  UNL     1     -69.067  11.810  10.145  1.00  0.00    -0.313 OA
HETATM   15  C15 UNL     1     -68.609  13.044  10.214  1.00  0.00     0.145 C 
HETATM   16  C19 UNL     1     -67.077  13.119  10.535  1.00  0.00     0.071 C 
HETATM   17  C21 UNL     1     -66.369  12.325   9.505  1.00  0.00    -0.035 C 
HETATM   18  C22 UNL     1     -65.078  12.659   8.950  1.00  0.00    -0.043 C 
HETATM   19  C23 UNL     1     -64.927  13.791   7.995  1.00  0.00     0.063 C 
HETATM   20  C24 UNL     1     -63.400  13.839   7.896  1.00  0.00     0.173 C 
HETATM   21  O7  UNL     1     -63.019  13.671   9.221  1.00  0.00    -0.380 OA
HETATM   22  C25 UNL     1     -63.847  12.652   9.752  1.00  0.00     0.163 C 
ENDROOT
BRANCH   1  23
HETATM   23  C4  UNL     1     -61.772  11.357  10.353  1.00  0.00     0.036 C 
BRANCH  23  24
HETATM   24  C3  UNL     1     -60.509  11.176   9.592  1.00  0.00     0.125 C 
BRANCH  24  25
HETATM   25  N2  UNL     1     -59.609  10.334  10.345  1.00  0.00    -0.343 N 
HETATM   26  C2  UNL     1     -58.350  10.725  10.857  1.00  0.00     0.315 C 
HETATM   27  N1  UNL     1     -57.588   9.788  11.588  1.00  0.00    -0.347 N 
HETATM   28  O1  UNL     1     -57.924  11.873  10.667  1.00  0.00    -0.247 OA
HETATM   29  C1  UNL     1     -56.286  10.071  12.157  1.00  0.00     0.151 C 
ATOM     30  H1  UNL     1     -57.977   8.854  11.722  1.00  0.00     0.163 HD
ATOM     31  H2  UNL     1     -59.907   9.375  10.522  1.00  0.00     0.164 HD
ENDBRANCH  24  25
ENDBRANCH  23  24
ENDBRANCH   1  23
BRANCH  16  32
HETATM   32  C20 UNL     1     -66.794  14.543  10.725  1.00  0.00     0.175 C 
BRANCH  32  33
HETATM   33  O6  UNL     1     -66.535  15.018  12.000  1.00  0.00    -0.400 OA
ATOM     34  H6  UNL     1     -67.160  15.602  12.415  1.00  0.00     0.209 HD
ENDBRANCH  32  33
ENDBRANCH  16  32
BRANCH  15  35
HETATM   35  C16 UNL     1     -69.406  14.031  11.021  1.00  0.00     0.008 C 
HETATM   36  C17 UNL     1     -69.855  13.565  12.355  1.00  0.00     0.012 C 
HETATM   37  C18 UNL     1     -70.745  14.325  10.276  1.00  0.00     0.012 C 
ENDBRANCH  15  35
BRANCH  11  38
HETATM   38  C10 UNL     1     -70.075   9.674  12.325  1.00  0.00     0.039 C 
BRANCH  38  39
HETATM   39  C11 UNL     1     -70.687   8.366  12.670  1.00  0.00    -0.020 C 
HETATM   40  C12 UNL     1     -70.339   7.956  14.110  1.00  0.00     0.009 C 
HETATM   41  C13 UNL     1     -70.220   7.250  11.775  1.00  0.00     0.009 C 
ENDBRANCH  38  39
ENDBRANCH  11  38
TORSDOF 8
ENDMDL
MODEL 2
REMARK VINA RESULT: -7.772492104      2.744      8.140
REMARK  8 active torsions:
REMARK  status: ('A' for Active; 'I' for Inactive)
REMARK       I    between atoms: N1_2  and  C2_4 
REMARK       I    between atoms: C2_4  and  N2_6 
REMARK    1  A    between atoms: N2_6  and  C3_8 
REMARK    2  A    between atoms: C3_8  and  C4_9 
REMARK    3  A    between atoms: C4_9  and  C5_10 
REMARK    4  A    between atoms: C9_20  and  C10_21 
REMARK    5  A    between atoms: C10_21  and  C11_22 
REMARK    6  A    between atoms: C15_28  and  C16_29 
REMARK    7  A    between atoms: C19_32  and  C20_33 
REMARK    8  A    between atoms: C20_33  and  O6_34 
ROOT
HETATM    1  C5  UNL     1     -69.449  10.715  12.010  1.00  0.00     0.112 C 
HETATM    2  C6  UNL     1     -68.427   9.692  11.927  1.00  0.00     0.225 C 
HETATM    3  O2  UNL     1     -68.901   8.506  11.985  1.00  0.00    -0.273 OA
HETATM    4  N3  UNL     1     -67.038   9.866  11.795  1.00  0.00    -0.344 N 
ATOM      5  H3  UNL     1     -66.515   9.176  12.335  1.00  0.00     0.163 HD
HETATM    6  C7  UNL     1     -66.172  10.761  11.100  1.00  0.00     0.207 C 
HETATM    7  C8  UNL     1     -66.121  10.283   9.719  1.00  0.00     0.245 C 
HETATM    8  O3  UNL     1     -67.238  10.241   9.084  1.00  0.00    -0.271 OA
HETATM    9  N4  UNL     1     -65.016   9.859   8.987  1.00  0.00    -0.345 N 
ATOM     10  H4  UNL     1     -65.233   9.451   8.077  1.00  0.00     0.163 HD
HETATM   11  C9  UNL     1     -63.608   9.908   9.314  1.00  0.00     0.184 C 
HETATM   12  C14 UNL     1     -63.216  11.050  10.175  1.00  0.00     0.282 C 
HETATM   13  O4  UNL     1     -62.202  10.772  10.923  1.00  0.00    -0.263 OA
HETATM   14  O5  UNL     1     -63.819  12.165  10.170  1.00  0.00    -0.313 OA
HETATM   15  C15 UNL     1     -64.528  13.272  10.068  1.00  0.00     0.145 C 
HETATM   16  C19 UNL     1     -66.074  13.018  10.043  1.00  0.00     0.071 C 
HETATM   17  C21 UNL     1     -66.417  12.254  11.264  1.00  0.00    -0.035 C 
HETATM   18  C22 UNL     1     -67.636  12.417  12.022  1.00  0.00    -0.043 C 
HETATM   19  C23 UNL     1     -67.854  13.620  12.870  1.00  0.00     0.063 C 
HETATM   20  C24 UNL     1     -69.318  13.398  13.257  1.00  0.00     0.173 C 
HETATM   21  O7  UNL     1     -69.876  12.983  12.054  1.00  0.00    -0.380 OA
HETATM   22  C25 UNL     1     -68.957  12.072  11.478  1.00  0.00     0.163 C 
ENDROOT
BRANCH   1  23
HETATM   23  C4  UNL     1     -70.790  10.346  11.422  1.00  0.00     0.036 C 
BRANCH  23  24
HETATM   24  C3  UNL     1     -70.857  10.424   9.940  1.00  0.00     0.125 C 
BRANCH  24  25
HETATM   25  N2  UNL     1     -70.714   9.100   9.381  1.00  0.00    -0.343 N 
HETATM   26  C2  UNL     1     -71.709   8.398   8.662  1.00  0.00     0.315 C 
HETATM   27  N1  UNL     1     -71.413   7.110   8.164  1.00  0.00    -0.347 N 
HETATM   28  O1  UNL     1     -72.823   8.906   8.472  1.00  0.00    -0.247 OA
HETATM   29  C1  UNL     1     -72.350   6.295   7.418  1.00  0.00     0.151 C 
ATOM     30  H1  UNL     1     -70.482   6.730   8.341  1.00  0.00     0.163 HD
ATOM     31  H2  UNL     1     -69.819   8.632   9.516  1.00  0.00     0.164 HD
ENDBRANCH  24  25
ENDBRANCH  23  24
ENDBRANCH   1  23
BRANCH  16  32
HETATM   32  C20 UNL     1     -66.673  14.325   9.770  1.00  0.00     0.175 C 
BRANCH  32  33
HETATM   33  O6  UNL     1     -67.826  14.395   9.004  1.00  0.00    -0.400 OA
ATOM     34  H6  UNL     1     -68.390  15.156   9.082  1.00  0.00     0.209 HD
ENDBRANCH  32  33
ENDBRANCH  16  32
BRANCH  15  35
HETATM   35  C16 UNL     1     -64.101  14.270   9.027  1.00  0.00     0.008 C 
HETATM   36  C17 UNL     1     -63.400  13.714   7.845  1.00  0.00     0.012 C 
HETATM   37  C18 UNL     1     -63.040  15.228   9.654  1.00  0.00     0.012 C 
ENDBRANCH  15  35
BRANCH  11  38
HETATM   38  C10 UNL     1     -62.775   9.976   8.062  1.00  0.00     0.039 C 
BRANCH  38  39
HETATM   39  C11 UNL     1     -61.343   9.612   8.202  1.00  0.00    -0.020 C 
HETATM   40  C12 UNL     1     -60.432  10.772   7.769  1.00  0.00     0.009 C 
HETATM   41  C13 UNL     1     -60.959   8.421   7.366  1.00  0.00     0.009 C 
ENDBRANCH  38  39
ENDBRANCH  11  38
TORSDOF 8
ENDMDL
MODEL 3
REMARK VINA RESULT: -7.709232292      3.670      7.578
REMARK  8 active torsions:
REMARK  status: ('A' for Active; 'I' for Inactive)
REMARK       I    between atoms: N1_2  and  C2_4 
REMARK       I    between atoms: C2_4  and  N2_6 
REMARK    1  A    between atoms: N2_6  and  C3_8 
REMARK    2  A    between atoms: C3_8  and  C4_9 
REMARK    3  A    between atoms: C4_9  and  C5_10 
REMARK    4  A    between atoms: C9_20  and  C10_21 
REMARK    5  A    between atoms: C10_21  and  C11_22 
REMARK    6  A    between atoms: C15_28  and  C16_29 
REMARK    7  A    between atoms: C19_32  and  C20_33 
REMARK    8  A    between atoms: C20_33  and  O6_34 
ROOT
HETATM    1  C5  UNL     1     -64.554  11.270   9.480  1.00  0.00     0.112 C 
HETATM    2  C6  UNL     1     -63.827  12.522   9.506  1.00  0.00     0.225 C 
HETATM    3  O2  UNL     1     -62.888  12.538  10.374  1.00  0.00    -0.273 OA
HETATM    4  N3  UNL     1     -64.042  13.664   8.713  1.00  0.00    -0.344 N 
ATOM      5  H3  UNL     1     -63.902  14.525   9.240  1.00  0.00     0.163 HD
HETATM    6  C7  UNL     1     -64.406  13.924   7.359  1.00  0.00     0.207 C 
HETATM    7  C8  UNL     1     -63.184  13.756   6.573  1.00  0.00     0.245 C 
HETATM    8  O3  UNL     1     -62.629  12.597   6.616  1.00  0.00    -0.271 OA
HETATM    9  N4  UNL     1     -62.530  14.688   5.775  1.00  0.00    -0.345 N 
ATOM     10  H4  UNL     1     -61.623  14.387   5.415  1.00  0.00     0.163 HD
HETATM   11  C9  UNL     1     -62.933  16.018   5.374  1.00  0.00     0.184 C 
HETATM   12  C14 UNL     1     -64.398  16.202   5.240  1.00  0.00     0.282 C 
HETATM   13  O4  UNL     1     -64.764  17.414   5.491  1.00  0.00    -0.263 OA
HETATM   14  O5  UNL     1     -65.191  15.266   4.919  1.00  0.00    -0.313 OA
HETATM   15  C15 UNL     1     -65.904  14.211   4.576  1.00  0.00     0.145 C 
HETATM   16  C19 UNL     1     -65.512  12.915   5.364  1.00  0.00     0.071 C 
HETATM   17  C21 UNL     1     -65.637  13.221   6.808  1.00  0.00    -0.035 C 
HETATM   18  C22 UNL     1     -66.092  12.286   7.812  1.00  0.00    -0.043 C 
HETATM   19  C23 UNL     1     -67.526  11.899   7.901  1.00  0.00     0.063 C 
HETATM   20  C24 UNL     1     -67.424  10.779   8.940  1.00  0.00     0.173 C 
HETATM   21  O7  UNL     1     -66.292  10.095   8.517  1.00  0.00    -0.380 OA
HETATM   22  C25 UNL     1     -65.334  11.079   8.168  1.00  0.00     0.163 C 
ENDROOT
BRANCH   1  23
HETATM   23  C4  UNL     1     -63.748  10.041   9.826  1.00  0.00     0.036 C 
BRANCH  23  24
HETATM   24  C3  UNL     1     -62.490   9.890   9.051  1.00  0.00     0.125 C 
BRANCH  24  25
HETATM   25  N2  UNL     1     -61.364   9.886   9.956  1.00  0.00    -0.343 N 
HETATM   26  C2  UNL     1     -60.137  10.559   9.747  1.00  0.00     0.315 C 
HETATM   27  N1  UNL     1     -59.132  10.470  10.735  1.00  0.00    -0.347 N 
HETATM   28  O1  UNL     1     -59.949  11.215   8.714  1.00  0.00    -0.247 OA
HETATM   29  C1  UNL     1     -57.837  11.111  10.631  1.00  0.00     0.151 C 
ATOM     30  H1  UNL     1     -59.329   9.920  11.571  1.00  0.00     0.163 HD
ATOM     31  H2  UNL     1     -61.462   9.353  10.819  1.00  0.00     0.164 HD
ENDBRANCH  24  25
ENDBRANCH  23  24
ENDBRANCH   1  23
BRANCH  16  32
HETATM   32  C20 UNL     1     -66.287  11.840   4.745  1.00  0.00     0.175 C 
BRANCH  32  33
HETATM   33  O6  UNL     1     -65.777  10.552   4.740  1.00  0.00    -0.400 OA
ATOM     34  H6  UNL     1     -66.248   9.866   4.281  1.00  0.00     0.209 HD
ENDBRANCH  32  33
ENDBRANCH  16  32
BRANCH  15  35
HETATM   35  C16 UNL     1     -66.083  13.948   3.106  1.00  0.00     0.008 C 
HETATM   36  C17 UNL     1     -65.046  14.519   2.215  1.00  0.00     0.012 C 
HETATM   37  C18 UNL     1     -67.392  14.648   2.625  1.00  0.00     0.012 C 
ENDBRANCH  15  35
BRANCH  11  38
HETATM   38  C10 UNL     1     -62.305  16.389   4.057  1.00  0.00     0.039 C 
BRANCH  38  39
HETATM   39  C11 UNL     1     -61.125  15.592   3.642  1.00  0.00    -0.020 C 
HETATM   40  C12 UNL     1     -59.861  16.464   3.582  1.00  0.00     0.009 C 
HETATM   41  C13 UNL     1     -61.291  14.971   2.281  1.00  0.00     0.009 C 
ENDBRANCH  38  39
ENDBRANCH  11  38
TORSDOF 8
ENDMDL
MODEL 4
REMARK VINA RESULT: -7.635285633      2.671      8.100
REMARK  8 active torsions:
REMARK  status: ('A' for Active; 'I' for Inactive)
REMARK       I    between atoms: N1_2  and  C2_4 
REMARK       I    between atoms: C2_4  and  N2_6 
REMARK    1  A    between atoms: N2_6  and  C3_8 
REMARK    2  A    between atoms: C3_8  and  C4_9 
REMARK    3  A    between atoms: C4_9  and  C5_10 
REMARK    4  A    between atoms: C9_20  and  C10_21 
REMARK    5  A    between atoms: C10_21  and  C11_22 
REMARK    6  A    between atoms: C15_28  and  C16_29 
REMARK    7  A    between atoms: C19_32  and  C20_33 
REMARK    8  A    between atoms: C20_33  and  O6_34 
ROOT
HETATM    1  C5  UNL     1     -69.544  10.528  12.109  1.00  0.00     0.112 C 
HETATM    2  C6  UNL     1     -68.489   9.555  11.910  1.00  0.00     0.225 C 
HETATM    3  O2  UNL     1     -68.917   8.351  11.878  1.00  0.00    -0.273 OA
HETATM    4  N3  UNL     1     -67.111   9.794  11.757  1.00  0.00    -0.344 N 
ATOM      5  H3  UNL     1     -66.548   9.081  12.221  1.00  0.00     0.163 HD
HETATM    6  C7  UNL     1     -66.300  10.779  11.119  1.00  0.00     0.207 C 
HETATM    7  C8  UNL     1     -66.272  10.422   9.701  1.00  0.00     0.245 C 
HETATM    8  O3  UNL     1     -67.406  10.391   9.095  1.00  0.00    -0.271 OA
HETATM    9  N4  UNL     1     -65.176  10.106   8.907  1.00  0.00    -0.345 N 
ATOM     10  H4  UNL     1     -65.404   9.769   7.971  1.00  0.00     0.163 HD
HETATM   11  C9  UNL     1     -63.761  10.181   9.199  1.00  0.00     0.184 C 
HETATM   12  C14 UNL     1     -63.386  11.259  10.145  1.00  0.00     0.282 C 
HETATM   13  O4  UNL     1     -62.340  10.959  10.839  1.00  0.00    -0.263 OA
HETATM   14  O5  UNL     1     -64.029  12.347  10.253  1.00  0.00    -0.313 OA
HETATM   15  C15 UNL     1     -64.780  13.430  10.265  1.00  0.00     0.145 C 
HETATM   16  C19 UNL     1     -66.315  13.119  10.259  1.00  0.00     0.071 C 
HETATM   17  C21 UNL     1     -66.594  12.241  11.419  1.00  0.00    -0.035 C 
HETATM   18  C22 UNL     1     -67.795  12.291  12.220  1.00  0.00    -0.043 C 
HETATM   19  C23 UNL     1     -68.031  13.408  13.174  1.00  0.00     0.063 C 
HETATM   20  C24 UNL     1     -69.474  13.096  13.579  1.00  0.00     0.173 C 
HETATM   21  O7  UNL     1     -70.052  12.765  12.361  1.00  0.00    -0.380 OA
HETATM   22  C25 UNL     1     -69.118  11.942  11.683  1.00  0.00     0.163 C 
ENDROOT
BRANCH   1  23
HETATM   23  C4  UNL     1     -70.888  10.158  11.527  1.00  0.00     0.036 C 
BRANCH  23  24
HETATM   24  C3  UNL     1     -71.932   9.848  12.537  1.00  0.00     0.125 C 
BRANCH  24  25
HETATM   25  N2  UNL     1     -71.920   8.433  12.825  1.00  0.00    -0.343 N 
HETATM   26  C2  UNL     1     -71.378   7.833  13.986  1.00  0.00     0.315 C 
HETATM   27  N1  UNL     1     -71.453   6.430  14.130  1.00  0.00    -0.347 N 
HETATM   28  O1  UNL     1     -70.845   8.528  14.861  1.00  0.00    -0.247 OA
HETATM   29  C1  UNL     1     -70.932   5.704  15.270  1.00  0.00     0.151 C 
ATOM     30  H1  UNL     1     -71.902   5.896  13.386  1.00  0.00     0.163 HD
ATOM     31  H2  UNL     1     -72.338   7.813  12.132  1.00  0.00     0.164 HD
ENDBRANCH  24  25
ENDBRANCH  23  24
ENDBRANCH   1  23
BRANCH  16  32
HETATM   32  C20 UNL     1     -66.970  14.420  10.116  1.00  0.00     0.175 C 
BRANCH  32  33
HETATM   33  O6  UNL     1     -66.782  15.385  11.093  1.00  0.00    -0.400 OA
ATOM     34  H6  UNL     1     -66.514  15.118  11.965  1.00  0.00     0.209 HD
ENDBRANCH  32  33
ENDBRANCH  16  32
BRANCH  15  35
HETATM   35  C16 UNL     1     -64.421  14.530   9.304  1.00  0.00     0.008 C 
HETATM   36  C17 UNL     1     -64.093  14.101   7.923  1.00  0.00     0.012 C 
HETATM   37  C18 UNL     1     -63.104  15.212   9.789  1.00  0.00     0.012 C 
ENDBRANCH  15  35
BRANCH  11  38
HETATM   38  C10 UNL     1     -62.969  10.388   7.935  1.00  0.00     0.039 C 
BRANCH  38  39
HETATM   39  C11 UNL     1     -61.538  10.744   8.105  1.00  0.00    -0.020 C 
HETATM   40  C12 UNL     1     -61.148  11.919   7.196  1.00  0.00     0.009 C 
HETATM   41  C13 UNL     1     -60.611   9.607   7.769  1.00  0.00     0.009 C 
ENDBRANCH  38  39
ENDBRANCH  11  38
TORSDOF 8
ENDMDL
MODEL 5
REMARK VINA RESULT: -7.626192111      2.751      7.977
REMARK  8 active torsions:
REMARK  status: ('A' for Active; 'I' for Inactive)
REMARK       I    between atoms: N1_2  and  C2_4 
REMARK       I    between atoms: C2_4  and  N2_6 
REMARK    1  A    between atoms: N2_6  and  C3_8 
REMARK    2  A    between atoms: C3_8  and  C4_9 
REMARK    3  A    between atoms: C4_9  and  C5_10 
REMARK    4  A    between atoms: C9_20  and  C10_21 
REMARK    5  A    between atoms: C10_21  and  C11_22 
REMARK    6  A    between atoms: C15_28  and  C16_29 
REMARK    7  A    between atoms: C19_32  and  C20_33 
REMARK    8  A    between atoms: C20_33  and  O6_34 
ROOT
HETATM    1  C5  UNL     1     -69.672  11.587  12.309  1.00  0.00     0.112 C 
HETATM    2  C6  UNL     1     -68.524  12.443  12.527  1.00  0.00     0.225 C 
HETATM    3  O2  UNL     1     -68.330  12.715  13.761  1.00  0.00    -0.273 OA
HETATM    4  N3  UNL     1     -67.648  12.976  11.565  1.00  0.00    -0.344 N 
ATOM      5  H3  UNL     1     -67.359  13.926  11.798  1.00  0.00     0.163 HD
HETATM    6  C7  UNL     1     -67.059  12.527  10.346  1.00  0.00     0.207 C 
HETATM    7  C8  UNL     1     -65.929  11.681  10.730  1.00  0.00     0.245 C 
HETATM    8  O3  UNL     1     -66.204  10.646  11.440  1.00  0.00    -0.271 OA
HETATM    9  N4  UNL     1     -64.581  11.844  10.430  1.00  0.00    -0.345 N 
ATOM     10  H4  UNL     1     -63.953  11.197  10.907  1.00  0.00     0.163 HD
HETATM   11  C9  UNL     1     -63.931  12.788   9.548  1.00  0.00     0.184 C 
HETATM   12  C14 UNL     1     -64.745  13.198   8.378  1.00  0.00     0.282 C 
HETATM   13  O4  UNL     1     -64.466  14.394   7.983  1.00  0.00    -0.263 OA
HETATM   14  O5  UNL     1     -65.616  12.450   7.839  1.00  0.00    -0.313 OA
HETATM   15  C15 UNL     1     -66.486  11.577   7.372  1.00  0.00     0.145 C 
HETATM   16  C19 UNL     1     -67.325  10.876   8.495  1.00  0.00     0.071 C 
HETATM   17  C21 UNL     1     -67.982  11.941   9.287  1.00  0.00    -0.035 C 
HETATM   18  C22 UNL     1     -69.303  11.843   9.864  1.00  0.00    -0.043 C 
HETATM   19  C23 UNL     1     -70.518  11.910   9.007  1.00  0.00     0.063 C 
HETATM   20  C24 UNL     1     -71.583  11.554  10.047  1.00  0.00     0.173 C 
HETATM   21  O7  UNL     1     -70.978  10.512  10.738  1.00  0.00    -0.380 OA
HETATM   22  C25 UNL     1     -69.627  10.894  10.937  1.00  0.00     0.163 C 
ENDROOT
BRANCH   1  23
HETATM   23  C4  UNL     1     -69.971  10.604  13.415  1.00  0.00     0.036 C 
BRANCH  23  24
HETATM   24  C3  UNL     1     -69.189   9.343  13.347  1.00  0.00     0.125 C 
BRANCH  24  25
HETATM   25  N2  UNL     1     -70.090   8.215  13.360  1.00  0.00    -0.343 N 
HETATM   26  C2  UNL     1     -70.301   7.316  12.289  1.00  0.00     0.315 C 
HETATM   27  N1  UNL     1     -71.210   6.249  12.460  1.00  0.00    -0.347 N 
HETATM   28  O1  UNL     1     -69.697   7.463  11.217  1.00  0.00    -0.247 OA
HETATM   29  C1  UNL     1     -71.510   5.269  11.436  1.00  0.00     0.151 C 
ATOM     30  H1  UNL     1     -71.685   6.163  13.359  1.00  0.00     0.163 HD
ATOM     31  H2  UNL     1     -70.621   8.052  14.216  1.00  0.00     0.164 HD
ENDBRANCH  24  25
ENDBRANCH  23  24
ENDBRANCH   1  23
BRANCH  16  32
HETATM   32  C20 UNL     1     -68.107   9.849   7.806  1.00  0.00     0.175 C 
BRANCH  32  33
HETATM   33  O6  UNL     1     -68.448   8.689   8.483  1.00  0.00    -0.400 OA
ATOM     34  H6  UNL     1     -68.250   7.846   8.091  1.00  0.00     0.209 HD
ENDBRANCH  32  33
ENDBRANCH  16  32
BRANCH  15  35
HETATM   35  C16 UNL     1     -65.997  10.600   6.338  1.00  0.00     0.008 C 
HETATM   36  C17 UNL     1     -64.536  10.351   6.323  1.00  0.00     0.012 C 
HETATM   37  C18 UNL     1     -66.274  11.189   4.920  1.00  0.00     0.012 C 
ENDBRANCH  15  35
BRANCH  11  38
HETATM   38  C10 UNL     1     -62.637  12.221   9.026  1.00  0.00     0.039 C 
BRANCH  38  39
HETATM   39  C11 UNL     1     -62.158  10.972   9.669  1.00  0.00    -0.020 C 
HETATM   40  C12 UNL     1     -60.987  11.256  10.624  1.00  0.00     0.009 C 
HETATM   41  C13 UNL     1     -61.670   9.954   8.673  1.00  0.00     0.009 C 
ENDBRANCH  38  39
ENDBRANCH  11  38
TORSDOF 8
ENDMDL
