MODEL 1
REMARK VINA RESULT: -6.425573956      0.000      0.000
REMARK  10 active torsions:
REMARK  status: ('A' for Active; 'I' for Inactive)
REMARK    1  A    between atoms: C2_2  and  C3_3 
REMARK    2  A    between atoms: C3_3  and  C4_4 
REMARK    3  A    between atoms: C5_5  and  C6_6 
REMARK    4  A    between atoms: C8_10  and  C9_11 
REMARK    5  A    between atoms: C12_16  and  O3_17 
REMARK    6  A    between atoms: C13_19  and  C14_20 
REMARK    7  A    between atoms: C14_20  and  C15_21 
REMARK    8  A    between atoms: C15_21  and  C16_22 
REMARK    9  A    between atoms: C22_34  and  O6_35 
REMARK   10  A    between atoms: C23_37  and  C24_38 
REMARK       I    between atoms: C24_38  and  N4_40 
ROOT
HETATM    1  C6  UNL     1     -70.373  10.155  10.738  1.00  0.00     0.170 C 
HETATM    2  O1  UNL     1     -69.538   9.175  10.232  1.00  0.00    -0.309 OA
HETATM    3  C7  UNL     1     -69.324   8.670   8.993  1.00  0.00     0.282 C 
HETATM    4  O2  UNL     1     -69.838   7.622   8.562  1.00  0.00    -0.263 OA
HETATM    5  C8  UNL     1     -68.390   9.382   7.987  1.00  0.00     0.186 C 
HETATM    6  N1  UNL     1     -67.340   9.905   8.784  1.00  0.00    -0.359 N 
ATOM      7  H1  UNL     1     -67.660  10.064   9.740  1.00  0.00     0.162 HD
HETATM    8  C12 UNL     1     -66.004  10.264   8.650  1.00  0.00     0.135 C 
HETATM    9  C13 UNL     1     -65.294  11.134   7.723  1.00  0.00     0.159 C 
HETATM   10  N2  UNL     1     -64.309  11.954   8.508  1.00  0.00    -0.347 N 
ATOM     11  H2  UNL     1     -63.330  11.981   8.222  1.00  0.00     0.163 HD
HETATM   12  C18 UNL     1     -64.731  12.684   9.635  1.00  0.00     0.240 C 
HETATM   13  O4  UNL     1     -63.861  13.103  10.438  1.00  0.00    -0.271 OA
HETATM   14  C19 UNL     1     -66.124  13.038  10.013  1.00  0.00     0.172 C 
HETATM   15  C20 UNL     1     -66.102  14.564  10.208  1.00  0.00     0.042 C 
HETATM   16  N3  UNL     1     -66.542  12.493  11.272  1.00  0.00    -0.346 N 
ATOM     17  H3  UNL     1     -65.812  12.016  11.801  1.00  0.00     0.163 HD
HETATM   18  C21 UNL     1     -67.787  12.514  11.881  1.00  0.00     0.248 C 
HETATM   19  O5  UNL     1     -67.797  12.765  13.142  1.00  0.00    -0.271 OA
HETATM   20  C22 UNL     1     -69.123  12.292  11.304  1.00  0.00     0.225 C 
HETATM   21  C23 UNL     1     -69.781  11.022  11.827  1.00  0.00     0.149 C 
ENDROOT
BRANCH   1  22
HETATM   22  C5  UNL     1     -71.520   9.428  11.420  1.00  0.00     0.002 C 
HETATM   23  C4  UNL     1     -71.359   8.157  11.783  1.00  0.00    -0.028 C 
BRANCH  23  24
HETATM   24  C3  UNL     1     -72.424   7.375  12.453  1.00  0.00     0.026 C 
BRANCH  24  25
HETATM   25  C2  UNL     1     -72.521   5.961  11.914  1.00  0.00    -0.001 C 
HETATM   26  C1  UNL     1     -71.262   5.588  11.151  1.00  0.00     0.005 C 
ENDBRANCH  24  25
ENDBRANCH  23  24
ENDBRANCH   1  22
BRANCH  21  27
HETATM   27  C24 UNL     1     -70.901  11.445  12.705  1.00  0.00     0.227 C 
HETATM   28  O7  UNL     1     -71.983  11.806  12.220  1.00  0.00    -0.273 OA
HETATM   29  N4  UNL     1     -70.716  11.428  14.102  1.00  0.00    -0.365 N 
HETATM   30  C25 UNL     1     -71.810  11.840  14.996  1.00  0.00     0.149 C 
ATOM     31  H4  UNL     1     -69.823  11.131  14.494  1.00  0.00     0.161 HD
ENDBRANCH  21  27
BRANCH  20  32
HETATM   32  O6  UNL     1     -69.880  13.436  11.627  1.00  0.00    -0.385 OA
ATOM     33  H6  UNL     1     -69.906  13.963  10.837  1.00  0.00     0.210 HD
ENDBRANCH  20  32
BRANCH   5  34
HETATM   34  C9  UNL     1     -69.297  10.426   7.336  1.00  0.00     0.010 C 
HETATM   35  C10 UNL     1     -69.249  10.053   5.834  1.00  0.00     0.012 C 
HETATM   36  C11 UNL     1     -68.657  11.803   7.369  1.00  0.00     0.012 C 
ENDBRANCH   5  34
BRANCH   8  37
HETATM   37  O3  UNL     1     -65.138   9.759   9.511  1.00  0.00    -0.348 OA
ATOM     38  H3  UNL     1     -64.223   9.733   9.257  1.00  0.00     0.219 HD
ENDBRANCH   8  37
BRANCH   9  39
HETATM   39  C14 UNL     1     -64.785  10.581   6.502  1.00  0.00     0.033 C 
BRANCH  39  40
HETATM   40  C15 UNL     1     -65.521  10.242   5.291  1.00  0.00     0.002 C 
BRANCH  40  41
HETATM   41  C16 UNL     1     -66.205  11.299   4.496  1.00  0.00    -0.004 C 
HETATM   42  C17 UNL     1     -66.596  10.613   3.160  1.00  0.00     0.005 C 
ENDBRANCH  40  41
ENDBRANCH  39  40
ENDBRANCH   9  39
TORSDOF 10
ENDMDL
MODEL 2
REMARK VINA RESULT: -6.134232827      2.667      7.638
REMARK  10 active torsions:
REMARK  status: ('A' for Active; 'I' for Inactive)
REMARK    1  A    between atoms: C2_2  and  C3_3 
REMARK    2  A    between atoms: C3_3  and  C4_4 
REMARK    3  A    between atoms: C5_5  and  C6_6 
REMARK    4  A    between atoms: C8_10  and  C9_11 
REMARK    5  A    between atoms: C12_16  and  O3_17 
REMARK    6  A    between atoms: C13_19  and  C14_20 
REMARK    7  A    between atoms: C14_20  and  C15_21 
REMARK    8  A    between atoms: C15_21  and  C16_22 
REMARK    9  A    between atoms: C22_34  and  O6_35 
REMARK   10  A    between atoms: C23_37  and  C24_38 
REMARK       I    between atoms: C24_38  and  N4_40 
ROOT
HETATM    1  C6  UNL     1     -65.308  12.460   9.447  1.00  0.00     0.170 C 
HETATM    2  O1  UNL     1     -65.456  11.125   9.778  1.00  0.00    -0.309 OA
HETATM    3  C7  UNL     1     -65.883  10.473  10.886  1.00  0.00     0.282 C 
HETATM    4  O2  UNL     1     -65.131   9.995  11.754  1.00  0.00    -0.263 OA
HETATM    5  C8  UNL     1     -67.389  10.267  11.165  1.00  0.00     0.186 C 
HETATM    6  N1  UNL     1     -67.961  10.042   9.887  1.00  0.00    -0.359 N 
ATOM      7  H1  UNL     1     -67.394  10.478   9.159  1.00  0.00     0.162 HD
HETATM    8  C12 UNL     1     -69.064   9.404   9.331  1.00  0.00     0.135 C 
HETATM    9  C13 UNL     1     -70.493   9.471   9.596  1.00  0.00     0.159 C 
HETATM   10  N2  UNL     1     -71.216   9.508   8.279  1.00  0.00    -0.347 N 
ATOM     11  H2  UNL     1     -71.969   8.845   8.095  1.00  0.00     0.163 HD
HETATM   12  C18 UNL     1     -70.858  10.452   7.299  1.00  0.00     0.240 C 
HETATM   13  O4  UNL     1     -71.252  10.271   6.120  1.00  0.00    -0.271 OA
HETATM   14  C19 UNL     1     -70.044  11.682   7.483  1.00  0.00     0.172 C 
HETATM   15  C20 UNL     1     -70.910  12.816   6.907  1.00  0.00     0.042 C 
HETATM   16  N3  UNL     1     -68.830  11.697   6.719  1.00  0.00    -0.346 N 
ATOM     17  H3  UNL     1     -68.717  10.917   6.071  1.00  0.00     0.163 HD
HETATM   18  C21 UNL     1     -67.785  12.608   6.726  1.00  0.00     0.248 C 
HETATM   19  O5  UNL     1     -67.314  12.939   5.577  1.00  0.00    -0.271 OA
HETATM   20  C22 UNL     1     -67.118  13.269   7.860  1.00  0.00     0.225 C 
HETATM   21  C23 UNL     1     -65.671  12.827   8.024  1.00  0.00     0.149 C 
ENDROOT
BRANCH   1  22
HETATM   22  C5  UNL     1     -63.822  12.761   9.544  1.00  0.00     0.002 C 
HETATM   23  C4  UNL     1     -62.951  11.755   9.495  1.00  0.00    -0.028 C 
BRANCH  23  24
HETATM   24  C3  UNL     1     -61.486  11.961   9.581  1.00  0.00     0.026 C 
BRANCH  24  25
HETATM   25  C2  UNL     1     -60.852  11.109  10.665  1.00  0.00    -0.001 C 
HETATM   26  C1  UNL     1     -59.385  10.859  10.364  1.00  0.00     0.005 C 
ENDBRANCH  24  25
ENDBRANCH  23  24
ENDBRANCH   1  22
BRANCH  21  27
HETATM   27  C24 UNL     1     -64.819  13.981   7.641  1.00  0.00     0.227 C 
HETATM   28  O7  UNL     1     -64.631  14.918   8.430  1.00  0.00    -0.273 OA
HETATM   29  N4  UNL     1     -64.225  13.995   6.363  1.00  0.00    -0.365 N 
HETATM   30  C25 UNL     1     -63.374  15.125   5.958  1.00  0.00     0.149 C 
ATOM     31  H4  UNL     1     -64.385  13.221   5.718  1.00  0.00     0.161 HD
ENDBRANCH  21  27
BRANCH  20  32
HETATM   32  O6  UNL     1     -67.210  14.653   7.611  1.00  0.00    -0.385 OA
ATOM     33  H6  UNL     1     -66.735  14.805   6.803  1.00  0.00     0.210 HD
ENDBRANCH  20  32
BRANCH   5  34
HETATM   34  C9  UNL     1     -67.808  11.569  11.847  1.00  0.00     0.010 C 
HETATM   35  C10 UNL     1     -68.836  11.103  12.907  1.00  0.00     0.012 C 
HETATM   36  C11 UNL     1     -68.642  12.431  10.915  1.00  0.00     0.012 C 
ENDBRANCH   5  34
BRANCH   8  37
HETATM   37  O3  UNL     1     -68.852   8.549   8.345  1.00  0.00    -0.348 OA
ATOM     38  H3  UNL     1     -68.784   7.627   8.563  1.00  0.00     0.219 HD
ENDBRANCH   8  37
BRANCH   9  39
HETATM   39  C14 UNL     1     -71.061   8.590  10.574  1.00  0.00     0.033 C 
BRANCH  39  40
HETATM   40  C15 UNL     1     -70.388   7.564  11.361  1.00  0.00     0.002 C 
BRANCH  40  41
HETATM   41  C16 UNL     1     -70.217   6.185  10.825  1.00  0.00    -0.004 C 
HETATM   42  C17 UNL     1     -70.972   5.265  11.822  1.00  0.00     0.005 C 
ENDBRANCH  40  41
ENDBRANCH  39  40
ENDBRANCH   9  39
TORSDOF 10
ENDMDL
MODEL 3
REMARK VINA RESULT: -6.092585164      2.300      7.868
REMARK  10 active torsions:
REMARK  status: ('A' for Active; 'I' for Inactive)
REMARK    1  A    between atoms: C2_2  and  C3_3 
REMARK    2  A    between atoms: C3_3  and  C4_4 
REMARK    3  A    between atoms: C5_5  and  C6_6 
REMARK    4  A    between atoms: C8_10  and  C9_11 
REMARK    5  A    between atoms: C12_16  and  O3_17 
REMARK    6  A    between atoms: C13_19  and  C14_20 
REMARK    7  A    between atoms: C14_20  and  C15_21 
REMARK    8  A    between atoms: C15_21  and  C16_22 
REMARK    9  A    between atoms: C22_34  and  O6_35 
REMARK   10  A    between atoms: C23_37  and  C24_38 
REMARK       I    between atoms: C24_38  and  N4_40 
ROOT
HETATM    1  C6  UNL     1     -67.510  13.015  10.091  1.00  0.00     0.170 C 
HETATM    2  O1  UNL     1     -67.365  12.405  11.325  1.00  0.00    -0.309 OA
HETATM    3  C7  UNL     1     -68.043  12.478  12.495  1.00  0.00     0.282 C 
HETATM    4  O2  UNL     1     -67.701  13.181  13.463  1.00  0.00    -0.263 OA
HETATM    5  C8  UNL     1     -69.338  11.665  12.724  1.00  0.00     0.186 C 
HETATM    6  N1  UNL     1     -69.109  10.435  12.057  1.00  0.00    -0.359 N 
ATOM      7  H1  UNL     1     -68.433  10.556  11.302  1.00  0.00     0.162 HD
HETATM    8  C12 UNL     1     -69.531   9.112  12.127  1.00  0.00     0.135 C 
HETATM    9  C13 UNL     1     -70.844   8.485  12.140  1.00  0.00     0.159 C 
HETATM   10  N2  UNL     1     -70.803   7.285  11.236  1.00  0.00    -0.347 N 
ATOM     11  H2  UNL     1     -71.114   6.377  11.582  1.00  0.00     0.163 HD
HETATM   12  C18 UNL     1     -70.336   7.409   9.914  1.00  0.00     0.240 C 
HETATM   13  O4  UNL     1     -70.025   6.365   9.287  1.00  0.00    -0.271 OA
HETATM   14  C19 UNL     1     -70.157   8.660   9.131  1.00  0.00     0.172 C 
HETATM   15  C20 UNL     1     -70.943   8.426   7.830  1.00  0.00     0.042 C 
HETATM   16  N3  UNL     1     -68.803   8.905   8.726  1.00  0.00    -0.346 N 
ATOM     17  H3  UNL     1     -68.147   8.151   8.934  1.00  0.00     0.163 HD
HETATM   18  C21 UNL     1     -68.248  10.008   8.097  1.00  0.00     0.248 C 
HETATM   19  O5  UNL     1     -67.411   9.761   7.153  1.00  0.00    -0.271 OA
HETATM   20  C22 UNL     1     -68.468  11.443   8.342  1.00  0.00     0.225 C 
HETATM   21  C23 UNL     1     -67.230  12.139   8.890  1.00  0.00     0.149 C 
ENDROOT
BRANCH   1  22
HETATM   22  C5  UNL     1     -66.445  14.097  10.023  1.00  0.00     0.002 C 
HETATM   23  C4  UNL     1     -65.244  13.859  10.545  1.00  0.00    -0.028 C 
BRANCH  23  24
HETATM   24  C3  UNL     1     -64.149  14.858  10.520  1.00  0.00     0.026 C 
BRANCH  24  25
HETATM   25  C2  UNL     1     -63.122  14.553   9.446  1.00  0.00    -0.001 C 
HETATM   26  C1  UNL     1     -62.760  13.078   9.449  1.00  0.00     0.005 C 
ENDBRANCH  24  25
ENDBRANCH  23  24
ENDBRANCH   1  22
BRANCH  21  27
HETATM   27  C24 UNL     1     -66.720  13.026   7.814  1.00  0.00     0.227 C 
HETATM   28  O7  UNL     1     -67.262  14.116   7.582  1.00  0.00    -0.273 OA
HETATM   29  N4  UNL     1     -65.606  12.608   7.058  1.00  0.00    -0.365 N 
HETATM   30  C25 UNL     1     -65.078  13.468   5.986  1.00  0.00     0.149 C 
ATOM     31  H4  UNL     1     -65.166  11.709   7.253  1.00  0.00     0.161 HD
ENDBRANCH  21  27
BRANCH  20  32
HETATM   32  O6  UNL     1     -68.864  11.991   7.105  1.00  0.00    -0.385 OA
ATOM     33  H6  UNL     1     -69.792  11.809   7.024  1.00  0.00     0.210 HD
ENDBRANCH  20  32
BRANCH   5  34
HETATM   34  C9  UNL     1     -70.426  12.547  12.112  1.00  0.00     0.010 C 
HETATM   35  C10 UNL     1     -71.608  12.392  13.099  1.00  0.00     0.012 C 
HETATM   36  C11 UNL     1     -70.967  11.936  10.830  1.00  0.00     0.012 C 
ENDBRANCH   5  34
BRANCH   8  37
HETATM   37  O3  UNL     1     -68.606   8.170  12.186  1.00  0.00    -0.348 OA
ATOM     38  H3  UNL     1     -68.333   7.869  13.045  1.00  0.00     0.219 HD
ENDBRANCH   8  37
BRANCH   9  39
HETATM   39  C14 UNL     1     -71.500   8.272  13.398  1.00  0.00     0.033 C 
BRANCH  39  40
HETATM   40  C15 UNL     1     -70.928   7.762  14.637  1.00  0.00     0.002 C 
BRANCH  40  41
HETATM   41  C16 UNL     1     -70.409   6.369  14.719  1.00  0.00    -0.004 C 
HETATM   42  C17 UNL     1     -71.610   5.464  14.338  1.00  0.00     0.005 C 
ENDBRANCH  40  41
ENDBRANCH  39  40
ENDBRANCH   9  39
TORSDOF 10
ENDMDL
MODEL 4
REMARK VINA RESULT: -6.085608513      2.536      5.207
REMARK  10 active torsions:
REMARK  status: ('A' for Active; 'I' for Inactive)
REMARK    1  A    between atoms: C2_2  and  C3_3 
REMARK    2  A    between atoms: C3_3  and  C4_4 
REMARK    3  A    between atoms: C5_5  and  C6_6 
REMARK    4  A    between atoms: C8_10  and  C9_11 
REMARK    5  A    between atoms: C12_16  and  O3_17 
REMARK    6  A    between atoms: C13_19  and  C14_20 
REMARK    7  A    between atoms: C14_20  and  C15_21 
REMARK    8  A    between atoms: C15_21  and  C16_22 
REMARK    9  A    between atoms: C22_34  and  O6_35 
REMARK   10  A    between atoms: C23_37  and  C24_38 
REMARK       I    between atoms: C24_38  and  N4_40 
ROOT
HETATM    1  C6  UNL     1     -68.556   9.977  10.038  1.00  0.00     0.170 C 
HETATM    2  O1  UNL     1     -68.141  11.258  10.356  1.00  0.00    -0.309 OA
HETATM    3  C7  UNL     1     -66.994  11.779  10.854  1.00  0.00     0.282 C 
HETATM    4  O2  UNL     1     -66.811  12.058  12.052  1.00  0.00    -0.263 OA
HETATM    5  C8  UNL     1     -65.784  12.076   9.938  1.00  0.00     0.186 C 
HETATM    6  N1  UNL     1     -66.359  12.533   8.725  1.00  0.00    -0.359 N 
ATOM      7  H1  UNL     1     -67.301  12.157   8.611  1.00  0.00     0.162 HD
HETATM    8  C12 UNL     1     -66.020  13.340   7.645  1.00  0.00     0.135 C 
HETATM    9  C13 UNL     1     -64.885  13.362   6.734  1.00  0.00     0.159 C 
HETATM   10  N2  UNL     1     -65.403  13.580   5.341  1.00  0.00    -0.347 N 
ATOM     11  H2  UNL     1     -65.013  14.327   4.766  1.00  0.00     0.163 HD
HETATM   12  C18 UNL     1     -66.424  12.760   4.826  1.00  0.00     0.240 C 
HETATM   13  O4  UNL     1     -67.043  13.143   3.802  1.00  0.00    -0.271 OA
HETATM   14  C19 UNL     1     -66.883  11.449   5.355  1.00  0.00     0.172 C 
HETATM   15  C20 UNL     1     -66.805  10.491   4.153  1.00  0.00     0.042 C 
HETATM   16  N3  UNL     1     -68.256  11.436   5.771  1.00  0.00    -0.346 N 
ATOM     17  H3  UNL     1     -68.777  12.288   5.565  1.00  0.00     0.163 HD
HETATM   18  C21 UNL     1     -68.983  10.445   6.410  1.00  0.00     0.248 C 
HETATM   19  O5  UNL     1     -70.174  10.243   5.971  1.00  0.00    -0.271 OA
HETATM   20  C22 UNL     1     -68.602   9.570   7.532  1.00  0.00     0.225 C 
HETATM   21  C23 UNL     1     -69.407   9.854   8.792  1.00  0.00     0.149 C 
ENDROOT
BRANCH   1  22
HETATM   22  C5  UNL     1     -69.474   9.534  11.164  1.00  0.00     0.002 C 
HETATM   23  C4  UNL     1     -68.943   9.166  12.328  1.00  0.00    -0.028 C 
BRANCH  23  24
HETATM   24  C3  UNL     1     -69.766   8.722  13.478  1.00  0.00     0.026 C 
BRANCH  24  25
HETATM   25  C2  UNL     1     -70.403   7.367  13.236  1.00  0.00    -0.001 C 
HETATM   26  C1  UNL     1     -70.347   6.513  14.490  1.00  0.00     0.005 C 
ENDBRANCH  24  25
ENDBRANCH  23  24
ENDBRANCH   1  22
BRANCH  21  27
HETATM   27  C24 UNL     1     -70.313   8.696   8.997  1.00  0.00     0.227 C 
HETATM   28  O7  UNL     1     -71.525   8.792   8.759  1.00  0.00    -0.273 OA
HETATM   29  N4  UNL     1     -69.773   7.482   9.467  1.00  0.00    -0.365 N 
HETATM   30  C25 UNL     1     -70.648   6.318   9.677  1.00  0.00     0.149 C 
ATOM     31  H4  UNL     1     -68.774   7.411   9.662  1.00  0.00     0.161 HD
ENDBRANCH  21  27
BRANCH  20  32
HETATM   32  O6  UNL     1     -68.799   8.250   7.078  1.00  0.00    -0.385 OA
ATOM     33  H6  UNL     1     -68.244   7.702   7.620  1.00  0.00     0.210 HD
ENDBRANCH  20  32
BRANCH   5  34
HETATM   34  C9  UNL     1     -65.062  10.731   9.853  1.00  0.00     0.010 C 
HETATM   35  C10 UNL     1     -63.567  11.123   9.926  1.00  0.00     0.012 C 
HETATM   36  C11 UNL     1     -65.192  10.129   8.464  1.00  0.00     0.012 C 
ENDBRANCH   5  34
BRANCH   8  37
HETATM   37  O3  UNL     1     -66.858  14.305   7.308  1.00  0.00    -0.348 OA
ATOM     38  H3  UNL     1     -66.647  14.829   6.544  1.00  0.00     0.219 HD
ENDBRANCH   8  37
BRANCH   9  39
HETATM   39  C14 UNL     1     -63.731  14.140   7.081  1.00  0.00     0.033 C 
BRANCH  39  40
HETATM   40  C15 UNL     1     -63.577  15.081   8.182  1.00  0.00     0.002 C 
BRANCH  40  41
HETATM   41  C16 UNL     1     -63.027  14.635   9.492  1.00  0.00    -0.004 C 
HETATM   42  C17 UNL     1     -64.165  14.886  10.517  1.00  0.00     0.005 C 
ENDBRANCH  40  41
ENDBRANCH  39  40
ENDBRANCH   9  39
TORSDOF 10
ENDMDL
MODEL 5
REMARK VINA RESULT: -6.079665677      2.602      8.059
REMARK  10 active torsions:
REMARK  status: ('A' for Active; 'I' for Inactive)
REMARK    1  A    between atoms: C2_2  and  C3_3 
REMARK    2  A    between atoms: C3_3  and  C4_4 
REMARK    3  A    between atoms: C5_5  and  C6_6 
REMARK    4  A    between atoms: C8_10  and  C9_11 
REMARK    5  A    between atoms: C12_16  and  O3_17 
REMARK    6  A    between atoms: C13_19  and  C14_20 
REMARK    7  A    between atoms: C14_20  and  C15_21 
REMARK    8  A    between atoms: C15_21  and  C16_22 
REMARK    9  A    between atoms: C22_34  and  O6_35 
REMARK   10  A    between atoms: C23_37  and  C24_38 
REMARK       I    between atoms: C24_38  and  N4_40 
ROOT
HETATM    1  C6  UNL     1     -67.000  10.946   8.571  1.00  0.00     0.170 C 
HETATM    2  O1  UNL     1     -66.701  10.255   9.732  1.00  0.00    -0.309 OA
HETATM    3  C7  UNL     1     -66.732  10.572  11.049  1.00  0.00     0.282 C 
HETATM    4  O2  UNL     1     -65.740  10.930  11.709  1.00  0.00    -0.263 OA
HETATM    5  C8  UNL     1     -68.047  10.508  11.859  1.00  0.00     0.186 C 
HETATM    6  N1  UNL     1     -68.735   9.384  11.333  1.00  0.00    -0.359 N 
ATOM      7  H1  UNL     1     -68.447   9.205  10.371  1.00  0.00     0.162 HD
HETATM    8  C12 UNL     1     -69.684   8.454  11.740  1.00  0.00     0.135 C 
HETATM    9  C13 UNL     1     -71.008   8.575  12.333  1.00  0.00     0.159 C 
HETATM   10  N2  UNL     1     -71.920   7.591  11.657  1.00  0.00    -0.347 N 
ATOM     11  H2  UNL     1     -72.471   6.941  12.218  1.00  0.00     0.163 HD
HETATM   12  C18 UNL     1     -72.017   7.562  10.253  1.00  0.00     0.240 C 
HETATM   13  O4  UNL     1     -72.533   6.554   9.708  1.00  0.00    -0.271 OA
HETATM   14  C19 UNL     1     -71.571   8.606   9.294  1.00  0.00     0.172 C 
HETATM   15  C20 UNL     1     -72.810   8.900   8.429  1.00  0.00     0.042 C 
HETATM   16  N3  UNL     1     -70.558   8.165   8.380  1.00  0.00    -0.346 N 
ATOM     17  H3  UNL     1     -70.336   7.171   8.429  1.00  0.00     0.163 HD
HETATM   18  C21 UNL     1     -69.833   8.881   7.441  1.00  0.00     0.248 C 
HETATM   19  O5  UNL     1     -69.675   8.319   6.297  1.00  0.00    -0.271 OA
HETATM   20  C22 UNL     1     -69.204  10.209   7.548  1.00  0.00     0.225 C 
HETATM   21  C23 UNL     1     -67.684  10.142   7.487  1.00  0.00     0.149 C 
ENDROOT
BRANCH   1  22
HETATM   22  C5  UNL     1     -65.669  11.345   7.957  1.00  0.00     0.002 C 
HETATM   23  C4  UNL     1     -64.592  10.601   8.203  1.00  0.00    -0.028 C 
BRANCH  23  24
HETATM   24  C3  UNL     1     -63.256  10.918   7.644  1.00  0.00     0.026 C 
BRANCH  24  25
HETATM   25  C2  UNL     1     -62.176  10.005   8.191  1.00  0.00    -0.001 C 
HETATM   26  C1  UNL     1     -62.220   9.967   9.708  1.00  0.00     0.005 C 
ENDBRANCH  24  25
ENDBRANCH  23  24
ENDBRANCH   1  22
BRANCH  21  27
HETATM   27  C24 UNL     1     -67.276  10.728   6.186  1.00  0.00     0.227 C 
HETATM   28  O7  UNL     1     -67.119  11.952   6.065  1.00  0.00    -0.273 OA
HETATM   29  N4  UNL     1     -67.069   9.871   5.087  1.00  0.00    -0.365 N 
HETATM   30  C25 UNL     1     -66.662  10.425   3.786  1.00  0.00     0.149 C 
ATOM     31  H4  UNL     1     -67.202   8.865   5.193  1.00  0.00     0.161 HD
ENDBRANCH  21  27
BRANCH  20  32
HETATM   32  O6  UNL     1     -69.730  10.973   6.487  1.00  0.00    -0.385 OA
ATOM     33  H6  UNL     1     -70.355  10.411   6.045  1.00  0.00     0.210 HD
ENDBRANCH  20  32
BRANCH   5  34
HETATM   34  C9  UNL     1     -68.702  11.861  11.583  1.00  0.00     0.010 C 
HETATM   35  C10 UNL     1     -69.301  12.254  12.955  1.00  0.00     0.012 C 
HETATM   36  C11 UNL     1     -69.931  11.704  10.704  1.00  0.00     0.012 C 
ENDBRANCH   5  34
BRANCH   8  37
HETATM   37  O3  UNL     1     -69.404   7.172  11.579  1.00  0.00    -0.348 OA
ATOM     38  H3  UNL     1     -69.941   6.673  10.975  1.00  0.00     0.219 HD
ENDBRANCH   8  37
BRANCH   9  39
HETATM   39  C14 UNL     1     -71.127   8.628  13.761  1.00  0.00     0.033 C 
BRANCH  39  40
HETATM   40  C15 UNL     1     -70.082   8.449  14.760  1.00  0.00     0.002 C 
BRANCH  40  41
HETATM   41  C16 UNL     1     -70.212   7.411  15.820  1.00  0.00    -0.004 C 
HETATM   42  C17 UNL     1     -70.284   6.060  15.060  1.00  0.00     0.005 C 
ENDBRANCH  40  41
ENDBRANCH  39  40
ENDBRANCH   9  39
TORSDOF 10
ENDMDL
