MODEL 1
REMARK VINA RESULT: -7.122555727      0.000      0.000
REMARK  9 active torsions:
REMARK  status: ('A' for Active; 'I' for Inactive)
REMARK    1  A    between atoms: C2_2  and  C4_4 
REMARK    2  A    between atoms: C4_4  and  C5_5 
REMARK    3  A    between atoms: C7_10  and  C8_11 
REMARK    4  A    between atoms: C8_11  and  C9_12 
REMARK    5  A    between atoms: C15_24  and  C16_25 
REMARK    6  A    between atoms: C16_25  and  C17_26 
REMARK    7  A    between atoms: C22_34  and  C23_35 
REMARK    8  A    between atoms: C23_35  and  O6_36 
REMARK    9  A    between atoms: C24_40  and  O7_41 
ROOT
HETATM    1  C5  UNL     1     -69.097  10.488  12.119  1.00  0.00     0.086 C 
HETATM    2  N1  UNL     1     -69.609  10.841  10.862  1.00  0.00    -0.322 N 
ATOM      3  H1  UNL     1     -70.604  10.654  10.739  1.00  0.00     0.169 HD
HETATM    4  C6  UNL     1     -68.974  11.414   9.735  1.00  0.00     0.245 C 
HETATM    5  O1  UNL     1     -69.392  12.496   9.214  1.00  0.00    -0.271 OA
HETATM    6  C7  UNL     1     -67.762  10.829   9.032  1.00  0.00     0.177 C 
HETATM    7  N2  UNL     1     -68.105  10.970   7.603  1.00  0.00    -0.344 N 
ATOM      8  H2  UNL     1     -67.655  11.730   7.091  1.00  0.00     0.163 HD
HETATM    9  C12 UNL     1     -68.987  10.159   6.888  1.00  0.00     0.272 C 
HETATM   10  O2  UNL     1     -69.719  10.761   6.017  1.00  0.00    -0.268 OA
HETATM   11  C13 UNL     1     -69.222   8.708   6.967  1.00  0.00     0.375 A 
HETATM   12  O3  UNL     1     -68.925   8.191   8.264  1.00  0.00    -0.234 OA
HETATM   13  N3  UNL     1     -70.261   8.253   7.645  1.00  0.00    -0.179 N 
HETATM   14  C14 UNL     1     -71.591   8.005   7.769  1.00  0.00     0.269 C 
HETATM   15  O4  UNL     1     -72.545   8.876   7.798  1.00  0.00    -0.269 OA
HETATM   16  C15 UNL     1     -72.185   6.631   7.895  1.00  0.00     0.179 C 
HETATM   17  N4  UNL     1     -72.392   6.144   9.193  1.00  0.00    -0.348 N 
ATOM     18  H4  UNL     1     -72.441   5.126   9.229  1.00  0.00     0.163 HD
HETATM   19  C20 UNL     1     -72.546   6.741  10.453  1.00  0.00     0.220 C 
HETATM   20  O5  UNL     1     -73.582   6.441  11.171  1.00  0.00    -0.274 OA
HETATM   21  C21 UNL     1     -71.642   7.723  11.119  1.00  0.00     0.130 C 
HETATM   22  C22 UNL     1     -70.343   7.060  11.419  1.00  0.00     0.115 C 
HETATM   23  N5  UNL     1     -69.278   7.854  11.946  1.00  0.00    -0.362 N 
ATOM     24  H5  UNL     1     -68.383   7.375  11.844  1.00  0.00     0.162 HD
HETATM   25  C24 UNL     1     -69.115   9.069  12.546  1.00  0.00     0.163 C 
ENDROOT
BRANCH   1  26
HETATM   26  C4  UNL     1     -69.524  11.409  13.211  1.00  0.00     0.036 C 
BRANCH  26  27
HETATM   27  C2  UNL     1     -69.065  12.779  13.308  1.00  0.00    -0.085 C 
HETATM   28  C1  UNL     1     -67.647  13.082  12.894  1.00  0.00     0.043 C 
HETATM   29  C3  UNL     1     -70.002  13.849  12.815  1.00  0.00     0.043 C 
ENDBRANCH  26  27
ENDBRANCH   1  26
BRANCH  25  30
HETATM   30  O7  UNL     1     -68.914   9.030  13.835  1.00  0.00    -0.345 OA
ATOM     31  H7  UNL     1     -69.185   8.176  14.150  1.00  0.00     0.219 HD
ENDBRANCH  25  30
BRANCH   6  32
HETATM   32  C8  UNL     1     -66.611  11.739   9.380  1.00  0.00     0.038 C 
BRANCH  32  33
HETATM   33  C9  UNL     1     -65.414  11.100   9.965  1.00  0.00    -0.020 C 
HETATM   34  C10 UNL     1     -64.840  10.088   8.953  1.00  0.00     0.009 C 
HETATM   35  C11 UNL     1     -65.581  10.361  11.238  1.00  0.00     0.009 C 
ENDBRANCH  32  33
ENDBRANCH   6  32
BRANCH  22  36
HETATM   36  C23 UNL     1     -70.534   5.768  12.219  1.00  0.00     0.189 C 
BRANCH  36  37
HETATM   37  O6  UNL     1     -70.107   5.885  13.518  1.00  0.00    -0.399 OA
ATOM     38  H6  UNL     1     -70.735   5.538  14.140  1.00  0.00     0.209 HD
ENDBRANCH  36  37
ENDBRANCH  22  36
BRANCH  16  39
HETATM   39  C16 UNL     1     -73.346   6.502   6.930  1.00  0.00     0.038 C 
BRANCH  39  40
HETATM   40  C17 UNL     1     -74.004   5.171   6.900  1.00  0.00    -0.020 C 
HETATM   41  C18 UNL     1     -75.505   5.262   6.715  1.00  0.00     0.009 C 
HETATM   42  C19 UNL     1     -73.410   4.159   5.988  1.00  0.00     0.009 C 
ENDBRANCH  39  40
ENDBRANCH  16  39
TORSDOF 9
ENDMDL
MODEL 2
REMARK VINA RESULT: -6.385994891      1.869      2.551
REMARK  9 active torsions:
REMARK  status: ('A' for Active; 'I' for Inactive)
REMARK    1  A    between atoms: C2_2  and  C4_4 
REMARK    2  A    between atoms: C4_4  and  C5_5 
REMARK    3  A    between atoms: C7_10  and  C8_11 
REMARK    4  A    between atoms: C8_11  and  C9_12 
REMARK    5  A    between atoms: C15_24  and  C16_25 
REMARK    6  A    between atoms: C16_25  and  C17_26 
REMARK    7  A    between atoms: C22_34  and  C23_35 
REMARK    8  A    between atoms: C23_35  and  O6_36 
REMARK    9  A    between atoms: C24_40  and  O7_41 
ROOT
HETATM    1  C5  UNL     1     -67.327  11.916  10.470  1.00  0.00     0.086 C 
HETATM    2  N1  UNL     1     -68.100  11.899   9.300  1.00  0.00    -0.322 N 
ATOM      3  H1  UNL     1     -69.103  12.000   9.451  1.00  0.00     0.169 HD
HETATM    4  C6  UNL     1     -67.719  11.765   7.945  1.00  0.00     0.245 C 
HETATM    5  O1  UNL     1     -68.040  12.635   7.075  1.00  0.00    -0.271 OA
HETATM    6  C7  UNL     1     -66.913  10.609   7.381  1.00  0.00     0.177 C 
HETATM    7  N2  UNL     1     -67.622  10.288   6.126  1.00  0.00    -0.344 N 
ATOM      8  H2  UNL     1     -67.196  10.611   5.257  1.00  0.00     0.163 HD
HETATM    9  C12 UNL     1     -68.822   9.584   6.020  1.00  0.00     0.272 C 
HETATM   10  O2  UNL     1     -69.637  10.000   5.114  1.00  0.00    -0.268 OA
HETATM   11  C13 UNL     1     -69.317   8.427   6.784  1.00  0.00     0.375 A 
HETATM   12  O3  UNL     1     -68.766   8.384   8.100  1.00  0.00    -0.234 OA
HETATM   13  N3  UNL     1     -70.182   8.617   7.764  1.00  0.00    -0.179 N 
HETATM   14  C14 UNL     1     -71.439   8.863   8.217  1.00  0.00     0.269 C 
HETATM   15  O4  UNL     1     -72.143   9.928   8.018  1.00  0.00    -0.269 OA
HETATM   16  C15 UNL     1     -72.240   7.903   9.051  1.00  0.00     0.179 C 
HETATM   17  N4  UNL     1     -72.153   8.044  10.443  1.00  0.00    -0.348 N 
ATOM     18  H4  UNL     1     -72.398   7.189  10.942  1.00  0.00     0.163 HD
HETATM   19  C20 UNL     1     -71.806   9.096  11.304  1.00  0.00     0.220 C 
HETATM   20  O5  UNL     1     -72.625   9.434  12.249  1.00  0.00    -0.274 OA
HETATM   21  C21 UNL     1     -70.565   9.922  11.286  1.00  0.00     0.130 C 
HETATM   22  C22 UNL     1     -69.400   9.057  11.620  1.00  0.00     0.115 C 
HETATM   23  N5  UNL     1     -68.088   9.617  11.537  1.00  0.00    -0.362 N 
ATOM     24  H5  UNL     1     -67.380   8.883  11.507  1.00  0.00     0.162 HD
HETATM   25  C24 UNL     1     -67.510  10.853  11.486  1.00  0.00     0.163 C 
ENDROOT
BRANCH   1  26
HETATM   26  C4  UNL     1     -67.216  13.269  11.086  1.00  0.00     0.036 C 
BRANCH  26  27
HETATM   27  C2  UNL     1     -66.228  14.243  10.671  1.00  0.00    -0.085 C 
HETATM   28  C1  UNL     1     -66.076  15.494  11.498  1.00  0.00     0.043 C 
HETATM   29  C3  UNL     1     -64.880  13.715  10.258  1.00  0.00     0.043 C 
ENDBRANCH  26  27
ENDBRANCH   1  26
BRANCH  25  30
HETATM   30  O7  UNL     1     -66.954  11.253  12.597  1.00  0.00    -0.345 OA
ATOM     31  H7  UNL     1     -66.193  10.707  12.759  1.00  0.00     0.219 HD
ENDBRANCH  25  30
BRANCH   6  32
HETATM   32  C8  UNL     1     -65.550  11.174   7.074  1.00  0.00     0.038 C 
BRANCH  32  33
HETATM   33  C9  UNL     1     -64.389  10.437   7.615  1.00  0.00    -0.020 C 
HETATM   34  C10 UNL     1     -64.687  10.030   9.072  1.00  0.00     0.009 C 
HETATM   35  C11 UNL     1     -63.082  11.135   7.642  1.00  0.00     0.009 C 
ENDBRANCH  32  33
ENDBRANCH   6  32
BRANCH  22  36
HETATM   36  C23 UNL     1     -69.610   8.302  12.936  1.00  0.00     0.189 C 
BRANCH  36  37
HETATM   37  O6  UNL     1     -69.231   9.037  14.031  1.00  0.00    -0.399 OA
ATOM     38  H6  UNL     1     -69.541   8.662  14.847  1.00  0.00     0.209 HD
ENDBRANCH  36  37
ENDBRANCH  22  36
BRANCH  16  39
HETATM   39  C16 UNL     1     -73.632   7.782   8.468  1.00  0.00     0.038 C 
BRANCH  39  40
HETATM   40  C17 UNL     1     -74.061   6.402   8.125  1.00  0.00    -0.020 C 
HETATM   41  C18 UNL     1     -75.541   6.306   7.814  1.00  0.00     0.009 C 
HETATM   42  C19 UNL     1     -73.250   5.692   7.101  1.00  0.00     0.009 C 
ENDBRANCH  39  40
ENDBRANCH  16  39
TORSDOF 9
ENDMDL
MODEL 3
REMARK VINA RESULT: -6.335060231      4.343      8.762
REMARK  9 active torsions:
REMARK  status: ('A' for Active; 'I' for Inactive)
REMARK    1  A    between atoms: C2_2  and  C4_4 
REMARK    2  A    between atoms: C4_4  and  C5_5 
REMARK    3  A    between atoms: C7_10  and  C8_11 
REMARK    4  A    between atoms: C8_11  and  C9_12 
REMARK    5  A    between atoms: C15_24  and  C16_25 
REMARK    6  A    between atoms: C16_25  and  C17_26 
REMARK    7  A    between atoms: C22_34  and  C23_35 
REMARK    8  A    between atoms: C23_35  and  O6_36 
REMARK    9  A    between atoms: C24_40  and  O7_41 
ROOT
HETATM    1  C5  UNL     1     -68.250  13.467   9.404  1.00  0.00     0.086 C 
HETATM    2  N1  UNL     1     -67.194  13.063  10.235  1.00  0.00    -0.322 N 
ATOM      3  H1  UNL     1     -66.348  13.626  10.151  1.00  0.00     0.169 HD
HETATM    4  C6  UNL     1     -67.108  12.006  11.170  1.00  0.00     0.245 C 
HETATM    5  O1  UNL     1     -66.798  12.216  12.385  1.00  0.00    -0.271 OA
HETATM    6  C7  UNL     1     -67.362  10.544  10.851  1.00  0.00     0.177 C 
HETATM    7  N2  UNL     1     -66.256   9.854  11.545  1.00  0.00    -0.344 N 
ATOM      8  H2  UNL     1     -66.480   9.386  12.423  1.00  0.00     0.163 HD
HETATM    9  C12 UNL     1     -64.933   9.782  11.108  1.00  0.00     0.272 C 
HETATM   10  O2  UNL     1     -64.035   9.854  12.028  1.00  0.00    -0.268 OA
HETATM   11  C13 UNL     1     -64.386   9.636   9.749  1.00  0.00     0.375 A 
HETATM   12  O3  UNL     1     -65.265  10.174   8.761  1.00  0.00    -0.234 OA
HETATM   13  N3  UNL     1     -63.934  10.702   9.112  1.00  0.00    -0.179 N 
HETATM   14  C14 UNL     1     -62.984  11.647   8.890  1.00  0.00     0.269 C 
HETATM   15  O4  UNL     1     -62.574  12.548   9.721  1.00  0.00    -0.269 OA
HETATM   16  C15 UNL     1     -62.232  11.802   7.599  1.00  0.00     0.179 C 
HETATM   17  N4  UNL     1     -62.759  12.699   6.658  1.00  0.00    -0.348 N 
ATOM     18  H4  UNL     1     -62.446  12.503   5.708  1.00  0.00     0.163 HD
HETATM   19  C20 UNL     1     -63.619  13.805   6.731  1.00  0.00     0.220 C 
HETATM   20  O5  UNL     1     -63.240  14.934   6.221  1.00  0.00    -0.274 OA
HETATM   21  C21 UNL     1     -64.977  13.870   7.343  1.00  0.00     0.130 C 
HETATM   22  C22 UNL     1     -65.903  13.004   6.563  1.00  0.00     0.115 C 
HETATM   23  N5  UNL     1     -67.234  12.817   7.049  1.00  0.00    -0.362 N 
ATOM     24  H5  UNL     1     -67.671  12.006   6.610  1.00  0.00     0.162 HD
HETATM   25  C24 UNL     1     -68.088  13.412   7.932  1.00  0.00     0.163 C 
ENDROOT
BRANCH   1  26
HETATM   26  C4  UNL     1     -68.905  14.729   9.852  1.00  0.00     0.036 C 
BRANCH  26  27
HETATM   27  C2  UNL     1     -70.124  14.750  10.632  1.00  0.00    -0.085 C 
HETATM   28  C1  UNL     1     -71.423  14.459   9.925  1.00  0.00     0.043 C 
HETATM   29  C3  UNL     1     -70.087  14.067  11.974  1.00  0.00     0.043 C 
ENDBRANCH  26  27
ENDBRANCH   1  26
BRANCH  25  30
HETATM   30  O7  UNL     1     -69.034  14.132   7.393  1.00  0.00    -0.345 OA
ATOM     31  H7  UNL     1     -68.688  14.529   6.603  1.00  0.00     0.219 HD
ENDBRANCH  25  30
BRANCH   6  32
HETATM   32  C8  UNL     1     -68.676  10.206  11.509  1.00  0.00     0.038 C 
BRANCH  32  33
HETATM   33  C9  UNL     1     -69.802   9.877  10.611  1.00  0.00    -0.020 C 
HETATM   34  C10 UNL     1     -69.287   9.818   9.159  1.00  0.00     0.009 C 
HETATM   35  C11 UNL     1     -70.963  10.797  10.598  1.00  0.00     0.009 C 
ENDBRANCH  32  33
ENDBRANCH   6  32
BRANCH  22  36
HETATM   36  C23 UNL     1     -65.890  13.353   5.072  1.00  0.00     0.189 C 
BRANCH  36  37
HETATM   37  O6  UNL     1     -66.580  12.442   4.312  1.00  0.00    -0.399 OA
ATOM     38  H6  UNL     1     -66.965  11.749   4.836  1.00  0.00     0.209 HD
ENDBRANCH  36  37
ENDBRANCH  22  36
BRANCH  16  39
HETATM   39  C16 UNL     1     -60.752  11.926   7.898  1.00  0.00     0.038 C 
BRANCH  39  40
HETATM   40  C17 UNL     1     -59.974  10.666   7.796  1.00  0.00    -0.020 C 
HETATM   41  C18 UNL     1     -58.840  10.593   8.798  1.00  0.00     0.009 C 
HETATM   42  C19 UNL     1     -60.758   9.403   7.779  1.00  0.00     0.009 C 
ENDBRANCH  39  40
ENDBRANCH  16  39
TORSDOF 9
ENDMDL
MODEL 4
REMARK VINA RESULT: -6.180893816      4.408      8.819
REMARK  9 active torsions:
REMARK  status: ('A' for Active; 'I' for Inactive)
REMARK    1  A    between atoms: C2_2  and  C4_4 
REMARK    2  A    between atoms: C4_4  and  C5_5 
REMARK    3  A    between atoms: C7_10  and  C8_11 
REMARK    4  A    between atoms: C8_11  and  C9_12 
REMARK    5  A    between atoms: C15_24  and  C16_25 
REMARK    6  A    between atoms: C16_25  and  C17_26 
REMARK    7  A    between atoms: C22_34  and  C23_35 
REMARK    8  A    between atoms: C23_35  and  O6_36 
REMARK    9  A    between atoms: C24_40  and  O7_41 
ROOT
HETATM    1  C5  UNL     1     -67.954  11.282   7.150  1.00  0.00     0.086 C 
HETATM    2  N1  UNL     1     -66.837  11.750   6.441  1.00  0.00    -0.322 N 
ATOM      3  H1  UNL     1     -66.038  11.116   6.439  1.00  0.00     0.169 HD
HETATM    4  C6  UNL     1     -66.636  12.954   5.728  1.00  0.00     0.245 C 
HETATM    5  O1  UNL     1     -66.292  12.953   4.503  1.00  0.00    -0.271 OA
HETATM    6  C7  UNL     1     -66.796  14.345   6.313  1.00  0.00     0.177 C 
HETATM    7  N2  UNL     1     -65.615  15.064   5.794  1.00  0.00    -0.344 N 
ATOM      8  H2  UNL     1     -65.767  15.705   5.015  1.00  0.00     0.163 HD
HETATM    9  C12 UNL     1     -64.309  14.947   6.272  1.00  0.00     0.272 C 
HETATM   10  O2  UNL     1     -63.382  14.979   5.380  1.00  0.00    -0.268 OA
HETATM   11  C13 UNL     1     -63.811  14.791   7.649  1.00  0.00     0.375 A 
HETATM   12  O3  UNL     1     -64.767  14.148   8.491  1.00  0.00    -0.234 OA
HETATM   13  N3  UNL     1     -63.464  13.592   8.083  1.00  0.00    -0.179 N 
HETATM   14  C14 UNL     1     -62.595  12.549   8.146  1.00  0.00     0.269 C 
HETATM   15  O4  UNL     1     -62.217  11.791   7.169  1.00  0.00    -0.269 OA
HETATM   16  C15 UNL     1     -61.911  12.095   9.403  1.00  0.00     0.179 C 
HETATM   17  N4  UNL     1     -62.540  11.082  10.140  1.00  0.00    -0.348 N 
ATOM     18  H4  UNL     1     -62.254  11.069  11.119  1.00  0.00     0.163 HD
HETATM   19  C20 UNL     1     -63.475  10.081   9.834  1.00  0.00     0.220 C 
HETATM   20  O5  UNL     1     -63.200   8.849  10.129  1.00  0.00    -0.274 OA
HETATM   21  C21 UNL     1     -64.807  10.240   9.184  1.00  0.00     0.130 C 
HETATM   22  C22 UNL     1     -65.700  11.014  10.090  1.00  0.00     0.115 C 
HETATM   23  N5  UNL     1     -66.992  11.394   9.612  1.00  0.00    -0.362 N 
ATOM     24  H5  UNL     1     -67.387  12.139  10.186  1.00  0.00     0.162 HD
HETATM   25  C24 UNL     1     -67.850  11.045   8.609  1.00  0.00     0.163 C 
ENDROOT
BRANCH   1  26
HETATM   26  C4  UNL     1     -68.679  10.182   6.452  1.00  0.00     0.036 C 
BRANCH  26  27
HETATM   27  C2  UNL     1     -69.812  10.415   5.581  1.00  0.00    -0.085 C 
HETATM   28  C1  UNL     1     -71.062  11.000   6.187  1.00  0.00     0.043 C 
HETATM   29  C3  UNL     1     -69.527  11.045   4.244  1.00  0.00     0.043 C 
ENDBRANCH  26  27
ENDBRANCH   1  26
BRANCH  25  30
HETATM   30  O7  UNL     1     -68.867  10.314   8.975  1.00  0.00    -0.345 OA
ATOM     31  H7  UNL     1     -68.539   9.594   9.500  1.00  0.00     0.219 HD
ENDBRANCH  25  30
BRANCH   6  32
HETATM   32  C8  UNL     1     -68.053  14.905   5.696  1.00  0.00     0.038 C 
BRANCH  32  33
HETATM   33  C9  UNL     1     -69.329  14.291   6.118  1.00  0.00    -0.020 C 
HETATM   34  C10 UNL     1     -70.458  14.793   5.197  1.00  0.00     0.009 C 
HETATM   35  C11 UNL     1     -69.788  14.541   7.505  1.00  0.00     0.009 C 
ENDBRANCH  32  33
ENDBRANCH   6  32
BRANCH  22  36
HETATM   36  C23 UNL     1     -65.774  10.390  11.487  1.00  0.00     0.189 C 
BRANCH  36  37
HETATM   37  O6  UNL     1     -66.900   9.626  11.663  1.00  0.00    -0.399 OA
ATOM     38  H6  UNL     1     -66.822   9.026  12.395  1.00  0.00     0.209 HD
ENDBRANCH  36  37
ENDBRANCH  22  36
BRANCH  16  39
HETATM   39  C16 UNL     1     -60.433  11.913   9.126  1.00  0.00     0.038 C 
BRANCH  39  40
HETATM   40  C17 UNL     1     -59.884  10.573   9.454  1.00  0.00    -0.020 C 
HETATM   41  C18 UNL     1     -59.800   9.661   8.246  1.00  0.00     0.009 C 
HETATM   42  C19 UNL     1     -58.620  10.548  10.235  1.00  0.00     0.009 C 
ENDBRANCH  39  40
ENDBRANCH  16  39
TORSDOF 9
ENDMDL
MODEL 5
REMARK VINA RESULT: -6.174422408      4.597      6.931
REMARK  9 active torsions:
REMARK  status: ('A' for Active; 'I' for Inactive)
REMARK    1  A    between atoms: C2_2  and  C4_4 
REMARK    2  A    between atoms: C4_4  and  C5_5 
REMARK    3  A    between atoms: C7_10  and  C8_11 
REMARK    4  A    between atoms: C8_11  and  C9_12 
REMARK    5  A    between atoms: C15_24  and  C16_25 
REMARK    6  A    between atoms: C16_25  and  C17_26 
REMARK    7  A    between atoms: C22_34  and  C23_35 
REMARK    8  A    between atoms: C23_35  and  O6_36 
REMARK    9  A    between atoms: C24_40  and  O7_41 
ROOT
HETATM    1  C5  UNL     1     -65.259  11.693   8.931  1.00  0.00     0.086 C 
HETATM    2  N1  UNL     1     -65.867  12.913   8.598  1.00  0.00    -0.322 N 
ATOM      3  H1  UNL     1     -66.066  13.521   9.392  1.00  0.00     0.169 HD
HETATM    4  C6  UNL     1     -66.251  13.439   7.342  1.00  0.00     0.245 C 
HETATM    5  O1  UNL     1     -65.826  14.566   6.936  1.00  0.00    -0.271 OA
HETATM    6  C7  UNL     1     -67.185  12.752   6.363  1.00  0.00     0.177 C 
HETATM    7  N2  UNL     1     -68.069  13.848   5.919  1.00  0.00    -0.344 N 
ATOM      8  H2  UNL     1     -67.887  14.246   4.997  1.00  0.00     0.163 HD
HETATM    9  C12 UNL     1     -69.130  14.390   6.645  1.00  0.00     0.272 C 
HETATM   10  O2  UNL     1     -69.287  15.663   6.541  1.00  0.00    -0.268 OA
HETATM   11  C13 UNL     1     -70.114  13.736   7.523  1.00  0.00     0.375 A 
HETATM   12  O3  UNL     1     -69.592  12.546   8.114  1.00  0.00    -0.234 OA
HETATM   13  N3  UNL     1     -69.948  13.782   8.833  1.00  0.00    -0.179 N 
HETATM   14  C14 UNL     1     -70.013  14.434  10.024  1.00  0.00     0.269 C 
HETATM   15  O4  UNL     1     -69.347  15.485  10.372  1.00  0.00    -0.269 OA
HETATM   16  C15 UNL     1     -70.901  14.023  11.163  1.00  0.00     0.179 C 
HETATM   17  N4  UNL     1     -70.346  13.171  12.128  1.00  0.00    -0.348 N 
ATOM     18  H4  UNL     1     -71.052  12.649  12.647  1.00  0.00     0.163 HD
HETATM   19  C20 UNL     1     -69.038  12.875  12.541  1.00  0.00     0.220 C 
HETATM   20  O5  UNL     1     -68.734  12.977  13.796  1.00  0.00    -0.274 OA
HETATM   21  C21 UNL     1     -67.889  12.436  11.697  1.00  0.00     0.130 C 
HETATM   22  C22 UNL     1     -68.185  11.089  11.138  1.00  0.00     0.115 C 
HETATM   23  N5  UNL     1     -67.270  10.526  10.194  1.00  0.00    -0.362 N 
ATOM     24  H5  UNL     1     -67.704   9.760   9.679  1.00  0.00     0.162 HD
HETATM   25  C24 UNL     1     -65.983  10.722   9.784  1.00  0.00     0.163 C 
ENDROOT
BRANCH   1  26
HETATM   26  C4  UNL     1     -63.829  11.835   9.329  1.00  0.00     0.036 C 
BRANCH  26  27
HETATM   27  C2  UNL     1     -62.732  11.613   8.411  1.00  0.00    -0.085 C 
HETATM   28  C1  UNL     1     -62.374  10.190   8.065  1.00  0.00     0.043 C 
HETATM   29  C3  UNL     1     -62.681  12.485   7.184  1.00  0.00     0.043 C 
ENDBRANCH  26  27
ENDBRANCH   1  26
BRANCH  25  30
HETATM   30  O7  UNL     1     -65.120   9.848  10.227  1.00  0.00    -0.345 OA
ATOM     31  H7  UNL     1     -65.589   9.051  10.441  1.00  0.00     0.219 HD
ENDBRANCH  25  30
BRANCH   6  32
HETATM   32  C8  UNL     1     -66.313  12.296   5.220  1.00  0.00     0.038 C 
BRANCH  32  33
HETATM   33  C9  UNL     1     -66.320  10.851   4.916  1.00  0.00    -0.020 C 
HETATM   34  C10 UNL     1     -65.091  10.192   5.574  1.00  0.00     0.009 C 
HETATM   35  C11 UNL     1     -66.290  10.447   3.490  1.00  0.00     0.009 C 
ENDBRANCH  32  33
ENDBRANCH   6  32
BRANCH  22  36
HETATM   36  C23 UNL     1     -68.555  10.085  12.234  1.00  0.00     0.189 C 
BRANCH  36  37
HETATM   37  O6  UNL     1     -67.669   9.039  12.309  1.00  0.00    -0.399 OA
ATOM     38  H6  UNL     1     -67.709   8.473  11.547  1.00  0.00     0.209 HD
ENDBRANCH  36  37
ENDBRANCH  22  36
BRANCH  16  39
HETATM   39  C16 UNL     1     -71.640  15.241  11.680  1.00  0.00     0.038 C 
BRANCH  39  40
HETATM   40  C17 UNL     1     -72.068  15.171  13.100  1.00  0.00    -0.020 C 
HETATM   41  C18 UNL     1     -71.939  16.499  13.819  1.00  0.00     0.009 C 
HETATM   42  C19 UNL     1     -73.390  14.544  13.363  1.00  0.00     0.009 C 
ENDBRANCH  39  40
ENDBRANCH  16  39
TORSDOF 9
ENDMDL
