MODEL 1
REMARK VINA RESULT: -7.019442414      0.000      0.000
REMARK  9 active torsions:
REMARK  status: ('A' for Active; 'I' for Inactive)
REMARK    1  A    between atoms: N1_1  and  C1_5 
REMARK    2  A    between atoms: C1_5  and  C2_6 
REMARK    3  A    between atoms: C2_6  and  C3_7 
REMARK    4  A    between atoms: C3_7  and  N2_8 
REMARK    5  A    between atoms: N2_8  and  C4_11 
REMARK    6  A    between atoms: C4_11  and  C5_12 
REMARK    7  A    between atoms: C5_12  and  N3_13 
REMARK    8  A    between atoms: C12_21  and  N4_22 
REMARK    9  A    between atoms: C17_30  and  O1_31 
ROOT
HETATM    1  N3  UNL     1     -36.590  -7.607  25.659  1.00  0.00    -0.381 N 
HETATM    2  C6  UNL     1     -37.002  -7.607  24.333  1.00  0.00     0.086 C 
HETATM    3  C7  UNL     1     -35.793  -7.400  23.422  1.00  0.00     0.027 C 
HETATM    4  C8  UNL     1     -34.551  -6.991  24.147  1.00  0.00     0.024 C 
HETATM    5  C9  UNL     1     -34.252  -7.727  25.402  1.00  0.00     0.105 C 
HETATM    6 CL1  UNL     1     -32.839  -8.745  25.255  1.00  0.00    -0.123 Cl
HETATM    7  C10 UNL     1     -35.471  -8.455  25.940  1.00  0.00     0.104 C 
HETATM    8  C11 UNL     1     -35.624  -9.812  25.412  1.00  0.00     0.053 C 
HETATM    9  C12 UNL     1     -36.452 -10.034  24.208  1.00  0.00     0.103 C 
HETATM   10  C18 UNL     1     -37.521  -8.997  23.991  1.00  0.00     0.051 C 
ENDROOT
BRANCH   1  11
HETATM   11  C5  UNL     1     -36.778  -6.567  26.550  1.00  0.00     0.086 C 
BRANCH  11  12
HETATM   12  C4  UNL     1     -37.582  -5.393  26.304  1.00  0.00     0.276 C 
BRANCH  12  13
HETATM   13  N2  UNL     1     -38.763  -5.305  27.155  1.00  0.00    -0.071 N 
ATOM     14  H22 UNL     1     -38.581  -4.886  28.067  1.00  0.00     0.277 HD
ATOM     15  H21 UNL     1     -39.088  -6.208  27.500  1.00  0.00     0.277 HD
BRANCH  13  16
HETATM   16  C3  UNL     1     -39.770  -4.577  26.356  1.00  0.00     0.234 C 
BRANCH  16  17
HETATM   17  C2  UNL     1     -39.824  -3.121  26.702  1.00  0.00     0.055 C 
BRANCH  17  18
HETATM   18  C1  UNL     1     -40.925  -2.515  25.828  1.00  0.00     0.231 C 
BRANCH  18  19
HETATM   19  N1  UNL     1     -41.823  -1.704  26.643  1.00  0.00    -0.079 N 
ATOM     20  H13 UNL     1     -41.456  -1.555  27.583  1.00  0.00     0.274 HD
ATOM     21  H12 UNL     1     -41.844  -0.732  26.334  1.00  0.00     0.274 HD
ATOM     22  H11 UNL     1     -42.754  -2.120  26.659  1.00  0.00     0.274 HD
ENDBRANCH  18  19
ENDBRANCH  17  18
ENDBRANCH  16  17
ENDBRANCH  13  16
ENDBRANCH  12  13
ENDBRANCH  11  12
ENDBRANCH   1  11
BRANCH   9  23
HETATM   23  N4  UNL     1     -37.159 -11.319  24.377  1.00  0.00    -0.290 N 
HETATM   24  S1  UNL     1     -38.803 -11.641  24.439  1.00  0.00    -0.008 SA
HETATM   25  C13 UNL     1     -38.757 -13.333  24.642  1.00  0.00     0.054 A 
HETATM   26  C14 UNL     1     -39.483 -14.525  24.794  1.00  0.00     0.040 A 
HETATM   27  C16 UNL     1     -37.408 -13.587  24.653  1.00  0.00     0.102 A 
HETATM   28  C15 UNL     1     -38.527 -15.497  24.898  1.00  0.00     0.090 A 
HETATM   29  N5  UNL     1     -37.304 -14.952  24.815  1.00  0.00    -0.361 N 
ATOM     30  H5  UNL     1     -36.427 -15.470  24.864  1.00  0.00     0.165 HD
HETATM   31  C17 UNL     1     -36.594 -12.524  24.513  1.00  0.00     0.177 A 
BRANCH  31  32
HETATM   32  O1  UNL     1     -35.297 -12.620  24.504  1.00  0.00    -0.344 OA
ATOM     33  H1  UNL     1     -34.896 -13.478  24.566  1.00  0.00     0.219 HD
ENDBRANCH  31  32
ENDBRANCH   9  23
TORSDOF 9
ENDMDL
MODEL 2
REMARK VINA RESULT: -7.002319767      3.744      4.775
REMARK  9 active torsions:
REMARK  status: ('A' for Active; 'I' for Inactive)
REMARK    1  A    between atoms: N1_1  and  C1_5 
REMARK    2  A    between atoms: C1_5  and  C2_6 
REMARK    3  A    between atoms: C2_6  and  C3_7 
REMARK    4  A    between atoms: C3_7  and  N2_8 
REMARK    5  A    between atoms: N2_8  and  C4_11 
REMARK    6  A    between atoms: C4_11  and  C5_12 
REMARK    7  A    between atoms: C5_12  and  N3_13 
REMARK    8  A    between atoms: C12_21  and  N4_22 
REMARK    9  A    between atoms: C17_30  and  O1_31 
ROOT
HETATM    1  N3  UNL     1     -37.859  -5.054  23.948  1.00  0.00    -0.381 N 
HETATM    2  C6  UNL     1     -36.631  -4.530  23.564  1.00  0.00     0.086 C 
HETATM    3  C7  UNL     1     -36.156  -3.522  24.609  1.00  0.00     0.027 C 
HETATM    4  C8  UNL     1     -37.202  -3.148  25.610  1.00  0.00     0.024 C 
HETATM    5  C9  UNL     1     -38.009  -4.267  26.162  1.00  0.00     0.105 C 
HETATM    6 CL1  UNL     1     -37.673  -4.557  27.853  1.00  0.00    -0.123 Cl
HETATM    7  C10 UNL     1     -37.918  -5.514  25.302  1.00  0.00     0.104 C 
HETATM    8  C11 UNL     1     -36.808  -6.397  25.664  1.00  0.00     0.053 C 
HETATM    9  C12 UNL     1     -35.508  -6.248  24.978  1.00  0.00     0.103 C 
HETATM   10  C18 UNL     1     -35.600  -5.650  23.600  1.00  0.00     0.051 C 
ENDROOT
BRANCH   1  11
HETATM   11  C5  UNL     1     -39.076  -4.716  23.387  1.00  0.00     0.086 C 
BRANCH  11  12
HETATM   12  C4  UNL     1     -39.300  -3.621  22.472  1.00  0.00     0.276 C 
BRANCH  12  13
HETATM   13  N2  UNL     1     -39.679  -2.377  23.132  1.00  0.00    -0.071 N 
ATOM     14  H22 UNL     1     -39.927  -1.629  22.485  1.00  0.00     0.277 HD
ATOM     15  H21 UNL     1     -38.900  -1.896  23.580  1.00  0.00     0.277 HD
BRANCH  13  16
HETATM   16  C3  UNL     1     -40.767  -2.743  24.063  1.00  0.00     0.234 C 
BRANCH  16  17
HETATM   17  C2  UNL     1     -40.699  -1.974  25.346  1.00  0.00     0.055 C 
BRANCH  17  18
HETATM   18  C1  UNL     1     -41.726  -2.614  26.283  1.00  0.00     0.231 C 
BRANCH  18  19
HETATM   19  N1  UNL     1     -42.466  -1.581  26.998  1.00  0.00    -0.079 N 
ATOM     20  H13 UNL     1     -42.579  -1.806  27.986  1.00  0.00     0.274 HD
ATOM     21  H12 UNL     1     -41.921  -0.724  27.101  1.00  0.00     0.274 HD
ATOM     22  H11 UNL     1     -43.361  -1.411  26.540  1.00  0.00     0.274 HD
ENDBRANCH  18  19
ENDBRANCH  17  18
ENDBRANCH  16  17
ENDBRANCH  13  16
ENDBRANCH  12  13
ENDBRANCH  11  12
ENDBRANCH   1  11
BRANCH   9  23
HETATM   23  N4  UNL     1     -34.935  -7.596  24.799  1.00  0.00    -0.290 N 
HETATM   24  S1  UNL     1     -35.700  -9.061  24.517  1.00  0.00    -0.008 SA
HETATM   25  C13 UNL     1     -34.339 -10.086  24.433  1.00  0.00     0.054 A 
HETATM   26  C14 UNL     1     -33.851 -11.389  24.252  1.00  0.00     0.040 A 
HETATM   27  C16 UNL     1     -33.304  -9.207  24.638  1.00  0.00     0.102 A 
HETATM   28  C15 UNL     1     -32.493 -11.263  24.356  1.00  0.00     0.090 A 
HETATM   29  N5  UNL     1     -32.165  -9.982  24.582  1.00  0.00    -0.361 N 
ATOM     30  H5  UNL     1     -31.213  -9.633  24.696  1.00  0.00     0.165 HD
HETATM   31  C17 UNL     1     -33.636  -7.917  24.826  1.00  0.00     0.177 A 
BRANCH  31  32
HETATM   32  O1  UNL     1     -32.757  -6.979  25.028  1.00  0.00    -0.344 OA
ATOM     33  H1  UNL     1     -31.870  -7.101  24.711  1.00  0.00     0.219 HD
ENDBRANCH  31  32
ENDBRANCH   9  23
TORSDOF 9
ENDMDL
MODEL 3
REMARK VINA RESULT: -6.990676691      3.285      3.968
REMARK  9 active torsions:
REMARK  status: ('A' for Active; 'I' for Inactive)
REMARK    1  A    between atoms: N1_1  and  C1_5 
REMARK    2  A    between atoms: C1_5  and  C2_6 
REMARK    3  A    between atoms: C2_6  and  C3_7 
REMARK    4  A    between atoms: C3_7  and  N2_8 
REMARK    5  A    between atoms: N2_8  and  C4_11 
REMARK    6  A    between atoms: C4_11  and  C5_12 
REMARK    7  A    between atoms: C5_12  and  N3_13 
REMARK    8  A    between atoms: C12_21  and  N4_22 
REMARK    9  A    between atoms: C17_30  and  O1_31 
ROOT
HETATM    1  N3  UNL     1     -37.267  -4.967  23.953  1.00  0.00    -0.381 N 
HETATM    2  C6  UNL     1     -38.655  -4.919  24.000  1.00  0.00     0.086 C 
HETATM    3  C7  UNL     1     -39.191  -4.347  22.689  1.00  0.00     0.027 C 
HETATM    4  C8  UNL     1     -38.138  -3.744  21.815  1.00  0.00     0.024 C 
HETATM    5  C9  UNL     1     -36.881  -4.522  21.673  1.00  0.00     0.105 C 
HETATM    6 CL1  UNL     1     -36.678  -5.169  20.062  1.00  0.00    -0.123 Cl
HETATM    7  C10 UNL     1     -36.727  -5.562  22.768  1.00  0.00     0.104 C 
HETATM    8  C11 UNL     1     -37.332  -6.854  22.440  1.00  0.00     0.053 C 
HETATM    9  C12 UNL     1     -38.725  -7.129  22.851  1.00  0.00     0.103 C 
HETATM   10  C18 UNL     1     -39.183  -6.347  24.052  1.00  0.00     0.051 C 
ENDROOT
BRANCH   1  11
HETATM   11  C5  UNL     1     -36.420  -4.098  24.614  1.00  0.00     0.086 C 
BRANCH  11  12
HETATM   12  C4  UNL     1     -36.768  -2.769  25.058  1.00  0.00     0.276 C 
BRANCH  12  13
HETATM   13  N2  UNL     1     -37.322  -2.730  26.406  1.00  0.00    -0.071 N 
ATOM     14  H22 UNL     1     -36.664  -2.397  27.111  1.00  0.00     0.277 HD
ATOM     15  H21 UNL     1     -37.478  -3.652  26.812  1.00  0.00     0.277 HD
BRANCH  13  16
HETATM   16  C3  UNL     1     -38.548  -1.911  26.303  1.00  0.00     0.234 C 
BRANCH  16  17
HETATM   17  C2  UNL     1     -39.775  -2.673  26.700  1.00  0.00     0.055 C 
BRANCH  17  18
HETATM   18  C1  UNL     1     -40.915  -2.124  25.839  1.00  0.00     0.231 C 
BRANCH  18  19
HETATM   19  N1  UNL     1     -42.000  -1.646  26.688  1.00  0.00    -0.079 N 
ATOM     20  H13 UNL     1     -41.728  -1.612  27.671  1.00  0.00     0.274 HD
ATOM     21  H12 UNL     1     -42.185  -0.653  26.549  1.00  0.00     0.274 HD
ATOM     22  H11 UNL     1     -42.834  -2.214  26.543  1.00  0.00     0.274 HD
ENDBRANCH  18  19
ENDBRANCH  17  18
ENDBRANCH  16  17
ENDBRANCH  13  16
ENDBRANCH  12  13
ENDBRANCH  11  12
ENDBRANCH   1  11
BRANCH   9  23
HETATM   23  N4  UNL     1     -38.809  -8.552  23.235  1.00  0.00    -0.290 N 
HETATM   24  S1  UNL     1     -37.631  -9.568  23.860  1.00  0.00    -0.008 SA
HETATM   25  C13 UNL     1     -38.542 -11.001  24.021  1.00  0.00     0.054 A 
HETATM   26  C14 UNL     1     -38.564 -12.350  24.407  1.00  0.00     0.040 A 
HETATM   27  C16 UNL     1     -39.777 -10.611  23.563  1.00  0.00     0.102 A 
HETATM   28  C15 UNL     1     -39.848 -12.754  24.165  1.00  0.00     0.090 A 
HETATM   29  N5  UNL     1     -40.566 -11.736  23.669  1.00  0.00    -0.361 N 
ATOM     30  H5  UNL     1     -41.551 -11.786  23.408  1.00  0.00     0.165 HD
HETATM   31  C17 UNL     1     -39.893  -9.332  23.159  1.00  0.00     0.177 A 
BRANCH  31  32
HETATM   32  O1  UNL     1     -41.004  -8.829  22.706  1.00  0.00    -0.344 OA
ATOM     33  H1  UNL     1     -41.056  -8.570  21.794  1.00  0.00     0.219 HD
ENDBRANCH  31  32
ENDBRANCH   9  23
TORSDOF 9
ENDMDL
MODEL 4
REMARK VINA RESULT: -6.922456243      3.505      5.732
REMARK  9 active torsions:
REMARK  status: ('A' for Active; 'I' for Inactive)
REMARK    1  A    between atoms: N1_1  and  C1_5 
REMARK    2  A    between atoms: C1_5  and  C2_6 
REMARK    3  A    between atoms: C2_6  and  C3_7 
REMARK    4  A    between atoms: C3_7  and  N2_8 
REMARK    5  A    between atoms: N2_8  and  C4_11 
REMARK    6  A    between atoms: C4_11  and  C5_12 
REMARK    7  A    between atoms: C5_12  and  N3_13 
REMARK    8  A    between atoms: C12_21  and  N4_22 
REMARK    9  A    between atoms: C17_30  and  O1_31 
ROOT
HETATM    1  N3  UNL     1     -35.334  -6.221  24.196  1.00  0.00    -0.381 N 
HETATM    2  C6  UNL     1     -36.392  -5.924  25.045  1.00  0.00     0.086 C 
HETATM    3  C7  UNL     1     -37.253  -4.826  24.424  1.00  0.00     0.027 C 
HETATM    4  C8  UNL     1     -36.631  -4.167  23.236  1.00  0.00     0.024 C 
HETATM    5  C9  UNL     1     -35.987  -5.071  22.248  1.00  0.00     0.105 C 
HETATM    6 CL1  UNL     1     -36.853  -5.121  20.730  1.00  0.00    -0.123 Cl
HETATM    7  C10 UNL     1     -35.704  -6.443  22.831  1.00  0.00     0.104 C 
HETATM    8  C11 UNL     1     -36.813  -7.387  22.676  1.00  0.00     0.053 C 
HETATM    9  C12 UNL     1     -37.813  -7.515  23.756  1.00  0.00     0.103 C 
HETATM   10  C18 UNL     1     -37.303  -7.143  25.122  1.00  0.00     0.051 C 
ENDROOT
BRANCH   1  11
HETATM   11  C5  UNL     1     -34.023  -5.831  24.394  1.00  0.00     0.086 C 
BRANCH  11  12
HETATM   12  C4  UNL     1     -33.021  -6.598  25.097  1.00  0.00     0.276 C 
BRANCH  12  13
HETATM   13  N2  UNL     1     -33.022  -8.015  24.751  1.00  0.00    -0.071 N 
ATOM     14  H22 UNL     1     -32.157  -8.332  24.314  1.00  0.00     0.277 HD
ATOM     15  H21 UNL     1     -33.641  -8.247  23.975  1.00  0.00     0.277 HD
BRANCH  13  16
HETATM   16  C3  UNL     1     -33.349  -8.724  26.006  1.00  0.00     0.234 C 
BRANCH  16  17
HETATM   17  C2  UNL     1     -32.930 -10.162  25.971  1.00  0.00     0.055 C 
BRANCH  17  18
HETATM   18  C1  UNL     1     -32.345 -10.402  24.577  1.00  0.00     0.231 C 
BRANCH  18  19
HETATM   19  N1  UNL     1     -31.029 -11.020  24.685  1.00  0.00    -0.079 N 
ATOM     20  H13 UNL     1     -30.286 -10.391  24.379  1.00  0.00     0.274 HD
ATOM     21  H12 UNL     1     -30.739 -11.132  25.657  1.00  0.00     0.274 HD
ATOM     22  H11 UNL     1     -31.013 -11.904  24.177  1.00  0.00     0.274 HD
ENDBRANCH  18  19
ENDBRANCH  17  18
ENDBRANCH  16  17
ENDBRANCH  13  16
ENDBRANCH  12  13
ENDBRANCH  11  12
ENDBRANCH   1  11
BRANCH   9  23
HETATM   23  N4  UNL     1     -38.207  -8.935  23.841  1.00  0.00    -0.290 N 
HETATM   24  S1  UNL     1     -37.280 -10.288  24.186  1.00  0.00    -0.008 SA
HETATM   25  C13 UNL     1     -38.482 -11.493  24.089  1.00  0.00     0.054 A 
HETATM   26  C14 UNL     1     -38.799 -12.858  24.187  1.00  0.00     0.040 A 
HETATM   27  C16 UNL     1     -39.601 -10.760  23.778  1.00  0.00     0.102 A 
HETATM   28  C15 UNL     1     -40.140 -12.917  23.925  1.00  0.00     0.090 A 
HETATM   29  N5  UNL     1     -40.618 -11.687  23.685  1.00  0.00    -0.361 N 
ATOM     30  H5  UNL     1     -41.590 -11.469  23.465  1.00  0.00     0.165 HD
HETATM   31  C17 UNL     1     -39.436  -9.430  23.655  1.00  0.00     0.177 A 
BRANCH  31  32
HETATM   32  O1  UNL     1     -40.409  -8.618  23.366  1.00  0.00    -0.344 OA
ATOM     33  H1  UNL     1     -40.234  -7.686  23.315  1.00  0.00     0.219 HD
ENDBRANCH  31  32
ENDBRANCH   9  23
TORSDOF 9
ENDMDL
MODEL 5
REMARK VINA RESULT: -6.885150567      3.894      5.186
REMARK  9 active torsions:
REMARK  status: ('A' for Active; 'I' for Inactive)
REMARK    1  A    between atoms: N1_1  and  C1_5 
REMARK    2  A    between atoms: C1_5  and  C2_6 
REMARK    3  A    between atoms: C2_6  and  C3_7 
REMARK    4  A    between atoms: C3_7  and  N2_8 
REMARK    5  A    between atoms: N2_8  and  C4_11 
REMARK    6  A    between atoms: C4_11  and  C5_12 
REMARK    7  A    between atoms: C5_12  and  N3_13 
REMARK    8  A    between atoms: C12_21  and  N4_22 
REMARK    9  A    between atoms: C17_30  and  O1_31 
ROOT
HETATM    1  N3  UNL     1     -37.871  -5.017  23.773  1.00  0.00    -0.381 N 
HETATM    2  C6  UNL     1     -36.637  -4.503  23.396  1.00  0.00     0.086 C 
HETATM    3  C7  UNL     1     -36.180  -3.467  24.421  1.00  0.00     0.027 C 
HETATM    4  C8  UNL     1     -37.242  -3.068  25.394  1.00  0.00     0.024 C 
HETATM    5  C9  UNL     1     -38.058  -4.172  25.962  1.00  0.00     0.105 C 
HETATM    6 CL1  UNL     1     -37.750  -4.417  27.665  1.00  0.00    -0.123 Cl
HETATM    7  C10 UNL     1     -37.952  -5.442  25.138  1.00  0.00     0.104 C 
HETATM    8  C11 UNL     1     -36.848  -6.314  25.541  1.00  0.00     0.053 C 
HETATM    9  C12 UNL     1     -35.537  -6.182  24.873  1.00  0.00     0.103 C 
HETATM   10  C18 UNL     1     -35.605  -5.621  23.478  1.00  0.00     0.051 C 
ENDROOT
BRANCH   1  11
HETATM   11  C5  UNL     1     -39.078  -4.696  23.183  1.00  0.00     0.086 C 
BRANCH  11  12
HETATM   12  C4  UNL     1     -39.304  -3.577  22.298  1.00  0.00     0.276 C 
BRANCH  12  13
HETATM   13  N2  UNL     1     -40.015  -2.470  22.927  1.00  0.00    -0.071 N 
ATOM     14  H22 UNL     1     -39.928  -1.587  22.423  1.00  0.00     0.277 HD
ATOM     15  H21 UNL     1     -39.590  -2.152  23.799  1.00  0.00     0.277 HD
BRANCH  13  16
HETATM   16  C3  UNL     1     -41.409  -2.934  23.080  1.00  0.00     0.234 C 
BRANCH  16  17
HETATM   17  C2  UNL     1     -42.112  -3.060  21.763  1.00  0.00     0.055 C 
BRANCH  17  18
HETATM   18  C1  UNL     1     -43.415  -3.813  22.046  1.00  0.00     0.231 C 
BRANCH  18  19
HETATM   19  N1  UNL     1     -43.329  -5.174  21.531  1.00  0.00    -0.079 N 
ATOM     20  H13 UNL     1     -42.726  -5.762  22.106  1.00  0.00     0.274 HD
ATOM     21  H12 UNL     1     -44.203  -5.686  21.659  1.00  0.00     0.274 HD
ATOM     22  H11 UNL     1     -43.033  -5.162  20.556  1.00  0.00     0.274 HD
ENDBRANCH  18  19
ENDBRANCH  17  18
ENDBRANCH  16  17
ENDBRANCH  13  16
ENDBRANCH  12  13
ENDBRANCH  11  12
ENDBRANCH   1  11
BRANCH   9  23
HETATM   23  N4  UNL     1     -34.960  -7.534  24.740  1.00  0.00    -0.290 N 
HETATM   24  S1  UNL     1     -35.720  -9.008  24.495  1.00  0.00    -0.008 SA
HETATM   25  C13 UNL     1     -34.357 -10.032  24.454  1.00  0.00     0.054 A 
HETATM   26  C14 UNL     1     -33.865 -11.340  24.316  1.00  0.00     0.040 A 
HETATM   27  C16 UNL     1     -33.325  -9.146  24.642  1.00  0.00     0.102 A 
HETATM   28  C15 UNL     1     -32.508 -11.208  24.428  1.00  0.00     0.090 A 
HETATM   29  N5  UNL     1     -32.184  -9.920  24.619  1.00  0.00    -0.361 N 
ATOM     30  H5  UNL     1     -31.234  -9.566  24.731  1.00  0.00     0.165 HD
HETATM   31  C17 UNL     1     -33.661  -7.851  24.788  1.00  0.00     0.177 A 
BRANCH  31  32
HETATM   32  O1  UNL     1     -32.785  -6.907  24.969  1.00  0.00    -0.344 OA
ATOM     33  H1  UNL     1     -32.451  -6.747  25.844  1.00  0.00     0.219 HD
ENDBRANCH  31  32
ENDBRANCH   9  23
TORSDOF 9
ENDMDL
