MODEL 1
REMARK VINA RESULT: -8.410863558      0.000      0.000
REMARK  7 active torsions:
REMARK  status: ('A' for Active; 'I' for Inactive)
REMARK    1  A    between atoms: C4_4  and  C5_5 
REMARK    2  A    between atoms: C8_14  and  C9_15 
REMARK    3  A    between atoms: C11_19  and  N3_20 
REMARK    4  A    between atoms: C16_25  and  O3_26 
REMARK    5  A    between atoms: O3_26  and  C17_27 
REMARK    6  A    between atoms: C17_27  and  C18_28 
REMARK    7  A    between atoms: C18_28  and  O4_30 
ROOT
HETATM    1  C1  UNL     1     -35.587 -13.896  23.986  1.00  0.00     0.051 C 
HETATM    2  C2  UNL     1     -35.909 -12.464  24.041  1.00  0.00    -0.026 A 
HETATM    3  C3  UNL     1     -37.102 -12.004  23.556  1.00  0.00     0.021 A 
HETATM    4  C4  UNL     1     -37.480 -10.668  23.572  1.00  0.00    -0.003 A 
HETATM    5  C10 UNL     1     -36.569  -9.793  24.115  1.00  0.00     0.072 A 
HETATM    6 CL1  UNL     1     -36.918  -8.059  24.220  1.00  0.00    -0.081 Cl
HETATM    7  C11 UNL     1     -35.340 -10.228  24.619  1.00  0.00     0.087 A 
HETATM    8  C16 UNL     1     -34.995 -11.557  24.591  1.00  0.00     0.103 A 
ENDROOT
BRANCH   4   9
HETATM    9  C5  UNL     1     -38.762 -10.194  23.032  1.00  0.00     0.091 C 
HETATM   10  C6  UNL     1     -38.671  -9.521  21.692  1.00  0.00     0.047 C 
HETATM   11  N1  UNL     1     -39.486  -9.341  23.934  1.00  0.00    -0.341 N 
HETATM   12  C7  UNL     1     -40.868  -9.475  23.526  1.00  0.00     0.214 C 
ATOM     13  H1  UNL     1     -39.110  -8.771  24.692  1.00  0.00     0.164 HD
HETATM   14  N2  UNL     1     -41.858  -8.752  23.907  1.00  0.00    -0.365 N 
HETATM   15  O1  UNL     1     -40.959 -10.536  22.635  1.00  0.00    -0.307 OA
ATOM     16  H22 UNL     1     -41.792  -7.973  24.562  1.00  0.00     0.159 HD
ATOM     17  H21 UNL     1     -42.832  -8.846  23.620  1.00  0.00     0.159 HD
HETATM   18  C8  UNL     1     -39.787 -11.329  22.887  1.00  0.00     0.225 C 
BRANCH  18  19
HETATM   19  C9  UNL     1     -39.986 -12.023  24.173  1.00  0.00     0.266 C 
HETATM   20  O2  UNL     1     -40.565 -13.076  24.219  1.00  0.00    -0.304 OA
ENDBRANCH  18  19
ENDBRANCH   4   9
BRANCH   7  21
HETATM   21  N3  UNL     1     -34.459  -9.253  25.127  1.00  0.00    -0.377 N 
HETATM   22  C12 UNL     1     -33.787  -8.264  24.294  1.00  0.00     0.123 C 
HETATM   23  C13 UNL     1     -33.354  -7.160  25.230  1.00  0.00     0.021 C 
HETATM   24  C14 UNL     1     -33.680  -7.602  26.622  1.00  0.00     0.021 C 
HETATM   25  C15 UNL     1     -34.109  -9.057  26.508  1.00  0.00     0.123 C 
ENDBRANCH   7  21
BRANCH   8  26
HETATM   26  O3  UNL     1     -33.807 -12.082  25.061  1.00  0.00    -0.346 OA
BRANCH  26  27
HETATM   27  C17 UNL     1     -32.825 -12.501  24.145  1.00  0.00     0.207 C 
BRANCH  27  28
HETATM   28  C18 UNL     1     -31.883 -11.342  23.794  1.00  0.00     0.138 C 
HETATM   29  C19 UNL     1     -31.195 -10.874  25.052  1.00  0.00     0.041 C 
BRANCH  28  30
HETATM   30  O4  UNL     1     -30.913 -11.826  22.928  1.00  0.00    -0.394 OA
ATOM     31  H4  UNL     1     -30.621 -12.668  23.257  1.00  0.00     0.210 HD
ENDBRANCH  28  30
ENDBRANCH  27  28
ENDBRANCH  26  27
ENDBRANCH   8  26
TORSDOF 7
ENDMDL
MODEL 2
REMARK VINA RESULT: -7.753684855      4.787      8.023
REMARK  7 active torsions:
REMARK  status: ('A' for Active; 'I' for Inactive)
REMARK    1  A    between atoms: C4_4  and  C5_5 
REMARK    2  A    between atoms: C8_14  and  C9_15 
REMARK    3  A    between atoms: C11_19  and  N3_20 
REMARK    4  A    between atoms: C16_25  and  O3_26 
REMARK    5  A    between atoms: O3_26  and  C17_27 
REMARK    6  A    between atoms: C17_27  and  C18_28 
REMARK    7  A    between atoms: C18_28  and  O4_30 
ROOT
HETATM    1  C1  UNL     1     -37.187  -6.038  28.978  1.00  0.00     0.051 C 
HETATM    2  C2  UNL     1     -36.962  -6.321  27.554  1.00  0.00    -0.026 A 
HETATM    3  C3  UNL     1     -36.128  -7.336  27.174  1.00  0.00     0.021 A 
HETATM    4  C4  UNL     1     -35.864  -7.667  25.852  1.00  0.00    -0.003 A 
HETATM    5  C10 UNL     1     -36.502  -6.901  24.904  1.00  0.00     0.072 A 
HETATM    6 CL1  UNL     1     -36.277  -7.214  23.174  1.00  0.00    -0.081 Cl
HETATM    7  C11 UNL     1     -37.360  -5.856  25.256  1.00  0.00     0.087 A 
HETATM    8  C16 UNL     1     -37.602  -5.554  26.573  1.00  0.00     0.103 A 
ENDROOT
BRANCH   4   9
HETATM    9  C5  UNL     1     -34.953  -8.752  25.466  1.00  0.00     0.091 C 
HETATM   10  C6  UNL     1     -35.555  -9.790  24.563  1.00  0.00     0.047 C 
HETATM   11  N1  UNL     1     -34.334  -9.409  26.585  1.00  0.00    -0.341 N 
HETATM   12  C7  UNL     1     -33.113  -9.968  26.045  1.00  0.00     0.214 C 
ATOM     13  H1  UNL     1     -34.679  -9.468  27.543  1.00  0.00     0.164 HD
HETATM   14  N2  UNL     1     -32.332 -10.810  26.618  1.00  0.00    -0.365 N 
HETATM   15  O1  UNL     1     -32.913  -9.437  24.778  1.00  0.00    -0.307 OA
ATOM     16  H22 UNL     1     -32.478 -11.200  27.549  1.00  0.00     0.159 HD
ATOM     17  H21 UNL     1     -31.471 -11.204  26.237  1.00  0.00     0.159 HD
HETATM   18  C8  UNL     1     -33.694  -8.229  24.758  1.00  0.00     0.225 C 
BRANCH  18  19
HETATM   19  C9  UNL     1     -32.997  -7.234  25.594  1.00  0.00     0.266 C 
HETATM   20  O2  UNL     1     -32.830  -6.111  25.200  1.00  0.00    -0.304 OA
ENDBRANCH  18  19
ENDBRANCH   4   9
BRANCH   7  21
HETATM   21  N3  UNL     1     -37.942  -5.107  24.213  1.00  0.00    -0.377 N 
HETATM   22  C12 UNL     1     -39.253  -5.400  23.648  1.00  0.00     0.123 C 
HETATM   23  C13 UNL     1     -39.691  -4.137  22.945  1.00  0.00     0.021 C 
HETATM   24  C14 UNL     1     -38.552  -3.169  23.013  1.00  0.00     0.021 C 
HETATM   25  C15 UNL     1     -37.374  -3.951  23.574  1.00  0.00     0.123 C 
ENDBRANCH   7  21
BRANCH   8  26
HETATM   26  O3  UNL     1     -38.430  -4.542  27.020  1.00  0.00    -0.346 OA
BRANCH  26  27
HETATM   27  C17 UNL     1     -37.926  -3.233  27.130  1.00  0.00     0.207 C 
BRANCH  27  28
HETATM   28  C18 UNL     1     -38.913  -2.223  26.529  1.00  0.00     0.138 C 
HETATM   29  C19 UNL     1     -40.290  -2.838  26.507  1.00  0.00     0.041 C 
BRANCH  28  30
HETATM   30  O4  UNL     1     -38.951  -1.115  27.363  1.00  0.00    -0.394 OA
ATOM     31  H4  UNL     1     -39.819  -0.734  27.305  1.00  0.00     0.210 HD
ENDBRANCH  28  30
ENDBRANCH  27  28
ENDBRANCH  26  27
ENDBRANCH   8  26
TORSDOF 7
ENDMDL
MODEL 3
REMARK VINA RESULT: -7.715549789      2.416      6.444
REMARK  7 active torsions:
REMARK  status: ('A' for Active; 'I' for Inactive)
REMARK    1  A    between atoms: C4_4  and  C5_5 
REMARK    2  A    between atoms: C8_14  and  C9_15 
REMARK    3  A    between atoms: C11_19  and  N3_20 
REMARK    4  A    between atoms: C16_25  and  O3_26 
REMARK    5  A    between atoms: O3_26  and  C17_27 
REMARK    6  A    between atoms: C17_27  and  C18_28 
REMARK    7  A    between atoms: C18_28  and  O4_30 
ROOT
HETATM    1  C1  UNL     1     -36.432 -13.627  24.882  1.00  0.00     0.051 C 
HETATM    2  C2  UNL     1     -36.655 -12.200  24.610  1.00  0.00    -0.026 A 
HETATM    3  C3  UNL     1     -35.737 -11.267  25.006  1.00  0.00     0.021 A 
HETATM    4  C4  UNL     1     -35.874  -9.904  24.786  1.00  0.00    -0.003 A 
HETATM    5  C10 UNL     1     -37.018  -9.515  24.129  1.00  0.00     0.072 A 
HETATM    6 CL1  UNL     1     -37.326  -7.809  23.761  1.00  0.00    -0.081 Cl
HETATM    7  C11 UNL     1     -37.979 -10.440  23.710  1.00  0.00     0.087 A 
HETATM    8  C16 UNL     1     -37.813 -11.783  23.941  1.00  0.00     0.103 A 
ENDROOT
BRANCH   4   9
HETATM    9  C5  UNL     1     -34.881  -8.918  25.233  1.00  0.00     0.091 C 
HETATM   10  C6  UNL     1     -34.120  -8.245  24.126  1.00  0.00     0.047 C 
HETATM   11  N1  UNL     1     -33.946  -9.438  26.192  1.00  0.00    -0.341 N 
HETATM   12  C7  UNL     1     -33.488  -8.272  26.918  1.00  0.00     0.214 C 
ATOM     13  H1  UNL     1     -33.668 -10.410  26.331  1.00  0.00     0.164 HD
HETATM   14  N2  UNL     1     -32.501  -8.212  27.736  1.00  0.00    -0.365 N 
HETATM   15  O1  UNL     1     -34.305  -7.201  26.582  1.00  0.00    -0.307 OA
ATOM     16  H22 UNL     1     -31.901  -8.999  27.983  1.00  0.00     0.159 HD
ATOM     17  H21 UNL     1     -32.179  -7.390  28.248  1.00  0.00     0.159 HD
HETATM   18  C8  UNL     1     -35.511  -7.802  26.079  1.00  0.00     0.225 C 
BRANCH  18  19
HETATM   19  C9  UNL     1     -36.242  -8.364  27.228  1.00  0.00     0.266 C 
HETATM   20  O2  UNL     1     -36.548  -7.670  28.161  1.00  0.00    -0.304 OA
ENDBRANCH  18  19
ENDBRANCH   4   9
BRANCH   7  21
HETATM   21  N3  UNL     1     -39.133  -9.943  23.073  1.00  0.00    -0.377 N 
HETATM   22  C12 UNL     1     -39.321  -9.953  21.628  1.00  0.00     0.123 C 
HETATM   23  C13 UNL     1     -40.807  -9.801  21.403  1.00  0.00     0.021 C 
HETATM   24  C14 UNL     1     -41.440  -9.577  22.741  1.00  0.00     0.021 C 
HETATM   25  C15 UNL     1     -40.292  -9.387  23.719  1.00  0.00     0.123 C 
ENDBRANCH   7  21
BRANCH   8  26
HETATM   26  O3  UNL     1     -38.704 -12.772  23.570  1.00  0.00    -0.346 OA
BRANCH  26  27
HETATM   27  C17 UNL     1     -39.883 -12.957  24.314  1.00  0.00     0.207 C 
BRANCH  27  28
HETATM   28  C18 UNL     1     -39.963 -14.391  24.853  1.00  0.00     0.138 C 
HETATM   29  C19 UNL     1     -39.705 -14.370  26.339  1.00  0.00     0.041 C 
BRANCH  28  30
HETATM   30  O4  UNL     1     -41.254 -14.855  24.648  1.00  0.00    -0.394 OA
ATOM     31  H4  UNL     1     -41.286 -15.764  24.921  1.00  0.00     0.210 HD
ENDBRANCH  28  30
ENDBRANCH  27  28
ENDBRANCH  26  27
ENDBRANCH   8  26
TORSDOF 7
ENDMDL
MODEL 4
REMARK VINA RESULT: -7.677137874      2.653      4.263
REMARK  7 active torsions:
REMARK  status: ('A' for Active; 'I' for Inactive)
REMARK    1  A    between atoms: C4_4  and  C5_5 
REMARK    2  A    between atoms: C8_14  and  C9_15 
REMARK    3  A    between atoms: C11_19  and  N3_20 
REMARK    4  A    between atoms: C16_25  and  O3_26 
REMARK    5  A    between atoms: O3_26  and  C17_27 
REMARK    6  A    between atoms: C17_27  and  C18_28 
REMARK    7  A    between atoms: C18_28  and  O4_30 
ROOT
HETATM    1  C1  UNL     1     -36.648  -8.213  24.872  1.00  0.00     0.051 C 
HETATM    2  C2  UNL     1     -36.495  -9.665  24.707  1.00  0.00    -0.026 A 
HETATM    3  C3  UNL     1     -37.523 -10.511  25.021  1.00  0.00     0.021 A 
HETATM    4  C4  UNL     1     -37.456 -11.891  24.892  1.00  0.00    -0.003 A 
HETATM    5  C10 UNL     1     -36.267 -12.392  24.418  1.00  0.00     0.072 A 
HETATM    6 CL1  UNL     1     -36.038 -14.134  24.183  1.00  0.00    -0.081 Cl
HETATM    7  C11 UNL     1     -35.195 -11.559  24.087  1.00  0.00     0.087 A 
HETATM    8  C16 UNL     1     -35.292 -10.196  24.224  1.00  0.00     0.103 A 
ENDROOT
BRANCH   4   9
HETATM    9  C5  UNL     1     -38.569 -12.781  25.249  1.00  0.00     0.091 C 
HETATM   10  C6  UNL     1     -38.591 -13.217  26.686  1.00  0.00     0.047 C 
HETATM   11  N1  UNL     1     -38.671 -13.942  24.408  1.00  0.00    -0.341 N 
HETATM   12  C7  UNL     1     -40.061 -14.333  24.499  1.00  0.00     0.214 C 
ATOM     13  H1  UNL     1     -37.929 -14.389  23.868  1.00  0.00     0.164 HD
HETATM   14  N2  UNL     1     -40.582 -15.428  24.079  1.00  0.00    -0.365 N 
HETATM   15  O1  UNL     1     -40.761 -13.312  25.127  1.00  0.00    -0.307 OA
ATOM     16  H22 UNL     1     -40.068 -16.179  23.618  1.00  0.00     0.159 HD
ATOM     17  H21 UNL     1     -41.563 -15.704  24.143  1.00  0.00     0.159 HD
HETATM   18  C8  UNL     1     -39.937 -12.145  24.961  1.00  0.00     0.225 C 
BRANCH  18  19
HETATM   19  C9  UNL     1     -40.035 -11.727  23.550  1.00  0.00     0.266 C 
HETATM   20  O2  UNL     1     -40.560 -10.688  23.253  1.00  0.00    -0.304 OA
ENDBRANCH  18  19
ENDBRANCH   4   9
BRANCH   7  21
HETATM   21  N3  UNL     1     -34.006 -12.168  23.640  1.00  0.00    -0.377 N 
HETATM   22  C12 UNL     1     -33.801 -12.621  22.269  1.00  0.00     0.123 C 
HETATM   23  C13 UNL     1     -32.306 -12.749  22.096  1.00  0.00     0.021 C 
HETATM   24  C14 UNL     1     -31.677 -12.484  23.428  1.00  0.00     0.021 C 
HETATM   25  C15 UNL     1     -32.825 -12.411  24.423  1.00  0.00     0.123 C 
ENDBRANCH   7  21
BRANCH   8  26
HETATM   26  O3  UNL     1     -34.290  -9.292  23.928  1.00  0.00    -0.346 OA
BRANCH  26  27
HETATM   27  C17 UNL     1     -33.280  -9.043  24.874  1.00  0.00     0.207 C 
BRANCH  27  28
HETATM   28  C18 UNL     1     -33.458  -7.656  25.504  1.00  0.00     0.138 C 
HETATM   29  C19 UNL     1     -33.102  -7.734  26.968  1.00  0.00     0.041 C 
BRANCH  28  30
HETATM   30  O4  UNL     1     -32.567  -6.788  24.890  1.00  0.00    -0.394 OA
ATOM     31  H4  UNL     1     -33.014  -6.377  24.160  1.00  0.00     0.210 HD
ENDBRANCH  28  30
ENDBRANCH  27  28
ENDBRANCH  26  27
ENDBRANCH   8  26
TORSDOF 7
ENDMDL
MODEL 5
REMARK VINA RESULT: -7.545580095      2.962      4.842
REMARK  7 active torsions:
REMARK  status: ('A' for Active; 'I' for Inactive)
REMARK    1  A    between atoms: C4_4  and  C5_5 
REMARK    2  A    between atoms: C8_14  and  C9_15 
REMARK    3  A    between atoms: C11_19  and  N3_20 
REMARK    4  A    between atoms: C16_25  and  O3_26 
REMARK    5  A    between atoms: O3_26  and  C17_27 
REMARK    6  A    between atoms: C17_27  and  C18_28 
REMARK    7  A    between atoms: C18_28  and  O4_30 
ROOT
HETATM    1  C1  UNL     1     -39.306 -11.609  23.581  1.00  0.00     0.051 C 
HETATM    2  C2  UNL     1     -38.070 -10.845  23.799  1.00  0.00    -0.026 A 
HETATM    3  C3  UNL     1     -38.111  -9.484  23.926  1.00  0.00     0.021 A 
HETATM    4  C4  UNL     1     -36.990  -8.693  24.134  1.00  0.00    -0.003 A 
HETATM    5  C10 UNL     1     -35.790  -9.361  24.209  1.00  0.00     0.072 A 
HETATM    6 CL1  UNL     1     -34.273  -8.487  24.489  1.00  0.00    -0.081 Cl
HETATM    7  C11 UNL     1     -35.710 -10.750  24.082  1.00  0.00     0.087 A 
HETATM    8  C16 UNL     1     -36.838 -11.506  23.879  1.00  0.00     0.103 A 
ENDROOT
BRANCH   4   9
HETATM    9  C5  UNL     1     -37.055  -7.230  24.254  1.00  0.00     0.091 C 
HETATM   10  C6  UNL     1     -36.204  -6.649  25.347  1.00  0.00     0.047 C 
HETATM   11  N1  UNL     1     -38.393  -6.723  24.386  1.00  0.00    -0.341 N 
HETATM   12  C7  UNL     1     -38.312  -5.361  23.902  1.00  0.00     0.214 C 
ATOM     13  H1  UNL     1     -39.215  -7.212  24.740  1.00  0.00     0.164 HD
HETATM   14  N2  UNL     1     -39.209  -4.449  24.011  1.00  0.00    -0.365 N 
HETATM   15  O1  UNL     1     -37.081  -5.191  23.283  1.00  0.00    -0.307 OA
ATOM     16  H22 UNL     1     -40.114  -4.574  24.465  1.00  0.00     0.159 HD
ATOM     17  H21 UNL     1     -39.152  -3.490  23.669  1.00  0.00     0.159 HD
HETATM   18  C8  UNL     1     -36.648  -6.522  22.954  1.00  0.00     0.225 C 
BRANCH  18  19
HETATM   19  C9  UNL     1     -37.469  -6.991  21.822  1.00  0.00     0.266 C 
HETATM   20  O2  UNL     1     -37.416  -6.439  20.755  1.00  0.00    -0.304 OA
ENDBRANCH  18  19
ENDBRANCH   4   9
BRANCH   7  21
HETATM   21  N3  UNL     1     -34.433 -11.341  24.141  1.00  0.00    -0.377 N 
HETATM   22  C12 UNL     1     -33.806 -12.016  23.011  1.00  0.00     0.123 C 
HETATM   23  C13 UNL     1     -32.329 -12.063  23.325  1.00  0.00     0.021 C 
HETATM   24  C14 UNL     1     -32.149 -11.518  24.708  1.00  0.00     0.021 C 
HETATM   25  C15 UNL     1     -33.550 -11.352  25.276  1.00  0.00     0.123 C 
ENDBRANCH   7  21
BRANCH   8  26
HETATM   26  O3  UNL     1     -36.862 -12.880  23.739  1.00  0.00    -0.346 OA
BRANCH  26  27
HETATM   27  C17 UNL     1     -36.788 -13.694  24.884  1.00  0.00     0.207 C 
BRANCH  27  28
HETATM   28  C18 UNL     1     -38.181 -14.209  25.273  1.00  0.00     0.138 C 
HETATM   29  C19 UNL     1     -38.159 -15.717  25.282  1.00  0.00     0.041 C 
BRANCH  28  30
HETATM   30  O4  UNL     1     -38.453 -13.775  26.562  1.00  0.00    -0.394 OA
ATOM     31  H4  UNL     1     -38.378 -12.828  26.575  1.00  0.00     0.210 HD
ENDBRANCH  28  30
ENDBRANCH  27  28
ENDBRANCH  26  27
ENDBRANCH   8  26
TORSDOF 7
ENDMDL
