MODEL 1
REMARK VINA RESULT: -9.481816802      0.000      0.000
REMARK  6 active torsions:
REMARK  status: ('A' for Active; 'I' for Inactive)
REMARK    1  A    between atoms: N1_1  and  C1_5 
REMARK    2  A    between atoms: C4_8  and  C5_9 
REMARK    3  A    between atoms: C5_9  and  N2_10 
REMARK    4  A    between atoms: C8_13  and  C9_14 
REMARK    5  A    between atoms: N3_16  and  C11_17 
REMARK    6  A    between atoms: C16_27  and  C17_28 
ROOT
HETATM    1  C9  UNL     1       1.156  32.845  24.809  1.00  0.00     0.038 A 
HETATM    2  C10 UNL     1       2.353  32.323  24.368  1.00  0.00     0.126 A 
HETATM    3  N3  UNL     1       2.520  31.082  24.860  1.00  0.00    -0.297 N 
HETATM    4  N5  UNL     1       1.473  30.807  25.591  1.00  0.00    -0.297 N 
ATOM      5  H5  UNL     1       1.327  29.929  26.090  1.00  0.00     0.187 HD
HETATM    6  C16 UNL     1       0.602  31.860  25.593  1.00  0.00     0.075 A 
ENDROOT
BRANCH   1   7
HETATM    7  C8  UNL     1       0.618  34.168  24.492  1.00  0.00     0.063 A 
HETATM    8  C7  UNL     1      -0.347  34.470  23.558  1.00  0.00     0.050 A 
HETATM    9  C6  UNL     1      -0.546  35.830  23.595  1.00  0.00     0.112 A 
HETATM   10  N2  UNL     1       0.274  36.332  24.522  1.00  0.00    -0.303 N 
HETATM   11  N8  UNL     1       0.965  35.342  25.055  1.00  0.00    -0.298 N 
ATOM     12  H8  UNL     1       1.664  35.450  25.790  1.00  0.00     0.187 HD
BRANCH  10  13
HETATM   13  C5  UNL     1       0.409  37.694  24.908  1.00  0.00     0.152 C 
BRANCH  13  14
HETATM   14  C4  UNL     1       1.776  38.111  25.367  1.00  0.00     0.006 C 
HETATM   15  C3  UNL     1       2.699  38.568  24.292  1.00  0.00     0.008 C 
HETATM   16  C2  UNL     1       3.004  40.038  24.347  1.00  0.00     0.036 C 
HETATM   17  C1  UNL     1       3.887  40.496  25.420  1.00  0.00     0.217 C 
HETATM   18  C22 UNL     1       4.188  39.562  26.531  1.00  0.00     0.200 C 
HETATM   19  C21 UNL     1       3.010  39.004  27.252  1.00  0.00     0.040 C 
HETATM   20  F1  UNL     1       5.101  38.559  26.168  1.00  0.00    -0.247 F 
HETATM   21  C20 UNL     1       1.716  39.096  26.515  1.00  0.00     0.009 C 
BRANCH  17  22
HETATM   22  N1  UNL     1       5.177  40.940  24.871  1.00  0.00    -0.072 N 
ATOM     23  H13 UNL     1       5.396  40.473  23.991  1.00  0.00     0.274 HD
ATOM     24  H12 UNL     1       5.134  41.899  24.527  1.00  0.00     0.274 HD
ATOM     25  H11 UNL     1       5.920  40.817  25.561  1.00  0.00     0.274 HD
ENDBRANCH  17  22
ENDBRANCH  13  14
ENDBRANCH  10  13
ENDBRANCH   1   7
BRANCH   6  26
HETATM   26  C17 UNL     1      -0.671  31.952  26.280  1.00  0.00     0.027 A 
HETATM   27  C18 UNL     1      -1.894  31.905  25.657  1.00  0.00     0.122 A 
HETATM   28  N6  UNL     1      -2.827  32.021  26.608  1.00  0.00    -0.311 N 
HETATM   29  N7  UNL     1      -2.264  32.139  27.794  1.00  0.00    -0.311 N 
ATOM     30  H6  UNL     1      -3.833  32.018  26.440  1.00  0.00     0.186 HD
HETATM   31  C19 UNL     1      -0.914  32.101  27.642  1.00  0.00     0.122 A 
ATOM     32  H7  UNL     1      -2.760  32.242  28.680  1.00  0.00     0.186 HD
ENDBRANCH   6  26
BRANCH   3  33
HETATM   33  C11 UNL     1       3.642  30.202  24.633  1.00  0.00     0.110 C 
HETATM   34  C12 UNL     1       4.961  30.900  24.979  1.00  0.00     0.055 C 
HETATM   35  C13 UNL     1       6.071  29.973  24.542  1.00  0.00     0.234 C 
HETATM   36  N4  UNL     1       6.187  29.939  23.118  1.00  0.00    -0.075 N 
HETATM   37  C14 UNL     1       4.958  30.369  22.497  1.00  0.00     0.234 C 
ATOM     38  H42 UNL     1       6.986  30.482  22.792  1.00  0.00     0.277 HD
ATOM     39  H41 UNL     1       6.480  29.021  22.784  1.00  0.00     0.277 HD
HETATM   40  C15 UNL     1       3.737  29.767  23.201  1.00  0.00     0.055 C 
ENDBRANCH   3  33
TORSDOF 6
ENDMDL
MODEL 2
REMARK VINA RESULT: -9.326523823      1.025      1.485
REMARK  6 active torsions:
REMARK  status: ('A' for Active; 'I' for Inactive)
REMARK    1  A    between atoms: N1_1  and  C1_5 
REMARK    2  A    between atoms: C4_8  and  C5_9 
REMARK    3  A    between atoms: C5_9  and  N2_10 
REMARK    4  A    between atoms: C8_13  and  C9_14 
REMARK    5  A    between atoms: N3_16  and  C11_17 
REMARK    6  A    between atoms: C16_27  and  C17_28 
ROOT
HETATM    1  C9  UNL     1       1.207  32.886  24.780  1.00  0.00     0.038 A 
HETATM    2  C10 UNL     1       2.401  32.350  24.349  1.00  0.00     0.126 A 
HETATM    3  N3  UNL     1       2.550  31.107  24.841  1.00  0.00    -0.297 N 
HETATM    4  N5  UNL     1       1.494  30.843  25.563  1.00  0.00    -0.297 N 
ATOM      5  H5  UNL     1       1.333  29.967  26.060  1.00  0.00     0.187 HD
HETATM    6  C16 UNL     1       0.635  31.906  25.560  1.00  0.00     0.075 A 
ENDROOT
BRANCH   1   7
HETATM    7  C8  UNL     1       0.686  34.216  24.461  1.00  0.00     0.063 A 
HETATM    8  C7  UNL     1      -0.195  34.542  23.456  1.00  0.00     0.050 A 
HETATM    9  C6  UNL     1      -0.408  35.899  23.519  1.00  0.00     0.112 A 
HETATM   10  N2  UNL     1       0.322  36.374  24.532  1.00  0.00    -0.303 N 
HETATM   11  N8  UNL     1       0.972  35.372  25.090  1.00  0.00    -0.298 N 
ATOM     12  H8  UNL     1       1.602  35.460  25.888  1.00  0.00     0.187 HD
BRANCH  10  13
HETATM   13  C5  UNL     1       0.409  37.724  24.972  1.00  0.00     0.152 C 
BRANCH  13  14
HETATM   14  C4  UNL     1       1.756  38.372  24.828  1.00  0.00     0.006 C 
HETATM   15  C3  UNL     1       2.612  38.342  26.046  1.00  0.00     0.008 C 
HETATM   16  C2  UNL     1       3.812  37.448  25.916  1.00  0.00     0.036 C 
HETATM   17  C1  UNL     1       4.900  37.914  25.055  1.00  0.00     0.217 C 
HETATM   18  C22 UNL     1       4.646  39.067  24.159  1.00  0.00     0.200 C 
HETATM   19  C21 UNL     1       3.490  38.927  23.229  1.00  0.00     0.040 C 
HETATM   20  F1  UNL     1       4.621  40.292  24.842  1.00  0.00    -0.247 F 
HETATM   21  C20 UNL     1       2.499  37.877  23.605  1.00  0.00     0.009 C 
BRANCH  17  22
HETATM   22  N1  UNL     1       6.085  38.249  25.860  1.00  0.00    -0.072 N 
ATOM     23  H13 UNL     1       5.838  38.778  26.697  1.00  0.00     0.274 HD
ATOM     24  H12 UNL     1       6.482  37.426  26.313  1.00  0.00     0.274 HD
ATOM     25  H11 UNL     1       6.776  38.739  25.291  1.00  0.00     0.274 HD
ENDBRANCH  17  22
ENDBRANCH  13  14
ENDBRANCH  10  13
ENDBRANCH   1   7
BRANCH   6  26
HETATM   26  C17 UNL     1      -0.642  32.013  26.237  1.00  0.00     0.027 A 
HETATM   27  C18 UNL     1      -1.860  32.004  25.602  1.00  0.00     0.122 A 
HETATM   28  N6  UNL     1      -2.800  32.121  26.546  1.00  0.00    -0.311 N 
HETATM   29  N7  UNL     1      -2.245  32.205  27.740  1.00  0.00    -0.311 N 
ATOM     30  H6  UNL     1      -3.804  32.144  26.369  1.00  0.00     0.186 HD
HETATM   31  C19 UNL     1      -0.895  32.141  27.599  1.00  0.00     0.122 A 
ATOM     32  H7  UNL     1      -2.747  32.301  28.622  1.00  0.00     0.186 HD
ENDBRANCH   6  26
BRANCH   3  33
HETATM   33  C11 UNL     1       3.663  30.214  24.622  1.00  0.00     0.110 C 
HETATM   34  C12 UNL     1       4.988  30.899  24.970  1.00  0.00     0.055 C 
HETATM   35  C13 UNL     1       6.090  29.958  24.541  1.00  0.00     0.234 C 
HETATM   36  N4  UNL     1       6.211  29.918  23.118  1.00  0.00    -0.075 N 
HETATM   37  C14 UNL     1       4.989  30.358  22.490  1.00  0.00     0.234 C 
ATOM     38  H42 UNL     1       7.017  30.451  22.792  1.00  0.00     0.277 HD
ATOM     39  H41 UNL     1       6.495  28.995  22.789  1.00  0.00     0.277 HD
HETATM   40  C15 UNL     1       3.759  29.772  23.192  1.00  0.00     0.055 C 
ENDBRANCH   3  33
TORSDOF 6
ENDMDL
MODEL 3
REMARK VINA RESULT: -8.985846001      1.074      1.505
REMARK  6 active torsions:
REMARK  status: ('A' for Active; 'I' for Inactive)
REMARK    1  A    between atoms: N1_1  and  C1_5 
REMARK    2  A    between atoms: C4_8  and  C5_9 
REMARK    3  A    between atoms: C5_9  and  N2_10 
REMARK    4  A    between atoms: C8_13  and  C9_14 
REMARK    5  A    between atoms: N3_16  and  C11_17 
REMARK    6  A    between atoms: C16_27  and  C17_28 
ROOT
HETATM    1  C9  UNL     1       1.201  32.894  24.775  1.00  0.00     0.038 A 
HETATM    2  C10 UNL     1       2.392  32.358  24.337  1.00  0.00     0.126 A 
HETATM    3  N3  UNL     1       2.532  31.105  24.807  1.00  0.00    -0.297 N 
HETATM    4  N5  UNL     1       1.473  30.836  25.522  1.00  0.00    -0.297 N 
ATOM      5  H5  UNL     1       1.305  29.952  26.003  1.00  0.00     0.187 HD
HETATM    6  C16 UNL     1       0.620  31.904  25.535  1.00  0.00     0.075 A 
ENDROOT
BRANCH   1   7
HETATM    7  C8  UNL     1       0.690  34.232  24.477  1.00  0.00     0.063 A 
HETATM    8  C7  UNL     1      -0.218  34.576  23.502  1.00  0.00     0.050 A 
HETATM    9  C6  UNL     1      -0.410  35.935  23.578  1.00  0.00     0.112 A 
HETATM   10  N2  UNL     1       0.359  36.396  24.568  1.00  0.00    -0.303 N 
HETATM   11  N8  UNL     1       1.012  35.381  25.102  1.00  0.00    -0.298 N 
ATOM     12  H8  UNL     1       1.668  35.456  25.879  1.00  0.00     0.187 HD
BRANCH  10  13
HETATM   13  C5  UNL     1       0.480  37.742  25.011  1.00  0.00     0.152 C 
BRANCH  13  14
HETATM   14  C4  UNL     1       1.500  38.577  24.292  1.00  0.00     0.006 C 
HETATM   15  C3  UNL     1       1.820  39.883  24.931  1.00  0.00     0.008 C 
HETATM   16  C2  UNL     1       3.207  39.948  25.505  1.00  0.00     0.036 C 
HETATM   17  C1  UNL     1       4.317  40.039  24.556  1.00  0.00     0.217 C 
HETATM   18  C22 UNL     1       4.043  39.778  23.123  1.00  0.00     0.200 C 
HETATM   19  C21 UNL     1       3.412  38.466  22.808  1.00  0.00     0.040 C 
HETATM   20  F1  UNL     1       3.379  40.842  22.493  1.00  0.00    -0.247 F 
HETATM   21  C20 UNL     1       2.750  37.790  23.961  1.00  0.00     0.009 C 
BRANCH  17  22
HETATM   22  N1  UNL     1       4.955  41.362  24.637  1.00  0.00    -0.072 N 
ATOM     23  H13 UNL     1       5.789  41.418  24.051  1.00  0.00     0.274 HD
ATOM     24  H12 UNL     1       4.398  42.081  24.176  1.00  0.00     0.274 HD
ATOM     25  H11 UNL     1       5.157  41.603  25.608  1.00  0.00     0.274 HD
ENDBRANCH  17  22
ENDBRANCH  13  14
ENDBRANCH  10  13
ENDBRANCH   1   7
BRANCH   6  26
HETATM   26  C17 UNL     1      -0.657  32.007  26.211  1.00  0.00     0.027 A 
HETATM   27  C18 UNL     1      -1.876  31.970  25.578  1.00  0.00     0.122 A 
HETATM   28  N6  UNL     1      -2.816  32.094  26.520  1.00  0.00    -0.311 N 
HETATM   29  N7  UNL     1      -2.263  32.208  27.711  1.00  0.00    -0.311 N 
ATOM     30  H6  UNL     1      -3.821  32.099  26.343  1.00  0.00     0.186 HD
HETATM   31  C19 UNL     1      -0.911  32.159  27.571  1.00  0.00     0.122 A 
ATOM     32  H7  UNL     1      -2.765  32.315  28.592  1.00  0.00     0.186 HD
ENDBRANCH   6  26
BRANCH   3  33
HETATM   33  C11 UNL     1       3.639  30.209  24.575  1.00  0.00     0.110 C 
HETATM   34  C12 UNL     1       4.967  30.875  24.950  1.00  0.00     0.055 C 
HETATM   35  C13 UNL     1       6.065  29.936  24.507  1.00  0.00     0.234 C 
HETATM   36  N4  UNL     1       6.197  29.928  23.084  1.00  0.00    -0.075 N 
HETATM   37  C14 UNL     1       4.983  30.393  22.458  1.00  0.00     0.234 C 
ATOM     38  H42 UNL     1       7.010  30.463  22.778  1.00  0.00     0.277 HD
ATOM     39  H41 UNL     1       6.476  29.011  22.735  1.00  0.00     0.277 HD
HETATM   40  C15 UNL     1       3.743  29.800  23.136  1.00  0.00     0.055 C 
ENDBRANCH   3  33
TORSDOF 6
ENDMDL
MODEL 4
REMARK VINA RESULT: -8.935025995      2.585      3.399
REMARK  6 active torsions:
REMARK  status: ('A' for Active; 'I' for Inactive)
REMARK    1  A    between atoms: N1_1  and  C1_5 
REMARK    2  A    between atoms: C4_8  and  C5_9 
REMARK    3  A    between atoms: C5_9  and  N2_10 
REMARK    4  A    between atoms: C8_13  and  C9_14 
REMARK    5  A    between atoms: N3_16  and  C11_17 
REMARK    6  A    between atoms: C16_27  and  C17_28 
ROOT
HETATM    1  C9  UNL     1       1.203  32.846  24.767  1.00  0.00     0.038 A 
HETATM    2  C10 UNL     1       2.401  32.311  24.345  1.00  0.00     0.126 A 
HETATM    3  N3  UNL     1       2.549  31.070  24.842  1.00  0.00    -0.297 N 
HETATM    4  N5  UNL     1       1.490  30.806  25.559  1.00  0.00    -0.297 N 
ATOM      5  H5  UNL     1       1.328  29.931  26.058  1.00  0.00     0.187 HD
HETATM    6  C16 UNL     1       0.628  31.868  25.546  1.00  0.00     0.075 A 
ENDROOT
BRANCH   1   7
HETATM    7  C8  UNL     1       0.682  34.173  24.440  1.00  0.00     0.063 A 
HETATM    8  C7  UNL     1      -0.634  34.574  24.451  1.00  0.00     0.050 A 
HETATM    9  C6  UNL     1      -0.667  35.896  24.078  1.00  0.00     0.112 A 
HETATM   10  N2  UNL     1       0.592  36.281  23.849  1.00  0.00    -0.303 N 
HETATM   11  N8  UNL     1       1.392  35.255  24.065  1.00  0.00    -0.298 N 
ATOM     12  H8  UNL     1       2.407  35.277  23.963  1.00  0.00     0.187 HD
BRANCH  10  13
HETATM   13  C5  UNL     1       1.040  37.569  23.446  1.00  0.00     0.152 C 
BRANCH  13  14
HETATM   14  C4  UNL     1       1.803  37.620  22.154  1.00  0.00     0.006 C 
HETATM   15  C3  UNL     1       3.275  37.426  22.273  1.00  0.00     0.008 C 
HETATM   16  C2  UNL     1       3.760  36.129  21.692  1.00  0.00     0.036 C 
HETATM   17  C1  UNL     1       3.775  36.017  20.233  1.00  0.00     0.217 C 
HETATM   18  C22 UNL     1       3.062  37.046  19.440  1.00  0.00     0.200 C 
HETATM   19  C21 UNL     1       1.622  37.240  19.767  1.00  0.00     0.040 C 
HETATM   20  F1  UNL     1       3.753  38.266  19.383  1.00  0.00    -0.247 F 
HETATM   21  C20 UNL     1       1.200  36.716  21.099  1.00  0.00     0.009 C 
BRANCH  17  22
HETATM   22  N1  UNL     1       5.158  35.974  19.734  1.00  0.00    -0.072 N 
ATOM     23  H13 UNL     1       5.767  35.434  20.351  1.00  0.00     0.274 HD
ATOM     24  H12 UNL     1       5.242  35.398  18.897  1.00  0.00     0.274 HD
ATOM     25  H11 UNL     1       5.513  36.918  19.582  1.00  0.00     0.274 HD
ENDBRANCH  17  22
ENDBRANCH  13  14
ENDBRANCH  10  13
ENDBRANCH   1   7
BRANCH   6  26
HETATM   26  C17 UNL     1      -0.652  31.974  26.215  1.00  0.00     0.027 A 
HETATM   27  C18 UNL     1      -0.809  32.220  27.558  1.00  0.00     0.122 A 
HETATM   28  N6  UNL     1      -2.123  32.246  27.805  1.00  0.00    -0.311 N 
HETATM   29  N7  UNL     1      -2.804  32.030  26.698  1.00  0.00    -0.311 N 
ATOM     30  H6  UNL     1      -2.539  32.411  28.722  1.00  0.00     0.186 HD
HETATM   31  C19 UNL     1      -1.928  31.854  25.673  1.00  0.00     0.122 A 
ATOM     32  H7  UNL     1      -3.821  32.000  26.622  1.00  0.00     0.186 HD
ENDBRANCH   6  26
BRANCH   3  33
HETATM   33  C11 UNL     1       3.666  30.179  24.633  1.00  0.00     0.110 C 
HETATM   34  C12 UNL     1       4.987  30.867  24.989  1.00  0.00     0.055 C 
HETATM   35  C13 UNL     1       6.094  29.928  24.570  1.00  0.00     0.234 C 
HETATM   36  N4  UNL     1       6.225  29.884  23.148  1.00  0.00    -0.075 N 
HETATM   37  C14 UNL     1       5.007  30.321  22.510  1.00  0.00     0.234 C 
ATOM     38  H42 UNL     1       7.033  30.418  22.827  1.00  0.00     0.277 HD
ATOM     39  H41 UNL     1       6.513  28.961  22.823  1.00  0.00     0.277 HD
HETATM   40  C15 UNL     1       3.773  29.734  23.205  1.00  0.00     0.055 C 
ENDBRANCH   3  33
TORSDOF 6
ENDMDL
MODEL 5
REMARK VINA RESULT: -8.812343628      2.845      3.433
REMARK  6 active torsions:
REMARK  status: ('A' for Active; 'I' for Inactive)
REMARK    1  A    between atoms: N1_1  and  C1_5 
REMARK    2  A    between atoms: C4_8  and  C5_9 
REMARK    3  A    between atoms: C5_9  and  N2_10 
REMARK    4  A    between atoms: C8_13  and  C9_14 
REMARK    5  A    between atoms: N3_16  and  C11_17 
REMARK    6  A    between atoms: C16_27  and  C17_28 
ROOT
HETATM    1  C9  UNL     1       1.183  32.821  24.637  1.00  0.00     0.038 A 
HETATM    2  C10 UNL     1       2.398  32.286  24.267  1.00  0.00     0.126 A 
HETATM    3  N3  UNL     1       2.573  31.091  24.860  1.00  0.00    -0.297 N 
HETATM    4  N5  UNL     1       1.513  30.857  25.587  1.00  0.00    -0.297 N 
ATOM      5  H5  UNL     1       1.369  30.020  26.152  1.00  0.00     0.187 HD
HETATM    6  C16 UNL     1       0.626  31.892  25.485  1.00  0.00     0.075 A 
ENDROOT
BRANCH   1   7
HETATM    7  C8  UNL     1       0.632  34.105  24.203  1.00  0.00     0.063 A 
HETATM    8  C7  UNL     1      -0.310  34.867  24.855  1.00  0.00     0.050 A 
HETATM    9  C6  UNL     1      -0.533  35.989  24.093  1.00  0.00     0.112 A 
HETATM   10  N2  UNL     1       0.250  35.905  23.014  1.00  0.00    -0.303 N 
HETATM   11  N8  UNL     1       0.942  34.784  23.082  1.00  0.00    -0.298 N 
ATOM     12  H8  UNL     1       1.619  34.475  22.383  1.00  0.00     0.187 HD
BRANCH  10  13
HETATM   13  C5  UNL     1       0.357  36.844  21.951  1.00  0.00     0.152 C 
BRANCH  13  14
HETATM   14  C4  UNL     1       1.656  36.834  21.199  1.00  0.00     0.006 C 
HETATM   15  C3  UNL     1       1.546  37.055  19.731  1.00  0.00     0.008 C 
HETATM   16  C2  UNL     1       2.106  38.373  19.278  1.00  0.00     0.036 C 
HETATM   17  C1  UNL     1       3.563  38.514  19.278  1.00  0.00     0.217 C 
HETATM   18  C22 UNL     1       4.370  37.486  19.978  1.00  0.00     0.200 C 
HETATM   19  C21 UNL     1       4.034  37.256  21.411  1.00  0.00     0.040 C 
HETATM   20  F1  UNL     1       4.457  36.282  19.262  1.00  0.00    -0.247 F 
HETATM   21  C20 UNL     1       2.688  37.745  21.830  1.00  0.00     0.009 C 
BRANCH  17  22
HETATM   22  N1  UNL     1       4.072  38.595  17.901  1.00  0.00    -0.072 N 
ATOM     23  H13 UNL     1       3.333  38.820  17.235  1.00  0.00     0.274 HD
ATOM     24  H12 UNL     1       4.658  39.418  17.760  1.00  0.00     0.274 HD
ATOM     25  H11 UNL     1       4.560  37.735  17.649  1.00  0.00     0.274 HD
ENDBRANCH  17  22
ENDBRANCH  13  14
ENDBRANCH  10  13
ENDBRANCH   1   7
BRANCH   6  26
HETATM   26  C17 UNL     1      -0.664  32.017  26.134  1.00  0.00     0.027 A 
HETATM   27  C18 UNL     1      -0.838  32.257  27.475  1.00  0.00     0.122 A 
HETATM   28  N6  UNL     1      -2.155  32.306  27.702  1.00  0.00    -0.311 N 
HETATM   29  N7  UNL     1      -2.822  32.109  26.582  1.00  0.00    -0.311 N 
ATOM     30  H6  UNL     1      -2.583  32.472  28.612  1.00  0.00     0.186 HD
HETATM   31  C19 UNL     1      -1.933  31.923  25.571  1.00  0.00     0.122 A 
ATOM     32  H7  UNL     1      -3.838  32.098  26.490  1.00  0.00     0.186 HD
ENDBRANCH   6  26
BRANCH   3  33
HETATM   33  C11 UNL     1       3.713  30.215  24.730  1.00  0.00     0.110 C 
HETATM   34  C12 UNL     1       5.014  30.965  25.034  1.00  0.00     0.055 C 
HETATM   35  C13 UNL     1       6.147  30.024  24.699  1.00  0.00     0.234 C 
HETATM   36  N4  UNL     1       6.289  29.867  23.285  1.00  0.00    -0.075 N 
HETATM   37  C14 UNL     1       5.064  30.218  22.609  1.00  0.00     0.234 C 
ATOM     38  H42 UNL     1       7.084  30.394  22.925  1.00  0.00     0.277 HD
ATOM     39  H41 UNL     1       6.602  28.928  23.038  1.00  0.00     0.277 HD
HETATM   40  C15 UNL     1       3.841  29.658  23.344  1.00  0.00     0.055 C 
ENDBRANCH   3  33
TORSDOF 6
ENDMDL
