MODEL 1
REMARK VINA RESULT: -8.729991803      0.000      0.000
REMARK  7 active torsions:
REMARK  status: ('A' for Active; 'I' for Inactive)
REMARK       I    between atoms: C1_2  and  N1_3 
REMARK    1  A    between atoms: C1_2  and  O3_23 
REMARK    2  A    between atoms: N1_3  and  C2_5 
REMARK    3  A    between atoms: C2_5  and  C3_6 
REMARK    4  A    between atoms: C3_6  and  C4_7 
REMARK    5  A    between atoms: C6_9  and  C7_10 
REMARK    6  A    between atoms: O3_23  and  C14_24 
REMARK    7  A    between atoms: C22_33  and  O5_34 
ROOT
HETATM    1  C2  UNL     1      -0.855  32.322  25.916  1.00  0.00     0.066 C 
HETATM    2  C11 UNL     1      -0.062  32.137  27.194  1.00  0.00     0.060 C 
HETATM    3  C12 UNL     1      -1.095  31.869  28.257  1.00  0.00     0.235 C 
HETATM    4  N3  UNL     1      -2.403  31.987  27.663  1.00  0.00    -0.073 N 
ATOM      5  H31 UNL     1      -2.883  32.846  27.931  1.00  0.00     0.277 HD
ATOM      6  H32 UNL     1      -3.076  31.328  28.056  1.00  0.00     0.277 HD
HETATM    7  C13 UNL     1      -2.257  31.852  26.250  1.00  0.00     0.263 C 
ENDROOT
BRANCH   1   8
HETATM    8  N1  UNL     1      -0.919  33.689  25.511  1.00  0.00    -0.326 N 
HETATM    9  C1  UNL     1      -1.332  34.197  24.264  1.00  0.00     0.361 C 
HETATM   10  O1  UNL     1      -1.698  33.429  23.348  1.00  0.00    -0.238 OA
ATOM     11  H1  UNL     1      -0.632  34.378  26.205  1.00  0.00     0.165 HD
BRANCH   9  12
HETATM   12  O3  UNL     1      -1.361  35.553  23.972  1.00  0.00    -0.294 OA
BRANCH  12  13
HETATM   13  C14 UNL     1      -0.208  36.374  23.964  1.00  0.00     0.186 C 
HETATM   14  C15 UNL     1      -0.319  37.509  22.994  1.00  0.00     0.203 C 
HETATM   15  O4  UNL     1       0.241  37.340  21.786  1.00  0.00    -0.383 OA
HETATM   16  C16 UNL     1       1.381  36.594  21.685  1.00  0.00     0.128 C 
HETATM   17  C17 UNL     1       2.336  37.249  20.740  1.00  0.00     0.032 C 
HETATM   18  C21 UNL     1       2.021  36.236  22.996  1.00  0.00     0.046 C 
HETATM   19  C18 UNL     1       3.365  38.107  21.369  1.00  0.00     0.002 C 
HETATM   20  C19 UNL     1       3.115  38.485  22.784  1.00  0.00     0.001 C 
HETATM   21  C20 UNL     1       2.713  37.361  23.676  1.00  0.00     0.010 C 
HETATM   22  C22 UNL     1       1.000  35.524  23.828  1.00  0.00     0.156 C 
BRANCH  22  23
HETATM   23  O5  UNL     1       1.538  35.197  25.079  1.00  0.00    -0.392 OA
ATOM     24  H5  UNL     1       1.590  34.256  25.200  1.00  0.00     0.210 HD
ENDBRANCH  22  23
ENDBRANCH  12  13
ENDBRANCH   9  12
ENDBRANCH   1   8
BRANCH   1  25
HETATM   25  C3  UNL     1      -0.351  31.479  24.795  1.00  0.00     0.100 C 
BRANCH  25  26
HETATM   26  C4  UNL     1       1.126  31.445  24.662  1.00  0.00     0.080 A 
HETATM   27  C5  UNL     1       1.944  30.324  24.673  1.00  0.00     0.062 A 
HETATM   28  C6  UNL     1       3.255  30.740  24.520  1.00  0.00     0.039 A 
HETATM   29  N2  UNL     1       3.171  32.077  24.424  1.00  0.00    -0.265 N 
HETATM   30  O2  UNL     1       1.930  32.454  24.509  1.00  0.00    -0.242 OA
ATOM     31  H2  UNL     1       3.966  32.705  24.302  1.00  0.00     0.194 HD
BRANCH  28  32
HETATM   32  C7  UNL     1       4.447  29.897  24.476  1.00  0.00     0.037 C 
HETATM   33  C8  UNL     1       5.139  29.829  23.115  1.00  0.00     0.011 C 
HETATM   34  C9  UNL     1       6.465  29.819  23.884  1.00  0.00     0.001 C 
HETATM   35  C10 UNL     1       5.723  30.573  24.994  1.00  0.00     0.011 C 
ENDBRANCH  28  32
ENDBRANCH  25  26
ENDBRANCH   1  25
TORSDOF 7
ENDMDL
MODEL 2
REMARK VINA RESULT: -8.724024344      1.244      1.582
REMARK  7 active torsions:
REMARK  status: ('A' for Active; 'I' for Inactive)
REMARK       I    between atoms: C1_2  and  N1_3 
REMARK    1  A    between atoms: C1_2  and  O3_23 
REMARK    2  A    between atoms: N1_3  and  C2_5 
REMARK    3  A    between atoms: C2_5  and  C3_6 
REMARK    4  A    between atoms: C3_6  and  C4_7 
REMARK    5  A    between atoms: C6_9  and  C7_10 
REMARK    6  A    between atoms: O3_23  and  C14_24 
REMARK    7  A    between atoms: C22_33  and  O5_34 
ROOT
HETATM    1  C2  UNL     1      -0.514  32.378  25.891  1.00  0.00     0.066 C 
HETATM    2  C11 UNL     1       0.028  32.035  27.264  1.00  0.00     0.060 C 
HETATM    3  C12 UNL     1      -1.183  31.984  28.158  1.00  0.00     0.235 C 
HETATM    4  N3  UNL     1      -2.339  32.366  27.386  1.00  0.00    -0.073 N 
ATOM      5  H31 UNL     1      -2.670  33.305  27.606  1.00  0.00     0.277 HD
ATOM      6  H32 UNL     1      -3.181  31.859  27.658  1.00  0.00     0.277 HD
HETATM    7  C13 UNL     1      -2.016  32.203  26.005  1.00  0.00     0.263 C 
ENDROOT
BRANCH   1   8
HETATM    8  N1  UNL     1      -0.241  33.728  25.521  1.00  0.00    -0.326 N 
HETATM    9  C1  UNL     1      -0.655  34.400  24.355  1.00  0.00     0.361 C 
HETATM   10  O1  UNL     1      -1.342  33.817  23.489  1.00  0.00    -0.238 OA
ATOM     11  H1  UNL     1       0.319  34.271  26.178  1.00  0.00     0.165 HD
BRANCH   9  12
HETATM   12  O3  UNL     1      -0.336  35.725  24.091  1.00  0.00    -0.294 OA
BRANCH  12  13
HETATM   13  C14 UNL     1       0.605  36.465  24.845  1.00  0.00     0.186 C 
HETATM   14  C15 UNL     1       0.332  37.937  24.817  1.00  0.00     0.203 C 
HETATM   15  O4  UNL     1       1.017  38.670  23.926  1.00  0.00    -0.383 OA
HETATM   16  C16 UNL     1       2.297  38.307  23.616  1.00  0.00     0.128 C 
HETATM   17  C17 UNL     1       3.163  39.522  23.524  1.00  0.00     0.032 C 
HETATM   18  C21 UNL     1       2.885  37.245  24.499  1.00  0.00     0.046 C 
HETATM   19  C18 UNL     1       3.921  39.856  24.751  1.00  0.00     0.002 C 
HETATM   20  C19 UNL     1       3.474  39.174  25.994  1.00  0.00     0.001 C 
HETATM   21  C20 UNL     1       3.254  37.706  25.863  1.00  0.00     0.010 C 
HETATM   22  C22 UNL     1       1.977  36.055  24.457  1.00  0.00     0.156 C 
BRANCH  22  23
HETATM   23  O5  UNL     1       2.465  35.044  25.295  1.00  0.00    -0.392 OA
ATOM     24  H5  UNL     1       2.203  35.185  26.197  1.00  0.00     0.210 HD
ENDBRANCH  22  23
ENDBRANCH  12  13
ENDBRANCH   9  12
ENDBRANCH   1   8
BRANCH   1  25
HETATM   25  C3  UNL     1      -0.031  31.449  24.830  1.00  0.00     0.100 C 
BRANCH  25  26
HETATM   26  C4  UNL     1       1.441  31.428  24.650  1.00  0.00     0.080 A 
HETATM   27  C5  UNL     1       2.274  30.318  24.667  1.00  0.00     0.062 A 
HETATM   28  C6  UNL     1       3.573  30.745  24.458  1.00  0.00     0.039 A 
HETATM   29  N2  UNL     1       3.469  32.078  24.325  1.00  0.00    -0.265 N 
HETATM   30  O2  UNL     1       2.227  32.442  24.441  1.00  0.00    -0.242 OA
ATOM     31  H2  UNL     1       4.251  32.711  24.159  1.00  0.00     0.194 HD
BRANCH  28  32
HETATM   32  C7  UNL     1       4.774  29.916  24.399  1.00  0.00     0.037 C 
HETATM   33  C8  UNL     1       5.526  29.963  23.069  1.00  0.00     0.011 C 
HETATM   34  C9  UNL     1       6.817  29.898  23.894  1.00  0.00     0.001 C 
HETATM   35  C10 UNL     1       6.019  30.555  25.027  1.00  0.00     0.011 C 
ENDBRANCH  28  32
ENDBRANCH  25  26
ENDBRANCH   1  25
TORSDOF 7
ENDMDL
MODEL 3
REMARK VINA RESULT: -8.664974064      3.008      4.775
REMARK  7 active torsions:
REMARK  status: ('A' for Active; 'I' for Inactive)
REMARK       I    between atoms: C1_2  and  N1_3 
REMARK    1  A    between atoms: C1_2  and  O3_23 
REMARK    2  A    between atoms: N1_3  and  C2_5 
REMARK    3  A    between atoms: C2_5  and  C3_6 
REMARK    4  A    between atoms: C3_6  and  C4_7 
REMARK    5  A    between atoms: C6_9  and  C7_10 
REMARK    6  A    between atoms: O3_23  and  C14_24 
REMARK    7  A    between atoms: C22_33  and  O5_34 
ROOT
HETATM    1  C2  UNL     1       0.655  36.180  23.962  1.00  0.00     0.066 C 
HETATM    2  C11 UNL     1       1.379  36.935  25.058  1.00  0.00     0.060 C 
HETATM    3  C12 UNL     1       0.571  38.190  25.264  1.00  0.00     0.235 C 
HETATM    4  N3  UNL     1      -0.493  38.214  24.292  1.00  0.00    -0.073 N 
ATOM      5  H31 UNL     1      -0.326  38.883  23.540  1.00  0.00     0.277 HD
ATOM      6  H32 UNL     1      -1.351  38.629  24.655  1.00  0.00     0.277 HD
HETATM    7  C13 UNL     1      -0.681  36.882  23.815  1.00  0.00     0.263 C 
ENDROOT
BRANCH   1   8
HETATM    8  N1  UNL     1       1.341  36.245  22.713  1.00  0.00    -0.326 N 
HETATM    9  C1  UNL     1       2.062  37.333  22.185  1.00  0.00     0.361 C 
HETATM   10  O1  UNL     1       2.158  38.406  22.819  1.00  0.00    -0.238 OA
ATOM     11  H1  UNL     1       1.307  35.405  22.136  1.00  0.00     0.165 HD
BRANCH   9  12
HETATM   12  O3  UNL     1       2.701  37.291  20.954  1.00  0.00    -0.294 OA
BRANCH  12  13
HETATM   13  C14 UNL     1       4.108  37.257  20.806  1.00  0.00     0.186 C 
HETATM   14  C15 UNL     1       4.713  38.625  20.756  1.00  0.00     0.203 C 
HETATM   15  O4  UNL     1       4.966  39.139  19.542  1.00  0.00    -0.383 OA
HETATM   16  C16 UNL     1       5.338  38.297  18.533  1.00  0.00     0.128 C 
HETATM   17  C17 UNL     1       6.440  38.916  17.734  1.00  0.00     0.032 C 
HETATM   18  C21 UNL     1       5.656  36.894  18.964  1.00  0.00     0.046 C 
HETATM   19  C18 UNL     1       7.809  38.507  18.116  1.00  0.00     0.002 C 
HETATM   20  C19 UNL     1       7.939  37.829  19.432  1.00  0.00     0.001 C 
HETATM   21  C20 UNL     1       6.949  36.744  19.683  1.00  0.00     0.010 C 
HETATM   22  C22 UNL     1       4.462  36.351  19.686  1.00  0.00     0.156 C 
BRANCH  22  23
HETATM   23  O5  UNL     1       4.721  35.052  20.140  1.00  0.00    -0.392 OA
ATOM     24  H5  UNL     1       5.372  35.049  20.832  1.00  0.00     0.210 HD
ENDBRANCH  22  23
ENDBRANCH  12  13
ENDBRANCH   9  12
ENDBRANCH   1   8
BRANCH   1  25
HETATM   25  C3  UNL     1       0.381  34.759  24.323  1.00  0.00     0.100 C 
BRANCH  25  26
HETATM   26  C4  UNL     1       1.574  33.878  24.315  1.00  0.00     0.080 A 
HETATM   27  C5  UNL     1       1.634  32.544  24.690  1.00  0.00     0.062 A 
HETATM   28  C6  UNL     1       2.936  32.104  24.529  1.00  0.00     0.039 A 
HETATM   29  N2  UNL     1       3.596  33.180  24.070  1.00  0.00    -0.265 N 
HETATM   30  O2  UNL     1       2.784  34.188  23.957  1.00  0.00    -0.242 OA
ATOM     31  H2  UNL     1       4.591  33.202  23.843  1.00  0.00     0.194 HD
BRANCH  28  32
HETATM   32  C7  UNL     1       3.454  30.766  24.803  1.00  0.00     0.037 C 
HETATM   33  C8  UNL     1       3.666  29.891  23.568  1.00  0.00     0.011 C 
HETATM   34  C9  UNL     1       4.924  29.358  24.267  1.00  0.00     0.001 C 
HETATM   35  C10 UNL     1       4.974  30.702  25.003  1.00  0.00     0.011 C 
ENDBRANCH  28  32
ENDBRANCH  25  26
ENDBRANCH   1  25
TORSDOF 7
ENDMDL
MODEL 4
REMARK VINA RESULT: -8.609291276      2.586      3.859
REMARK  7 active torsions:
REMARK  status: ('A' for Active; 'I' for Inactive)
REMARK       I    between atoms: C1_2  and  N1_3 
REMARK    1  A    between atoms: C1_2  and  O3_23 
REMARK    2  A    between atoms: N1_3  and  C2_5 
REMARK    3  A    between atoms: C2_5  and  C3_6 
REMARK    4  A    between atoms: C3_6  and  C4_7 
REMARK    5  A    between atoms: C6_9  and  C7_10 
REMARK    6  A    between atoms: O3_23  and  C14_24 
REMARK    7  A    between atoms: C22_33  and  O5_34 
ROOT
HETATM    1  C2  UNL     1      -0.600  33.260  25.022  1.00  0.00     0.066 C 
HETATM    2  C11 UNL     1      -2.075  33.541  25.230  1.00  0.00     0.060 C 
HETATM    3  C12 UNL     1      -2.612  33.832  23.854  1.00  0.00     0.235 C 
HETATM    4  N3  UNL     1      -1.514  33.820  22.921  1.00  0.00    -0.073 N 
ATOM      5  H31 UNL     1      -1.244  34.755  22.614  1.00  0.00     0.277 HD
ATOM      6  H32 UNL     1      -1.775  33.448  22.008  1.00  0.00     0.277 HD
HETATM    7  C13 UNL     1      -0.436  33.104  23.523  1.00  0.00     0.263 C 
ENDROOT
BRANCH   1   8
HETATM    8  N1  UNL     1       0.225  34.339  25.459  1.00  0.00    -0.326 N 
HETATM    9  C1  UNL     1       0.941  35.251  24.660  1.00  0.00     0.361 C 
HETATM   10  O1  UNL     1       0.907  35.175  23.413  1.00  0.00    -0.238 OA
ATOM     11  H1  UNL     1       0.305  34.465  26.468  1.00  0.00     0.165 HD
BRANCH   9  12
HETATM   12  O3  UNL     1       1.716  36.274  25.188  1.00  0.00    -0.294 OA
BRANCH  12  13
HETATM   13  C14 UNL     1       3.106  36.400  24.954  1.00  0.00     0.186 C 
HETATM   14  C15 UNL     1       3.810  35.079  24.959  1.00  0.00     0.203 C 
HETATM   15  O4  UNL     1       4.409  34.709  26.102  1.00  0.00    -0.383 OA
HETATM   16  C16 UNL     1       4.962  35.670  26.900  1.00  0.00     0.128 C 
HETATM   17  C17 UNL     1       6.278  35.199  27.428  1.00  0.00     0.032 C 
HETATM   18  C21 UNL     1       5.044  37.036  26.281  1.00  0.00     0.046 C 
HETATM   19  C18 UNL     1       7.465  35.640  26.662  1.00  0.00     0.002 C 
HETATM   20  C19 UNL     1       7.194  36.183  25.305  1.00  0.00     0.001 C 
HETATM   21  C20 UNL     1       6.090  37.181  25.234  1.00  0.00     0.010 C 
HETATM   22  C22 UNL     1       3.664  37.435  25.857  1.00  0.00     0.156 C 
BRANCH  22  23
HETATM   23  O5  UNL     1       3.692  38.692  25.240  1.00  0.00    -0.392 OA
ATOM     24  H5  UNL     1       2.880  39.166  25.382  1.00  0.00     0.210 HD
ENDBRANCH  22  23
ENDBRANCH  12  13
ENDBRANCH   9  12
ENDBRANCH   1   8
BRANCH   1  25
HETATM   25  C3  UNL     1      -0.158  31.987  25.660  1.00  0.00     0.100 C 
BRANCH  25  26
HETATM   26  C4  UNL     1       1.273  31.657  25.456  1.00  0.00     0.080 A 
HETATM   27  C5  UNL     1       1.797  30.667  24.637  1.00  0.00     0.062 A 
HETATM   28  C6  UNL     1       3.176  30.701  24.741  1.00  0.00     0.039 A 
HETATM   29  N2  UNL     1       3.421  31.698  25.608  1.00  0.00    -0.265 N 
HETATM   30  O2  UNL     1       2.303  32.230  26.002  1.00  0.00    -0.242 OA
ATOM     31  H2  UNL     1       4.349  31.994  25.911  1.00  0.00     0.194 HD
BRANCH  28  32
HETATM   32  C7  UNL     1       4.133  29.837  24.054  1.00  0.00     0.037 C 
HETATM   33  C8  UNL     1       4.554  30.317  22.665  1.00  0.00     0.011 C 
HETATM   34  C9  UNL     1       5.957  29.799  23.005  1.00  0.00     0.001 C 
HETATM   35  C10 UNL     1       5.594  30.046  24.474  1.00  0.00     0.011 C 
ENDBRANCH  28  32
ENDBRANCH  25  26
ENDBRANCH   1  25
TORSDOF 7
ENDMDL
MODEL 5
REMARK VINA RESULT: -8.488850983      3.387      6.098
REMARK  7 active torsions:
REMARK  status: ('A' for Active; 'I' for Inactive)
REMARK       I    between atoms: C1_2  and  N1_3 
REMARK    1  A    between atoms: C1_2  and  O3_23 
REMARK    2  A    between atoms: N1_3  and  C2_5 
REMARK    3  A    between atoms: C2_5  and  C3_6 
REMARK    4  A    between atoms: C3_6  and  C4_7 
REMARK    5  A    between atoms: C6_9  and  C7_10 
REMARK    6  A    between atoms: O3_23  and  C14_24 
REMARK    7  A    between atoms: C22_33  and  O5_34 
ROOT
HETATM    1  C2  UNL     1       0.497  36.637  22.891  1.00  0.00     0.066 C 
HETATM    2  C11 UNL     1       1.160  36.525  24.249  1.00  0.00     0.060 C 
HETATM    3  C12 UNL     1       0.401  37.480  25.132  1.00  0.00     0.235 C 
HETATM    4  N3  UNL     1      -0.572  38.173  24.326  1.00  0.00    -0.073 N 
ATOM      5  H31 UNL     1      -0.309  39.139  24.131  1.00  0.00     0.277 HD
ATOM      6  H32 UNL     1      -1.437  38.368  24.832  1.00  0.00     0.277 HD
HETATM    7  C13 UNL     1      -0.785  37.408  23.141  1.00  0.00     0.263 C 
ENDROOT
BRANCH   1   8
HETATM    8  N1  UNL     1       1.291  37.367  21.957  1.00  0.00    -0.326 N 
HETATM    9  C1  UNL     1       2.644  37.156  21.631  1.00  0.00     0.361 C 
HETATM   10  O1  UNL     1       3.302  36.246  22.180  1.00  0.00    -0.238 OA
ATOM     11  H1  UNL     1       0.824  38.131  21.469  1.00  0.00     0.165 HD
BRANCH   9  12
HETATM   12  O3  UNL     1       3.327  37.926  20.700  1.00  0.00    -0.294 OA
BRANCH  12  13
HETATM   13  C14 UNL     1       4.717  37.811  20.461  1.00  0.00     0.186 C 
HETATM   14  C15 UNL     1       5.387  39.142  20.322  1.00  0.00     0.203 C 
HETATM   15  O4  UNL     1       5.583  39.602  19.075  1.00  0.00    -0.383 OA
HETATM   16  C16 UNL     1       5.843  38.708  18.075  1.00  0.00     0.128 C 
HETATM   17  C17 UNL     1       6.918  39.241  17.183  1.00  0.00     0.032 C 
HETATM   18  C21 UNL     1       6.117  37.305  18.535  1.00  0.00     0.046 C 
HETATM   19  C18 UNL     1       8.288  38.771  17.489  1.00  0.00     0.002 C 
HETATM   20  C19 UNL     1       8.470  38.131  18.818  1.00  0.00     0.001 C 
HETATM   21  C20 UNL     1       7.445  37.110  19.173  1.00  0.00     0.010 C 
HETATM   22  C22 UNL     1       4.948  36.852  19.354  1.00  0.00     0.156 C 
BRANCH  22  23
HETATM   23  O5  UNL     1       5.169  35.556  19.837  1.00  0.00    -0.392 OA
ATOM     24  H5  UNL     1       5.865  35.121  19.358  1.00  0.00     0.210 HD
ENDBRANCH  22  23
ENDBRANCH  12  13
ENDBRANCH   9  12
ENDBRANCH   1   8
BRANCH   1  25
HETATM   25  C3  UNL     1       0.123  35.312  22.319  1.00  0.00     0.100 C 
BRANCH  25  26
HETATM   26  C4  UNL     1      -0.610  34.421  23.250  1.00  0.00     0.080 A 
HETATM   27  C5  UNL     1      -0.066  33.586  24.216  1.00  0.00     0.062 A 
HETATM   28  C6  UNL     1      -1.101  32.933  24.861  1.00  0.00     0.039 A 
HETATM   29  N2  UNL     1      -2.211  33.397  24.263  1.00  0.00    -0.265 N 
HETATM   30  O2  UNL     1      -1.895  34.253  23.339  1.00  0.00    -0.242 OA
ATOM     31  H2  UNL     1      -3.163  33.117  24.501  1.00  0.00     0.194 HD
BRANCH  28  32
HETATM   32  C7  UNL     1      -0.990  31.961  25.946  1.00  0.00     0.037 C 
HETATM   33  C8  UNL     1       0.188  32.185  26.894  1.00  0.00     0.011 C 
HETATM   34  C9  UNL     1      -0.747  31.738  28.025  1.00  0.00     0.001 C 
HETATM   35  C10 UNL     1      -1.900  32.244  27.148  1.00  0.00     0.011 C 
ENDBRANCH  28  32
ENDBRANCH  25  26
ENDBRANCH   1  25
TORSDOF 7
ENDMDL
