MODEL 1
REMARK VINA RESULT: -7.340915832      0.000      0.000
REMARK  9 active torsions:
REMARK  status: ('A' for Active; 'I' for Inactive)
REMARK    1  A    between atoms: C2_2  and  C3_3 
REMARK    2  A    between atoms: C9_10  and  O2_11 
REMARK    3  A    between atoms: O2_11  and  C10_12 
REMARK    4  A    between atoms: C10_12  and  C11_14 
REMARK    5  A    between atoms: C11_14  and  C12_15 
REMARK    6  A    between atoms: C11_14  and  C15_18 
REMARK    7  A    between atoms: C15_18  and  C16_20 
REMARK    8  A    between atoms: C16_20  and  O5_23 
REMARK    9  A    between atoms: C20_29  and  O6_31 
ROOT
HETATM    1  C3  UNL     1       6.247  37.913  23.822  1.00  0.00     0.011 C 
HETATM    2  C4  UNL     1       7.359  38.309  22.923  1.00  0.00     0.023 C 
HETATM    3  C5  UNL     1       6.162  36.383  23.816  1.00  0.00     0.073 C 
HETATM    4  C6  UNL     1       4.937  36.051  24.593  1.00  0.00     0.016 C 
HETATM    5  C7  UNL     1       4.550  36.765  25.656  1.00  0.00    -0.013 C 
HETATM    6  C8  UNL     1       3.324  36.330  26.331  1.00  0.00     0.210 C 
HETATM    7  O1  UNL     1       3.048  35.010  26.350  1.00  0.00    -0.339 OA
HETATM    8  C9  UNL     1       3.454  34.240  25.303  1.00  0.00     0.380 C 
HETATM    9  N1  UNL     1       4.127  34.960  24.240  1.00  0.00    -0.345 N 
ATOM     10  H1  UNL     1       4.015  34.682  23.265  1.00  0.00     0.164 HD
HETATM   11  C19 UNL     1       5.327  37.947  26.132  1.00  0.00     0.150 C 
HETATM   12 CL1  UNL     1       4.228  39.324  26.459  1.00  0.00    -0.117 Cl
HETATM   13  C20 UNL     1       6.461  38.329  25.256  1.00  0.00     0.086 C 
HETATM   14  C21 UNL     1       7.738  37.693  25.787  1.00  0.00     0.049 C 
ENDROOT
BRANCH   8  15
HETATM   15  O2  UNL     1       2.376  33.561  24.691  1.00  0.00    -0.270 OA
BRANCH  15  16
HETATM   16  C10 UNL     1       1.118  34.157  24.567  1.00  0.00     0.278 C 
HETATM   17  O3  UNL     1       1.068  35.226  23.953  1.00  0.00    -0.264 OA
BRANCH  16  18
HETATM   18  C11 UNL     1      -0.047  33.445  25.195  1.00  0.00     0.186 C 
BRANCH  18  19
HETATM   19  C12 UNL     1      -1.228  33.548  24.331  1.00  0.00    -0.072 C 
HETATM   20  C13 UNL     1      -2.471  33.392  24.904  1.00  0.00     0.015 C 
HETATM   21  C14 UNL     1      -1.241  33.715  22.857  1.00  0.00     0.044 C 
ENDBRANCH  18  19
BRANCH  18  22
HETATM   22  C15 UNL     1       0.294  32.098  25.628  1.00  0.00     0.177 C 
HETATM   23  O4  UNL     1       0.318  31.227  24.676  1.00  0.00    -0.293 OA
BRANCH  22  24
HETATM   24  C16 UNL     1       0.622  31.518  26.921  1.00  0.00     0.112 C 
HETATM   25  C17 UNL     1      -0.438  31.597  27.972  1.00  0.00     0.053 C 
HETATM   26  C18 UNL     1       1.155  30.096  26.855  1.00  0.00     0.053 C 
BRANCH  24  27
HETATM   27  O5  UNL     1       1.710  32.312  27.461  1.00  0.00    -0.383 OA
ATOM     28  H5  UNL     1       1.352  32.786  28.202  1.00  0.00     0.211 HD
ENDBRANCH  24  27
ENDBRANCH  22  24
ENDBRANCH  18  22
ENDBRANCH  16  18
ENDBRANCH  15  16
ENDBRANCH   8  15
BRANCH   1  29
HETATM   29  C2  UNL     1       4.983  38.469  23.330  1.00  0.00    -0.024 C 
HETATM   30  C1  UNL     1       4.957  39.139  22.194  1.00  0.00     0.008 C 
ENDBRANCH   1  29
BRANCH  13  31
HETATM   31  O6  UNL     1       6.633  39.715  25.324  1.00  0.00    -0.387 OA
ATOM     32  H6  UNL     1       6.106  40.068  26.031  1.00  0.00     0.210 HD
ENDBRANCH  13  31
TORSDOF 9
ENDMDL
MODEL 2
REMARK VINA RESULT: -7.320582471      1.841      3.542
REMARK  9 active torsions:
REMARK  status: ('A' for Active; 'I' for Inactive)
REMARK    1  A    between atoms: C2_2  and  C3_3 
REMARK    2  A    between atoms: C9_10  and  O2_11 
REMARK    3  A    between atoms: O2_11  and  C10_12 
REMARK    4  A    between atoms: C10_12  and  C11_14 
REMARK    5  A    between atoms: C11_14  and  C12_15 
REMARK    6  A    between atoms: C11_14  and  C15_18 
REMARK    7  A    between atoms: C15_18  and  C16_20 
REMARK    8  A    between atoms: C16_20  and  O5_23 
REMARK    9  A    between atoms: C20_29  and  O6_31 
ROOT
HETATM    1  C3  UNL     1       6.613  37.730  25.029  1.00  0.00     0.011 C 
HETATM    2  C4  UNL     1       7.572  38.613  25.738  1.00  0.00     0.023 C 
HETATM    3  C5  UNL     1       5.256  37.854  25.731  1.00  0.00     0.073 C 
HETATM    4  C6  UNL     1       4.385  36.831  25.091  1.00  0.00     0.016 C 
HETATM    5  C7  UNL     1       4.471  36.531  23.790  1.00  0.00    -0.013 C 
HETATM    6  C8  UNL     1       3.554  35.505  23.288  1.00  0.00     0.210 C 
HETATM    7  O1  UNL     1       2.333  35.418  23.854  1.00  0.00    -0.339 OA
HETATM    8  C9  UNL     1       2.194  35.747  25.169  1.00  0.00     0.380 C 
HETATM    9  N1  UNL     1       3.423  36.130  25.835  1.00  0.00    -0.345 N 
ATOM     10  H1  UNL     1       3.583  35.897  26.815  1.00  0.00     0.164 HD
HETATM   11  C19 UNL     1       5.454  37.209  22.893  1.00  0.00     0.150 C 
HETATM   12 CL1  UNL     1       6.304  36.001  21.877  1.00  0.00    -0.117 Cl
HETATM   13  C20 UNL     1       6.394  38.119  23.589  1.00  0.00     0.086 C 
HETATM   14  C21 UNL     1       5.854  39.541  23.521  1.00  0.00     0.049 C 
ENDROOT
BRANCH   8  15
HETATM   15  O2  UNL     1       1.654  34.684  25.930  1.00  0.00    -0.270 OA
BRANCH  15  16
HETATM   16  C10 UNL     1       2.054  33.362  25.717  1.00  0.00     0.278 C 
HETATM   17  O3  UNL     1       3.243  33.103  25.921  1.00  0.00    -0.264 OA
BRANCH  16  18
HETATM   18  C11 UNL     1       1.004  32.389  25.262  1.00  0.00     0.186 C 
BRANCH  18  19
HETATM   19  C12 UNL     1       1.193  31.094  25.923  1.00  0.00    -0.072 C 
HETATM   20  C13 UNL     1       1.374  29.979  25.135  1.00  0.00     0.015 C 
HETATM   21  C14 UNL     1       1.119  30.819  27.379  1.00  0.00     0.044 C 
ENDBRANCH  18  19
BRANCH  18  22
HETATM   22  C15 UNL     1      -0.339  32.942  25.347  1.00  0.00     0.177 C 
HETATM   23  O4  UNL     1      -0.951  32.681  26.453  1.00  0.00    -0.293 OA
BRANCH  22  24
HETATM   24  C16 UNL     1      -1.149  33.743  24.440  1.00  0.00     0.112 C 
HETATM   25  C17 UNL     1      -0.650  33.862  23.036  1.00  0.00     0.053 C 
HETATM   26  C18 UNL     1      -2.622  33.369  24.417  1.00  0.00     0.053 C 
BRANCH  24  27
HETATM   27  O5  UNL     1      -1.104  35.102  24.944  1.00  0.00    -0.383 OA
ATOM     28  H5  UNL     1      -1.586  35.634  24.321  1.00  0.00     0.211 HD
ENDBRANCH  24  27
ENDBRANCH  22  24
ENDBRANCH  18  22
ENDBRANCH  16  18
ENDBRANCH  15  16
ENDBRANCH   8  15
BRANCH   1  29
HETATM   29  C2  UNL     1       7.068  36.338  25.102  1.00  0.00    -0.024 C 
HETATM   30  C1  UNL     1       8.225  36.052  25.668  1.00  0.00     0.008 C 
ENDBRANCH   1  29
BRANCH  13  31
HETATM   31  O6  UNL     1       7.614  38.110  22.907  1.00  0.00    -0.387 OA
ATOM     32  H6  UNL     1       7.458  38.148  21.971  1.00  0.00     0.210 HD
ENDBRANCH  13  31
TORSDOF 9
ENDMDL
MODEL 3
REMARK VINA RESULT: -7.287534151      1.834      2.782
REMARK  9 active torsions:
REMARK  status: ('A' for Active; 'I' for Inactive)
REMARK    1  A    between atoms: C2_2  and  C3_3 
REMARK    2  A    between atoms: C9_10  and  O2_11 
REMARK    3  A    between atoms: O2_11  and  C10_12 
REMARK    4  A    between atoms: C10_12  and  C11_14 
REMARK    5  A    between atoms: C11_14  and  C12_15 
REMARK    6  A    between atoms: C11_14  and  C15_18 
REMARK    7  A    between atoms: C15_18  and  C16_20 
REMARK    8  A    between atoms: C16_20  and  O5_23 
REMARK    9  A    between atoms: C20_29  and  O6_31 
ROOT
HETATM    1  C3  UNL     1       6.647  37.284  23.461  1.00  0.00     0.011 C 
HETATM    2  C4  UNL     1       8.105  37.093  23.256  1.00  0.00     0.023 C 
HETATM    3  C5  UNL     1       6.200  36.325  24.570  1.00  0.00     0.073 C 
HETATM    4  C6  UNL     1       4.717  36.437  24.615  1.00  0.00     0.016 C 
HETATM    5  C7  UNL     1       4.080  37.593  24.396  1.00  0.00    -0.013 C 
HETATM    6  C8  UNL     1       2.617  37.564  24.472  1.00  0.00     0.210 C 
HETATM    7  O1  UNL     1       2.046  36.710  25.346  1.00  0.00    -0.339 OA
HETATM    8  C9  UNL     1       2.679  35.536  25.624  1.00  0.00     0.380 C 
HETATM    9  N1  UNL     1       3.913  35.321  24.896  1.00  0.00    -0.345 N 
ATOM     10  H1  UNL     1       4.190  34.385  24.598  1.00  0.00     0.164 HD
HETATM   11  C19 UNL     1       4.823  38.851  24.089  1.00  0.00     0.150 C 
HETATM   12 CL1  UNL     1       4.071  39.692  22.697  1.00  0.00    -0.117 Cl
HETATM   13  C20 UNL     1       6.284  38.675  23.918  1.00  0.00     0.086 C 
HETATM   14  C21 UNL     1       6.982  38.977  25.235  1.00  0.00     0.049 C 
ENDROOT
BRANCH   8  15
HETATM   15  O2  UNL     1       1.864  34.414  25.349  1.00  0.00    -0.270 OA
BRANCH  15  16
HETATM   16  C10 UNL     1       2.031  33.209  26.038  1.00  0.00     0.278 C 
HETATM   17  O3  UNL     1       2.944  33.165  26.866  1.00  0.00    -0.264 OA
BRANCH  16  18
HETATM   18  C11 UNL     1       1.089  32.087  25.701  1.00  0.00     0.186 C 
BRANCH  18  19
HETATM   19  C12 UNL     1       1.835  30.840  25.510  1.00  0.00    -0.072 C 
HETATM   20  C13 UNL     1       1.297  29.674  26.009  1.00  0.00     0.015 C 
HETATM   21  C14 UNL     1       3.181  30.692  24.906  1.00  0.00     0.044 C 
ENDBRANCH  18  19
BRANCH  18  22
HETATM   22  C15 UNL     1      -0.032  32.009  26.625  1.00  0.00     0.177 C 
HETATM   23  O4  UNL     1       0.309  31.827  27.857  1.00  0.00    -0.293 OA
BRANCH  22  24
HETATM   24  C16 UNL     1      -1.475  32.096  26.456  1.00  0.00     0.112 C 
HETATM   25  C17 UNL     1      -1.967  33.130  25.494  1.00  0.00     0.053 C 
HETATM   26  C18 UNL     1      -2.155  30.771  26.156  1.00  0.00     0.053 C 
BRANCH  24  27
HETATM   27  O5  UNL     1      -2.011  32.524  27.734  1.00  0.00    -0.383 OA
ATOM     28  H5  UNL     1      -2.914  32.777  27.574  1.00  0.00     0.211 HD
ENDBRANCH  24  27
ENDBRANCH  22  24
ENDBRANCH  18  22
ENDBRANCH  16  18
ENDBRANCH  15  16
ENDBRANCH   8  15
BRANCH   1  29
HETATM   29  C2  UNL     1       5.923  36.964  22.226  1.00  0.00    -0.024 C 
HETATM   30  C1  UNL     1       6.275  35.915  21.510  1.00  0.00     0.008 C 
ENDBRANCH   1  29
BRANCH  13  31
HETATM   31  O6  UNL     1       6.742  39.611  22.986  1.00  0.00    -0.387 OA
ATOM     32  H6  UNL     1       7.620  39.890  23.217  1.00  0.00     0.210 HD
ENDBRANCH  13  31
TORSDOF 9
ENDMDL
MODEL 4
REMARK VINA RESULT: -7.246241872      2.032      3.054
REMARK  9 active torsions:
REMARK  status: ('A' for Active; 'I' for Inactive)
REMARK    1  A    between atoms: C2_2  and  C3_3 
REMARK    2  A    between atoms: C9_10  and  O2_11 
REMARK    3  A    between atoms: O2_11  and  C10_12 
REMARK    4  A    between atoms: C10_12  and  C11_14 
REMARK    5  A    between atoms: C11_14  and  C12_15 
REMARK    6  A    between atoms: C11_14  and  C15_18 
REMARK    7  A    between atoms: C15_18  and  C16_20 
REMARK    8  A    between atoms: C16_20  and  O5_23 
REMARK    9  A    between atoms: C20_29  and  O6_31 
ROOT
HETATM    1  C3  UNL     1       6.037  37.966  24.717  1.00  0.00     0.011 C 
HETATM    2  C4  UNL     1       6.645  38.829  25.760  1.00  0.00     0.023 C 
HETATM    3  C5  UNL     1       4.514  38.077  24.845  1.00  0.00     0.073 C 
HETATM    4  C6  UNL     1       3.963  37.072  23.896  1.00  0.00     0.016 C 
HETATM    5  C7  UNL     1       4.544  36.804  22.722  1.00  0.00    -0.013 C 
HETATM    6  C8  UNL     1       3.897  35.792  21.882  1.00  0.00     0.210 C 
HETATM    7  O1  UNL     1       2.552  35.695  21.933  1.00  0.00    -0.339 OA
HETATM    8  C9  UNL     1       1.917  35.993  23.100  1.00  0.00     0.380 C 
HETATM    9  N1  UNL     1       2.792  36.357  24.196  1.00  0.00    -0.345 N 
ATOM     10  H1  UNL     1       2.565  36.101  25.157  1.00  0.00     0.164 HD
HETATM   11  C19 UNL     1       5.792  37.499  22.287  1.00  0.00     0.150 C 
HETATM   12 CL1  UNL     1       6.974  36.313  21.649  1.00  0.00    -0.117 Cl
HETATM   13  C20 UNL     1       6.386  38.390  23.312  1.00  0.00     0.086 C 
HETATM   14  C21 UNL     1       5.905  39.814  23.075  1.00  0.00     0.049 C 
ENDROOT
BRANCH   8  15
HETATM   15  O2  UNL     1       1.132  34.915  23.570  1.00  0.00    -0.270 OA
BRANCH  15  16
HETATM   16  C10 UNL     1       0.506  34.962  24.819  1.00  0.00     0.278 C 
HETATM   17  O3  UNL     1       0.131  36.070  25.210  1.00  0.00    -0.264 OA
BRANCH  16  18
HETATM   18  C11 UNL     1       0.353  33.666  25.563  1.00  0.00     0.186 C 
BRANCH  18  19
HETATM   19  C12 UNL     1      -1.002  33.135  25.381  1.00  0.00    -0.072 C 
HETATM   20  C13 UNL     1      -1.558  32.401  26.406  1.00  0.00     0.015 C 
HETATM   21  C14 UNL     1      -1.835  33.220  24.157  1.00  0.00     0.044 C 
ENDBRANCH  18  19
BRANCH  18  22
HETATM   22  C15 UNL     1       1.432  32.732  25.278  1.00  0.00     0.177 C 
HETATM   23  O4  UNL     1       1.049  31.639  24.707  1.00  0.00    -0.293 OA
BRANCH  22  24
HETATM   24  C16 UNL     1       2.870  32.769  25.498  1.00  0.00     0.112 C 
HETATM   25  C17 UNL     1       3.352  33.694  26.569  1.00  0.00     0.053 C 
HETATM   26  C18 UNL     1       3.512  31.406  25.688  1.00  0.00     0.053 C 
BRANCH  24  27
HETATM   27  O5  UNL     1       3.455  33.305  24.283  1.00  0.00    -0.383 OA
ATOM     28  H5  UNL     1       4.244  33.764  24.547  1.00  0.00     0.211 HD
ENDBRANCH  24  27
ENDBRANCH  22  24
ENDBRANCH  18  22
ENDBRANCH  16  18
ENDBRANCH  15  16
ENDBRANCH   8  15
BRANCH   1  29
HETATM   29  C2  UNL     1       6.439  36.571  24.926  1.00  0.00    -0.024 C 
HETATM   30  C1  UNL     1       7.426  36.288  25.753  1.00  0.00     0.008 C 
ENDBRANCH   1  29
BRANCH  13  31
HETATM   31  O6  UNL     1       7.775  38.393  23.152  1.00  0.00    -0.387 OA
ATOM     32  H6  UNL     1       8.031  37.687  22.571  1.00  0.00     0.210 HD
ENDBRANCH  13  31
TORSDOF 9
ENDMDL
MODEL 5
REMARK VINA RESULT: -7.197307704      1.667      2.954
REMARK  9 active torsions:
REMARK  status: ('A' for Active; 'I' for Inactive)
REMARK    1  A    between atoms: C2_2  and  C3_3 
REMARK    2  A    between atoms: C9_10  and  O2_11 
REMARK    3  A    between atoms: O2_11  and  C10_12 
REMARK    4  A    between atoms: C10_12  and  C11_14 
REMARK    5  A    between atoms: C11_14  and  C12_15 
REMARK    6  A    between atoms: C11_14  and  C15_18 
REMARK    7  A    between atoms: C15_18  and  C16_20 
REMARK    8  A    between atoms: C16_20  and  O5_23 
REMARK    9  A    between atoms: C20_29  and  O6_31 
ROOT
HETATM    1  C3  UNL     1       6.976  37.335  23.697  1.00  0.00     0.011 C 
HETATM    2  C4  UNL     1       8.381  37.006  23.352  1.00  0.00     0.023 C 
HETATM    3  C5  UNL     1       6.528  36.377  24.806  1.00  0.00     0.073 C 
HETATM    4  C6  UNL     1       5.075  36.639  24.993  1.00  0.00     0.016 C 
HETATM    5  C7  UNL     1       4.548  37.863  24.876  1.00  0.00    -0.013 C 
HETATM    6  C8  UNL     1       3.103  37.980  25.085  1.00  0.00     0.210 C 
HETATM    7  O1  UNL     1       2.524  37.150  25.977  1.00  0.00    -0.339 OA
HETATM    8  C9  UNL     1       3.050  35.905  26.152  1.00  0.00     0.380 C 
HETATM    9  N1  UNL     1       4.185  35.598  25.306  1.00  0.00    -0.345 N 
ATOM     10  H1  UNL     1       4.334  34.654  24.948  1.00  0.00     0.164 HD
HETATM   11  C19 UNL     1       5.390  39.051  24.549  1.00  0.00     0.150 C 
HETATM   12 CL1  UNL     1       4.613  40.028  23.263  1.00  0.00    -0.117 Cl
HETATM   13  C20 UNL     1       6.804  38.734  24.237  1.00  0.00     0.086 C 
HETATM   14  C21 UNL     1       7.643  38.901  25.495  1.00  0.00     0.049 C 
ENDROOT
BRANCH   8  15
HETATM   15  O2  UNL     1       2.099  34.886  25.912  1.00  0.00    -0.270 OA
BRANCH  15  16
HETATM   16  C10 UNL     1       2.446  33.535  25.996  1.00  0.00     0.278 C 
HETATM   17  O3  UNL     1       3.422  33.256  26.697  1.00  0.00    -0.264 OA
BRANCH  16  18
HETATM   18  C11 UNL     1       1.602  32.558  25.228  1.00  0.00     0.186 C 
BRANCH  18  19
HETATM   19  C12 UNL     1       2.177  31.212  25.318  1.00  0.00    -0.072 C 
HETATM   20  C13 UNL     1       3.376  30.971  24.685  1.00  0.00     0.015 C 
HETATM   21  C14 UNL     1       1.559  30.021  25.951  1.00  0.00     0.044 C 
ENDBRANCH  18  19
BRANCH  18  22
HETATM   22  C15 UNL     1       0.190  32.658  25.566  1.00  0.00     0.177 C 
HETATM   23  O4  UNL     1      -0.132  32.071  26.670  1.00  0.00    -0.293 OA
BRANCH  22  24
HETATM   24  C16 UNL     1      -0.950  33.290  24.920  1.00  0.00     0.112 C 
HETATM   25  C17 UNL     1      -1.021  33.166  23.432  1.00  0.00     0.053 C 
HETATM   26  C18 UNL     1      -2.297  32.919  25.518  1.00  0.00     0.053 C 
BRANCH  24  27
HETATM   27  O5  UNL     1      -0.808  34.716  25.146  1.00  0.00    -0.383 OA
ATOM     28  H5  UNL     1      -0.030  34.986  24.673  1.00  0.00     0.211 HD
ENDBRANCH  24  27
ENDBRANCH  22  24
ENDBRANCH  18  22
ENDBRANCH  16  18
ENDBRANCH  15  16
ENDBRANCH   8  15
BRANCH   1  29
HETATM   29  C2  UNL     1       6.116  37.149  22.523  1.00  0.00    -0.024 C 
HETATM   30  C1  UNL     1       6.337  36.145  21.698  1.00  0.00     0.008 C 
ENDBRANCH   1  29
BRANCH  13  31
HETATM   31  O6  UNL     1       7.276  39.660  23.302  1.00  0.00    -0.387 OA
ATOM     32  H6  UNL     1       7.968  40.182  23.690  1.00  0.00     0.210 HD
ENDBRANCH  13  31
TORSDOF 9
ENDMDL
