MODEL 1
REMARK VINA RESULT: -8.310870155      0.000      0.000
REMARK  7 active torsions:
REMARK  status: ('A' for Active; 'I' for Inactive)
REMARK    1  A    between atoms: C2_2  and  S1_4 
REMARK    2  A    between atoms: S1_4  and  C3_5 
REMARK    3  A    between atoms: C7_12  and  N2_13 
REMARK    4  A    between atoms: N2_13  and  C8_16 
REMARK    5  A    between atoms: C8_16  and  C10_18 
REMARK       I    between atoms: C10_18  and  N3_20 
REMARK    6  A    between atoms: N3_20  and  C11_22 
REMARK    7  A    between atoms: C18_32  and  O2_33 
ROOT
HETATM    1  C3  UNL     1       1.187  36.281  21.599  1.00  0.00     0.114 A 
HETATM    2  N1  UNL     1       0.049  35.616  21.545  1.00  0.00    -0.344 N 
ATOM      3  H1  UNL     1      -0.524  35.650  20.702  1.00  0.00     0.167 HD
HETATM    4  C4  UNL     1      -0.343  34.915  22.575  1.00  0.00     0.080 A 
HETATM    5  C5  UNL     1       0.463  34.906  23.677  1.00  0.00     0.016 A 
HETATM    6  S2  UNL     1       1.754  35.916  23.166  1.00  0.00    -0.068 SA
HETATM    7  C6  UNL     1       0.135  34.142  24.936  1.00  0.00     0.111 C 
HETATM    8  C7  UNL     1      -0.947  33.151  24.706  1.00  0.00     0.391 C 
HETATM    9  N4  UNL     1      -1.155  32.837  23.305  1.00  0.00    -0.014 N 
ATOM     10  H41 UNL     1      -1.787  32.052  23.147  1.00  0.00     0.283 HD
ATOM     11  H42 UNL     1      -0.341  32.426  22.849  1.00  0.00     0.283 HD
HETATM   12  C18 UNL     1      -1.608  34.098  22.697  1.00  0.00     0.373 C 
ENDROOT
BRANCH   8  13
HETATM   13  N2  UNL     1      -0.687  31.891  25.418  1.00  0.00    -0.033 N 
ATOM     14  H22 UNL     1      -1.535  31.376  25.655  1.00  0.00     0.280 HD
ATOM     15  H21 UNL     1      -0.266  31.172  24.831  1.00  0.00     0.280 HD
BRANCH  13  16
HETATM   16  C8  UNL     1       0.118  32.243  26.570  1.00  0.00     0.275 C 
HETATM   17  C9  UNL     1      -0.483  31.626  27.802  1.00  0.00     0.050 C 
BRANCH  16  18
HETATM   18  C10 UNL     1       1.532  31.848  26.371  1.00  0.00     0.248 C 
HETATM   19  O1  UNL     1       2.408  32.446  27.042  1.00  0.00    -0.271 OA
HETATM   20  N3  UNL     1       1.934  30.846  25.477  1.00  0.00    -0.354 N 
ATOM     21  H3  UNL     1       1.201  30.377  24.946  1.00  0.00     0.162 HD
BRANCH  20  22
HETATM   22  C11 UNL     1       3.275  30.424  25.243  1.00  0.00     0.092 C 
HETATM   23  C12 UNL     1       3.946  31.201  24.116  1.00  0.00     0.034 C 
HETATM   24  C13 UNL     1       4.410  30.106  23.195  1.00  0.00     0.010 C 
HETATM   25  C14 UNL     1       5.409  29.300  23.911  1.00  0.00    -0.026 C 
HETATM   26  C17 UNL     1       3.208  29.144  23.311  1.00  0.00     0.019 C 
HETATM   27  C15 UNL     1       4.813  28.624  24.885  1.00  0.00    -0.024 C 
HETATM   28  C16 UNL     1       3.383  28.974  24.834  1.00  0.00     0.031 C 
ENDBRANCH  20  22
ENDBRANCH  16  18
ENDBRANCH  13  16
ENDBRANCH   8  13
BRANCH  12  29
HETATM   29  O2  UNL     1      -2.227  33.890  21.490  1.00  0.00    -0.365 OA
ATOM     30  H2  UNL     1      -3.101  33.528  21.582  1.00  0.00     0.212 HD
ENDBRANCH  12  29
BRANCH   1  31
HETATM   31  S1  UNL     1       1.901  37.299  20.305  1.00  0.00    -0.085 SA
BRANCH  31  32
HETATM   32  C2  UNL     1       3.674  37.047  20.290  1.00  0.00     0.146 C 
HETATM   33  C1  UNL     1       3.925  35.572  20.626  1.00  0.00     0.038 C 
HETATM   34 CL1  UNL     1       4.508  38.017  21.545  1.00  0.00    -0.114 Cl
ENDBRANCH  31  32
ENDBRANCH   1  31
TORSDOF 7
ENDMDL
MODEL 2
REMARK VINA RESULT: -8.014498330      3.759      5.439
REMARK  7 active torsions:
REMARK  status: ('A' for Active; 'I' for Inactive)
REMARK    1  A    between atoms: C2_2  and  S1_4 
REMARK    2  A    between atoms: S1_4  and  C3_5 
REMARK    3  A    between atoms: C7_12  and  N2_13 
REMARK    4  A    between atoms: N2_13  and  C8_16 
REMARK    5  A    between atoms: C8_16  and  C10_18 
REMARK       I    between atoms: C10_18  and  N3_20 
REMARK    6  A    between atoms: N3_20  and  C11_22 
REMARK    7  A    between atoms: C18_32  and  O2_33 
ROOT
HETATM    1  C3  UNL     1       6.381  36.250  24.684  1.00  0.00     0.114 A 
HETATM    2  N1  UNL     1       6.137  36.068  23.401  1.00  0.00    -0.344 N 
ATOM      3  H1  UNL     1       6.872  35.721  22.784  1.00  0.00     0.167 HD
HETATM    4  C4  UNL     1       4.951  36.333  22.922  1.00  0.00     0.080 A 
HETATM    5  C5  UNL     1       4.006  36.794  23.793  1.00  0.00     0.016 A 
HETATM    6  S2  UNL     1       4.884  36.820  25.268  1.00  0.00    -0.068 SA
HETATM    7  C6  UNL     1       2.598  37.141  23.378  1.00  0.00     0.111 C 
HETATM    8  C7  UNL     1       2.275  36.597  22.034  1.00  0.00     0.391 C 
HETATM    9  N4  UNL     1       3.174  35.543  21.607  1.00  0.00    -0.014 N 
ATOM     10  H41 UNL     1       2.873  35.061  20.759  1.00  0.00     0.283 HD
ATOM     11  H42 UNL     1       3.168  34.724  22.214  1.00  0.00     0.283 HD
HETATM   12  C18 UNL     1       4.490  36.190  21.490  1.00  0.00     0.373 C 
ENDROOT
BRANCH   8  13
HETATM   13  N2  UNL     1       0.903  36.073  21.979  1.00  0.00    -0.033 N 
ATOM     14  H22 UNL     1       0.276  36.634  21.402  1.00  0.00     0.280 HD
ATOM     15  H21 UNL     1       0.820  35.207  21.445  1.00  0.00     0.280 HD
BRANCH  13  16
HETATM   16  C8  UNL     1       0.467  35.948  23.355  1.00  0.00     0.275 C 
HETATM   17  C9  UNL     1      -0.746  36.810  23.571  1.00  0.00     0.050 C 
BRANCH  16  18
HETATM   18  C10 UNL     1       0.224  34.530  23.710  1.00  0.00     0.248 C 
HETATM   19  O1  UNL     1      -0.750  33.950  23.172  1.00  0.00    -0.271 OA
HETATM   20  N3  UNL     1       1.024  33.813  24.609  1.00  0.00    -0.354 N 
ATOM     21  H3  UNL     1       1.808  34.309  25.030  1.00  0.00     0.162 HD
BRANCH  20  22
HETATM   22  C11 UNL     1       0.840  32.450  24.989  1.00  0.00     0.092 C 
HETATM   23  C12 UNL     1       0.149  32.307  26.340  1.00  0.00     0.034 C 
HETATM   24  C13 UNL     1       1.106  31.436  27.105  1.00  0.00     0.010 C 
HETATM   25  C14 UNL     1       1.171  30.129  26.435  1.00  0.00    -0.026 C 
HETATM   26  C17 UNL     1       2.444  32.021  26.606  1.00  0.00     0.019 C 
HETATM   27  C15 UNL     1       1.780  30.266  25.265  1.00  0.00    -0.024 C 
HETATM   28  C16 UNL     1       2.136  31.689  25.132  1.00  0.00     0.031 C 
ENDBRANCH  20  22
ENDBRANCH  16  18
ENDBRANCH  13  16
ENDBRANCH   8  13
BRANCH  12  29
HETATM   29  O2  UNL     1       5.356  35.453  20.722  1.00  0.00    -0.365 OA
ATOM     30  H2  UNL     1       6.259  35.729  20.816  1.00  0.00     0.212 HD
ENDBRANCH  12  29
BRANCH   1  31
HETATM   31  S1  UNL     1       7.932  35.951  25.537  1.00  0.00    -0.085 SA
BRANCH  31  32
HETATM   32  C2  UNL     1       8.986  37.383  25.327  1.00  0.00     0.146 C 
HETATM   33  C1  UNL     1       8.226  38.592  25.885  1.00  0.00     0.038 C 
HETATM   34 CL1  UNL     1       9.322  37.731  23.600  1.00  0.00    -0.114 Cl
ENDBRANCH  31  32
ENDBRANCH   1  31
TORSDOF 7
ENDMDL
MODEL 3
REMARK VINA RESULT: -7.890613852      4.430      7.418
REMARK  7 active torsions:
REMARK  status: ('A' for Active; 'I' for Inactive)
REMARK    1  A    between atoms: C2_2  and  S1_4 
REMARK    2  A    between atoms: S1_4  and  C3_5 
REMARK    3  A    between atoms: C7_12  and  N2_13 
REMARK    4  A    between atoms: N2_13  and  C8_16 
REMARK    5  A    between atoms: C8_16  and  C10_18 
REMARK       I    between atoms: C10_18  and  N3_20 
REMARK    6  A    between atoms: N3_20  and  C11_22 
REMARK    7  A    between atoms: C18_32  and  O2_33 
ROOT
HETATM    1  C3  UNL     1      -0.892  33.366  25.035  1.00  0.00     0.114 A 
HETATM    2  N1  UNL     1      -1.095  33.851  23.825  1.00  0.00    -0.344 N 
ATOM      3  H1  UNL     1      -1.994  33.713  23.363  1.00  0.00     0.167 HD
HETATM    4  C4  UNL     1      -0.141  34.507  23.219  1.00  0.00     0.080 A 
HETATM    5  C5  UNL     1       1.041  34.661  23.885  1.00  0.00     0.016 A 
HETATM    6  S2  UNL     1       0.712  33.846  25.360  1.00  0.00    -0.068 SA
HETATM    7  C6  UNL     1       2.226  35.394  23.307  1.00  0.00     0.111 C 
HETATM    8  C7  UNL     1       1.842  36.206  22.124  1.00  0.00     0.391 C 
HETATM    9  N4  UNL     1       0.416  36.454  22.033  1.00  0.00    -0.014 N 
ATOM     10  H41 UNL     1       0.160  37.132  21.315  1.00  0.00     0.283 HD
ATOM     11  H42 UNL     1       0.036  36.973  22.824  1.00  0.00     0.283 HD
HETATM   12  C18 UNL     1      -0.189  35.127  21.843  1.00  0.00     0.373 C 
ENDROOT
BRANCH   8  13
HETATM   13  N2  UNL     1       2.529  37.505  22.114  1.00  0.00    -0.033 N 
ATOM     14  H22 UNL     1       1.892  38.302  22.113  1.00  0.00     0.280 HD
ATOM     15  H21 UNL     1       3.000  37.723  22.991  1.00  0.00     0.280 HD
BRANCH  13  16
HETATM   16  C8  UNL     1       3.420  37.476  20.971  1.00  0.00     0.275 C 
HETATM   17  C9  UNL     1       3.458  38.840  20.338  1.00  0.00     0.050 C 
BRANCH  16  18
HETATM   18  C10 UNL     1       4.766  36.994  21.358  1.00  0.00     0.248 C 
HETATM   19  O1  UNL     1       5.262  36.047  20.699  1.00  0.00    -0.271 OA
HETATM   20  N3  UNL     1       5.506  37.539  22.416  1.00  0.00    -0.354 N 
ATOM     21  H3  UNL     1       5.078  38.307  22.933  1.00  0.00     0.162 HD
BRANCH  20  22
HETATM   22  C11 UNL     1       6.802  37.117  22.834  1.00  0.00     0.092 C 
HETATM   23  C12 UNL     1       6.767  36.312  24.128  1.00  0.00     0.034 C 
HETATM   24  C13 UNL     1       7.730  37.061  25.006  1.00  0.00     0.010 C 
HETATM   25  C14 UNL     1       9.066  36.973  24.397  1.00  0.00    -0.026 C 
HETATM   26  C17 UNL     1       7.383  38.508  24.595  1.00  0.00     0.019 C 
HETATM   27  C15 UNL     1       9.086  37.682  23.277  1.00  0.00    -0.024 C 
HETATM   28  C16 UNL     1       7.743  38.265  23.115  1.00  0.00     0.031 C 
ENDBRANCH  20  22
ENDBRANCH  16  18
ENDBRANCH  13  16
ENDBRANCH   8  13
BRANCH  12  29
HETATM   29  O2  UNL     1      -1.463  35.214  21.340  1.00  0.00    -0.365 OA
ATOM     30  H2  UNL     1      -1.640  36.048  20.923  1.00  0.00     0.212 HD
ENDBRANCH  12  29
BRANCH   1  31
HETATM   31  S1  UNL     1      -2.061  32.439  26.033  1.00  0.00    -0.085 SA
BRANCH  31  32
HETATM   32  C2  UNL     1      -1.205  31.797  27.468  1.00  0.00     0.146 C 
HETATM   33  C1  UNL     1      -0.013  30.978  26.957  1.00  0.00     0.038 C 
HETATM   34 CL1  UNL     1      -2.230  30.682  28.427  1.00  0.00    -0.114 Cl
ENDBRANCH  31  32
ENDBRANCH   1  31
TORSDOF 7
ENDMDL
MODEL 4
REMARK VINA RESULT: -7.848862600      1.054      1.074
REMARK  7 active torsions:
REMARK  status: ('A' for Active; 'I' for Inactive)
REMARK    1  A    between atoms: C2_2  and  S1_4 
REMARK    2  A    between atoms: S1_4  and  C3_5 
REMARK    3  A    between atoms: C7_12  and  N2_13 
REMARK    4  A    between atoms: N2_13  and  C8_16 
REMARK    5  A    between atoms: C8_16  and  C10_18 
REMARK       I    between atoms: C10_18  and  N3_20 
REMARK    6  A    between atoms: N3_20  and  C11_22 
REMARK    7  A    between atoms: C18_32  and  O2_33 
ROOT
HETATM    1  C3  UNL     1       2.443  36.736  22.608  1.00  0.00     0.114 A 
HETATM    2  N1  UNL     1       1.267  36.286  22.215  1.00  0.00    -0.344 N 
ATOM      3  H1  UNL     1       0.906  36.535  21.294  1.00  0.00     0.167 HD
HETATM    4  C4  UNL     1       0.566  35.522  23.009  1.00  0.00     0.080 A 
HETATM    5  C5  UNL     1       1.097  35.222  24.230  1.00  0.00     0.016 A 
HETATM    6  S2  UNL     1       2.593  36.064  24.168  1.00  0.00    -0.068 SA
HETATM    7  C6  UNL     1       0.398  34.354  25.246  1.00  0.00     0.111 C 
HETATM    8  C7  UNL     1      -0.728  33.600  24.637  1.00  0.00     0.391 C 
HETATM    9  N4  UNL     1      -0.659  33.527  23.191  1.00  0.00    -0.014 N 
ATOM     10  H41 UNL     1      -1.339  32.889  22.776  1.00  0.00     0.283 HD
ATOM     11  H42 UNL     1       0.174  33.055  22.840  1.00  0.00     0.283 HD
HETATM   12  C18 UNL     1      -0.792  34.919  22.733  1.00  0.00     0.373 C 
ENDROOT
BRANCH   8  13
HETATM   13  N2  UNL     1      -0.804  32.228  25.156  1.00  0.00    -0.033 N 
ATOM     14  H22 UNL     1      -1.748  31.841  25.149  1.00  0.00     0.280 HD
ATOM     15  H21 UNL     1      -0.382  31.535  24.538  1.00  0.00     0.280 HD
BRANCH  13  16
HETATM   16  C8  UNL     1      -0.205  32.266  26.476  1.00  0.00     0.275 C 
HETATM   17  C9  UNL     1      -1.082  31.516  27.440  1.00  0.00     0.050 C 
BRANCH  16  18
HETATM   18  C10 UNL     1       1.181  31.743  26.446  1.00  0.00     0.248 C 
HETATM   19  O1  UNL     1       1.893  31.911  27.466  1.00  0.00    -0.271 OA
HETATM   20  N3  UNL     1       1.729  31.075  25.343  1.00  0.00    -0.354 N 
ATOM     21  H3  UNL     1       1.128  30.952  24.529  1.00  0.00     0.162 HD
BRANCH  20  22
HETATM   22  C11 UNL     1       3.053  30.551  25.256  1.00  0.00     0.092 C 
HETATM   23  C12 UNL     1       3.903  31.276  24.219  1.00  0.00     0.034 C 
HETATM   24  C13 UNL     1       4.382  30.152  23.345  1.00  0.00     0.010 C 
HETATM   25  C14 UNL     1       5.231  29.270  24.160  1.00  0.00    -0.026 C 
HETATM   26  C17 UNL     1       3.106  29.284  23.315  1.00  0.00     0.019 C 
HETATM   27  C15 UNL     1       4.480  28.640  25.053  1.00  0.00    -0.024 C 
HETATM   28  C16 UNL     1       3.095  29.098  24.847  1.00  0.00     0.031 C 
ENDBRANCH  20  22
ENDBRANCH  16  18
ENDBRANCH  13  16
ENDBRANCH   8  13
BRANCH  12  29
HETATM   29  O2  UNL     1      -1.150  34.991  21.410  1.00  0.00    -0.365 OA
ATOM     30  H2  UNL     1      -1.067  34.159  20.960  1.00  0.00     0.212 HD
ENDBRANCH  12  29
BRANCH   1  31
HETATM   31  S1  UNL     1       3.556  37.793  21.678  1.00  0.00    -0.085 SA
BRANCH  31  32
HETATM   32  C2  UNL     1       5.098  36.918  21.423  1.00  0.00     0.146 C 
HETATM   33  C1  UNL     1       4.742  35.488  20.998  1.00  0.00     0.038 C 
HETATM   34 CL1  UNL     1       6.063  36.790  22.928  1.00  0.00    -0.114 Cl
ENDBRANCH  31  32
ENDBRANCH   1  31
TORSDOF 7
ENDMDL
MODEL 5
REMARK VINA RESULT: -7.835658762      4.174      8.350
REMARK  7 active torsions:
REMARK  status: ('A' for Active; 'I' for Inactive)
REMARK    1  A    between atoms: C2_2  and  S1_4 
REMARK    2  A    between atoms: S1_4  and  C3_5 
REMARK    3  A    between atoms: C7_12  and  N2_13 
REMARK    4  A    between atoms: N2_13  and  C8_16 
REMARK    5  A    between atoms: C8_16  and  C10_18 
REMARK       I    between atoms: C10_18  and  N3_20 
REMARK    6  A    between atoms: N3_20  and  C11_22 
REMARK    7  A    between atoms: C18_32  and  O2_33 
ROOT
HETATM    1  C3  UNL     1      -1.332  33.464  24.991  1.00  0.00     0.114 A 
HETATM    2  N1  UNL     1      -0.542  34.495  25.218  1.00  0.00    -0.344 N 
ATOM      3  H1  UNL     1      -0.231  34.702  26.168  1.00  0.00     0.167 HD
HETATM    4  C4  UNL     1      -0.158  35.250  24.225  1.00  0.00     0.080 A 
HETATM    5  C5  UNL     1      -0.604  34.927  22.976  1.00  0.00     0.016 A 
HETATM    6  S2  UNL     1      -1.560  33.539  23.303  1.00  0.00    -0.068 SA
HETATM    7  C6  UNL     1      -0.241  35.711  21.739  1.00  0.00     0.111 C 
HETATM    8  C7  UNL     1       0.905  36.623  21.987  1.00  0.00     0.391 C 
HETATM    9  N4  UNL     1       1.670  36.279  23.170  1.00  0.00    -0.014 N 
ATOM     10  H41 UNL     1       2.541  36.802  23.265  1.00  0.00     0.283 HD
ATOM     11  H42 UNL     1       2.094  35.352  23.133  1.00  0.00     0.283 HD
HETATM   12  C18 UNL     1       0.738  36.465  24.293  1.00  0.00     0.373 C 
ENDROOT
BRANCH   8  13
HETATM   13  N2  UNL     1       1.828  36.654  20.844  1.00  0.00    -0.033 N 
ATOM     14  H22 UNL     1       1.689  35.885  20.188  1.00  0.00     0.280 HD
ATOM     15  H21 UNL     1       1.639  37.412  20.189  1.00  0.00     0.280 HD
BRANCH  13  16
HETATM   16  C8  UNL     1       3.162  36.697  21.409  1.00  0.00     0.275 C 
HETATM   17  C9  UNL     1       4.020  35.663  20.735  1.00  0.00     0.050 C 
BRANCH  16  18
HETATM   18  C10 UNL     1       3.736  38.059  21.314  1.00  0.00     0.248 C 
HETATM   19  O1  UNL     1       3.339  38.799  20.380  1.00  0.00    -0.271 OA
HETATM   20  N3  UNL     1       4.692  38.557  22.209  1.00  0.00    -0.354 N 
ATOM     21  H3  UNL     1       4.995  37.935  22.957  1.00  0.00     0.162 HD
BRANCH  20  22
HETATM   22  C11 UNL     1       5.280  39.856  22.167  1.00  0.00     0.092 C 
HETATM   23  C12 UNL     1       6.607  39.923  22.914  1.00  0.00     0.034 C 
HETATM   24  C13 UNL     1       6.383  41.056  23.876  1.00  0.00     0.010 C 
HETATM   25  C14 UNL     1       6.186  42.286  23.096  1.00  0.00    -0.026 C 
HETATM   26  C17 UNL     1       4.913  40.785  24.259  1.00  0.00     0.019 C 
HETATM   27  C15 UNL     1       5.026  42.219  22.456  1.00  0.00    -0.024 C 
HETATM   28  C16 UNL     1       4.421  40.922  22.804  1.00  0.00     0.031 C 
ENDBRANCH  20  22
ENDBRANCH  16  18
ENDBRANCH  13  16
ENDBRANCH   8  13
BRANCH  12  29
HETATM   29  O2  UNL     1       1.397  36.577  25.491  1.00  0.00    -0.365 OA
ATOM     30  H2  UNL     1       1.398  37.464  25.831  1.00  0.00     0.212 HD
ENDBRANCH  12  29
BRANCH   1  31
HETATM   31  S1  UNL     1      -1.973  32.310  26.208  1.00  0.00    -0.085 SA
BRANCH  31  32
HETATM   32  C2  UNL     1      -0.697  31.113  26.589  1.00  0.00     0.146 C 
HETATM   33  C1  UNL     1       0.029  31.608  27.845  1.00  0.00     0.038 C 
HETATM   34 CL1  UNL     1       0.532  30.994  25.289  1.00  0.00    -0.114 Cl
ENDBRANCH  31  32
ENDBRANCH   1  31
TORSDOF 7
ENDMDL
