MODEL 1
REMARK VINA RESULT: -7.741934964      0.000      0.000
REMARK  8 active torsions:
REMARK  status: ('A' for Active; 'I' for Inactive)
REMARK    1  A    between atoms: C3_5  and  N2_6 
REMARK    2  A    between atoms: C8_15  and  N4_16 
REMARK    3  A    between atoms: N4_16  and  C9_18 
REMARK    4  A    between atoms: C9_18  and  C10_19 
REMARK    5  A    between atoms: C10_19  and  C11_20 
REMARK    6  A    between atoms: C11_20  and  N5_21 
REMARK    7  A    between atoms: C16_26  and  C17_27 
REMARK    8  A    between atoms: C19_30  and  N6_31 
ROOT
HETATM    1  C1  UNL     1       3.333  37.519  26.729  1.00  0.00     0.070 C 
HETATM    2  C2  UNL     1       3.130  36.528  25.636  1.00  0.00     0.039 A 
HETATM    3  N1  UNL     1       1.868  36.026  25.432  1.00  0.00    -0.195 N 
ATOM      4  H1  UNL     1       1.123  36.317  26.066  1.00  0.00     0.184 HD
HETATM    5  C3  UNL     1       1.569  35.181  24.452  1.00  0.00     0.682 A 
HETATM    6  N3  UNL     1       2.563  34.808  23.627  1.00  0.00    -0.176 N 
ATOM      7  H3  UNL     1       2.354  34.160  22.868  1.00  0.00     0.186 HD
HETATM    8  C8  UNL     1       3.829  35.259  23.767  1.00  0.00     0.131 A 
HETATM    9  C16 UNL     1       4.131  36.156  24.815  1.00  0.00     0.058 A 
ENDROOT
BRANCH   8  10
HETATM   10  N4  UNL     1       4.779  34.877  23.010  1.00  0.00    -0.375 N 
ATOM     11  H4  UNL     1       5.626  34.510  23.444  1.00  0.00     0.161 HD
BRANCH  10  12
HETATM   12  C9  UNL     1       4.721  34.937  21.589  1.00  0.00     0.123 C 
BRANCH  12  13
HETATM   13  C10 UNL     1       4.200  36.261  21.052  1.00  0.00     0.050 C 
BRANCH  13  14
HETATM   14  C11 UNL     1       2.911  36.061  20.277  1.00  0.00     0.274 C 
BRANCH  14  15
HETATM   15  N5  UNL     1       2.134  37.278  20.256  1.00  0.00     0.088 N 
HETATM   16  C12 UNL     1       2.875  38.269  19.531  1.00  0.00     0.272 C 
HETATM   17  C13 UNL     1       2.065  38.691  18.349  1.00  0.00     0.032 C 
HETATM   18  C14 UNL     1       0.653  38.308  18.779  1.00  0.00     0.032 C 
HETATM   19  C15 UNL     1       0.915  37.028  19.544  1.00  0.00     0.272 C 
ENDBRANCH  14  15
ENDBRANCH  13  14
ENDBRANCH  12  13
ENDBRANCH  10  12
ENDBRANCH   8  10
BRANCH   9  20
HETATM   20  C17 UNL     1       5.550  36.574  25.056  1.00  0.00     0.056 A 
HETATM   21  C18 UNL     1       6.034  37.771  24.569  1.00  0.00     0.083 A 
HETATM   22  S1  UNL     1       7.606  37.839  25.226  1.00  0.00    -0.064 SA
HETATM   23  C19 UNL     1       7.582  36.370  26.077  1.00  0.00     0.142 A 
HETATM   24  N7  UNL     1       6.363  35.888  25.818  1.00  0.00    -0.336 N 
ATOM     25  H7  UNL     1       6.069  34.995  26.211  1.00  0.00     0.168 HD
BRANCH  23  26
HETATM   26  N6  UNL     1       8.518  35.808  26.821  1.00  0.00    -0.380 N 
ATOM     27  H62 UNL     1       9.464  36.154  26.983  1.00  0.00     0.158 HD
ATOM     28  H61 UNL     1       8.489  34.948  27.368  1.00  0.00     0.158 HD
ENDBRANCH  23  26
ENDBRANCH   9  20
BRANCH   5  29
HETATM   29  N2  UNL     1       0.253  34.659  24.240  1.00  0.00    -0.211 N 
HETATM   30  C4  UNL     1      -0.445  34.988  23.035  1.00  0.00     0.167 C 
HETATM   31  C5  UNL     1      -1.295  33.853  22.552  1.00  0.00     0.191 C 
HETATM   32  O1  UNL     1      -1.816  33.061  23.548  1.00  0.00    -0.353 OA
HETATM   33  C6  UNL     1      -1.815  33.625  24.800  1.00  0.00     0.325 C 
HETATM   34  F1  UNL     1      -2.469  32.811  25.675  1.00  0.00    -0.218 F 
HETATM   35  C7  UNL     1      -0.374  33.805  25.228  1.00  0.00     0.207 C 
ENDBRANCH   5  29
TORSDOF 8
ENDMDL
MODEL 2
REMARK VINA RESULT: -7.597518241      2.321      2.892
REMARK  8 active torsions:
REMARK  status: ('A' for Active; 'I' for Inactive)
REMARK    1  A    between atoms: C3_5  and  N2_6 
REMARK    2  A    between atoms: C8_15  and  N4_16 
REMARK    3  A    between atoms: N4_16  and  C9_18 
REMARK    4  A    between atoms: C9_18  and  C10_19 
REMARK    5  A    between atoms: C10_19  and  C11_20 
REMARK    6  A    between atoms: C11_20  and  N5_21 
REMARK    7  A    between atoms: C16_26  and  C17_27 
REMARK    8  A    between atoms: C19_30  and  N6_31 
ROOT
HETATM    1  C1  UNL     1       5.166  36.784  26.529  1.00  0.00     0.070 C 
HETATM    2  C2  UNL     1       4.725  35.834  25.469  1.00  0.00     0.039 A 
HETATM    3  N1  UNL     1       3.831  34.848  25.805  1.00  0.00    -0.195 N 
ATOM      4  H1  UNL     1       3.535  34.773  26.778  1.00  0.00     0.184 HD
HETATM    5  C3  UNL     1       3.332  33.985  24.926  1.00  0.00     0.682 A 
HETATM    6  N3  UNL     1       3.735  34.098  23.648  1.00  0.00    -0.176 N 
ATOM      7  H3  UNL     1       3.363  33.446  22.957  1.00  0.00     0.186 HD
HETATM    8  C8  UNL     1       4.613  35.042  23.244  1.00  0.00     0.131 A 
HETATM    9  C16 UNL     1       5.134  35.951  24.192  1.00  0.00     0.058 A 
ENDROOT
BRANCH   8  10
HETATM   10  N4  UNL     1       5.023  35.126  22.042  1.00  0.00    -0.375 N 
ATOM     11  H4  UNL     1       6.029  35.111  21.871  1.00  0.00     0.161 HD
BRANCH  10  12
HETATM   12  C9  UNL     1       4.151  35.240  20.922  1.00  0.00     0.123 C 
BRANCH  12  13
HETATM   13  C10 UNL     1       3.825  36.676  20.542  1.00  0.00     0.050 C 
BRANCH  13  14
HETATM   14  C11 UNL     1       2.681  37.212  21.383  1.00  0.00     0.274 C 
BRANCH  14  15
HETATM   15  N5  UNL     1       1.640  36.221  21.519  1.00  0.00     0.088 N 
HETATM   16  C12 UNL     1       1.144  36.275  22.863  1.00  0.00     0.272 C 
HETATM   17  C13 UNL     1      -0.310  36.618  22.815  1.00  0.00     0.032 C 
HETATM   18  C14 UNL     1      -0.689  36.196  21.399  1.00  0.00     0.032 C 
HETATM   19  C15 UNL     1       0.565  36.567  20.636  1.00  0.00     0.272 C 
ENDBRANCH  14  15
ENDBRANCH  13  14
ENDBRANCH  12  13
ENDBRANCH  10  12
ENDBRANCH   8  10
BRANCH   9  20
HETATM   20  C17 UNL     1       6.195  36.928  23.785  1.00  0.00     0.056 A 
HETATM   21  C18 UNL     1       5.898  38.259  23.577  1.00  0.00     0.083 A 
HETATM   22  S1  UNL     1       7.431  38.949  23.289  1.00  0.00    -0.064 SA
HETATM   23  C19 UNL     1       8.368  37.541  23.443  1.00  0.00     0.142 A 
HETATM   24  N7  UNL     1       7.459  36.598  23.709  1.00  0.00    -0.336 N 
ATOM     25  H7  UNL     1       7.748  35.631  23.852  1.00  0.00     0.168 HD
BRANCH  23  26
HETATM   26  N6  UNL     1       9.675  37.379  23.333  1.00  0.00    -0.380 N 
ATOM     27  H62 UNL     1      10.225  36.584  23.659  1.00  0.00     0.158 HD
ATOM     28  H61 UNL     1      10.376  37.991  22.916  1.00  0.00     0.158 HD
ENDBRANCH  23  26
ENDBRANCH   9  20
BRANCH   5  29
HETATM   29  N2  UNL     1       2.400  32.958  25.277  1.00  0.00    -0.211 N 
HETATM   30  C4  UNL     1       1.051  33.315  25.593  1.00  0.00     0.167 C 
HETATM   31  C5  UNL     1       0.074  32.279  25.129  1.00  0.00     0.191 C 
HETATM   32  O1  UNL     1       0.551  30.990  25.150  1.00  0.00    -0.353 OA
HETATM   33  C6  UNL     1       1.663  30.793  25.931  1.00  0.00     0.325 C 
HETATM   34  F1  UNL     1       1.964  29.465  25.981  1.00  0.00    -0.218 F 
HETATM   35  C7  UNL     1       2.807  31.568  25.314  1.00  0.00     0.207 C 
ENDBRANCH   5  29
TORSDOF 8
ENDMDL
MODEL 3
REMARK VINA RESULT: -7.558057752      0.959      1.313
REMARK  8 active torsions:
REMARK  status: ('A' for Active; 'I' for Inactive)
REMARK    1  A    between atoms: C3_5  and  N2_6 
REMARK    2  A    between atoms: C8_15  and  N4_16 
REMARK    3  A    between atoms: N4_16  and  C9_18 
REMARK    4  A    between atoms: C9_18  and  C10_19 
REMARK    5  A    between atoms: C10_19  and  C11_20 
REMARK    6  A    between atoms: C11_20  and  N5_21 
REMARK    7  A    between atoms: C16_26  and  C17_27 
REMARK    8  A    between atoms: C19_30  and  N6_31 
ROOT
HETATM    1  C1  UNL     1       3.680  36.661  26.795  1.00  0.00     0.070 C 
HETATM    2  C2  UNL     1       3.257  36.204  25.442  1.00  0.00     0.039 A 
HETATM    3  N1  UNL     1       1.995  35.683  25.292  1.00  0.00    -0.195 N 
ATOM      4  H1  UNL     1       1.409  35.587  26.121  1.00  0.00     0.184 HD
HETATM    5  C3  UNL     1       1.500  35.298  24.120  1.00  0.00     0.682 A 
HETATM    6  N3  UNL     1       2.287  35.431  23.039  1.00  0.00    -0.176 N 
ATOM      7  H3  UNL     1       1.925  35.141  22.130  1.00  0.00     0.186 HD
HETATM    8  C8  UNL     1       3.539  35.933  23.110  1.00  0.00     0.131 A 
HETATM    9  C16 UNL     1       4.051  36.337  24.363  1.00  0.00     0.058 A 
ENDROOT
BRANCH   8  10
HETATM   10  N4  UNL     1       4.299  36.024  22.092  1.00  0.00    -0.375 N 
ATOM     11  H4  UNL     1       5.301  36.131  22.245  1.00  0.00     0.161 HD
BRANCH  10  12
HETATM   12  C9  UNL     1       3.821  35.986  20.751  1.00  0.00     0.123 C 
BRANCH  12  13
HETATM   13  C10 UNL     1       3.459  37.352  20.191  1.00  0.00     0.050 C 
BRANCH  13  14
HETATM   14  C11 UNL     1       2.057  37.345  19.609  1.00  0.00     0.274 C 
BRANCH  14  15
HETATM   15  N5  UNL     1       1.976  38.221  18.464  1.00  0.00     0.088 N 
HETATM   16  C12 UNL     1       0.616  38.237  18.009  1.00  0.00     0.272 C 
HETATM   17  C13 UNL     1       0.106  39.639  18.098  1.00  0.00     0.032 C 
HETATM   18  C14 UNL     1       1.398  40.448  18.083  1.00  0.00     0.032 C 
HETATM   19  C15 UNL     1       2.318  39.549  18.882  1.00  0.00     0.272 C 
ENDBRANCH  14  15
ENDBRANCH  13  14
ENDBRANCH  12  13
ENDBRANCH  10  12
ENDBRANCH   8  10
BRANCH   9  20
HETATM   20  C17 UNL     1       5.476  36.786  24.478  1.00  0.00     0.056 A 
HETATM   21  C18 UNL     1       5.822  38.112  24.320  1.00  0.00     0.083 A 
HETATM   22  S1  UNL     1       7.487  38.116  24.686  1.00  0.00    -0.064 SA
HETATM   23  C19 UNL     1       7.670  36.461  25.020  1.00  0.00     0.142 A 
HETATM   24  N7  UNL     1       6.439  35.976  24.833  1.00  0.00    -0.336 N 
ATOM     25  H7  UNL     1       6.253  34.982  24.967  1.00  0.00     0.168 HD
BRANCH  23  26
HETATM   26  N6  UNL     1       8.748  35.785  25.377  1.00  0.00    -0.380 N 
ATOM     27  H62 UNL     1       9.699  35.920  25.036  1.00  0.00     0.158 HD
ATOM     28  H61 UNL     1       8.846  35.019  26.043  1.00  0.00     0.158 HD
ENDBRANCH  23  26
ENDBRANCH   9  20
BRANCH   5  29
HETATM   29  N2  UNL     1       0.185  34.756  23.965  1.00  0.00    -0.211 N 
HETATM   30  C4  UNL     1      -0.545  35.022  22.763  1.00  0.00     0.167 C 
HETATM   31  C5  UNL     1      -1.395  33.858  22.354  1.00  0.00     0.191 C 
HETATM   32  O1  UNL     1      -1.885  33.111  23.399  1.00  0.00    -0.353 OA
HETATM   33  C6  UNL     1      -1.860  33.733  24.622  1.00  0.00     0.325 C 
HETATM   34  F1  UNL     1      -2.487  32.956  25.550  1.00  0.00    -0.218 F 
HETATM   35  C7  UNL     1      -0.412  33.945  25.007  1.00  0.00     0.207 C 
ENDBRANCH   5  29
TORSDOF 8
ENDMDL
MODEL 4
REMARK VINA RESULT: -7.554283594      3.199      4.471
REMARK  8 active torsions:
REMARK  status: ('A' for Active; 'I' for Inactive)
REMARK    1  A    between atoms: C3_5  and  N2_6 
REMARK    2  A    between atoms: C8_15  and  N4_16 
REMARK    3  A    between atoms: N4_16  and  C9_18 
REMARK    4  A    between atoms: C9_18  and  C10_19 
REMARK    5  A    between atoms: C10_19  and  C11_20 
REMARK    6  A    between atoms: C11_20  and  N5_21 
REMARK    7  A    between atoms: C16_26  and  C17_27 
REMARK    8  A    between atoms: C19_30  and  N6_31 
ROOT
HETATM    1  C1  UNL     1       5.104  36.018  26.819  1.00  0.00     0.070 C 
HETATM    2  C2  UNL     1       3.844  35.411  26.306  1.00  0.00     0.039 A 
HETATM    3  N1  UNL     1       3.782  34.045  26.173  1.00  0.00    -0.195 N 
ATOM      4  H1  UNL     1       4.617  33.499  26.387  1.00  0.00     0.184 HD
HETATM    5  C3  UNL     1       2.690  33.400  25.778  1.00  0.00     0.682 A 
HETATM    6  N3  UNL     1       1.600  34.137  25.498  1.00  0.00    -0.176 N 
ATOM      7  H3  UNL     1       0.751  33.660  25.194  1.00  0.00     0.186 HD
HETATM    8  C8  UNL     1       1.588  35.483  25.605  1.00  0.00     0.131 A 
HETATM    9  C16 UNL     1       2.757  36.154  26.026  1.00  0.00     0.058 A 
ENDROOT
BRANCH   8  10
HETATM   10  N4  UNL     1       0.568  36.184  25.305  1.00  0.00    -0.375 N 
ATOM     11  H4  UNL     1       0.404  37.047  25.823  1.00  0.00     0.161 HD
BRANCH  10  12
HETATM   12  C9  UNL     1      -0.357  35.826  24.284  1.00  0.00     0.123 C 
BRANCH  12  13
HETATM   13  C10 UNL     1      -0.196  36.627  23.002  1.00  0.00     0.050 C 
BRANCH  13  14
HETATM   14  C11 UNL     1       0.712  35.906  22.022  1.00  0.00     0.274 C 
BRANCH  14  15
HETATM   15  N5  UNL     1       1.951  36.627  21.851  1.00  0.00     0.088 N 
HETATM   16  C12 UNL     1       3.029  35.758  22.227  1.00  0.00     0.272 C 
HETATM   17  C13 UNL     1       3.916  35.569  21.041  1.00  0.00     0.032 C 
HETATM   18  C14 UNL     1       3.588  36.797  20.199  1.00  0.00     0.032 C 
HETATM   19  C15 UNL     1       2.104  36.945  20.462  1.00  0.00     0.272 C 
ENDBRANCH  14  15
ENDBRANCH  13  14
ENDBRANCH  12  13
ENDBRANCH  10  12
ENDBRANCH   8  10
BRANCH   9  20
HETATM   20  C17 UNL     1       2.797  37.652  26.038  1.00  0.00     0.056 A 
HETATM   21  C18 UNL     1       3.068  38.368  24.890  1.00  0.00     0.083 A 
HETATM   22  S1  UNL     1       2.852  39.983  25.391  1.00  0.00    -0.064 SA
HETATM   23  C19 UNL     1       2.433  39.686  27.009  1.00  0.00     0.142 A 
HETATM   24  N7  UNL     1       2.478  38.353  27.095  1.00  0.00    -0.336 N 
ATOM     25  H7  UNL     1       2.267  37.887  27.977  1.00  0.00     0.168 HD
BRANCH  23  26
HETATM   26  N6  UNL     1       2.131  40.536  27.975  1.00  0.00    -0.380 N 
ATOM     27  H62 UNL     1       2.557  41.446  28.148  1.00  0.00     0.158 HD
ATOM     28  H61 UNL     1       1.435  40.461  28.717  1.00  0.00     0.158 HD
ENDBRANCH  23  26
ENDBRANCH   9  20
BRANCH   5  29
HETATM   29  N2  UNL     1       2.626  31.978  25.639  1.00  0.00    -0.211 N 
HETATM   30  C4  UNL     1       1.504  31.272  26.177  1.00  0.00     0.167 C 
HETATM   31  C5  UNL     1       1.122  30.097  25.329  1.00  0.00     0.191 C 
HETATM   32  O1  UNL     1       2.172  29.489  24.684  1.00  0.00    -0.353 OA
HETATM   33  C6  UNL     1       3.414  29.778  25.193  1.00  0.00     0.325 C 
HETATM   34  F1  UNL     1       4.358  29.023  24.565  1.00  0.00    -0.218 F 
HETATM   35  C7  UNL     1       3.680  31.250  24.963  1.00  0.00     0.207 C 
ENDBRANCH   5  29
TORSDOF 8
ENDMDL
MODEL 5
REMARK VINA RESULT: -7.539169138      0.784      1.181
REMARK  8 active torsions:
REMARK  status: ('A' for Active; 'I' for Inactive)
REMARK    1  A    between atoms: C3_5  and  N2_6 
REMARK    2  A    between atoms: C8_15  and  N4_16 
REMARK    3  A    between atoms: N4_16  and  C9_18 
REMARK    4  A    between atoms: C9_18  and  C10_19 
REMARK    5  A    between atoms: C10_19  and  C11_20 
REMARK    6  A    between atoms: C11_20  and  N5_21 
REMARK    7  A    between atoms: C16_26  and  C17_27 
REMARK    8  A    between atoms: C19_30  and  N6_31 
ROOT
HETATM    1  C1  UNL     1       3.314  37.257  26.889  1.00  0.00     0.070 C 
HETATM    2  C2  UNL     1       3.177  36.300  25.756  1.00  0.00     0.039 A 
HETATM    3  N1  UNL     1       1.974  35.659  25.582  1.00  0.00    -0.195 N 
ATOM      4  H1  UNL     1       1.232  35.828  26.261  1.00  0.00     0.184 HD
HETATM    5  C3  UNL     1       1.730  34.829  24.574  1.00  0.00     0.682 A 
HETATM    6  N3  UNL     1       2.719  34.617  23.689  1.00  0.00    -0.176 N 
ATOM      7  H3  UNL     1       2.551  33.983  22.907  1.00  0.00     0.186 HD
HETATM    8  C8  UNL     1       3.928  35.210  23.797  1.00  0.00     0.131 A 
HETATM    9  C16 UNL     1       4.172  36.090  24.875  1.00  0.00     0.058 A 
ENDROOT
BRANCH   8  10
HETATM   10  N4  UNL     1       4.878  34.981  22.980  1.00  0.00    -0.375 N 
ATOM     11  H4  UNL     1       5.804  34.780  23.359  1.00  0.00     0.161 HD
BRANCH  10  12
HETATM   12  C9  UNL     1       4.716  34.992  21.566  1.00  0.00     0.123 C 
BRANCH  12  13
HETATM   13  C10 UNL     1       4.167  36.301  21.022  1.00  0.00     0.050 C 
BRANCH  13  14
HETATM   14  C11 UNL     1       2.837  36.083  20.324  1.00  0.00     0.274 C 
BRANCH  14  15
HETATM   15  N5  UNL     1       2.092  37.318  20.248  1.00  0.00     0.088 N 
HETATM   16  C12 UNL     1       2.865  38.260  19.493  1.00  0.00     0.272 C 
HETATM   17  C13 UNL     1       2.077  38.655  18.287  1.00  0.00     0.032 C 
HETATM   18  C14 UNL     1       0.651  38.325  18.716  1.00  0.00     0.032 C 
HETATM   19  C15 UNL     1       0.874  37.070  19.534  1.00  0.00     0.272 C 
ENDBRANCH  14  15
ENDBRANCH  13  14
ENDBRANCH  12  13
ENDBRANCH  10  12
ENDBRANCH   8  10
BRANCH   9  20
HETATM   20  C17 UNL     1       5.542  36.665  25.075  1.00  0.00     0.056 A 
HETATM   21  C18 UNL     1       5.861  37.925  24.614  1.00  0.00     0.083 A 
HETATM   22  S1  UNL     1       7.442  38.157  25.210  1.00  0.00    -0.064 SA
HETATM   23  C19 UNL     1       7.627  36.669  26.006  1.00  0.00     0.142 A 
HETATM   24  N7  UNL     1       6.462  36.055  25.778  1.00  0.00    -0.336 N 
ATOM     25  H7  UNL     1       6.292  35.121  26.148  1.00  0.00     0.168 HD
BRANCH  23  26
HETATM   26  N6  UNL     1       8.654  36.199  26.691  1.00  0.00    -0.380 N 
ATOM     27  H62 UNL     1       8.888  35.220  26.853  1.00  0.00     0.158 HD
ATOM     28  H61 UNL     1       9.396  36.699  27.181  1.00  0.00     0.158 HD
ENDBRANCH  23  26
ENDBRANCH   9  20
BRANCH   5  29
HETATM   29  N2  UNL     1       0.476  34.162  24.393  1.00  0.00    -0.211 N 
HETATM   30  C4  UNL     1       0.080  33.153  25.327  1.00  0.00     0.167 C 
HETATM   31  C5  UNL     1      -1.400  33.153  25.558  1.00  0.00     0.191 C 
HETATM   32  O1  UNL     1      -2.151  33.527  24.469  1.00  0.00    -0.353 OA
HETATM   33  C6  UNL     1      -1.498  33.466  23.263  1.00  0.00     0.325 C 
HETATM   34  F1  UNL     1      -2.370  33.728  22.250  1.00  0.00    -0.218 F 
HETATM   35  C7  UNL     1      -0.389  34.497  23.281  1.00  0.00     0.207 C 
ENDBRANCH   5  29
TORSDOF 8
ENDMDL
