MODEL 1
REMARK VINA RESULT: -7.376174632      0.000      0.000
REMARK  9 active torsions:
REMARK  status: ('A' for Active; 'I' for Inactive)
REMARK    1  A    between atoms: O1_2  and  C2_3 
REMARK    2  A    between atoms: C5_7  and  N1_8 
REMARK    3  A    between atoms: N1_8  and  C6_10 
REMARK    4  A    between atoms: C6_10  and  C7_15 
REMARK    5  A    between atoms: N2_11  and  O2_13 
REMARK    6  A    between atoms: C7_15  and  N5_20 
REMARK    7  A    between atoms: N5_20  and  C9_22 
REMARK    8  A    between atoms: C9_22  and  C10_23 
REMARK    9  A    between atoms: C17_31  and  O3_32 
ROOT
HETATM    1  C7  UNL     1       5.671  36.675  25.043  1.00  0.00     0.157 C 
HETATM    2  N3  UNL     1       6.830  36.142  24.973  1.00  0.00    -0.276 N 
ATOM      3  H3  UNL     1       6.907  35.133  24.851  1.00  0.00     0.179 HD
HETATM    4  C8  UNL     1       7.974  36.895  25.059  1.00  0.00     0.183 C 
HETATM    5  N4  UNL     1       8.949  37.511  25.122  1.00  0.00    -0.172 NA
ENDROOT
BRANCH   1   6
HETATM    6  C6  UNL     1       4.508  35.773  24.940  1.00  0.00     0.171 C 
HETATM    7  N2  UNL     1       3.710  35.599  25.932  1.00  0.00    -0.250 N 
ATOM      8  H2  UNL     1       2.920  34.967  25.801  1.00  0.00     0.196 HD
BRANCH   6   9
HETATM    9  N1  UNL     1       4.228  35.070  23.738  1.00  0.00    -0.337 N 
ATOM     10  H1  UNL     1       4.489  34.085  23.689  1.00  0.00     0.168 HD
BRANCH   9  11
HETATM   11  C5  UNL     1       3.610  35.647  22.606  1.00  0.00     0.058 A 
HETATM   12  C4  UNL     1       4.368  35.963  21.505  1.00  0.00     0.063 A 
HETATM   13  C3  UNL     1       3.818  36.528  20.374  1.00  0.00     0.065 A 
HETATM   14 CL1  UNL     1       6.085  35.635  21.538  1.00  0.00    -0.082 Cl
HETATM   15  C2  UNL     1       2.449  36.787  20.352  1.00  0.00     0.103 A 
HETATM   16  C17 UNL     1       1.656  36.476  21.455  1.00  0.00     0.103 A 
HETATM   17  C16 UNL     1       2.248  35.911  22.566  1.00  0.00     0.071 A 
BRANCH  15  18
HETATM   18  O1  UNL     1       1.833  37.351  19.255  1.00  0.00    -0.353 OA
HETATM   19  C1  UNL     1       2.292  38.568  18.691  1.00  0.00     0.210 C 
ENDBRANCH  15  18
BRANCH  16  20
HETATM   20  O3  UNL     1       0.299  36.747  21.397  1.00  0.00    -0.353 OA
HETATM   21  C18 UNL     1      -0.635  35.738  21.732  1.00  0.00     0.210 C 
ENDBRANCH  16  20
ENDBRANCH   9  11
ENDBRANCH   6   9
BRANCH   7  22
HETATM   22  O2  UNL     1       3.847  36.204  27.151  1.00  0.00    -0.288 OA
ATOM     23  H2  UNL     1       3.223  36.817  27.520  1.00  0.00     0.244 HD
ENDBRANCH   7  22
ENDBRANCH   1   6
BRANCH   1  24
HETATM   24  N5  UNL     1       5.517  38.069  25.214  1.00  0.00    -0.372 N 
ATOM     25  H5  UNL     1       5.899  38.502  26.055  1.00  0.00     0.161 HD
BRANCH  24  26
HETATM   26  C9  UNL     1       4.835  38.915  24.241  1.00  0.00     0.126 C 
BRANCH  26  27
HETATM   27  C10 UNL     1       5.702  39.188  23.044  1.00  0.00     0.007 C 
HETATM   28  C11 UNL     1       4.840  39.534  21.877  1.00  0.00     0.036 C 
HETATM   29  C12 UNL     1       4.406  40.949  21.779  1.00  0.00     0.272 C 
HETATM   30  N6  UNL     1       4.806  41.774  22.888  1.00  0.00     0.084 N 
HETATM   31  C13 UNL     1       4.611  43.159  22.492  1.00  0.00     0.309 C 
HETATM   32  C14 UNL     1       6.182  41.623  23.259  1.00  0.00     0.272 C 
HETATM   33  C15 UNL     1       6.728  40.246  23.228  1.00  0.00     0.036 C 
ENDBRANCH  26  27
ENDBRANCH  24  26
ENDBRANCH   1  24
TORSDOF 9
ENDMDL
MODEL 2
REMARK VINA RESULT: -7.265017699      4.128      7.716
REMARK  9 active torsions:
REMARK  status: ('A' for Active; 'I' for Inactive)
REMARK    1  A    between atoms: O1_2  and  C2_3 
REMARK    2  A    between atoms: C5_7  and  N1_8 
REMARK    3  A    between atoms: N1_8  and  C6_10 
REMARK    4  A    between atoms: C6_10  and  C7_15 
REMARK    5  A    between atoms: N2_11  and  O2_13 
REMARK    6  A    between atoms: C7_15  and  N5_20 
REMARK    7  A    between atoms: N5_20  and  C9_22 
REMARK    8  A    between atoms: C9_22  and  C10_23 
REMARK    9  A    between atoms: C17_31  and  O3_32 
ROOT
HETATM    1  C7  UNL     1      -0.116  34.919  24.467  1.00  0.00     0.157 C 
HETATM    2  N3  UNL     1      -0.495  35.161  23.272  1.00  0.00    -0.276 N 
ATOM      3  H3  UNL     1      -0.281  36.067  22.856  1.00  0.00     0.179 HD
HETATM    4  C8  UNL     1      -1.182  34.232  22.533  1.00  0.00     0.183 C 
HETATM    5  N4  UNL     1      -1.756  33.461  21.892  1.00  0.00    -0.172 NA
ENDROOT
BRANCH   1   6
HETATM    6  C6  UNL     1       0.616  35.988  25.172  1.00  0.00     0.171 C 
HETATM    7  N2  UNL     1       0.127  37.171  25.280  1.00  0.00    -0.250 N 
ATOM      8  H2  UNL     1       0.676  37.869  25.782  1.00  0.00     0.196 HD
BRANCH   6   9
HETATM    9  N1  UNL     1       1.887  35.744  25.759  1.00  0.00    -0.337 N 
ATOM     10  H1  UNL     1       1.914  35.484  26.745  1.00  0.00     0.168 HD
BRANCH   9  11
HETATM   11  C5  UNL     1       3.114  35.839  25.065  1.00  0.00     0.058 A 
HETATM   12  C4  UNL     1       4.190  36.444  25.667  1.00  0.00     0.063 A 
HETATM   13  C3  UNL     1       5.410  36.565  25.036  1.00  0.00     0.065 A 
HETATM   14 CL1  UNL     1       4.008  37.079  27.286  1.00  0.00    -0.082 Cl
HETATM   15  C2  UNL     1       5.551  36.056  23.747  1.00  0.00     0.103 A 
HETATM   16  C17 UNL     1       4.476  35.437  23.112  1.00  0.00     0.103 A 
HETATM   17  C16 UNL     1       3.273  35.339  23.781  1.00  0.00     0.071 A 
BRANCH  15  18
HETATM   18  O1  UNL     1       6.742  36.142  23.057  1.00  0.00    -0.353 OA
HETATM   19  C1  UNL     1       7.505  37.338  23.042  1.00  0.00     0.210 C 
ENDBRANCH  15  18
BRANCH  16  20
HETATM   20  O3  UNL     1       4.653  34.944  21.831  1.00  0.00    -0.353 OA
HETATM   21  C18 UNL     1       4.195  35.690  20.719  1.00  0.00     0.210 C 
ENDBRANCH  16  20
ENDBRANCH   9  11
ENDBRANCH   6   9
BRANCH   7  22
HETATM   22  O2  UNL     1      -1.081  37.558  24.768  1.00  0.00    -0.288 OA
ATOM     23  H2  UNL     1      -1.848  37.755  25.292  1.00  0.00     0.244 HD
ENDBRANCH   7  22
ENDBRANCH   1   6
BRANCH   1  24
HETATM   24  N5  UNL     1      -0.392  33.677  25.084  1.00  0.00    -0.372 N 
ATOM     25  H5  UNL     1      -1.233  33.593  25.655  1.00  0.00     0.161 HD
BRANCH  24  26
HETATM   26  C9  UNL     1       0.473  32.512  24.938  1.00  0.00     0.126 C 
BRANCH  26  27
HETATM   27  C10 UNL     1       1.081  32.108  26.251  1.00  0.00     0.007 C 
HETATM   28  C11 UNL     1       0.833  30.656  26.486  1.00  0.00     0.036 C 
HETATM   29  C12 UNL     1       1.791  29.717  25.851  1.00  0.00     0.272 C 
HETATM   30  N6  UNL     1       2.777  30.346  25.013  1.00  0.00     0.084 N 
HETATM   31  C13 UNL     1       3.814  29.363  24.750  1.00  0.00     0.309 C 
HETATM   32  C14 UNL     1       3.406  31.487  25.611  1.00  0.00     0.272 C 
HETATM   33  C15 UNL     1       2.533  32.389  26.395  1.00  0.00     0.036 C 
ENDBRANCH  26  27
ENDBRANCH  24  26
ENDBRANCH   1  24
TORSDOF 9
ENDMDL
MODEL 3
REMARK VINA RESULT: -7.162828286      4.371      7.940
REMARK  9 active torsions:
REMARK  status: ('A' for Active; 'I' for Inactive)
REMARK    1  A    between atoms: O1_2  and  C2_3 
REMARK    2  A    between atoms: C5_7  and  N1_8 
REMARK    3  A    between atoms: N1_8  and  C6_10 
REMARK    4  A    between atoms: C6_10  and  C7_15 
REMARK    5  A    between atoms: N2_11  and  O2_13 
REMARK    6  A    between atoms: C7_15  and  N5_20 
REMARK    7  A    between atoms: N5_20  and  C9_22 
REMARK    8  A    between atoms: C9_22  and  C10_23 
REMARK    9  A    between atoms: C17_31  and  O3_32 
ROOT
HETATM    1  C7  UNL     1      -0.843  34.223  24.505  1.00  0.00     0.157 C 
HETATM    2  N3  UNL     1      -1.982  33.719  24.789  1.00  0.00    -0.276 N 
ATOM      3  H3  UNL     1      -2.776  33.909  24.179  1.00  0.00     0.179 HD
HETATM    4  C8  UNL     1      -2.163  32.927  25.895  1.00  0.00     0.183 C 
HETATM    5  N4  UNL     1      -2.334  32.253  26.817  1.00  0.00    -0.172 NA
ENDROOT
BRANCH   1   6
HETATM    6  C6  UNL     1      -0.760  35.060  23.293  1.00  0.00     0.171 C 
HETATM    7  N2  UNL     1      -1.144  34.616  22.150  1.00  0.00    -0.250 N 
ATOM      8  H2  UNL     1      -1.066  35.242  21.348  1.00  0.00     0.196 HD
BRANCH   6   9
HETATM    9  N1  UNL     1      -0.257  36.387  23.350  1.00  0.00    -0.337 N 
ATOM     10  H1  UNL     1      -0.929  37.154  23.322  1.00  0.00     0.168 HD
BRANCH   9  11
HETATM   11  C5  UNL     1       1.115  36.713  23.443  1.00  0.00     0.058 A 
HETATM   12  C4  UNL     1       1.609  37.245  24.608  1.00  0.00     0.063 A 
HETATM   13  C3  UNL     1       2.938  37.582  24.754  1.00  0.00     0.065 A 
HETATM   14 CL1  UNL     1       0.519  37.501  25.951  1.00  0.00    -0.082 Cl
HETATM   15  C2  UNL     1       3.804  37.375  23.681  1.00  0.00     0.103 A 
HETATM   16  C17 UNL     1       3.329  36.836  22.487  1.00  0.00     0.103 A 
HETATM   17  C16 UNL     1       1.991  36.514  22.386  1.00  0.00     0.071 A 
BRANCH  15  18
HETATM   18  O1  UNL     1       5.144  37.689  23.757  1.00  0.00    -0.353 OA
HETATM   19  C1  UNL     1       6.064  36.853  24.441  1.00  0.00     0.210 C 
ENDBRANCH  15  18
BRANCH  16  20
HETATM   20  O3  UNL     1       4.217  36.645  21.443  1.00  0.00    -0.353 OA
HETATM   21  C18 UNL     1       4.414  35.347  20.914  1.00  0.00     0.210 C 
ENDBRANCH  16  20
ENDBRANCH   9  11
ENDBRANCH   6   9
BRANCH   7  22
HETATM   22  O2  UNL     1      -1.648  33.364  21.935  1.00  0.00    -0.288 OA
ATOM     23  H2  UNL     1      -2.189  33.122  21.193  1.00  0.00     0.244 HD
ENDBRANCH   7  22
ENDBRANCH   1   6
BRANCH   1  24
HETATM   24  N5  UNL     1       0.284  33.988  25.324  1.00  0.00    -0.372 N 
ATOM     25  H5  UNL     1       0.358  34.491  26.209  1.00  0.00     0.161 HD
BRANCH  24  26
HETATM   26  C9  UNL     1       1.347  33.058  24.959  1.00  0.00     0.126 C 
BRANCH  26  27
HETATM   27  C10 UNL     1       1.775  32.222  26.131  1.00  0.00     0.007 C 
HETATM   28  C11 UNL     1       1.109  30.889  26.057  1.00  0.00     0.036 C 
HETATM   29  C12 UNL     1       1.768  29.873  25.200  1.00  0.00     0.272 C 
HETATM   30  N6  UNL     1       2.917  30.355  24.479  1.00  0.00     0.084 N 
HETATM   31  C13 UNL     1       3.630  29.194  23.972  1.00  0.00     0.309 C 
HETATM   32  C14 UNL     1       3.835  31.106  25.283  1.00  0.00     0.272 C 
HETATM   33  C15 UNL     1       3.242  32.031  26.276  1.00  0.00     0.036 C 
ENDBRANCH  26  27
ENDBRANCH  24  26
ENDBRANCH   1  24
TORSDOF 9
ENDMDL
MODEL 4
REMARK VINA RESULT: -7.087279928      4.233      7.790
REMARK  9 active torsions:
REMARK  status: ('A' for Active; 'I' for Inactive)
REMARK    1  A    between atoms: O1_2  and  C2_3 
REMARK    2  A    between atoms: C5_7  and  N1_8 
REMARK    3  A    between atoms: N1_8  and  C6_10 
REMARK    4  A    between atoms: C6_10  and  C7_15 
REMARK    5  A    between atoms: N2_11  and  O2_13 
REMARK    6  A    between atoms: C7_15  and  N5_20 
REMARK    7  A    between atoms: N5_20  and  C9_22 
REMARK    8  A    between atoms: C9_22  and  C10_23 
REMARK    9  A    between atoms: C17_31  and  O3_32 
ROOT
HETATM    1  C7  UNL     1      -0.771  34.246  24.308  1.00  0.00     0.157 C 
HETATM    2  N3  UNL     1      -1.917  33.766  24.600  1.00  0.00    -0.276 N 
ATOM      3  H3  UNL     1      -2.701  33.929  23.969  1.00  0.00     0.179 HD
HETATM    4  C8  UNL     1      -2.121  33.036  25.744  1.00  0.00     0.183 C 
HETATM    5  N4  UNL     1      -2.313  32.413  26.698  1.00  0.00    -0.172 NA
ENDROOT
BRANCH   1   6
HETATM    6  C6  UNL     1      -0.663  35.016  23.055  1.00  0.00     0.171 C 
HETATM    7  N2  UNL     1      -1.154  34.571  21.954  1.00  0.00    -0.250 N 
ATOM      8  H2  UNL     1      -1.053  35.150  21.120  1.00  0.00     0.196 HD
BRANCH   6   9
HETATM    9  N1  UNL     1      -0.015  36.281  23.023  1.00  0.00    -0.337 N 
ATOM     10  H1  UNL     1      -0.585  37.112  23.174  1.00  0.00     0.168 HD
BRANCH   9  11
HETATM   11  C5  UNL     1       1.368  36.458  22.795  1.00  0.00     0.058 A 
HETATM   12  C4  UNL     1       1.827  36.644  21.514  1.00  0.00     0.063 A 
HETATM   13  C3  UNL     1       3.166  36.822  21.234  1.00  0.00     0.065 A 
HETATM   14 CL1  UNL     1       0.678  36.659  20.197  1.00  0.00    -0.082 Cl
HETATM   15  C2  UNL     1       4.078  36.811  22.287  1.00  0.00     0.103 A 
HETATM   16  C17 UNL     1       3.640  36.625  23.597  1.00  0.00     0.103 A 
HETATM   17  C16 UNL     1       2.291  36.451  23.831  1.00  0.00     0.071 A 
BRANCH  15  18
HETATM   18  O1  UNL     1       5.431  36.983  22.080  1.00  0.00    -0.353 OA
HETATM   19  C1  UNL     1       6.247  35.925  21.603  1.00  0.00     0.210 C 
ENDBRANCH  15  18
BRANCH  16  20
HETATM   20  O3  UNL     1       4.575  36.620  24.618  1.00  0.00    -0.353 OA
HETATM   21  C18 UNL     1       4.339  35.857  25.786  1.00  0.00     0.210 C 
ENDBRANCH  16  20
ENDBRANCH   9  11
ENDBRANCH   6   9
BRANCH   7  22
HETATM   22  O2  UNL     1      -1.804  33.375  21.825  1.00  0.00    -0.288 OA
ATOM     23  H2  UNL     1      -2.210  33.068  21.023  1.00  0.00     0.244 HD
ENDBRANCH   7  22
ENDBRANCH   1   6
BRANCH   1  24
HETATM   24  N5  UNL     1       0.343  34.047  25.155  1.00  0.00    -0.372 N 
ATOM     25  H5  UNL     1       0.408  34.597  26.012  1.00  0.00     0.161 HD
BRANCH  24  26
HETATM   26  C9  UNL     1       1.401  33.088  24.858  1.00  0.00     0.126 C 
BRANCH  26  27
HETATM   27  C10 UNL     1       1.763  32.274  26.068  1.00  0.00     0.007 C 
HETATM   28  C11 UNL     1       1.080  30.949  25.996  1.00  0.00     0.036 C 
HETATM   29  C12 UNL     1       1.761  29.903  25.194  1.00  0.00     0.272 C 
HETATM   30  N6  UNL     1       2.948  30.350  24.514  1.00  0.00     0.084 N 
HETATM   31  C13 UNL     1       3.664  29.168  24.067  1.00  0.00     0.309 C 
HETATM   32  C14 UNL     1       3.841  31.108  25.340  1.00  0.00     0.272 C 
HETATM   33  C15 UNL     1       3.219  32.066  26.283  1.00  0.00     0.036 C 
ENDBRANCH  26  27
ENDBRANCH  24  26
ENDBRANCH   1  24
TORSDOF 9
ENDMDL
MODEL 5
REMARK VINA RESULT: -6.967717349      1.700      2.630
REMARK  9 active torsions:
REMARK  status: ('A' for Active; 'I' for Inactive)
REMARK    1  A    between atoms: O1_2  and  C2_3 
REMARK    2  A    between atoms: C5_7  and  N1_8 
REMARK    3  A    between atoms: N1_8  and  C6_10 
REMARK    4  A    between atoms: C6_10  and  C7_15 
REMARK    5  A    between atoms: N2_11  and  O2_13 
REMARK    6  A    between atoms: C7_15  and  N5_20 
REMARK    7  A    between atoms: N5_20  and  C9_22 
REMARK    8  A    between atoms: C9_22  and  C10_23 
REMARK    9  A    between atoms: C17_31  and  O3_32 
ROOT
HETATM    1  C7  UNL     1       5.866  36.735  25.468  1.00  0.00     0.157 C 
HETATM    2  N3  UNL     1       6.977  36.122  25.318  1.00  0.00    -0.276 N 
ATOM      3  H3  UNL     1       7.016  35.116  25.482  1.00  0.00     0.179 HD
HETATM    4  C8  UNL     1       8.118  36.782  24.941  1.00  0.00     0.183 C 
HETATM    5  N4  UNL     1       9.089  37.318  24.617  1.00  0.00    -0.172 NA
ENDROOT
BRANCH   1   6
HETATM    6  C6  UNL     1       4.701  35.928  25.876  1.00  0.00     0.171 C 
HETATM    7  N2  UNL     1       4.132  36.109  27.014  1.00  0.00    -0.250 N 
ATOM      8  H2  UNL     1       3.327  35.524  27.240  1.00  0.00     0.196 HD
BRANCH   6   9
HETATM    9  N1  UNL     1       4.165  34.927  25.023  1.00  0.00    -0.337 N 
ATOM     10  H1  UNL     1       4.707  34.073  24.890  1.00  0.00     0.168 HD
BRANCH   9  11
HETATM   11  C5  UNL     1       2.929  35.038  24.346  1.00  0.00     0.058 A 
HETATM   12  C4  UNL     1       1.872  34.250  24.729  1.00  0.00     0.063 A 
HETATM   13  C3  UNL     1       0.644  34.317  24.105  1.00  0.00     0.065 A 
HETATM   14 CL1  UNL     1       2.088  33.128  26.053  1.00  0.00    -0.082 Cl
HETATM   15  C2  UNL     1       0.476  35.214  23.051  1.00  0.00     0.103 A 
HETATM   16  C17 UNL     1       1.532  36.025  22.642  1.00  0.00     0.103 A 
HETATM   17  C16 UNL     1       2.744  35.925  23.296  1.00  0.00     0.071 A 
BRANCH  15  18
HETATM   18  O1  UNL     1      -0.723  35.333  22.382  1.00  0.00    -0.353 OA
HETATM   19  C1  UNL     1      -1.436  34.193  21.929  1.00  0.00     0.210 C 
ENDBRANCH  15  18
BRANCH  16  20
HETATM   20  O3  UNL     1       1.328  36.904  21.592  1.00  0.00    -0.353 OA
HETATM   21  C18 UNL     1       2.132  36.813  20.431  1.00  0.00     0.210 C 
ENDBRANCH  16  20
ENDBRANCH   9  11
ENDBRANCH   6   9
BRANCH   7  22
HETATM   22  O2  UNL     1       4.530  37.031  27.941  1.00  0.00    -0.288 OA
ATOM     23  H2  UNL     1       4.238  37.046  28.845  1.00  0.00     0.244 HD
ENDBRANCH   7  22
ENDBRANCH   1   6
BRANCH   1  24
HETATM   24  N5  UNL     1       5.767  38.128  25.253  1.00  0.00    -0.372 N 
ATOM     25  H5  UNL     1       6.288  38.755  25.867  1.00  0.00     0.161 HD
BRANCH  24  26
HETATM   26  C9  UNL     1       4.951  38.708  24.192  1.00  0.00     0.126 C 
BRANCH  26  27
HETATM   27  C10 UNL     1       5.766  38.990  22.961  1.00  0.00     0.007 C 
HETATM   28  C11 UNL     1       4.856  39.365  21.840  1.00  0.00     0.036 C 
HETATM   29  C12 UNL     1       4.437  40.787  21.784  1.00  0.00     0.272 C 
HETATM   30  N6  UNL     1       4.897  41.590  22.887  1.00  0.00     0.084 N 
HETATM   31  C13 UNL     1       4.702  42.982  22.522  1.00  0.00     0.309 C 
HETATM   32  C14 UNL     1       6.287  41.415  23.193  1.00  0.00     0.272 C 
HETATM   33  C15 UNL     1       6.813  40.033  23.115  1.00  0.00     0.036 C 
ENDBRANCH  26  27
ENDBRANCH  24  26
ENDBRANCH   1  24
TORSDOF 9
ENDMDL
