MODEL 1
REMARK VINA RESULT: -8.110190393      0.000      0.000
REMARK  6 active torsions:
REMARK  status: ('A' for Active; 'I' for Inactive)
REMARK       I    between atoms: C1_2  and  N1_3 
REMARK    1  A    between atoms: C1_2  and  C9_17 
REMARK    2  A    between atoms: N1_3  and  C2_5 
REMARK    3  A    between atoms: C10_18  and  C11_19 
REMARK    4  A    between atoms: C16_30  and  O2_31 
REMARK    5  A    between atoms: O2_31  and  C17_32 
REMARK    6  A    between atoms: C17_32  and  C18_33 
ROOT
HETATM    1  C9  UNL     1       1.445  36.277  23.087  1.00  0.00     0.070 A 
HETATM    2  C10 UNL     1       0.896  36.126  21.849  1.00  0.00     0.010 A 
HETATM    3  C15 UNL     1      -0.191  35.246  21.723  1.00  0.00     0.103 A 
HETATM    4  N6  UNL     1      -0.664  34.586  22.779  1.00  0.00    -0.345 N 
ATOM      5  H6  UNL     1      -1.454  33.956  22.636  1.00  0.00     0.167 HD
HETATM    6  C16 UNL     1      -0.164  34.699  24.017  1.00  0.00     0.165 A 
HETATM    7  C21 UNL     1       0.900  35.554  24.164  1.00  0.00     0.101 A 
HETATM    8 CL1  UNL     1       1.584  35.730  25.773  1.00  0.00    -0.079 Cl
ENDROOT
BRANCH   1   9
HETATM    9  C1  UNL     1       2.614  37.048  23.368  1.00  0.00     0.254 C 
HETATM   10  O1  UNL     1       2.400  38.303  23.612  1.00  0.00    -0.268 OA
HETATM   11  N1  UNL     1       3.966  36.634  23.423  1.00  0.00    -0.350 N 
ATOM     12  H1  UNL     1       4.207  35.658  23.252  1.00  0.00     0.163 HD
BRANCH  11  13
HETATM   13  C2  UNL     1       5.015  37.601  23.723  1.00  0.00     0.117 C 
HETATM   14  C3  UNL     1       5.997  37.709  22.565  1.00  0.00     0.029 C 
HETATM   15  C4  UNL     1       7.211  38.477  23.035  1.00  0.00     0.021 C 
HETATM   16  C5  UNL     1       8.453  37.639  23.055  1.00  0.00     0.114 C 
HETATM   17  N2  UNL     1       9.012  37.437  24.354  1.00  0.00    -0.419 N 
HETATM   18  C6  UNL     1       8.145  36.830  25.300  1.00  0.00     0.149 C 
ATOM     19  H2  UNL     1       9.968  37.710  24.585  1.00  0.00     0.153 HD
HETATM   20  C7  UNL     1       6.860  36.346  24.709  1.00  0.00     0.236 A 
HETATM   21  N3  UNL     1       5.766  35.982  25.550  1.00  0.00    -0.059 N 
HETATM   22  C8  UNL     1       5.776  37.279  24.961  1.00  0.00     0.241 A 
ATOM     23  H32 UNL     1       5.101  35.209  25.558  1.00  0.00     0.278 HD
ATOM     24  H31 UNL     1       5.687  35.635  26.506  1.00  0.00     0.278 HD
ENDBRANCH  11  13
ENDBRANCH   1   9
BRANCH   2  25
HETATM   25  C11 UNL     1       1.296  36.888  20.651  1.00  0.00     0.007 A 
HETATM   26  C12 UNL     1       0.329  37.573  19.954  1.00  0.00     0.102 A 
HETATM   27  N4  UNL     1       0.649  38.254  18.865  1.00  0.00    -0.361 N 
HETATM   28  C13 UNL     1       1.900  38.293  18.424  1.00  0.00     0.180 A 
ATOM     29  H4  UNL     1      -0.078  38.758  18.356  1.00  0.00     0.166 HD
HETATM   30  N5  UNL     1       2.868  37.625  19.097  1.00  0.00    -0.361 N 
HETATM   31  C14 UNL     1       2.589  36.923  20.203  1.00  0.00     0.102 A 
ATOM     32  H5  UNL     1       3.829  37.658  18.756  1.00  0.00     0.166 HD
ENDBRANCH   2  25
BRANCH   6  33
HETATM   33  O2  UNL     1      -0.699  33.987  25.089  1.00  0.00    -0.334 OA
BRANCH  33  34
HETATM   34  C17 UNL     1      -0.641  32.575  25.046  1.00  0.00     0.182 C 
BRANCH  34  35
HETATM   35  C18 UNL     1       0.720  32.051  25.418  1.00  0.00     0.010 A 
HETATM   36  C19 UNL     1       0.800  30.530  25.421  1.00  0.00     0.007 A 
HETATM   37  C20 UNL     1       0.832  31.249  26.701  1.00  0.00     0.007 A 
ENDBRANCH  34  35
ENDBRANCH  33  34
ENDBRANCH   6  33
TORSDOF 6
ENDMDL
MODEL 2
REMARK VINA RESULT: -8.047794707      2.244      7.443
REMARK  6 active torsions:
REMARK  status: ('A' for Active; 'I' for Inactive)
REMARK       I    between atoms: C1_2  and  N1_3 
REMARK    1  A    between atoms: C1_2  and  C9_17 
REMARK    2  A    between atoms: N1_3  and  C2_5 
REMARK    3  A    between atoms: C10_18  and  C11_19 
REMARK    4  A    between atoms: C16_30  and  O2_31 
REMARK    5  A    between atoms: O2_31  and  C17_32 
REMARK    6  A    between atoms: C17_32  and  C18_33 
ROOT
HETATM    1  C9  UNL     1       2.049  36.504  21.844  1.00  0.00     0.070 A 
HETATM    2  C10 UNL     1       3.338  36.814  21.533  1.00  0.00     0.010 A 
HETATM    3  C15 UNL     1       3.605  37.244  20.223  1.00  0.00     0.103 A 
HETATM    4  N6  UNL     1       2.629  37.344  19.322  1.00  0.00    -0.345 N 
ATOM      5  H6  UNL     1       2.873  37.659  18.382  1.00  0.00     0.167 HD
HETATM    6  C16 UNL     1       1.345  37.054  19.576  1.00  0.00     0.165 A 
HETATM    7  C21 UNL     1       1.061  36.632  20.850  1.00  0.00     0.101 A 
HETATM    8 CL1  UNL     1      -0.612  36.242  21.222  1.00  0.00    -0.079 Cl
ENDROOT
BRANCH   1   9
HETATM    9  C1  UNL     1       1.625  35.956  23.092  1.00  0.00     0.254 C 
HETATM   10  O1  UNL     1       1.358  36.827  24.015  1.00  0.00    -0.268 OA
HETATM   11  N1  UNL     1       1.451  34.600  23.460  1.00  0.00    -0.350 N 
ATOM     12  H1  UNL     1       1.632  33.861  22.782  1.00  0.00     0.163 HD
BRANCH  11  13
HETATM   13  C2  UNL     1       1.013  34.258  24.808  1.00  0.00     0.117 C 
HETATM   14  C3  UNL     1       1.608  32.928  25.248  1.00  0.00     0.029 C 
HETATM   15  C4  UNL     1       0.896  32.476  26.503  1.00  0.00     0.021 C 
HETATM   16  C5  UNL     1       0.104  31.221  26.297  1.00  0.00     0.114 C 
HETATM   17  N2  UNL     1      -1.307  31.378  26.458  1.00  0.00    -0.419 N 
HETATM   18  C6  UNL     1      -1.912  32.338  25.605  1.00  0.00     0.149 C 
ATOM     19  H2  UNL     1      -1.842  30.837  27.138  1.00  0.00     0.153 HD
HETATM   20  C7  UNL     1      -0.986  32.882  24.564  1.00  0.00     0.236 A 
HETATM   21  N3  UNL     1      -1.334  34.049  23.823  1.00  0.00    -0.059 N 
HETATM   22  C8  UNL     1      -0.467  34.184  24.945  1.00  0.00     0.241 A 
ATOM     23  H32 UNL     1      -1.272  34.313  22.840  1.00  0.00     0.278 HD
ATOM     24  H31 UNL     1      -2.216  34.483  23.549  1.00  0.00     0.278 HD
ENDBRANCH  11  13
ENDBRANCH   1   9
BRANCH   2  25
HETATM   25  C11 UNL     1       4.459  36.823  22.493  1.00  0.00     0.007 A 
HETATM   26  C12 UNL     1       4.756  37.997  23.145  1.00  0.00     0.102 A 
HETATM   27  N4  UNL     1       5.765  38.045  24.001  1.00  0.00    -0.361 N 
HETATM   28  C13 UNL     1       6.506  36.973  24.249  1.00  0.00     0.180 A 
ATOM     29  H4  UNL     1       5.976  38.922  24.479  1.00  0.00     0.166 HD
HETATM   30  N5  UNL     1       6.229  35.807  23.616  1.00  0.00    -0.361 N 
HETATM   31  C14 UNL     1       5.218  35.713  22.742  1.00  0.00     0.102 A 
ATOM     32  H5  UNL     1       6.801  34.984  23.808  1.00  0.00     0.166 HD
ENDBRANCH   2  25
BRANCH   6  33
HETATM   33  O2  UNL     1       0.361  37.178  18.597  1.00  0.00    -0.334 OA
BRANCH  33  34
HETATM   34  C17 UNL     1       0.501  38.207  17.637  1.00  0.00     0.182 C 
BRANCH  34  35
HETATM   35  C18 UNL     1      -0.161  39.486  18.076  1.00  0.00     0.010 A 
HETATM   36  C19 UNL     1      -0.023  40.614  17.062  1.00  0.00     0.007 A 
HETATM   37  C20 UNL     1       0.734  40.687  18.319  1.00  0.00     0.007 A 
ENDBRANCH  34  35
ENDBRANCH  33  34
ENDBRANCH   6  33
TORSDOF 6
ENDMDL
MODEL 3
REMARK VINA RESULT: -7.888833509      4.367      7.160
REMARK  6 active torsions:
REMARK  status: ('A' for Active; 'I' for Inactive)
REMARK       I    between atoms: C1_2  and  N1_3 
REMARK    1  A    between atoms: C1_2  and  C9_17 
REMARK    2  A    between atoms: N1_3  and  C2_5 
REMARK    3  A    between atoms: C10_18  and  C11_19 
REMARK    4  A    between atoms: C16_30  and  O2_31 
REMARK    5  A    between atoms: O2_31  and  C17_32 
REMARK    6  A    between atoms: C17_32  and  C18_33 
ROOT
HETATM    1  C9  UNL     1       5.161  38.770  22.278  1.00  0.00     0.070 A 
HETATM    2  C10 UNL     1       5.621  37.490  22.336  1.00  0.00     0.010 A 
HETATM    3  C15 UNL     1       5.105  36.571  21.407  1.00  0.00     0.103 A 
HETATM    4  N6  UNL     1       4.199  36.944  20.505  1.00  0.00    -0.345 N 
ATOM      5  H6  UNL     1       3.853  36.239  19.852  1.00  0.00     0.167 HD
HETATM    6  C16 UNL     1       3.716  38.190  20.402  1.00  0.00     0.165 A 
HETATM    7  C21 UNL     1       4.205  39.105  21.300  1.00  0.00     0.101 A 
HETATM    8 CL1  UNL     1       3.594  40.750  21.198  1.00  0.00    -0.079 Cl
ENDROOT
BRANCH   1   9
HETATM    9  C1  UNL     1       5.501  39.798  23.209  1.00  0.00     0.254 C 
HETATM   10  O1  UNL     1       6.476  40.572  22.843  1.00  0.00    -0.268 OA
HETATM   11  N1  UNL     1       4.923  40.093  24.466  1.00  0.00    -0.350 N 
ATOM     12  H1  UNL     1       4.145  39.532  24.813  1.00  0.00     0.163 HD
BRANCH  11  13
HETATM   13  C2  UNL     1       5.437  41.197  25.268  1.00  0.00     0.117 C 
HETATM   14  C3  UNL     1       5.815  40.720  26.663  1.00  0.00     0.029 C 
HETATM   15  C4  UNL     1       6.049  41.932  27.537  1.00  0.00     0.021 C 
HETATM   16  C5  UNL     1       5.044  42.050  28.642  1.00  0.00     0.114 C 
HETATM   17  N2  UNL     1       4.208  43.205  28.563  1.00  0.00    -0.419 N 
HETATM   18  C6  UNL     1       3.454  43.327  27.366  1.00  0.00     0.149 C 
ATOM     19  H2  UNL     1       4.157  43.894  29.313  1.00  0.00     0.153 HD
HETATM   20  C7  UNL     1       3.536  42.124  26.482  1.00  0.00     0.236 A 
HETATM   21  N3  UNL     1       3.088  42.186  25.129  1.00  0.00    -0.059 N 
HETATM   22  C8  UNL     1       4.479  42.328  25.396  1.00  0.00     0.241 A 
ATOM     23  H32 UNL     1       2.536  41.569  24.533  1.00  0.00     0.278 HD
ATOM     24  H31 UNL     1       2.397  42.750  24.633  1.00  0.00     0.278 HD
ENDBRANCH  11  13
ENDBRANCH   1   9
BRANCH   2  25
HETATM   25  C11 UNL     1       6.689  37.018  23.238  1.00  0.00     0.007 A 
HETATM   26  C12 UNL     1       6.331  36.442  24.435  1.00  0.00     0.102 A 
HETATM   27  N4  UNL     1       7.263  36.021  25.276  1.00  0.00    -0.361 N 
HETATM   28  C13 UNL     1       8.552  36.144  24.988  1.00  0.00     0.180 A 
ATOM     29  H4  UNL     1       6.985  35.596  26.161  1.00  0.00     0.166 HD
HETATM   30  N5  UNL     1       8.925  36.709  23.813  1.00  0.00    -0.361 N 
HETATM   31  C14 UNL     1       8.016  37.148  22.933  1.00  0.00     0.102 A 
ATOM     32  H5  UNL     1       9.917  36.802  23.595  1.00  0.00     0.166 HD
ENDBRANCH   2  25
BRANCH   6  33
HETATM   33  O2  UNL     1       2.769  38.528  19.437  1.00  0.00    -0.334 OA
BRANCH  33  34
HETATM   34  C17 UNL     1       1.722  37.614  19.181  1.00  0.00     0.182 C 
BRANCH  34  35
HETATM   35  C18 UNL     1       0.421  38.311  18.884  1.00  0.00     0.010 A 
HETATM   36  C19 UNL     1       0.063  38.313  17.403  1.00  0.00     0.007 A 
HETATM   37  C20 UNL     1       0.481  39.570  18.037  1.00  0.00     0.007 A 
ENDBRANCH  34  35
ENDBRANCH  33  34
ENDBRANCH   6  33
TORSDOF 6
ENDMDL
MODEL 4
REMARK VINA RESULT: -7.720335481      3.099      7.377
REMARK  6 active torsions:
REMARK  status: ('A' for Active; 'I' for Inactive)
REMARK       I    between atoms: C1_2  and  N1_3 
REMARK    1  A    between atoms: C1_2  and  C9_17 
REMARK    2  A    between atoms: N1_3  and  C2_5 
REMARK    3  A    between atoms: C10_18  and  C11_19 
REMARK    4  A    between atoms: C16_30  and  O2_31 
REMARK    5  A    between atoms: O2_31  and  C17_32 
REMARK    6  A    between atoms: C17_32  and  C18_33 
ROOT
HETATM    1  C9  UNL     1       4.340  36.586  25.797  1.00  0.00     0.070 A 
HETATM    2  C10 UNL     1       3.482  37.536  25.331  1.00  0.00     0.010 A 
HETATM    3  C15 UNL     1       4.003  38.815  25.078  1.00  0.00     0.103 A 
HETATM    4  N6  UNL     1       5.290  39.085  25.288  1.00  0.00    -0.345 N 
ATOM      5  H6  UNL     1       5.621  40.030  25.091  1.00  0.00     0.167 HD
HETATM    6  C16 UNL     1       6.177  38.188  25.743  1.00  0.00     0.165 A 
HETATM    7  C21 UNL     1       5.690  36.931  25.997  1.00  0.00     0.101 A 
HETATM    8 CL1  UNL     1       6.822  35.727  26.595  1.00  0.00    -0.079 Cl
ENDROOT
BRANCH   1   9
HETATM    9  C1  UNL     1       3.954  35.272  26.202  1.00  0.00     0.254 C 
HETATM   10  O1  UNL     1       3.946  35.070  27.483  1.00  0.00    -0.268 OA
HETATM   11  N1  UNL     1       3.575  34.166  25.404  1.00  0.00    -0.350 N 
ATOM     12  H1  UNL     1       3.548  34.256  24.389  1.00  0.00     0.163 HD
BRANCH  11  13
HETATM   13  C2  UNL     1       3.223  32.898  26.031  1.00  0.00     0.117 C 
HETATM   14  C3  UNL     1       3.660  31.727  25.162  1.00  0.00     0.029 C 
HETATM   15  C4  UNL     1       3.014  30.468  25.694  1.00  0.00     0.021 C 
HETATM   16  C5  UNL     1       2.032  29.871  24.732  1.00  0.00     0.114 C 
HETATM   17  N2  UNL     1       0.681  29.859  25.195  1.00  0.00    -0.419 N 
HETATM   18  C6  UNL     1       0.142  31.129  25.528  1.00  0.00     0.149 C 
ATOM     19  H2  UNL     1       0.141  28.997  25.280  1.00  0.00     0.153 HD
HETATM   20  C7  UNL     1       1.032  32.272  25.160  1.00  0.00     0.236 A 
HETATM   21  N3  UNL     1       0.788  33.578  25.677  1.00  0.00    -0.059 N 
HETATM   22  C8  UNL     1       1.768  32.764  26.312  1.00  0.00     0.241 A 
ATOM     23  H32 UNL     1       0.793  34.516  25.275  1.00  0.00     0.278 HD
ATOM     24  H31 UNL     1      -0.044  34.073  26.000  1.00  0.00     0.278 HD
ENDBRANCH  11  13
ENDBRANCH   1   9
BRANCH   2  25
HETATM   25  C11 UNL     1       2.068  37.296  24.982  1.00  0.00     0.007 A 
HETATM   26  C12 UNL     1       1.769  36.859  23.712  1.00  0.00     0.102 A 
HETATM   27  N4  UNL     1       0.511  36.649  23.359  1.00  0.00    -0.361 N 
HETATM   28  C13 UNL     1      -0.484  36.853  24.214  1.00  0.00     0.180 A 
ATOM     29  H4  UNL     1       0.302  36.326  22.415  1.00  0.00     0.166 HD
HETATM   30  N5  UNL     1      -0.210  37.283  25.470  1.00  0.00    -0.361 N 
HETATM   31  C14 UNL     1       1.048  37.508  25.869  1.00  0.00     0.102 A 
ATOM     32  H5  UNL     1      -0.977  37.438  26.124  1.00  0.00     0.166 HD
ENDBRANCH   2  25
BRANCH   6  33
HETATM   33  O2  UNL     1       7.515  38.522  25.943  1.00  0.00    -0.334 OA
BRANCH  33  34
HETATM   34  C17 UNL     1       8.477  37.981  25.059  1.00  0.00     0.182 C 
BRANCH  34  35
HETATM   35  C18 UNL     1       8.163  38.292  23.620  1.00  0.00     0.010 A 
HETATM   36  C19 UNL     1       7.937  37.049  22.770  1.00  0.00     0.007 A 
HETATM   37  C20 UNL     1       9.162  37.834  22.573  1.00  0.00     0.007 A 
ENDBRANCH  34  35
ENDBRANCH  33  34
ENDBRANCH   6  33
TORSDOF 6
ENDMDL
MODEL 5
REMARK VINA RESULT: -7.649887029      2.827      3.875
REMARK  6 active torsions:
REMARK  status: ('A' for Active; 'I' for Inactive)
REMARK       I    between atoms: C1_2  and  N1_3 
REMARK    1  A    between atoms: C1_2  and  C9_17 
REMARK    2  A    between atoms: N1_3  and  C2_5 
REMARK    3  A    between atoms: C10_18  and  C11_19 
REMARK    4  A    between atoms: C16_30  and  O2_31 
REMARK    5  A    between atoms: O2_31  and  C17_32 
REMARK    6  A    between atoms: C17_32  and  C18_33 
ROOT
HETATM    1  C9  UNL     1       2.200  34.250  25.546  1.00  0.00     0.070 A 
HETATM    2  C10 UNL     1       0.972  34.385  24.974  1.00  0.00     0.010 A 
HETATM    3  C15 UNL     1       0.214  33.219  24.779  1.00  0.00     0.103 A 
HETATM    4  N6  UNL     1       0.683  32.027  25.143  1.00  0.00    -0.345 N 
ATOM      5  H6  UNL     1       0.096  31.209  24.978  1.00  0.00     0.167 HD
HETATM    6  C16 UNL     1       1.882  31.838  25.711  1.00  0.00     0.165 A 
HETATM    7  C21 UNL     1       2.641  32.963  25.911  1.00  0.00     0.101 A 
HETATM    8 CL1  UNL     1       4.221  32.757  26.654  1.00  0.00    -0.079 Cl
ENDROOT
BRANCH   1   9
HETATM    9  C1  UNL     1       3.137  35.314  25.719  1.00  0.00     0.254 C 
HETATM   10  O1  UNL     1       3.279  35.729  26.939  1.00  0.00    -0.268 OA
HETATM   11  N1  UNL     1       3.932  35.971  24.751  1.00  0.00    -0.350 N 
ATOM     12  H1  UNL     1       3.879  35.689  23.772  1.00  0.00     0.163 HD
BRANCH  11  13
HETATM   13  C2  UNL     1       4.826  37.052  25.149  1.00  0.00     0.117 C 
HETATM   14  C3  UNL     1       4.348  38.383  24.587  1.00  0.00     0.029 C 
HETATM   15  C4  UNL     1       5.450  39.402  24.764  1.00  0.00     0.021 C 
HETATM   16  C5  UNL     1       6.009  39.883  23.460  1.00  0.00     0.114 C 
HETATM   17  N2  UNL     1       7.380  39.550  23.244  1.00  0.00    -0.419 N 
HETATM   18  C6  UNL     1       7.682  38.164  23.284  1.00  0.00     0.149 C 
ATOM     19  H2  UNL     1       8.094  40.259  23.073  1.00  0.00     0.153 HD
HETATM   20  C7  UNL     1       6.472  37.290  23.365  1.00  0.00     0.236 A 
HETATM   21  N3  UNL     1       6.594  35.910  23.704  1.00  0.00    -0.059 N 
HETATM   22  C8  UNL     1       6.235  36.836  24.724  1.00  0.00     0.241 A 
ATOM     23  H32 UNL     1       6.180  35.050  23.346  1.00  0.00     0.278 HD
ATOM     24  H31 UNL     1       7.334  35.214  23.602  1.00  0.00     0.278 HD
ENDBRANCH  11  13
ENDBRANCH   1   9
BRANCH   2  25
HETATM   25  C11 UNL     1       0.339  35.673  24.631  1.00  0.00     0.007 A 
HETATM   26  C12 UNL     1      -0.151  35.846  23.357  1.00  0.00     0.102 A 
HETATM   27  N4  UNL     1      -0.710  36.994  23.009  1.00  0.00    -0.361 N 
HETATM   28  C13 UNL     1      -0.812  37.997  23.873  1.00  0.00     0.180 A 
ATOM     29  H4  UNL     1      -1.070  37.110  22.062  1.00  0.00     0.166 HD
HETATM   30  N5  UNL     1      -0.336  37.845  25.133  1.00  0.00    -0.361 N 
HETATM   31  C14 UNL     1       0.238  36.702  25.527  1.00  0.00     0.102 A 
ATOM     32  H5  UNL     1      -0.416  38.618  25.794  1.00  0.00     0.166 HD
ENDBRANCH   2  25
BRANCH   6  33
HETATM   33  O2  UNL     1       2.326  30.568  26.075  1.00  0.00    -0.334 OA
BRANCH  33  34
HETATM   34  C17 UNL     1       2.597  29.636  25.047  1.00  0.00     0.182 C 
BRANCH  34  35
HETATM   35  C18 UNL     1       3.951  29.854  24.428  1.00  0.00     0.010 A 
HETATM   36  C19 UNL     1       4.329  28.781  23.414  1.00  0.00     0.007 A 
HETATM   37  C20 UNL     1       5.022  28.815  24.709  1.00  0.00     0.007 A 
ENDBRANCH  34  35
ENDBRANCH  33  34
ENDBRANCH   6  33
TORSDOF 6
ENDMDL
