MODEL 1
REMARK VINA RESULT: -8.222211418      0.000      0.000
REMARK  8 active torsions:
REMARK  status: ('A' for Active; 'I' for Inactive)
REMARK    1  A    between atoms: O1_2  and  C2_3 
REMARK    2  A    between atoms: C2_3  and  C3_4 
REMARK    3  A    between atoms: C3_4  and  O2_5 
REMARK    4  A    between atoms: O2_5  and  C4_6 
REMARK    5  A    between atoms: C4_6  and  C5_8 
REMARK    6  A    between atoms: C5_8  and  N1_9 
REMARK       I    between atoms: N1_9  and  C6_11 
REMARK       I    between atoms: C6_11  and  N2_13 
REMARK    7  A    between atoms: N2_13  and  C7_15 
REMARK    8  A    between atoms: C18_29  and  O7_30 
ROOT
HETATM    1  N1  UNL     1       5.419  35.572  23.803  1.00  0.00    -0.324 N 
ATOM      2  H1  UNL     1       6.175  34.985  24.157  1.00  0.00     0.165 HD
HETATM    3  C6  UNL     1       4.071  35.129  24.015  1.00  0.00     0.321 C 
HETATM    4  O4  UNL     1       3.174  35.868  23.578  1.00  0.00    -0.247 OA
HETATM    5  N2  UNL     1       3.782  33.935  24.676  1.00  0.00    -0.307 N 
ATOM      6  H2  UNL     1       4.594  33.405  24.994  1.00  0.00     0.170 HD
ENDROOT
BRANCH   1   7
HETATM    7  C5  UNL     1       5.779  36.796  23.122  1.00  0.00     0.124 C 
HETATM    8  C15 UNL     1       7.186  37.125  23.440  1.00  0.00     0.042 C 
HETATM    9  C16 UNL     1       7.370  38.530  23.838  1.00  0.00     0.006 C 
HETATM   10  C17 UNL     1       6.582  39.570  23.136  1.00  0.00     0.032 C 
HETATM   11  C18 UNL     1       5.133  39.249  22.980  1.00  0.00     0.121 C 
HETATM   12  C19 UNL     1       4.755  37.864  23.333  1.00  0.00     0.073 C 
BRANCH   7  13
HETATM   13  C4  UNL     1       5.768  36.418  21.646  1.00  0.00     0.287 C 
HETATM   14  O3  UNL     1       6.649  35.725  21.117  1.00  0.00    -0.262 OA
BRANCH  13  15
HETATM   15  O2  UNL     1       4.717  36.884  20.891  1.00  0.00    -0.317 OA
BRANCH  15  16
HETATM   16  C3  UNL     1       3.713  36.108  20.314  1.00  0.00     0.205 C 
BRANCH  16  17
HETATM   17  C2  UNL     1       2.389  36.821  20.265  1.00  0.00     0.193 C 
BRANCH  17  18
HETATM   18  O1  UNL     1       2.606  38.192  20.215  1.00  0.00    -0.394 OA
HETATM   19  C1  UNL     1       2.351  38.692  18.938  1.00  0.00     0.201 C 
ENDBRANCH  17  18
ENDBRANCH  16  17
ENDBRANCH  15  16
ENDBRANCH  13  15
ENDBRANCH   7  13
BRANCH  11  20
HETATM   20  O7  UNL     1       4.643  39.666  21.744  1.00  0.00    -0.395 OA
ATOM     21  H7  UNL     1       4.072  39.014  21.356  1.00  0.00     0.210 HD
ENDBRANCH  11  20
ENDBRANCH   1   7
BRANCH   5  22
HETATM   22  C7  UNL     1       2.556  33.365  24.963  1.00  0.00     0.060 A 
HETATM   23  C8  UNL     1       1.359  34.017  24.918  1.00  0.00     0.071 A 
HETATM   24  C9  UNL     1       0.131  33.414  25.213  1.00  0.00     0.104 A 
HETATM   25  C10 UNL     1       0.095  32.090  25.573  1.00  0.00     0.103 A 
HETATM   26  O6  UNL     1      -1.072  34.093  25.163  1.00  0.00    -0.346 OA
HETATM   27  C11 UNL     1       1.294  31.422  25.622  1.00  0.00     0.065 A 
HETATM   28  O5  UNL     1      -1.121  31.504  25.863  1.00  0.00    -0.346 OA
HETATM   29  C12 UNL     1       2.497  32.010  25.333  1.00  0.00     0.063 A 
HETATM   30 CL1  UNL     1       3.983  31.053  25.428  1.00  0.00    -0.082 Cl
HETATM   31  C13 UNL     1      -2.308  32.262  26.002  1.00  0.00     0.202 C 
HETATM   32  C14 UNL     1      -2.273  33.364  24.978  1.00  0.00     0.202 C 
ENDBRANCH   5  22
TORSDOF 8
ENDMDL
MODEL 2
REMARK VINA RESULT: -7.751227821      1.590      2.142
REMARK  8 active torsions:
REMARK  status: ('A' for Active; 'I' for Inactive)
REMARK    1  A    between atoms: O1_2  and  C2_3 
REMARK    2  A    between atoms: C2_3  and  C3_4 
REMARK    3  A    between atoms: C3_4  and  O2_5 
REMARK    4  A    between atoms: O2_5  and  C4_6 
REMARK    5  A    between atoms: C4_6  and  C5_8 
REMARK    6  A    between atoms: C5_8  and  N1_9 
REMARK       I    between atoms: N1_9  and  C6_11 
REMARK       I    between atoms: C6_11  and  N2_13 
REMARK    7  A    between atoms: N2_13  and  C7_15 
REMARK    8  A    between atoms: C18_29  and  O7_30 
ROOT
HETATM    1  N1  UNL     1       5.290  35.364  23.672  1.00  0.00    -0.324 N 
ATOM      2  H1  UNL     1       5.549  34.819  22.849  1.00  0.00     0.165 HD
HETATM    3  C6  UNL     1       4.177  34.908  24.455  1.00  0.00     0.321 C 
HETATM    4  O4  UNL     1       3.889  35.590  25.452  1.00  0.00    -0.247 OA
HETATM    5  N2  UNL     1       3.458  33.762  24.117  1.00  0.00    -0.307 N 
ATOM      6  H2  UNL     1       3.779  33.277  23.278  1.00  0.00     0.170 HD
ENDROOT
BRANCH   1   7
HETATM    7  C5  UNL     1       6.069  36.546  23.971  1.00  0.00     0.124 C 
HETATM    8  C15 UNL     1       7.262  36.566  23.096  1.00  0.00     0.042 C 
HETATM    9  C16 UNL     1       8.506  36.842  23.832  1.00  0.00     0.006 C 
HETATM   10  C17 UNL     1       8.468  37.831  24.935  1.00  0.00     0.032 C 
HETATM   11  C18 UNL     1       7.323  37.663  25.876  1.00  0.00     0.121 C 
HETATM   12  C19 UNL     1       6.286  36.703  25.440  1.00  0.00     0.073 C 
BRANCH   7  13
HETATM   13  C4  UNL     1       5.191  37.699  23.499  1.00  0.00     0.287 C 
HETATM   14  O3  UNL     1       4.515  38.397  24.270  1.00  0.00    -0.262 OA
BRANCH  13  15
HETATM   15  O2  UNL     1       5.169  37.953  22.147  1.00  0.00    -0.317 OA
BRANCH  15  16
HETATM   16  C3  UNL     1       4.053  37.874  21.316  1.00  0.00     0.205 C 
BRANCH  16  17
HETATM   17  C2  UNL     1       3.934  36.540  20.633  1.00  0.00     0.193 C 
BRANCH  17  18
HETATM   18  O1  UNL     1       3.170  35.686  21.420  1.00  0.00    -0.394 OA
HETATM   19  C1  UNL     1       2.019  36.327  21.879  1.00  0.00     0.201 C 
ENDBRANCH  17  18
ENDBRANCH  16  17
ENDBRANCH  15  16
ENDBRANCH  13  15
ENDBRANCH   7  13
BRANCH  11  20
HETATM   20  O7  UNL     1       6.810  38.892  26.288  1.00  0.00    -0.395 OA
ATOM     21  H7  UNL     1       7.477  39.569  26.286  1.00  0.00     0.210 HD
ENDBRANCH  11  20
ENDBRANCH   1   7
BRANCH   5  22
HETATM   22  C7  UNL     1       2.373  33.187  24.751  1.00  0.00     0.060 A 
HETATM   23  C8  UNL     1       1.113  33.709  24.779  1.00  0.00     0.071 A 
HETATM   24  C9  UNL     1       0.033  33.105  25.430  1.00  0.00     0.104 A 
HETATM   25  C10 UNL     1       0.218  31.916  26.090  1.00  0.00     0.103 A 
HETATM   26  O6  UNL     1      -1.237  33.651  25.447  1.00  0.00    -0.346 OA
HETATM   27  C11 UNL     1       1.482  31.379  26.070  1.00  0.00     0.065 A 
HETATM   28  O5  UNL     1      -0.855  31.327  26.730  1.00  0.00    -0.346 OA
HETATM   29  C12 UNL     1       2.541  31.969  25.433  1.00  0.00     0.063 A 
HETATM   30 CL1  UNL     1       4.129  31.188  25.471  1.00  0.00    -0.082 Cl
HETATM   31  C13 UNL     1      -2.088  31.999  26.907  1.00  0.00     0.202 C 
HETATM   32  C14 UNL     1      -2.353  32.807  25.664  1.00  0.00     0.202 C 
ENDBRANCH   5  22
TORSDOF 8
ENDMDL
MODEL 3
REMARK VINA RESULT: -7.729730760      2.127      2.922
REMARK  8 active torsions:
REMARK  status: ('A' for Active; 'I' for Inactive)
REMARK    1  A    between atoms: O1_2  and  C2_3 
REMARK    2  A    between atoms: C2_3  and  C3_4 
REMARK    3  A    between atoms: C3_4  and  O2_5 
REMARK    4  A    between atoms: O2_5  and  C4_6 
REMARK    5  A    between atoms: C4_6  and  C5_8 
REMARK    6  A    between atoms: C5_8  and  N1_9 
REMARK       I    between atoms: N1_9  and  C6_11 
REMARK       I    between atoms: C6_11  and  N2_13 
REMARK    7  A    between atoms: N2_13  and  C7_15 
REMARK    8  A    between atoms: C18_29  and  O7_30 
ROOT
HETATM    1  N1  UNL     1       5.267  35.826  23.628  1.00  0.00    -0.324 N 
ATOM      2  H1  UNL     1       5.488  35.276  22.798  1.00  0.00     0.165 HD
HETATM    3  C6  UNL     1       4.046  35.531  24.322  1.00  0.00     0.321 C 
HETATM    4  O4  UNL     1       3.808  36.215  25.331  1.00  0.00    -0.247 OA
HETATM    5  N2  UNL     1       3.174  34.533  23.889  1.00  0.00    -0.307 N 
ATOM      6  H2  UNL     1       3.467  34.032  23.049  1.00  0.00     0.170 HD
ENDROOT
BRANCH   1   7
HETATM    7  C5  UNL     1       6.207  36.851  24.027  1.00  0.00     0.124 C 
HETATM    8  C15 UNL     1       7.416  36.748  23.182  1.00  0.00     0.042 C 
HETATM    9  C16 UNL     1       8.664  36.779  23.961  1.00  0.00     0.006 C 
HETATM   10  C17 UNL     1       8.741  37.685  25.131  1.00  0.00     0.032 C 
HETATM   11  C18 UNL     1       7.554  37.633  26.033  1.00  0.00     0.121 C 
HETATM   12  C19 UNL     1       6.398  36.875  25.508  1.00  0.00     0.073 C 
BRANCH   7  13
HETATM   13  C4  UNL     1       5.529  38.155  23.619  1.00  0.00     0.287 C 
HETATM   14  O3  UNL     1       5.006  38.930  24.434  1.00  0.00    -0.262 OA
BRANCH  13  15
HETATM   15  O2  UNL     1       5.514  38.456  22.278  1.00  0.00    -0.317 OA
BRANCH  15  16
HETATM   16  C3  UNL     1       4.449  39.018  21.575  1.00  0.00     0.205 C 
BRANCH  16  17
HETATM   17  C2  UNL     1       3.702  38.005  20.753  1.00  0.00     0.193 C 
BRANCH  17  18
HETATM   18  O1  UNL     1       4.467  36.851  20.635  1.00  0.00    -0.394 OA
HETATM   19  C1  UNL     1       3.656  35.720  20.542  1.00  0.00     0.201 C 
ENDBRANCH  17  18
ENDBRANCH  16  17
ENDBRANCH  15  16
ENDBRANCH  13  15
ENDBRANCH   7  13
BRANCH  11  20
HETATM   20  O7  UNL     1       7.221  38.895  26.520  1.00  0.00    -0.395 OA
ATOM     21  H7  UNL     1       6.627  39.351  25.937  1.00  0.00     0.210 HD
ENDBRANCH  11  20
ENDBRANCH   1   7
BRANCH   5  22
HETATM   22  C7  UNL     1       1.971  34.122  24.432  1.00  0.00     0.060 A 
HETATM   23  C8  UNL     1       1.823  33.113  25.337  1.00  0.00     0.071 A 
HETATM   24  C9  UNL     1       0.592  32.719  25.871  1.00  0.00     0.104 A 
HETATM   25  C10 UNL     1      -0.554  33.365  25.480  1.00  0.00     0.103 A 
HETATM   26  O6  UNL     1       0.463  31.692  26.788  1.00  0.00    -0.346 OA
HETATM   27  C11 UNL     1      -0.419  34.383  24.569  1.00  0.00     0.065 A 
HETATM   28  O5  UNL     1      -1.765  32.968  26.012  1.00  0.00    -0.346 OA
HETATM   29  C12 UNL     1       0.785  34.771  24.045  1.00  0.00     0.063 A 
HETATM   30 CL1  UNL     1       0.843  36.098  22.875  1.00  0.00    -0.082 Cl
HETATM   31  C13 UNL     1      -1.898  31.791  26.788  1.00  0.00     0.202 C 
HETATM   32  C14 UNL     1      -0.666  31.663  27.643  1.00  0.00     0.202 C 
ENDBRANCH   5  22
TORSDOF 8
ENDMDL
MODEL 4
REMARK VINA RESULT: -7.619201992      1.552      3.229
REMARK  8 active torsions:
REMARK  status: ('A' for Active; 'I' for Inactive)
REMARK    1  A    between atoms: O1_2  and  C2_3 
REMARK    2  A    between atoms: C2_3  and  C3_4 
REMARK    3  A    between atoms: C3_4  and  O2_5 
REMARK    4  A    between atoms: O2_5  and  C4_6 
REMARK    5  A    between atoms: C4_6  and  C5_8 
REMARK    6  A    between atoms: C5_8  and  N1_9 
REMARK       I    between atoms: N1_9  and  C6_11 
REMARK       I    between atoms: C6_11  and  N2_13 
REMARK    7  A    between atoms: N2_13  and  C7_15 
REMARK    8  A    between atoms: C18_29  and  O7_30 
ROOT
HETATM    1  N1  UNL     1       4.934  35.514  23.669  1.00  0.00    -0.324 N 
ATOM      2  H1  UNL     1       5.678  34.846  23.471  1.00  0.00     0.165 HD
HETATM    3  C6  UNL     1       3.704  35.007  24.208  1.00  0.00     0.321 C 
HETATM    4  O4  UNL     1       2.819  35.847  24.443  1.00  0.00    -0.247 OA
HETATM    5  N2  UNL     1       3.511  33.648  24.455  1.00  0.00    -0.307 N 
ATOM      6  H2  UNL     1       4.303  33.047  24.225  1.00  0.00     0.170 HD
ENDROOT
BRANCH   1   7
HETATM    7  C5  UNL     1       5.189  36.910  23.389  1.00  0.00     0.124 C 
HETATM    8  C15 UNL     1       5.476  37.609  24.661  1.00  0.00     0.042 C 
HETATM    9  C16 UNL     1       4.719  38.863  24.809  1.00  0.00     0.006 C 
HETATM   10  C17 UNL     1       4.520  39.710  23.610  1.00  0.00     0.032 C 
HETATM   11  C18 UNL     1       4.081  38.967  22.393  1.00  0.00     0.121 C 
HETATM   12  C19 UNL     1       4.139  37.493  22.501  1.00  0.00     0.073 C 
BRANCH   7  13
HETATM   13  C4  UNL     1       6.504  36.900  22.618  1.00  0.00     0.287 C 
HETATM   14  O3  UNL     1       6.791  36.034  21.779  1.00  0.00    -0.262 OA
BRANCH  13  15
HETATM   15  O2  UNL     1       7.394  37.912  22.891  1.00  0.00    -0.317 OA
BRANCH  15  16
HETATM   16  C3  UNL     1       8.784  37.813  22.866  1.00  0.00     0.205 C 
BRANCH  16  17
HETATM   17  C2  UNL     1       9.321  36.946  23.972  1.00  0.00     0.193 C 
BRANCH  17  18
HETATM   18  O1  UNL     1       9.052  37.544  25.197  1.00  0.00    -0.394 OA
HETATM   19  C1  UNL     1       8.651  36.596  26.138  1.00  0.00     0.201 C 
ENDBRANCH  17  18
ENDBRANCH  16  17
ENDBRANCH  15  16
ENDBRANCH  13  15
ENDBRANCH   7  13
BRANCH  11  20
HETATM   20  O7  UNL     1       4.680  39.468  21.239  1.00  0.00    -0.395 OA
ATOM     21  H7  UNL     1       4.049  39.588  20.540  1.00  0.00     0.210 HD
ENDBRANCH  11  20
ENDBRANCH   1   7
BRANCH   5  22
HETATM   22  C7  UNL     1       2.403  32.998  24.965  1.00  0.00     0.060 A 
HETATM   23  C8  UNL     1       1.154  33.536  25.063  1.00  0.00     0.071 A 
HETATM   24  C9  UNL     1       0.050  32.853  25.584  1.00  0.00     0.104 A 
HETATM   25  C10 UNL     1       0.199  31.564  26.031  1.00  0.00     0.103 A 
HETATM   26  O6  UNL     1      -1.209  33.416  25.676  1.00  0.00    -0.346 OA
HETATM   27  C11 UNL     1       1.452  31.010  25.938  1.00  0.00     0.065 A 
HETATM   28  O5  UNL     1      -0.897  30.898  26.544  1.00  0.00    -0.346 OA
HETATM   29  C12 UNL     1       2.535  31.677  25.428  1.00  0.00     0.063 A 
HETATM   30 CL1  UNL     1       4.106  30.865  25.355  1.00  0.00    -0.082 Cl
HETATM   31  C13 UNL     1      -2.120  31.557  26.815  1.00  0.00     0.202 C 
HETATM   32  C14 UNL     1      -2.346  32.572  25.727  1.00  0.00     0.202 C 
ENDBRANCH   5  22
TORSDOF 8
ENDMDL
MODEL 5
REMARK VINA RESULT: -7.583005921      2.619      3.745
REMARK  8 active torsions:
REMARK  status: ('A' for Active; 'I' for Inactive)
REMARK    1  A    between atoms: O1_2  and  C2_3 
REMARK    2  A    between atoms: C2_3  and  C3_4 
REMARK    3  A    between atoms: C3_4  and  O2_5 
REMARK    4  A    between atoms: O2_5  and  C4_6 
REMARK    5  A    between atoms: C4_6  and  C5_8 
REMARK    6  A    between atoms: C5_8  and  N1_9 
REMARK       I    between atoms: N1_9  and  C6_11 
REMARK       I    between atoms: C6_11  and  N2_13 
REMARK    7  A    between atoms: N2_13  and  C7_15 
REMARK    8  A    between atoms: C18_29  and  O7_30 
ROOT
HETATM    1  N1  UNL     1       4.874  38.057  24.345  1.00  0.00    -0.324 N 
ATOM      2  H1  UNL     1       4.306  38.891  24.194  1.00  0.00     0.165 HD
HETATM    3  C6  UNL     1       4.194  36.803  24.501  1.00  0.00     0.321 C 
HETATM    4  O4  UNL     1       4.913  35.805  24.677  1.00  0.00    -0.247 OA
HETATM    5  N2  UNL     1       2.803  36.707  24.456  1.00  0.00    -0.307 N 
ATOM      6  H2  UNL     1       2.310  37.588  24.306  1.00  0.00     0.170 HD
ENDROOT
BRANCH   1   7
HETATM    7  C5  UNL     1       6.311  38.218  24.386  1.00  0.00     0.124 C 
HETATM    8  C15 UNL     1       6.861  37.951  23.039  1.00  0.00     0.042 C 
HETATM    9  C16 UNL     1       8.017  37.040  23.063  1.00  0.00     0.006 C 
HETATM   10  C17 UNL     1       8.993  37.169  24.171  1.00  0.00     0.032 C 
HETATM   11  C18 UNL     1       8.378  37.281  25.526  1.00  0.00     0.121 C 
HETATM   12  C19 UNL     1       6.913  37.481  25.537  1.00  0.00     0.073 C 
BRANCH   7  13
HETATM   13  C4  UNL     1       6.511  39.710  24.625  1.00  0.00     0.287 C 
HETATM   14  O3  UNL     1       6.731  40.194  25.745  1.00  0.00    -0.262 OA
BRANCH  13  15
HETATM   15  O2  UNL     1       6.437  40.533  23.526  1.00  0.00    -0.317 OA
BRANCH  15  16
HETATM   16  C3  UNL     1       5.442  41.474  23.269  1.00  0.00     0.205 C 
BRANCH  16  17
HETATM   17  C2  UNL     1       4.678  41.178  22.008  1.00  0.00     0.193 C 
BRANCH  17  18
HETATM   18  O1  UNL     1       3.915  40.031  22.189  1.00  0.00    -0.394 OA
HETATM   19  C1  UNL     1       4.006  39.191  21.080  1.00  0.00     0.201 C 
ENDBRANCH  17  18
ENDBRANCH  16  17
ENDBRANCH  15  16
ENDBRANCH  13  15
ENDBRANCH   7  13
BRANCH  11  20
HETATM   20  O7  UNL     1       9.073  38.180  26.334  1.00  0.00    -0.395 OA
ATOM     21  H7  UNL     1       8.761  39.069  26.218  1.00  0.00     0.210 HD
ENDBRANCH  11  20
ENDBRANCH   1   7
BRANCH   5  22
HETATM   22  C7  UNL     1       1.996  35.593  24.586  1.00  0.00     0.060 A 
HETATM   23  C8  UNL     1       2.095  34.663  25.579  1.00  0.00     0.071 A 
HETATM   24  C9  UNL     1       1.263  33.544  25.686  1.00  0.00     0.104 A 
HETATM   25  C10 UNL     1       0.278  33.340  24.752  1.00  0.00     0.103 A 
HETATM   26  O6  UNL     1       1.381  32.613  26.701  1.00  0.00    -0.346 OA
HETATM   27  C11 UNL     1       0.167  34.268  23.746  1.00  0.00     0.065 A 
HETATM   28  O5  UNL     1      -0.538  32.232  24.866  1.00  0.00    -0.346 OA
HETATM   29  C12 UNL     1       0.981  35.365  23.640  1.00  0.00     0.063 A 
HETATM   30 CL1  UNL     1       0.748  36.499  22.301  1.00  0.00    -0.082 Cl
HETATM   31  C13 UNL     1      -0.272  31.191  25.788  1.00  0.00     0.202 C 
HETATM   32  C14 UNL     1       0.260  31.819  27.049  1.00  0.00     0.202 C 
ENDBRANCH   5  22
TORSDOF 8
ENDMDL
