MODEL 1
REMARK VINA RESULT: -6.094311256      0.000      0.000
REMARK  3 active torsions:
REMARK  status: ('A' for Active; 'I' for Inactive)
REMARK    1  A    between atoms: C2_2  and  O1_3 
REMARK    2  A    between atoms: C2_2  and  C3_5 
REMARK    3  A    between atoms: N1_15  and  O3_17 
ROOT
HETATM    1  C3  UNL     1     -17.457  -2.228 -25.556  1.00  0.00     0.039 C 
HETATM    2  C4  UNL     1     -17.576  -2.503 -24.078  1.00  0.00     0.019 C 
HETATM    3  C5  UNL     1     -17.716  -1.319 -23.202  1.00  0.00     0.001 C 
HETATM    4  C6  UNL     1     -18.618  -0.244 -23.755  1.00  0.00     0.002 C 
HETATM    5  C7  UNL     1     -18.257   0.072 -25.191  1.00  0.00     0.033 C 
HETATM    6  C8  UNL     1     -18.446  -1.213 -25.981  1.00  0.00     0.137 C 
HETATM    7  O2  UNL     1     -18.518  -0.972 -27.338  1.00  0.00    -0.374 OA
HETATM    8  C9  UNL     1     -17.353  -0.927 -28.029  1.00  0.00     0.165 C 
HETATM    9  C10 UNL     1     -17.250   0.463 -28.671  1.00  0.00     0.046 C 
HETATM   10  C11 UNL     1     -16.118  -1.186 -27.287  1.00  0.00     0.039 C 
HETATM   11  N1  UNL     1     -15.008  -0.903 -27.929  1.00  0.00    -0.275 N 
ATOM     12  H1  UNL     1     -15.028  -0.528 -28.878  1.00  0.00     0.193 HD
HETATM   13  C12 UNL     1     -16.066  -1.731 -25.909  1.00  0.00     0.076 C 
ENDROOT
BRANCH   1  14
HETATM   14  C2  UNL     1     -17.607  -3.535 -26.224  1.00  0.00     0.045 C 
HETATM   15  C1  UNL     1     -16.842  -4.534 -25.876  1.00  0.00     0.046 C 
BRANCH  14  16
HETATM   16  O1  UNL     1     -18.550  -3.715 -27.220  1.00  0.00    -0.365 OA
ATOM     17  H1  UNL     1     -18.484  -3.211 -28.022  1.00  0.00     0.217 HD
ENDBRANCH  14  16
ENDBRANCH   1  14
BRANCH  11  18
HETATM   18  O3  UNL     1     -13.837  -1.122 -27.290  1.00  0.00    -0.290 OA
ATOM     19  H3  UNL     1     -13.443  -0.394 -26.825  1.00  0.00     0.244 HD
ENDBRANCH  11  18
TORSDOF 3
ENDMDL
MODEL 2
REMARK VINA RESULT: -5.943213378      2.150      4.304
REMARK  3 active torsions:
REMARK  status: ('A' for Active; 'I' for Inactive)
REMARK    1  A    between atoms: C2_2  and  O1_3 
REMARK    2  A    between atoms: C2_2  and  C3_5 
REMARK    3  A    between atoms: N1_15  and  O3_17 
ROOT
HETATM    1  C3  UNL     1     -17.031  -1.259 -27.150  1.00  0.00     0.039 C 
HETATM    2  C4  UNL     1     -16.278  -0.122 -27.795  1.00  0.00     0.019 C 
HETATM    3  C5  UNL     1     -14.808  -0.268 -27.864  1.00  0.00     0.001 C 
HETATM    4  C6  UNL     1     -14.340  -1.659 -28.210  1.00  0.00     0.002 C 
HETATM    5  C7  UNL     1     -15.037  -2.689 -27.347  1.00  0.00     0.033 C 
HETATM    6  C8  UNL     1     -16.524  -2.562 -27.633  1.00  0.00     0.137 C 
HETATM    7  O2  UNL     1     -17.222  -3.675 -27.208  1.00  0.00    -0.374 OA
HETATM    8  C9  UNL     1     -17.650  -3.694 -25.923  1.00  0.00     0.165 C 
HETATM    9  C10 UNL     1     -17.012  -4.912 -25.241  1.00  0.00     0.046 C 
HETATM   10  C11 UNL     1     -17.379  -2.511 -25.104  1.00  0.00     0.039 C 
HETATM   11  N1  UNL     1     -17.593  -2.658 -23.817  1.00  0.00    -0.275 N 
ATOM     12  H1  UNL     1     -17.925  -3.545 -23.436  1.00  0.00     0.193 HD
HETATM   13  C12 UNL     1     -16.898  -1.214 -25.637  1.00  0.00     0.076 C 
ENDROOT
BRANCH   1  14
HETATM   14  C2  UNL     1     -18.457  -1.018 -27.444  1.00  0.00     0.045 C 
HETATM   15  C1  UNL     1     -18.995   0.135 -27.151  1.00  0.00     0.046 C 
BRANCH  14  16
HETATM   16  O1  UNL     1     -19.234  -2.003 -28.025  1.00  0.00    -0.365 OA
ATOM     17  H1  UNL     1     -19.165  -2.162 -28.959  1.00  0.00     0.217 HD
ENDBRANCH  14  16
ENDBRANCH   1  14
BRANCH  11  18
HETATM   18  O3  UNL     1     -17.358  -1.597 -23.014  1.00  0.00    -0.290 OA
ATOM     19  H3  UNL     1     -18.099  -1.058 -22.764  1.00  0.00     0.244 HD
ENDBRANCH  11  18
TORSDOF 3
ENDMDL
MODEL 3
REMARK VINA RESULT: -5.713430359      1.320      1.452
REMARK  3 active torsions:
REMARK  status: ('A' for Active; 'I' for Inactive)
REMARK    1  A    between atoms: C2_2  and  O1_3 
REMARK    2  A    between atoms: C2_2  and  C3_5 
REMARK    3  A    between atoms: N1_15  and  O3_17 
ROOT
HETATM    1  C3  UNL     1     -16.727  -2.514 -26.814  1.00  0.00     0.039 C 
HETATM    2  C4  UNL     1     -17.074  -3.089 -25.462  1.00  0.00     0.019 C 
HETATM    3  C5  UNL     1     -17.460  -2.114 -24.419  1.00  0.00     0.001 C 
HETATM    4  C6  UNL     1     -18.341  -0.994 -24.913  1.00  0.00     0.002 C 
HETATM    5  C7  UNL     1     -17.767  -0.377 -26.171  1.00  0.00     0.033 C 
HETATM    6  C8  UNL     1     -17.711  -1.483 -27.212  1.00  0.00     0.137 C 
HETATM    7  O2  UNL     1     -17.569  -0.976 -28.488  1.00  0.00    -0.374 OA
HETATM    8  C9  UNL     1     -16.312  -0.736 -28.931  1.00  0.00     0.165 C 
HETATM    9  C10 UNL     1     -16.217   0.759 -29.267  1.00  0.00     0.046 C 
HETATM   10  C11 UNL     1     -15.204  -1.080 -28.038  1.00  0.00     0.039 C 
HETATM   11  N1  UNL     1     -14.028  -0.620 -28.398  1.00  0.00    -0.275 N 
ATOM     12  H1  UNL     1     -13.918  -0.062 -29.245  1.00  0.00     0.193 HD
HETATM   13  C12 UNL     1     -15.343  -1.890 -26.803  1.00  0.00     0.076 C 
ENDROOT
BRANCH   1  14
HETATM   14  C2  UNL     1     -16.651  -3.665 -27.735  1.00  0.00     0.045 C 
HETATM   15  C1  UNL     1     -15.800  -4.626 -27.504  1.00  0.00     0.046 C 
BRANCH  14  16
HETATM   16  O1  UNL     1     -17.472  -3.736 -28.846  1.00  0.00    -0.365 OA
ATOM     17  H1  UNL     1     -17.532  -2.990 -29.431  1.00  0.00     0.217 HD
ENDBRANCH  14  16
ENDBRANCH   1  14
BRANCH  11  18
HETATM   18  O3  UNL     1     -12.970  -0.908 -27.608  1.00  0.00    -0.290 OA
ATOM     19  H3  UNL     1     -12.390  -1.607 -27.884  1.00  0.00     0.244 HD
ENDBRANCH  11  18
TORSDOF 3
ENDMDL
MODEL 4
REMARK VINA RESULT: -5.613433462      1.862      3.863
REMARK  3 active torsions:
REMARK  status: ('A' for Active; 'I' for Inactive)
REMARK    1  A    between atoms: C2_2  and  O1_3 
REMARK    2  A    between atoms: C2_2  and  C3_5 
REMARK    3  A    between atoms: N1_15  and  O3_17 
ROOT
HETATM    1  C3  UNL     1     -16.920  -1.083 -27.146  1.00  0.00     0.039 C 
HETATM    2  C4  UNL     1     -17.798  -0.154 -26.343  1.00  0.00     0.019 C 
HETATM    3  C5  UNL     1     -18.500  -0.755 -25.189  1.00  0.00     0.001 C 
HETATM    4  C6  UNL     1     -17.669  -1.735 -24.400  1.00  0.00     0.002 C 
HETATM    5  C7  UNL     1     -17.000  -2.733 -25.321  1.00  0.00     0.033 C 
HETATM    6  C8  UNL     1     -16.104  -1.934 -26.252  1.00  0.00     0.137 C 
HETATM    7  O2  UNL     1     -15.169  -2.737 -26.873  1.00  0.00    -0.374 OA
HETATM    8  C9  UNL     1     -15.532  -3.342 -28.029  1.00  0.00     0.165 C 
HETATM    9  C10 UNL     1     -15.408  -4.858 -27.816  1.00  0.00     0.046 C 
HETATM   10  C11 UNL     1     -16.870  -3.058 -28.550  1.00  0.00     0.039 C 
HETATM   11  N1  UNL     1     -17.270  -3.837 -29.529  1.00  0.00    -0.275 N 
ATOM     12  H1  UNL     1     -16.672  -4.582 -29.886  1.00  0.00     0.193 HD
HETATM   13  C12 UNL     1     -17.754  -1.978 -28.046  1.00  0.00     0.076 C 
ENDROOT
BRANCH   1  14
HETATM   14  C2  UNL     1     -16.131  -0.218 -28.045  1.00  0.00     0.045 C 
HETATM   15  C1  UNL     1     -16.709   0.362 -29.061  1.00  0.00     0.046 C 
BRANCH  14  16
HETATM   16  O1  UNL     1     -14.781  -0.016 -27.824  1.00  0.00    -0.365 OA
ATOM     17  H1  UNL     1     -14.369  -0.407 -27.063  1.00  0.00     0.217 HD
ENDBRANCH  14  16
ENDBRANCH   1  14
BRANCH  11  18
HETATM   18  O3  UNL     1     -18.499  -3.617 -30.047  1.00  0.00    -0.290 OA
ATOM     19  H3  UNL     1     -19.032  -4.374 -30.256  1.00  0.00     0.244 HD
ENDBRANCH  11  18
TORSDOF 3
ENDMDL
MODEL 5
REMARK VINA RESULT: -5.597295758      1.863      2.405
REMARK  3 active torsions:
REMARK  status: ('A' for Active; 'I' for Inactive)
REMARK    1  A    between atoms: C2_2  and  O1_3 
REMARK    2  A    between atoms: C2_2  and  C3_5 
REMARK    3  A    between atoms: N1_15  and  O3_17 
ROOT
HETATM    1  C3  UNL     1     -16.425  -3.341 -27.452  1.00  0.00     0.039 C 
HETATM    2  C4  UNL     1     -16.702  -4.257 -26.285  1.00  0.00     0.019 C 
HETATM    3  C5  UNL     1     -17.609  -3.729 -25.242  1.00  0.00     0.001 C 
HETATM    4  C6  UNL     1     -18.788  -2.958 -25.779  1.00  0.00     0.002 C 
HETATM    5  C7  UNL     1     -18.338  -1.935 -26.801  1.00  0.00     0.033 C 
HETATM    6  C8  UNL     1     -17.675  -2.708 -27.928  1.00  0.00     0.137 C 
HETATM    7  O2  UNL     1     -17.565  -1.946 -29.074  1.00  0.00    -0.374 OA
HETATM    8  C9  UNL     1     -16.468  -1.162 -29.203  1.00  0.00     0.165 C 
HETATM    9  C10 UNL     1     -16.950   0.290 -29.331  1.00  0.00     0.046 C 
HETATM   10  C11 UNL     1     -15.465  -1.224 -28.138  1.00  0.00     0.039 C 
HETATM   11  N1  UNL     1     -14.545  -0.288 -28.178  1.00  0.00    -0.275 N 
ATOM     12  H1  UNL     1     -14.548   0.423 -28.909  1.00  0.00     0.193 HD
HETATM   13  C12 UNL     1     -15.441  -2.250 -27.067  1.00  0.00     0.076 C 
ENDROOT
BRANCH   1  14
HETATM   14  C2  UNL     1     -15.743  -4.171 -28.464  1.00  0.00     0.045 C 
HETATM   15  C1  UNL     1     -14.563  -4.666 -28.209  1.00  0.00     0.046 C 
BRANCH  14  16
HETATM   16  O1  UNL     1     -16.340  -4.429 -29.684  1.00  0.00    -0.365 OA
ATOM     17  H1  UNL     1     -17.242  -4.726 -29.709  1.00  0.00     0.217 HD
ENDBRANCH  14  16
ENDBRANCH   1  14
BRANCH  11  18
HETATM   18  O3  UNL     1     -13.594  -0.298 -27.218  1.00  0.00    -0.290 OA
ATOM     19  H3  UNL     1     -12.742  -0.652 -27.443  1.00  0.00     0.244 HD
ENDBRANCH  11  18
TORSDOF 3
ENDMDL
