MODEL 1
REMARK VINA RESULT: -7.321318286      0.000      0.000
REMARK  3 active torsions:
REMARK  status: ('A' for Active; 'I' for Inactive)
REMARK    1  A    between atoms: O1_1  and  N1_3 
REMARK    2  A    between atoms: C4_9  and  N3_10 
REMARK    3  A    between atoms: N3_10  and  C5_12 
ROOT
HETATM    1  N3  UNL     1     -17.299  -1.145 -23.656  1.00  0.00    -0.220 N 
ATOM      2  H3  UNL     1     -16.341  -1.363 -23.380  1.00  0.00     0.178 HD
ENDROOT
BRANCH   1   3
HETATM    3  C4  UNL     1     -18.125  -0.471 -22.718  1.00  0.00     0.696 C 
HETATM    4  N1  UNL     1     -19.270  -1.127 -22.202  1.00  0.00    -0.091 N 
HETATM    5  C1  UNL     1     -19.946  -0.662 -20.985  1.00  0.00     0.176 C 
HETATM    6  C2  UNL     1     -19.110   0.384 -20.299  1.00  0.00     0.043 C 
HETATM    7  C3  UNL     1     -18.724   1.417 -21.349  1.00  0.00     0.140 C 
HETATM    8  N2  UNL     1     -17.872   0.729 -22.313  1.00  0.00    -0.225 N 
ATOM      9  H2  UNL     1     -17.051   1.211 -22.679  1.00  0.00     0.177 HD
BRANCH   4  10
HETATM   10  O1  UNL     1     -19.810  -2.216 -22.793  1.00  0.00    -0.274 OA
ATOM     11  H1  UNL     1     -19.630  -2.313 -23.721  1.00  0.00     0.245 HD
ENDBRANCH   4  10
ENDBRANCH   1   3
BRANCH   1  12
HETATM   12  C5  UNL     1     -17.731  -1.543 -24.980  1.00  0.00     0.099 C 
HETATM   13  C6  UNL     1     -17.938  -0.347 -25.845  1.00  0.00     0.026 C 
HETATM   14  C7  UNL     1     -18.005  -0.665 -27.310  1.00  0.00     0.002 C 
HETATM   15  C8  UNL     1     -16.918   0.022 -28.097  1.00  0.00     0.000 C 
HETATM   16  C9  UNL     1     -15.878  -0.909 -28.626  1.00  0.00     0.000 C 
HETATM   17  C10 UNL     1     -15.711  -2.163 -27.810  1.00  0.00     0.000 C 
HETATM   18  C11 UNL     1     -15.639  -1.892 -26.325  1.00  0.00     0.002 C 
HETATM   19  C12 UNL     1     -16.768  -2.550 -25.589  1.00  0.00     0.026 C 
ENDBRANCH   1  12
TORSDOF 3
ENDMDL
MODEL 2
REMARK VINA RESULT: -7.244317338      1.107      1.890
REMARK  3 active torsions:
REMARK  status: ('A' for Active; 'I' for Inactive)
REMARK    1  A    between atoms: O1_1  and  N1_3 
REMARK    2  A    between atoms: C4_9  and  N3_10 
REMARK    3  A    between atoms: N3_10  and  C5_12 
ROOT
HETATM    1  N3  UNL     1     -17.353  -1.475 -23.754  1.00  0.00    -0.220 N 
ATOM      2  H3  UNL     1     -16.916  -2.330 -23.409  1.00  0.00     0.178 HD
ENDROOT
BRANCH   1   3
HETATM    3  C4  UNL     1     -18.104  -0.694 -22.835  1.00  0.00     0.696 C 
HETATM    4  N1  UNL     1     -19.282  -1.235 -22.263  1.00  0.00    -0.091 N 
HETATM    5  C1  UNL     1     -19.892  -0.660 -21.058  1.00  0.00     0.176 C 
HETATM    6  C2  UNL     1     -18.964   0.353 -20.444  1.00  0.00     0.043 C 
HETATM    7  C3  UNL     1     -18.528   1.300 -21.554  1.00  0.00     0.140 C 
HETATM    8  N2  UNL     1     -17.753   0.502 -22.498  1.00  0.00    -0.225 N 
ATOM      9  H2  UNL     1     -16.907   0.902 -22.906  1.00  0.00     0.177 HD
BRANCH   4  10
HETATM   10  O1  UNL     1     -19.915  -2.309 -22.785  1.00  0.00    -0.274 OA
ATOM     11  H1  UNL     1     -19.801  -2.441 -23.719  1.00  0.00     0.245 HD
ENDBRANCH   4  10
ENDBRANCH   1   3
BRANCH   1  12
HETATM   12  C5  UNL     1     -17.169  -1.134 -25.150  1.00  0.00     0.099 C 
HETATM   13  C6  UNL     1     -16.056  -1.930 -25.742  1.00  0.00     0.026 C 
HETATM   14  C7  UNL     1     -16.047  -1.932 -27.242  1.00  0.00     0.002 C 
HETATM   15  C8  UNL     1     -16.196  -3.319 -27.815  1.00  0.00     0.000 C 
HETATM   16  C9  UNL     1     -17.505  -3.554 -28.491  1.00  0.00     0.000 C 
HETATM   17  C10 UNL     1     -18.626  -2.699 -27.961  1.00  0.00     0.000 C 
HETATM   18  C11 UNL     1     -18.676  -2.666 -26.451  1.00  0.00     0.002 C 
HETATM   19  C12 UNL     1     -18.471  -1.277 -25.922  1.00  0.00     0.026 C 
ENDBRANCH   1  12
TORSDOF 3
ENDMDL
MODEL 3
REMARK VINA RESULT: -7.132604385      2.027      6.108
REMARK  3 active torsions:
REMARK  status: ('A' for Active; 'I' for Inactive)
REMARK    1  A    between atoms: O1_1  and  N1_3 
REMARK    2  A    between atoms: C4_9  and  N3_10 
REMARK    3  A    between atoms: N3_10  and  C5_12 
ROOT
HETATM    1  N3  UNL     1     -18.781  -0.897 -24.822  1.00  0.00    -0.220 N 
ATOM      2  H3  UNL     1     -19.791  -1.019 -24.741  1.00  0.00     0.178 HD
ENDROOT
BRANCH   1   3
HETATM    3  C4  UNL     1     -18.191  -1.067 -26.103  1.00  0.00     0.696 C 
HETATM    4  N1  UNL     1     -18.260  -0.012 -27.046  1.00  0.00    -0.091 N 
HETATM    5  C1  UNL     1     -17.379   0.037 -28.219  1.00  0.00     0.176 C 
HETATM    6  C2  UNL     1     -16.301  -1.006 -28.097  1.00  0.00     0.043 C 
HETATM    7  C3  UNL     1     -16.982  -2.326 -27.762  1.00  0.00     0.140 C 
HETATM    8  N2  UNL     1     -17.587  -2.157 -26.445  1.00  0.00    -0.225 N 
ATOM      9  H2  UNL     1     -17.533  -2.923 -25.774  1.00  0.00     0.177 HD
BRANCH   4  10
HETATM   10  O1  UNL     1     -19.136   1.010 -26.928  1.00  0.00    -0.274 OA
ATOM     11  H1  UNL     1     -19.825   1.040 -27.581  1.00  0.00     0.245 HD
ENDBRANCH   4  10
ENDBRANCH   1   3
BRANCH   1  12
HETATM   12  C5  UNL     1     -18.039  -0.561 -23.624  1.00  0.00     0.099 C 
HETATM   13  C6  UNL     1     -18.291   0.855 -23.231  1.00  0.00     0.026 C 
HETATM   14  C7  UNL     1     -17.888   1.172 -21.822  1.00  0.00     0.002 C 
HETATM   15  C8  UNL     1     -19.051   1.634 -20.981  1.00  0.00     0.000 C 
HETATM   16  C9  UNL     1     -19.463   0.655 -19.933  1.00  0.00     0.000 C 
HETATM   17  C10 UNL     1     -19.144  -0.775 -20.276  1.00  0.00     0.000 C 
HETATM   18  C11 UNL     1     -19.533  -1.142 -21.689  1.00  0.00     0.002 C 
HETATM   19  C12 UNL     1     -18.340  -1.544 -22.504  1.00  0.00     0.026 C 
ENDBRANCH   1  12
TORSDOF 3
ENDMDL
MODEL 4
REMARK VINA RESULT: -7.125508899      1.121      1.216
REMARK  3 active torsions:
REMARK  status: ('A' for Active; 'I' for Inactive)
REMARK    1  A    between atoms: O1_1  and  N1_3 
REMARK    2  A    between atoms: C4_9  and  N3_10 
REMARK    3  A    between atoms: N3_10  and  C5_12 
ROOT
HETATM    1  N3  UNL     1     -17.674  -0.810 -24.045  1.00  0.00    -0.220 N 
ATOM      2  H3  UNL     1     -16.740  -0.464 -24.263  1.00  0.00     0.178 HD
ENDROOT
BRANCH   1   3
HETATM    3  C4  UNL     1     -18.329  -0.280 -22.901  1.00  0.00     0.696 C 
HETATM    4  N1  UNL     1     -19.273  -1.078 -22.208  1.00  0.00    -0.091 N 
HETATM    5  C1  UNL     1     -19.703  -0.758 -20.842  1.00  0.00     0.176 C 
HETATM    6  C2  UNL     1     -18.829   0.325 -20.267  1.00  0.00     0.043 C 
HETATM    7  C3  UNL     1     -18.773   1.452 -21.289  1.00  0.00     0.140 C 
HETATM    8  N2  UNL     1     -18.097   0.913 -22.464  1.00  0.00    -0.225 N 
ATOM      9  H2  UNL     1     -17.421   1.496 -22.956  1.00  0.00     0.177 HD
BRANCH   4  10
HETATM   10  O1  UNL     1     -19.834  -2.180 -22.755  1.00  0.00    -0.274 OA
ATOM     11  H1  UNL     1     -20.690  -2.054 -23.147  1.00  0.00     0.245 HD
ENDBRANCH   4  10
ENDBRANCH   1   3
BRANCH   1  12
HETATM   12  C5  UNL     1     -18.251  -1.812 -24.919  1.00  0.00     0.099 C 
HETATM   13  C6  UNL     1     -18.586  -1.219 -26.245  1.00  0.00     0.026 C 
HETATM   14  C7  UNL     1     -18.819  -2.237 -27.321  1.00  0.00     0.002 C 
HETATM   15  C8  UNL     1     -17.848  -2.094 -28.467  1.00  0.00     0.000 C 
HETATM   16  C9  UNL     1     -16.857  -3.205 -28.558  1.00  0.00     0.000 C 
HETATM   17  C10 UNL     1     -16.564  -3.871 -27.240  1.00  0.00     0.000 C 
HETATM   18  C11 UNL     1     -16.323  -2.883 -26.123  1.00  0.00     0.002 C 
HETATM   19  C12 UNL     1     -17.342  -3.025 -25.031  1.00  0.00     0.026 C 
ENDBRANCH   1  12
TORSDOF 3
ENDMDL
MODEL 5
REMARK VINA RESULT: -7.113710215      1.720      2.663
REMARK  3 active torsions:
REMARK  status: ('A' for Active; 'I' for Inactive)
REMARK    1  A    between atoms: O1_1  and  N1_3 
REMARK    2  A    between atoms: C4_9  and  N3_10 
REMARK    3  A    between atoms: N3_10  and  C5_12 
ROOT
HETATM    1  N3  UNL     1     -19.099  -0.093 -24.098  1.00  0.00    -0.220 N 
ATOM      2  H3  UNL     1     -19.990   0.078 -24.566  1.00  0.00     0.178 HD
ENDROOT
BRANCH   1   3
HETATM    3  C4  UNL     1     -19.077  -0.062 -22.678  1.00  0.00     0.696 C 
HETATM    4  N1  UNL     1     -18.506   1.052 -22.015  1.00  0.00    -0.091 N 
HETATM    5  C1  UNL     1     -18.771   1.330 -20.599  1.00  0.00     0.176 C 
HETATM    6  C2  UNL     1     -19.880   0.444 -20.099  1.00  0.00     0.043 C 
HETATM    7  C3  UNL     1     -19.537  -0.983 -20.501  1.00  0.00     0.140 C 
HETATM    8  N2  UNL     1     -19.562  -1.020 -21.959  1.00  0.00    -0.225 N 
ATOM      9  H2  UNL     1     -19.974  -1.828 -22.426  1.00  0.00     0.177 HD
BRANCH   4  10
HETATM   10  O1  UNL     1     -17.685   1.925 -22.640  1.00  0.00    -0.274 OA
ATOM     11  H1  UNL     1     -17.636   1.840 -23.585  1.00  0.00     0.245 HD
ENDBRANCH   4  10
ENDBRANCH   1   3
BRANCH   1  12
HETATM   12  C5  UNL     1     -17.936  -0.350 -24.923  1.00  0.00     0.099 C 
HETATM   13  C6  UNL     1     -17.342  -1.676 -24.591  1.00  0.00     0.026 C 
HETATM   14  C7  UNL     1     -16.394  -2.191 -25.632  1.00  0.00     0.002 C 
HETATM   15  C8  UNL     1     -16.845  -3.504 -26.221  1.00  0.00     0.000 C 
HETATM   16  C9  UNL     1     -17.295  -3.405 -27.641  1.00  0.00     0.000 C 
HETATM   17  C10 UNL     1     -17.824  -2.047 -28.018  1.00  0.00     0.000 C 
HETATM   18  C11 UNL     1     -18.785  -1.486 -26.996  1.00  0.00     0.002 C 
HETATM   19  C12 UNL     1     -18.273  -0.209 -26.399  1.00  0.00     0.026 C 
ENDBRANCH   1  12
TORSDOF 3
ENDMDL
