MODEL 1
REMARK VINA RESULT: -5.494850249      0.000      0.000
REMARK  3 active torsions:
REMARK  status: ('A' for Active; 'I' for Inactive)
REMARK    1  A    between atoms: C2_2  and  C4_4 
REMARK    2  A    between atoms: C7_12  and  N4_13 
REMARK    3  A    between atoms: N5_15  and  C8_17 
ROOT
HETATM    1  C4  UNL     1     -17.268  -2.254 -24.802  1.00  0.00     0.060 A 
HETATM    2  N1  UNL     1     -17.887  -3.428 -24.521  1.00  0.00    -0.301 N 
ATOM      3  H1  UNL     1     -18.563  -3.575 -23.771  1.00  0.00     0.186 HD
HETATM    4  N2  UNL     1     -17.466  -4.370 -25.392  1.00  0.00    -0.289 N 
ATOM      5  H2  UNL     1     -17.783  -5.340 -25.394  1.00  0.00     0.188 HD
HETATM    6  C5  UNL     1     -16.584  -3.862 -26.247  1.00  0.00     0.158 A 
HETATM    7  C6  UNL     1     -15.916  -4.579 -27.324  1.00  0.00     0.121 C 
HETATM    8  N3  UNL     1     -15.359  -5.159 -28.181  1.00  0.00    -0.190 NA
HETATM    9  C7  UNL     1     -16.449  -2.525 -25.884  1.00  0.00     0.111 A 
ENDROOT
BRANCH   9  10
HETATM   10  N4  UNL     1     -15.583  -1.620 -26.506  1.00  0.00    -0.294 N 
HETATM   11  N5  UNL     1     -15.826  -0.997 -27.579  1.00  0.00    -0.278 N 
ATOM     12  H5  UNL     1     -16.717  -1.149 -28.053  1.00  0.00     0.189 HD
ATOM     13  H4  UNL     1     -14.682  -1.449 -26.057  1.00  0.00     0.187 HD
BRANCH  11  14
HETATM   14  C8  UNL     1     -14.880  -0.081 -28.145  1.00  0.00     0.199 C 
HETATM   15  N6  UNL     1     -15.311   0.853 -29.117  1.00  0.00    -0.068 NA
HETATM   16  S1  UNL     1     -13.320  -0.080 -27.696  1.00  0.00    -0.043 SA
ENDBRANCH  11  14
ENDBRANCH   9  10
BRANCH   1  17
HETATM   17  C2  UNL     1     -17.477  -0.948 -24.134  1.00  0.00     0.031 C 
HETATM   18  C1  UNL     1     -17.847  -1.088 -22.652  1.00  0.00     0.016 C 
HETATM   19  C3  UNL     1     -18.717  -0.293 -24.802  1.00  0.00     0.016 C 
ENDBRANCH   1  17
TORSDOF 3
ENDMDL
MODEL 2
REMARK VINA RESULT: -5.120817157      2.760      4.447
REMARK  3 active torsions:
REMARK  status: ('A' for Active; 'I' for Inactive)
REMARK    1  A    between atoms: C2_2  and  C4_4 
REMARK    2  A    between atoms: C7_12  and  N4_13 
REMARK    3  A    between atoms: N5_15  and  C8_17 
ROOT
HETATM    1  C4  UNL     1     -17.346  -1.572 -27.127  1.00  0.00     0.060 A 
HETATM    2  N1  UNL     1     -16.729  -2.419 -27.988  1.00  0.00    -0.301 N 
ATOM      3  H1  UNL     1     -16.419  -2.182 -28.931  1.00  0.00     0.186 HD
HETATM    4  N2  UNL     1     -16.591  -3.627 -27.400  1.00  0.00    -0.289 N 
ATOM      5  H2  UNL     1     -16.157  -4.439 -27.839  1.00  0.00     0.188 HD
HETATM    6  C5  UNL     1     -17.097  -3.613 -26.171  1.00  0.00     0.158 A 
HETATM    7  C6  UNL     1     -17.128  -4.732 -25.239  1.00  0.00     0.121 C 
HETATM    8  N3  UNL     1     -17.174  -5.638 -24.491  1.00  0.00    -0.190 NA
HETATM    9  C7  UNL     1     -17.579  -2.320 -25.986  1.00  0.00     0.111 A 
ENDROOT
BRANCH   9  10
HETATM   10  N4  UNL     1     -18.231  -1.877 -24.831  1.00  0.00    -0.294 N 
HETATM   11  N5  UNL     1     -17.814  -0.961 -24.064  1.00  0.00    -0.278 N 
ATOM     12  H5  UNL     1     -16.933  -0.494 -24.278  1.00  0.00     0.189 HD
ATOM     13  H4  UNL     1     -19.113  -2.328 -24.588  1.00  0.00     0.187 HD
BRANCH  11  14
HETATM   14  C8  UNL     1     -18.552  -0.565 -22.901  1.00  0.00     0.199 C 
HETATM   15  N6  UNL     1     -19.541  -1.430 -22.376  1.00  0.00    -0.068 NA
HETATM   16  S1  UNL     1     -18.279   0.854 -22.161  1.00  0.00    -0.043 SA
ENDBRANCH  11  14
ENDBRANCH   9  10
BRANCH   1  17
HETATM   17  C2  UNL     1     -17.644  -0.136 -27.340  1.00  0.00     0.031 C 
HETATM   18  C1  UNL     1     -19.146   0.173 -27.304  1.00  0.00     0.016 C 
HETATM   19  C3  UNL     1     -17.193   0.207 -28.786  1.00  0.00     0.016 C 
ENDBRANCH   1  17
TORSDOF 3
ENDMDL
MODEL 3
REMARK VINA RESULT: -5.062590168      1.237      1.313
REMARK  3 active torsions:
REMARK  status: ('A' for Active; 'I' for Inactive)
REMARK    1  A    between atoms: C2_2  and  C4_4 
REMARK    2  A    between atoms: C7_12  and  N4_13 
REMARK    3  A    between atoms: N5_15  and  C8_17 
ROOT
HETATM    1  C4  UNL     1     -17.717  -1.773 -25.218  1.00  0.00     0.060 A 
HETATM    2  N1  UNL     1     -18.224  -2.868 -24.598  1.00  0.00    -0.301 N 
ATOM      3  H1  UNL     1     -18.898  -2.854 -23.832  1.00  0.00     0.186 HD
HETATM    4  N2  UNL     1     -17.695  -3.978 -25.155  1.00  0.00    -0.289 N 
ATOM      5  H2  UNL     1     -17.915  -4.932 -24.868  1.00  0.00     0.188 HD
HETATM    6  C5  UNL     1     -16.848  -3.659 -26.130  1.00  0.00     0.158 A 
HETATM    7  C6  UNL     1     -16.090  -4.591 -26.953  1.00  0.00     0.121 C 
HETATM    8  N3  UNL     1     -15.461  -5.340 -27.605  1.00  0.00    -0.190 NA
HETATM    9  C7  UNL     1     -16.853  -2.268 -26.179  1.00  0.00     0.111 A 
ENDROOT
BRANCH   9  10
HETATM   10  N4  UNL     1     -16.066  -1.505 -27.047  1.00  0.00    -0.294 N 
HETATM   11  N5  UNL     1     -14.840  -1.241 -26.880  1.00  0.00    -0.278 N 
ATOM     12  H5  UNL     1     -14.362  -1.598 -26.052  1.00  0.00     0.189 HD
ATOM     13  H4  UNL     1     -16.517  -1.131 -27.883  1.00  0.00     0.187 HD
BRANCH  11  14
HETATM   14  C8  UNL     1     -14.107  -0.453 -27.826  1.00  0.00     0.199 C 
HETATM   15  N6  UNL     1     -12.718  -0.258 -27.642  1.00  0.00    -0.068 NA
HETATM   16  S1  UNL     1     -14.828   0.222 -29.115  1.00  0.00    -0.043 SA
ENDBRANCH  11  14
ENDBRANCH   9  10
BRANCH   1  17
HETATM   17  C2  UNL     1     -18.067  -0.356 -24.964  1.00  0.00     0.031 C 
HETATM   18  C1  UNL     1     -18.842  -0.158 -23.655  1.00  0.00     0.016 C 
HETATM   19  C3  UNL     1     -19.050   0.074 -26.088  1.00  0.00     0.016 C 
ENDBRANCH   1  17
TORSDOF 3
ENDMDL
MODEL 4
REMARK VINA RESULT: -5.055730714      2.543      4.173
REMARK  3 active torsions:
REMARK  status: ('A' for Active; 'I' for Inactive)
REMARK    1  A    between atoms: C2_2  and  C4_4 
REMARK    2  A    between atoms: C7_12  and  N4_13 
REMARK    3  A    between atoms: N5_15  and  C8_17 
ROOT
HETATM    1  C4  UNL     1     -18.706  -0.492 -25.130  1.00  0.00     0.060 A 
HETATM    2  N1  UNL     1     -19.291   0.589 -25.704  1.00  0.00    -0.301 N 
ATOM      3  H1  UNL     1     -19.903   1.252 -25.228  1.00  0.00     0.186 HD
HETATM    4  N2  UNL     1     -18.934   0.647 -27.005  1.00  0.00    -0.289 N 
ATOM      5  H2  UNL     1     -19.240   1.368 -27.658  1.00  0.00     0.188 HD
HETATM    6  C5  UNL     1     -18.128  -0.363 -27.318  1.00  0.00     0.158 A 
HETATM    7  C6  UNL     1     -17.544  -0.626 -28.627  1.00  0.00     0.121 C 
HETATM    8  N3  UNL     1     -17.088  -0.853 -29.686  1.00  0.00    -0.190 NA
HETATM    9  C7  UNL     1     -17.977  -1.091 -26.142  1.00  0.00     0.111 A 
ENDROOT
BRANCH   9  10
HETATM   10  N4  UNL     1     -17.230  -2.268 -26.031  1.00  0.00    -0.294 N 
HETATM   11  N5  UNL     1     -17.668  -3.434 -26.255  1.00  0.00    -0.278 N 
ATOM     12  H5  UNL     1     -18.641  -3.555 -26.538  1.00  0.00     0.189 HD
ATOM     13  H4  UNL     1     -16.254  -2.180 -25.746  1.00  0.00     0.187 HD
BRANCH  11  14
HETATM   14  C8  UNL     1     -16.829  -4.588 -26.121  1.00  0.00     0.199 C 
HETATM   15  N6  UNL     1     -16.982  -5.434 -24.997  1.00  0.00    -0.068 NA
HETATM   16  S1  UNL     1     -15.704  -4.958 -27.231  1.00  0.00    -0.043 SA
ENDBRANCH  11  14
ENDBRANCH   9  10
BRANCH   1  17
HETATM   17  C2  UNL     1     -18.781  -0.903 -23.708  1.00  0.00     0.031 C 
HETATM   18  C1  UNL     1     -19.281   0.218 -22.788  1.00  0.00     0.016 C 
HETATM   19  C3  UNL     1     -17.325  -1.190 -23.245  1.00  0.00     0.016 C 
ENDBRANCH   1  17
TORSDOF 3
ENDMDL
MODEL 5
REMARK VINA RESULT: -4.995974999      1.193      3.775
REMARK  3 active torsions:
REMARK  status: ('A' for Active; 'I' for Inactive)
REMARK    1  A    between atoms: C2_2  and  C4_4 
REMARK    2  A    between atoms: C7_12  and  N4_13 
REMARK    3  A    between atoms: N5_15  and  C8_17 
ROOT
HETATM    1  C4  UNL     1     -16.717  -3.669 -26.134  1.00  0.00     0.060 A 
HETATM    2  N1  UNL     1     -17.720  -4.171 -25.371  1.00  0.00    -0.301 N 
ATOM      3  H1  UNL     1     -17.966  -5.159 -25.294  1.00  0.00     0.186 HD
HETATM    4  N2  UNL     1     -18.340  -3.157 -24.731  1.00  0.00    -0.289 N 
ATOM      5  H2  UNL     1     -19.129  -3.270 -24.095  1.00  0.00     0.188 HD
HETATM    6  C5  UNL     1     -17.783  -1.991 -25.044  1.00  0.00     0.158 A 
HETATM    7  C6  UNL     1     -18.186  -0.683 -24.547  1.00  0.00     0.121 C 
HETATM    8  N3  UNL     1     -18.522   0.377 -24.165  1.00  0.00    -0.190 NA
HETATM    9  C7  UNL     1     -16.756  -2.301 -25.930  1.00  0.00     0.111 A 
ENDROOT
BRANCH   9  10
HETATM   10  N4  UNL     1     -15.928  -1.355 -26.542  1.00  0.00    -0.294 N 
HETATM   11  N5  UNL     1     -16.000  -0.996 -27.753  1.00  0.00    -0.278 N 
ATOM     12  H5  UNL     1     -16.708  -1.416 -28.356  1.00  0.00     0.189 HD
ATOM     13  H4  UNL     1     -15.207  -0.920 -25.966  1.00  0.00     0.187 HD
BRANCH  11  14
HETATM   14  C8  UNL     1     -15.111  -0.013 -28.298  1.00  0.00     0.199 C 
HETATM   15  N6  UNL     1     -15.622   0.986 -29.161  1.00  0.00    -0.068 NA
HETATM   16  S1  UNL     1     -13.526  -0.009 -27.947  1.00  0.00    -0.043 SA
ENDBRANCH  11  14
ENDBRANCH   9  10
BRANCH   1  17
HETATM   17  C2  UNL     1     -15.747  -4.431 -26.955  1.00  0.00     0.031 C 
HETATM   18  C1  UNL     1     -16.120  -4.464 -28.442  1.00  0.00     0.016 C 
HETATM   19  C3  UNL     1     -15.822  -5.910 -26.484  1.00  0.00     0.016 C 
ENDBRANCH   1  17
TORSDOF 3
ENDMDL
