MODEL 1
REMARK VINA RESULT: -7.103268158      0.000      0.000
REMARK  2 active torsions:
REMARK  status: ('A' for Active; 'I' for Inactive)
REMARK    1  A    between atoms: C2_7  and  N3_8 
REMARK    2  A    between atoms: N3_8  and  N4_10 
ROOT
HETATM    1  N3  UNL     1     -18.003  -1.287 -24.585  1.00  0.00    -0.279 N 
ATOM      2  H3  UNL     1     -17.798  -0.330 -24.871  1.00  0.00     0.189 HD
ENDROOT
BRANCH   1   3
HETATM    3  C2  UNL     1     -17.495  -2.322 -25.219  1.00  0.00     0.180 A 
HETATM    4  N2  UNL     1     -17.716  -3.619 -24.990  1.00  0.00    -0.277 N 
HETATM    5  N1  UNL     1     -17.125  -4.484 -25.717  1.00  0.00    -0.282 N 
ATOM      6  H2  UNL     1     -18.348  -3.913 -24.245  1.00  0.00     0.189 HD
HETATM    7  C1  UNL     1     -16.303  -4.065 -26.686  1.00  0.00     0.160 A 
ATOM      8  H1  UNL     1     -17.277  -5.480 -25.563  1.00  0.00     0.188 HD
HETATM    9  S1  UNL     1     -15.430  -4.978 -27.750  1.00  0.00    -0.051 SA
HETATM   10  S2  UNL     1     -16.399  -2.368 -26.526  1.00  0.00    -0.020 SA
ENDBRANCH   1   3
BRANCH   1  11
HETATM   11  N4  UNL     1     -18.836  -1.566 -23.504  1.00  0.00    -0.307 N 
HETATM   12  C3  UNL     1     -18.821  -0.816 -22.468  1.00  0.00     0.004 C 
HETATM   13  C4  UNL     1     -19.709  -1.091 -21.284  1.00  0.00     0.054 C 
HETATM   14  C8  UNL     1     -17.914   0.349 -22.421  1.00  0.00     0.054 C 
HETATM   15  C5  UNL     1     -19.058  -0.335 -20.119  1.00  0.00     0.006 C 
HETATM   16  C6  UNL     1     -19.232   1.140 -20.433  1.00  0.00     0.001 C 
HETATM   17  C7  UNL     1     -18.463   1.512 -21.660  1.00  0.00     0.006 C 
ATOM     18  H4  UNL     1     -19.461  -2.371 -23.538  1.00  0.00     0.186 HD
ENDBRANCH   1  11
TORSDOF 2
ENDMDL
MODEL 2
REMARK VINA RESULT: -6.916825822      0.698      1.498
REMARK  2 active torsions:
REMARK  status: ('A' for Active; 'I' for Inactive)
REMARK    1  A    between atoms: C2_7  and  N3_8 
REMARK    2  A    between atoms: N3_8  and  N4_10 
ROOT
HETATM    1  N3  UNL     1     -18.387  -2.339 -24.054  1.00  0.00    -0.279 N 
ATOM      2  H3  UNL     1     -19.239  -2.729 -23.650  1.00  0.00     0.189 HD
ENDROOT
BRANCH   1   3
HETATM    3  C2  UNL     1     -17.692  -2.988 -24.962  1.00  0.00     0.180 A 
HETATM    4  N2  UNL     1     -17.516  -4.307 -25.078  1.00  0.00    -0.277 N 
HETATM    5  N1  UNL     1     -16.799  -4.752 -26.035  1.00  0.00    -0.282 N 
ATOM      6  H2  UNL     1     -17.948  -4.948 -24.413  1.00  0.00     0.189 HD
HETATM    7  C1  UNL     1     -16.247  -3.885 -26.891  1.00  0.00     0.160 A 
ATOM      8  H1  UNL     1     -16.650  -5.755 -26.146  1.00  0.00     0.188 HD
HETATM    9  S1  UNL     1     -15.289  -4.209 -28.196  1.00  0.00    -0.051 SA
HETATM   10  S2  UNL     1     -16.790  -2.386 -26.279  1.00  0.00    -0.020 SA
ENDBRANCH   1   3
BRANCH   1  11
HETATM   11  N4  UNL     1     -17.900  -1.090 -23.672  1.00  0.00    -0.307 N 
HETATM   12  C3  UNL     1     -18.396  -0.488 -22.659  1.00  0.00     0.004 C 
HETATM   13  C4  UNL     1     -17.891   0.861 -22.221  1.00  0.00     0.054 C 
HETATM   14  C8  UNL     1     -19.490  -1.120 -21.893  1.00  0.00     0.054 C 
HETATM   15  C5  UNL     1     -19.018   1.443 -21.357  1.00  0.00     0.006 C 
HETATM   16  C6  UNL     1     -19.059   0.590 -20.101  1.00  0.00     0.001 C 
HETATM   17  C7  UNL     1     -19.459  -0.813 -20.430  1.00  0.00     0.006 C 
ATOM     18  H4  UNL     1     -17.146  -0.654 -24.202  1.00  0.00     0.186 HD
ENDBRANCH   1  11
TORSDOF 2
ENDMDL
MODEL 3
REMARK VINA RESULT: -6.744647352      1.487      1.507
REMARK  2 active torsions:
REMARK  status: ('A' for Active; 'I' for Inactive)
REMARK    1  A    between atoms: C2_7  and  N3_8 
REMARK    2  A    between atoms: N3_8  and  N4_10 
ROOT
HETATM    1  N3  UNL     1     -17.559  -1.749 -24.388  1.00  0.00    -0.279 N 
ATOM      2  H3  UNL     1     -16.654  -1.328 -24.176  1.00  0.00     0.189 HD
ENDROOT
BRANCH   1   3
HETATM    3  C2  UNL     1     -17.850  -2.193 -25.591  1.00  0.00     0.180 A 
HETATM    4  N2  UNL     1     -18.984  -2.760 -26.010  1.00  0.00    -0.277 N 
HETATM    5  N1  UNL     1     -19.077  -3.129 -27.227  1.00  0.00    -0.282 N 
ATOM      6  H2  UNL     1     -19.763  -2.897 -25.365  1.00  0.00     0.189 HD
HETATM    7  C1  UNL     1     -18.037  -2.936 -28.046  1.00  0.00     0.160 A 
ATOM      8  H1  UNL     1     -19.933  -3.565 -27.571  1.00  0.00     0.188 HD
HETATM    9  S1  UNL     1     -17.913  -3.322 -29.647  1.00  0.00    -0.051 SA
HETATM   10  S2  UNL     1     -16.899  -2.198 -27.009  1.00  0.00    -0.020 SA
ENDBRANCH   1   3
BRANCH   1  11
HETATM   11  N4  UNL     1     -18.550  -1.884 -23.417  1.00  0.00    -0.307 N 
HETATM   12  C3  UNL     1     -18.649  -1.027 -22.474  1.00  0.00     0.004 C 
HETATM   13  C4  UNL     1     -19.709  -1.145 -21.412  1.00  0.00     0.054 C 
HETATM   14  C8  UNL     1     -17.707   0.110 -22.415  1.00  0.00     0.054 C 
HETATM   15  C5  UNL     1     -19.198  -0.285 -20.248  1.00  0.00     0.006 C 
HETATM   16  C6  UNL     1     -19.260   1.151 -20.735  1.00  0.00     0.001 C 
HETATM   17  C7  UNL     1     -18.308   1.365 -21.869  1.00  0.00     0.006 C 
ATOM     18  H4  UNL     1     -19.199  -2.670 -23.459  1.00  0.00     0.186 HD
ENDBRANCH   1  11
TORSDOF 2
ENDMDL
MODEL 4
REMARK VINA RESULT: -6.691520174      2.125      2.293
REMARK  2 active torsions:
REMARK  status: ('A' for Active; 'I' for Inactive)
REMARK    1  A    between atoms: C2_7  and  N3_8 
REMARK    2  A    between atoms: N3_8  and  N4_10 
ROOT
HETATM    1  N3  UNL     1     -18.152  -0.009 -24.947  1.00  0.00    -0.279 N 
ATOM      2  H3  UNL     1     -17.736   0.896 -24.732  1.00  0.00     0.189 HD
ENDROOT
BRANCH   1   3
HETATM    3  C2  UNL     1     -18.037  -0.557 -26.137  1.00  0.00     0.180 A 
HETATM    4  N2  UNL     1     -17.823   0.048 -27.307  1.00  0.00    -0.277 N 
HETATM    5  N1  UNL     1     -17.741  -0.661 -28.364  1.00  0.00    -0.282 N 
ATOM      6  H2  UNL     1     -17.726   1.063 -27.355  1.00  0.00     0.189 HD
HETATM    7  C1  UNL     1     -17.872  -1.989 -28.267  1.00  0.00     0.160 A 
ATOM      8  H1  UNL     1     -17.577  -0.222 -29.270  1.00  0.00     0.188 HD
HETATM    9  S1  UNL     1     -17.806  -3.112 -29.476  1.00  0.00    -0.051 SA
HETATM   10  S2  UNL     1     -18.121  -2.201 -26.591  1.00  0.00    -0.020 SA
ENDBRANCH   1   3
BRANCH   1  11
HETATM   11  N4  UNL     1     -18.873  -0.729 -23.996  1.00  0.00    -0.307 N 
HETATM   12  C3  UNL     1     -18.869  -0.362 -22.771  1.00  0.00     0.004 C 
HETATM   13  C4  UNL     1     -19.637  -1.119 -21.721  1.00  0.00     0.054 C 
HETATM   14  C8  UNL     1     -18.096   0.830 -22.365  1.00  0.00     0.054 C 
HETATM   15  C5  UNL     1     -18.995  -0.708 -20.390  1.00  0.00     0.006 C 
HETATM   16  C6  UNL     1     -19.354   0.754 -20.191  1.00  0.00     0.001 C 
HETATM   17  C7  UNL     1     -18.718   1.601 -21.247  1.00  0.00     0.006 C 
ATOM     18  H4  UNL     1     -19.405  -1.552 -24.278  1.00  0.00     0.186 HD
ENDBRANCH   1  11
TORSDOF 2
ENDMDL
MODEL 5
REMARK VINA RESULT: -6.374111699      1.719      2.476
REMARK  2 active torsions:
REMARK  status: ('A' for Active; 'I' for Inactive)
REMARK    1  A    between atoms: C2_7  and  N3_8 
REMARK    2  A    between atoms: N3_8  and  N4_10 
ROOT
HETATM    1  N3  UNL     1     -17.323  -1.976 -24.334  1.00  0.00    -0.279 N 
ATOM      2  H3  UNL     1     -16.437  -2.393 -24.049  1.00  0.00     0.189 HD
ENDROOT
BRANCH   1   3
HETATM    3  C2  UNL     1     -17.461  -1.377 -25.497  1.00  0.00     0.180 A 
HETATM    4  N2  UNL     1     -18.484  -0.632 -25.925  1.00  0.00    -0.277 N 
HETATM    5  N1  UNL     1     -18.435  -0.131 -27.097  1.00  0.00    -0.282 N 
ATOM      6  H2  UNL     1     -19.291  -0.467 -25.324  1.00  0.00     0.189 HD
HETATM    7  C1  UNL     1     -17.361  -0.367 -27.860  1.00  0.00     0.160 A 
ATOM      8  H1  UNL     1     -19.203   0.441 -27.447  1.00  0.00     0.188 HD
HETATM    9  S1  UNL     1     -17.064   0.164 -29.396  1.00  0.00    -0.051 SA
HETATM   10  S2  UNL     1     -16.405  -1.344 -26.837  1.00  0.00    -0.020 SA
ENDBRANCH   1   3
BRANCH   1  11
HETATM   11  N4  UNL     1     -18.448  -2.010 -23.513  1.00  0.00    -0.307 N 
HETATM   12  C3  UNL     1     -18.599  -1.138 -22.590  1.00  0.00     0.004 C 
HETATM   13  C4  UNL     1     -19.804  -1.149 -21.687  1.00  0.00     0.054 C 
HETATM   14  C8  UNL     1     -17.574  -0.092 -22.395  1.00  0.00     0.054 C 
HETATM   15  C5  UNL     1     -19.384  -0.329 -20.460  1.00  0.00     0.006 C 
HETATM   16  C6  UNL     1     -19.244   1.103 -20.946  1.00  0.00     0.001 C 
HETATM   17  C7  UNL     1     -18.127   1.218 -21.934  1.00  0.00     0.006 C 
ATOM     18  H4  UNL     1     -19.154  -2.733 -23.648  1.00  0.00     0.186 HD
ENDBRANCH   1  11
TORSDOF 2
ENDMDL
