MODEL 1
REMARK VINA RESULT: -6.246491111      0.000      0.000
REMARK  3 active torsions:
REMARK  status: ('A' for Active; 'I' for Inactive)
REMARK    1  A    between atoms: C2_2  and  C5_15 
REMARK    2  A    between atoms: N1_3  and  N2_5 
REMARK    3  A    between atoms: N2_5  and  C3_7 
ROOT
HETATM    1  N2  UNL     1     -17.968  -0.377 -25.074  1.00  0.00    -0.279 N 
ATOM      2  H2  UNL     1     -17.212   0.265 -25.315  1.00  0.00     0.189 HD
ENDROOT
BRANCH   1   3
HETATM    3  N1  UNL     1     -18.579  -1.129 -26.024  1.00  0.00    -0.306 N 
HETATM    4  C2  UNL     1     -18.271  -2.183 -26.621  1.00  0.00     0.007 C 
HETATM    5  C1  UNL     1     -19.263  -2.700 -27.632  1.00  0.00     0.066 C 
ATOM      6  H1  UNL     1     -19.483  -0.755 -26.312  1.00  0.00     0.186 HD
BRANCH   4   7
HETATM    7  C5  UNL     1     -17.061  -2.947 -26.433  1.00  0.00    -0.012 C 
HETATM    8  C6  UNL     1     -17.180  -4.002 -25.343  1.00  0.00     0.021 C 
HETATM    9  C7  UNL     1     -15.833  -2.135 -26.139  1.00  0.00     0.021 C 
HETATM   10  C8  UNL     1     -16.757  -3.769 -27.706  1.00  0.00     0.021 C 
ENDBRANCH   4   7
ENDBRANCH   1   3
BRANCH   1  11
HETATM   11  C3  UNL     1     -18.384  -0.505 -23.831  1.00  0.00     0.180 A 
HETATM   12  N3  UNL     1     -19.073  -1.511 -23.299  1.00  0.00    -0.277 N 
HETATM   13  N4  UNL     1     -19.392  -1.461 -22.061  1.00  0.00    -0.282 N 
ATOM     14  H3  UNL     1     -19.343  -2.313 -23.870  1.00  0.00     0.189 HD
HETATM   15  C4  UNL     1     -19.020  -0.396 -21.347  1.00  0.00     0.160 A 
ATOM     16  H4  UNL     1     -19.921  -2.218 -21.629  1.00  0.00     0.188 HD
HETATM   17  S1  UNL     1     -19.293  -0.072 -19.749  1.00  0.00    -0.051 SA
HETATM   18  S2  UNL     1     -18.191   0.546 -22.500  1.00  0.00    -0.020 SA
ENDBRANCH   1  11
TORSDOF 3
ENDMDL
MODEL 2
REMARK VINA RESULT: -6.111459496      1.430      1.585
REMARK  3 active torsions:
REMARK  status: ('A' for Active; 'I' for Inactive)
REMARK    1  A    between atoms: C2_2  and  C5_15 
REMARK    2  A    between atoms: N1_3  and  N2_5 
REMARK    3  A    between atoms: N2_5  and  C3_7 
ROOT
HETATM    1  N2  UNL     1     -18.501  -2.804 -24.285  1.00  0.00    -0.279 N 
ATOM      2  H2  UNL     1     -18.190  -3.651 -23.809  1.00  0.00     0.189 HD
ENDROOT
BRANCH   1   3
HETATM    3  N1  UNL     1     -18.933  -2.840 -25.571  1.00  0.00    -0.306 N 
HETATM    4  C2  UNL     1     -18.374  -3.084 -26.663  1.00  0.00     0.007 C 
HETATM    5  C1  UNL     1     -19.243  -3.016 -27.894  1.00  0.00     0.066 C 
ATOM      6  H1  UNL     1     -19.925  -2.623 -25.667  1.00  0.00     0.186 HD
BRANCH   4   7
HETATM    7  C5  UNL     1     -16.984  -3.423 -26.853  1.00  0.00    -0.012 C 
HETATM    8  C6  UNL     1     -16.598  -4.749 -26.216  1.00  0.00     0.021 C 
HETATM    9  C7  UNL     1     -16.005  -2.391 -26.373  1.00  0.00     0.021 C 
HETATM   10  C8  UNL     1     -16.700  -3.642 -28.356  1.00  0.00     0.021 C 
ENDBRANCH   4   7
ENDBRANCH   1   3
BRANCH   1  11
HETATM   11  C3  UNL     1     -18.496  -1.637 -23.674  1.00  0.00     0.180 A 
HETATM   12  N3  UNL     1     -18.138  -0.456 -24.171  1.00  0.00    -0.277 N 
HETATM   13  N4  UNL     1     -18.198   0.579 -23.421  1.00  0.00    -0.282 N 
ATOM     14  H3  UNL     1     -17.819  -0.375 -25.136  1.00  0.00     0.189 HD
HETATM   15  C4  UNL     1     -18.622   0.433 -22.163  1.00  0.00     0.160 A 
ATOM     16  H4  UNL     1     -17.929   1.496 -23.776  1.00  0.00     0.188 HD
HETATM   17  S1  UNL     1     -18.798   1.583 -20.988  1.00  0.00    -0.051 SA
HETATM   18  S2  UNL     1     -18.936  -1.239 -22.074  1.00  0.00    -0.020 SA
ENDBRANCH   1  11
TORSDOF 3
ENDMDL
MODEL 3
REMARK VINA RESULT: -6.061086691      1.106      1.890
REMARK  3 active torsions:
REMARK  status: ('A' for Active; 'I' for Inactive)
REMARK    1  A    between atoms: C2_2  and  C5_15 
REMARK    2  A    between atoms: N1_3  and  N2_5 
REMARK    3  A    between atoms: N2_5  and  C3_7 
ROOT
HETATM    1  N2  UNL     1     -18.678  -0.546 -25.242  1.00  0.00    -0.279 N 
ATOM      2  H2  UNL     1     -19.450  -0.545 -25.908  1.00  0.00     0.189 HD
ENDROOT
BRANCH   1   3
HETATM    3  N1  UNL     1     -17.400  -0.756 -25.647  1.00  0.00    -0.306 N 
HETATM    4  C2  UNL     1     -16.802  -1.737 -26.140  1.00  0.00     0.007 C 
HETATM    5  C1  UNL     1     -15.340  -1.544 -26.457  1.00  0.00     0.066 C 
ATOM      6  H1  UNL     1     -16.801   0.059 -25.524  1.00  0.00     0.186 HD
BRANCH   4   7
HETATM    7  C5  UNL     1     -17.376  -3.028 -26.434  1.00  0.00    -0.012 C 
HETATM    8  C6  UNL     1     -18.663  -2.942 -27.240  1.00  0.00     0.021 C 
HETATM    9  C7  UNL     1     -17.653  -3.890 -25.236  1.00  0.00     0.021 C 
HETATM   10  C8  UNL     1     -16.423  -3.829 -27.349  1.00  0.00     0.021 C 
ENDBRANCH   4   7
ENDBRANCH   1   3
BRANCH   1  11
HETATM   11  C3  UNL     1     -18.887  -0.343 -23.957  1.00  0.00     0.180 A 
HETATM   12  N3  UNL     1     -19.672   0.570 -23.390  1.00  0.00    -0.277 N 
HETATM   13  N4  UNL     1     -19.749   0.618 -22.114  1.00  0.00    -0.282 N 
ATOM     14  H3  UNL     1     -20.206   1.222 -23.965  1.00  0.00     0.189 HD
HETATM   15  C4  UNL     1     -19.036  -0.253 -21.397  1.00  0.00     0.160 A 
ATOM     16  H4  UNL     1     -20.342   1.308 -21.655  1.00  0.00     0.188 HD
HETATM   17  S1  UNL     1     -18.946  -0.415 -19.754  1.00  0.00    -0.051 SA
HETATM   18  S2  UNL     1     -18.241  -1.157 -22.602  1.00  0.00    -0.020 SA
ENDBRANCH   1  11
TORSDOF 3
ENDMDL
MODEL 4
REMARK VINA RESULT: -6.030651874      1.099      2.022
REMARK  3 active torsions:
REMARK  status: ('A' for Active; 'I' for Inactive)
REMARK    1  A    between atoms: C2_2  and  C5_15 
REMARK    2  A    between atoms: N1_3  and  N2_5 
REMARK    3  A    between atoms: N2_5  and  C3_7 
ROOT
HETATM    1  N2  UNL     1     -18.675  -0.545 -25.235  1.00  0.00    -0.279 N 
ATOM      2  H2  UNL     1     -19.444  -0.538 -25.905  1.00  0.00     0.189 HD
ENDROOT
BRANCH   1   3
HETATM    3  N1  UNL     1     -17.397  -0.764 -25.635  1.00  0.00    -0.306 N 
HETATM    4  C2  UNL     1     -16.814  -1.733 -26.170  1.00  0.00     0.007 C 
HETATM    5  C1  UNL     1     -15.344  -1.558 -26.459  1.00  0.00     0.066 C 
ATOM      6  H1  UNL     1     -16.781   0.030 -25.464  1.00  0.00     0.186 HD
BRANCH   4   7
HETATM    7  C5  UNL     1     -17.413  -2.994 -26.534  1.00  0.00    -0.012 C 
HETATM    8  C6  UNL     1     -16.514  -3.856 -27.408  1.00  0.00     0.021 C 
HETATM    9  C7  UNL     1     -18.744  -2.892 -27.222  1.00  0.00     0.021 C 
HETATM   10  C8  UNL     1     -17.630  -3.856 -25.270  1.00  0.00     0.021 C 
ENDBRANCH   4   7
ENDBRANCH   1   3
BRANCH   1  11
HETATM   11  C3  UNL     1     -18.887  -0.342 -23.952  1.00  0.00     0.180 A 
HETATM   12  N3  UNL     1     -19.674   0.571 -23.387  1.00  0.00    -0.277 N 
HETATM   13  N4  UNL     1     -19.755   0.620 -22.111  1.00  0.00    -0.282 N 
ATOM     14  H3  UNL     1     -20.204   1.224 -23.964  1.00  0.00     0.189 HD
HETATM   15  C4  UNL     1     -19.046  -0.253 -21.391  1.00  0.00     0.160 A 
ATOM     16  H4  UNL     1     -20.349   1.311 -21.654  1.00  0.00     0.188 HD
HETATM   17  S1  UNL     1     -18.962  -0.415 -19.748  1.00  0.00    -0.051 SA
HETATM   18  S2  UNL     1     -18.248  -1.157 -22.595  1.00  0.00    -0.020 SA
ENDBRANCH   1  11
TORSDOF 3
ENDMDL
MODEL 5
REMARK VINA RESULT: -5.937902446      1.602      2.335
REMARK  3 active torsions:
REMARK  status: ('A' for Active; 'I' for Inactive)
REMARK    1  A    between atoms: C2_2  and  C5_15 
REMARK    2  A    between atoms: N1_3  and  N2_5 
REMARK    3  A    between atoms: N2_5  and  C3_7 
ROOT
HETATM    1  N2  UNL     1     -18.595  -2.541 -25.355  1.00  0.00    -0.279 N 
ATOM      2  H2  UNL     1     -19.171  -2.289 -26.158  1.00  0.00     0.189 HD
ENDROOT
BRANCH   1   3
HETATM    3  N1  UNL     1     -17.931  -3.724 -25.310  1.00  0.00    -0.306 N 
HETATM    4  C2  UNL     1     -17.028  -4.233 -26.009  1.00  0.00     0.007 C 
HETATM    5  C1  UNL     1     -16.558  -5.607 -25.604  1.00  0.00     0.066 C 
ATOM      6  H1  UNL     1     -18.233  -4.325 -24.543  1.00  0.00     0.186 HD
BRANCH   4   7
HETATM    7  C5  UNL     1     -16.397  -3.631 -27.159  1.00  0.00    -0.012 C 
HETATM    8  C6  UNL     1     -15.589  -2.388 -26.817  1.00  0.00     0.021 C 
HETATM    9  C7  UNL     1     -17.328  -3.268 -28.279  1.00  0.00     0.021 C 
HETATM   10  C8  UNL     1     -15.347  -4.600 -27.747  1.00  0.00     0.021 C 
ENDBRANCH   4   7
ENDBRANCH   1   3
BRANCH   1  11
HETATM   11  C3  UNL     1     -18.470  -1.730 -24.324  1.00  0.00     0.180 A 
HETATM   12  N3  UNL     1     -17.977  -2.008 -23.120  1.00  0.00    -0.277 N 
HETATM   13  N4  UNL     1     -17.936  -1.085 -22.236  1.00  0.00    -0.282 N 
ATOM     14  H3  UNL     1     -17.636  -2.945 -22.904  1.00  0.00     0.189 HD
HETATM   15  C4  UNL     1     -18.389   0.129 -22.557  1.00  0.00     0.160 A 
ATOM     16  H4  UNL     1     -17.563  -1.271 -21.305  1.00  0.00     0.188 HD
HETATM   17  S1  UNL     1     -18.455   1.492 -21.623  1.00  0.00    -0.051 SA
HETATM   18  S2  UNL     1     -18.885  -0.081 -24.173  1.00  0.00    -0.020 SA
ENDBRANCH   1  11
TORSDOF 3
ENDMDL
