MODEL 1
REMARK VINA RESULT: -7.458951730      0.000      0.000
REMARK  14 active torsions:
REMARK  status: ('A' for Active; 'I' for Inactive)
REMARK    1  A    between atoms: C1_2  and  C2_3 
REMARK       I    between atoms: C1_2  and  N1_12 
REMARK    2  A    between atoms: C2_3  and  C3_4 
REMARK    3  A    between atoms: C3_4  and  C4_5 
REMARK    4  A    between atoms: C4_5  and  C5_6 
REMARK    5  A    between atoms: C5_6  and  C6_7 
REMARK    6  A    between atoms: N1_12  and  C8_14 
REMARK    7  A    between atoms: C8_14  and  C9_15 
REMARK    8  A    between atoms: C9_15  and  S4_16 
REMARK    9  A    between atoms: S4_16  and  C10_17 
REMARK   10  A    between atoms: C11_19  and  C12_20 
REMARK   11  A    between atoms: C12_20  and  O3_21 
REMARK   12  A    between atoms: C13_23  and  O4_24 
REMARK   13  A    between atoms: C14_26  and  O5_27 
REMARK   14  A    between atoms: C15_29  and  O6_30 
ROOT
HETATM    1  S4  UNL     1     -10.307  18.484  27.823  1.00  0.00    -0.133 SA
ENDROOT
BRANCH   1   2
HETATM    2  C9  UNL     1     -11.064  19.048  26.338  1.00  0.00     0.096 C 
BRANCH   2   3
HETATM    3  C8  UNL     1     -11.498  20.487  26.432  1.00  0.00     0.133 C 
BRANCH   3   4
HETATM    4  N1  UNL     1     -12.115  20.753  27.732  1.00  0.00    -0.360 N 
HETATM    5  C1  UNL     1     -12.235  22.088  28.186  1.00  0.00     0.217 C 
HETATM    6  O1  UNL     1     -11.808  23.031  27.467  1.00  0.00    -0.274 OA
ATOM      7  H1  UNL     1     -12.457  19.983  28.307  1.00  0.00     0.162 HD
BRANCH   5   8
HETATM    8  C2  UNL     1     -12.846  22.432  29.486  1.00  0.00     0.103 C 
BRANCH   8   9
HETATM    9  C3  UNL     1     -13.955  21.472  29.822  1.00  0.00     0.009 C 
BRANCH   9  10
HETATM   10  C4  UNL     1     -15.155  21.673  28.916  1.00  0.00     0.002 C 
BRANCH  10  11
HETATM   11  C5  UNL     1     -15.644  20.387  28.325  1.00  0.00     0.017 C 
BRANCH  11  12
HETATM   12  C6  UNL     1     -15.913  20.536  26.882  1.00  0.00     0.069 C 
HETATM   13  C7  UNL     1     -15.287  21.711  26.217  1.00  0.00     0.102 C 
HETATM   14  S1  UNL     1     -16.095  21.838  24.563  1.00  0.00    -0.085 SA
HETATM   15  S2  UNL     1     -15.837  19.779  23.961  1.00  0.00    -0.024 SA
HETATM   16  S3  UNL     1     -15.353  19.054  25.938  1.00  0.00    -0.080 SA
ENDBRANCH  11  12
ENDBRANCH  10  11
ENDBRANCH   9  10
ENDBRANCH   8   9
ENDBRANCH   5   8
ENDBRANCH   3   4
ENDBRANCH   2   3
ENDBRANCH   1   2
BRANCH   1  17
HETATM   17  C10 UNL     1     -11.301  17.907  29.154  1.00  0.00     0.214 C 
HETATM   18  O2  UNL     1     -12.600  17.498  28.814  1.00  0.00    -0.363 OA
HETATM   19  C11 UNL     1     -13.425  17.648  29.920  1.00  0.00     0.178 C 
HETATM   20  C13 UNL     1     -12.753  17.753  31.240  1.00  0.00     0.180 C 
HETATM   21  C14 UNL     1     -11.450  17.057  31.405  1.00  0.00     0.181 C 
HETATM   22  C15 UNL     1     -10.737  16.855  30.056  1.00  0.00     0.188 C 
BRANCH  19  23
HETATM   23  C12 UNL     1     -14.453  16.533  29.877  1.00  0.00     0.198 C 
BRANCH  23  24
HETATM   24  O3  UNL     1     -13.780  15.310  29.748  1.00  0.00    -0.398 OA
ATOM     25  H3  UNL     1     -14.313  14.725  29.222  1.00  0.00     0.209 HD
ENDBRANCH  23  24
ENDBRANCH  19  23
BRANCH  20  26
HETATM   26  O4  UNL     1     -13.643  17.222  32.212  1.00  0.00    -0.390 OA
ATOM     27  H4  UNL     1     -13.345  17.521  33.063  1.00  0.00     0.210 HD
ENDBRANCH  20  26
BRANCH  21  28
HETATM   28  O5  UNL     1     -10.631  17.811  32.235  1.00  0.00    -0.390 OA
ATOM     29  H5  UNL     1      -9.983  17.243  32.636  1.00  0.00     0.210 HD
ENDBRANCH  21  28
BRANCH  22  30
HETATM   30  O6  UNL     1     -11.119  15.564  29.672  1.00  0.00    -0.389 OA
ATOM     31  H6  UNL     1     -10.382  15.041  29.378  1.00  0.00     0.210 HD
ENDBRANCH  22  30
ENDBRANCH   1  17
TORSDOF 14
ENDMDL
MODEL 2
REMARK VINA RESULT: -7.283755043      1.417      1.840
REMARK  14 active torsions:
REMARK  status: ('A' for Active; 'I' for Inactive)
REMARK    1  A    between atoms: C1_2  and  C2_3 
REMARK       I    between atoms: C1_2  and  N1_12 
REMARK    2  A    between atoms: C2_3  and  C3_4 
REMARK    3  A    between atoms: C3_4  and  C4_5 
REMARK    4  A    between atoms: C4_5  and  C5_6 
REMARK    5  A    between atoms: C5_6  and  C6_7 
REMARK    6  A    between atoms: N1_12  and  C8_14 
REMARK    7  A    between atoms: C8_14  and  C9_15 
REMARK    8  A    between atoms: C9_15  and  S4_16 
REMARK    9  A    between atoms: S4_16  and  C10_17 
REMARK   10  A    between atoms: C11_19  and  C12_20 
REMARK   11  A    between atoms: C12_20  and  O3_21 
REMARK   12  A    between atoms: C13_23  and  O4_24 
REMARK   13  A    between atoms: C14_26  and  O5_27 
REMARK   14  A    between atoms: C15_29  and  O6_30 
ROOT
HETATM    1  S4  UNL     1     -10.387  18.449  27.843  1.00  0.00    -0.133 SA
ENDROOT
BRANCH   1   2
HETATM    2  C9  UNL     1     -11.151  19.147  26.420  1.00  0.00     0.096 C 
BRANCH   2   3
HETATM    3  C8  UNL     1     -11.081  20.650  26.417  1.00  0.00     0.133 C 
BRANCH   3   4
HETATM    4  N1  UNL     1     -12.422  21.227  26.316  1.00  0.00    -0.360 N 
HETATM    5  C1  UNL     1     -12.683  22.490  26.899  1.00  0.00     0.217 C 
HETATM    6  O1  UNL     1     -11.759  23.102  27.497  1.00  0.00    -0.274 OA
ATOM      7  H1  UNL     1     -13.164  20.723  25.829  1.00  0.00     0.162 HD
BRANCH   5   8
HETATM    8  C2  UNL     1     -14.012  23.132  26.837  1.00  0.00     0.103 C 
BRANCH   8   9
HETATM    9  C3  UNL     1     -15.059  22.249  27.458  1.00  0.00     0.009 C 
BRANCH   9  10
HETATM   10  C4  UNL     1     -16.346  22.265  26.654  1.00  0.00     0.002 C 
BRANCH  10  11
HETATM   11  C5  UNL     1     -16.119  21.935  25.211  1.00  0.00     0.017 C 
BRANCH  11  12
HETATM   12  C6  UNL     1     -16.975  20.812  24.785  1.00  0.00     0.069 C 
HETATM   13  C7  UNL     1     -16.306  19.740  23.997  1.00  0.00     0.102 C 
HETATM   14  S1  UNL     1     -17.667  18.708  23.300  1.00  0.00    -0.085 SA
HETATM   15  S2  UNL     1     -18.762  18.405  25.138  1.00  0.00    -0.024 SA
HETATM   16  S3  UNL     1     -17.753  19.973  26.230  1.00  0.00    -0.080 SA
ENDBRANCH  11  12
ENDBRANCH  10  11
ENDBRANCH   9  10
ENDBRANCH   8   9
ENDBRANCH   5   8
ENDBRANCH   3   4
ENDBRANCH   2   3
ENDBRANCH   1   2
BRANCH   1  17
HETATM   17  C10 UNL     1     -11.374  17.865  29.175  1.00  0.00     0.214 C 
HETATM   18  O2  UNL     1     -12.651  17.396  28.829  1.00  0.00    -0.363 OA
HETATM   19  C11 UNL     1     -13.496  17.539  29.922  1.00  0.00     0.178 C 
HETATM   20  C13 UNL     1     -12.847  17.705  31.246  1.00  0.00     0.180 C 
HETATM   21  C14 UNL     1     -11.519  17.066  31.445  1.00  0.00     0.181 C 
HETATM   22  C15 UNL     1     -10.781  16.859  30.110  1.00  0.00     0.188 C 
BRANCH  19  23
HETATM   23  C12 UNL     1     -14.479  16.383  29.894  1.00  0.00     0.198 C 
BRANCH  23  24
HETATM   24  O3  UNL     1     -13.768  15.199  29.652  1.00  0.00    -0.398 OA
ATOM     25  H3  UNL     1     -13.152  15.354  28.946  1.00  0.00     0.209 HD
ENDBRANCH  23  24
ENDBRANCH  19  23
BRANCH  20  26
HETATM   26  O4  UNL     1     -13.728  17.162  32.220  1.00  0.00    -0.390 OA
ATOM     27  H4  UNL     1     -14.059  17.886  32.738  1.00  0.00     0.210 HD
ENDBRANCH  20  26
BRANCH  21  28
HETATM   28  O5  UNL     1     -10.742  17.872  32.266  1.00  0.00    -0.390 OA
ATOM     29  H5  UNL     1     -11.307  18.345  32.866  1.00  0.00     0.210 HD
ENDBRANCH  21  28
BRANCH  22  30
HETATM   30  O6  UNL     1     -11.106  15.545  29.754  1.00  0.00    -0.389 OA
ATOM     31  H6  UNL     1     -11.874  15.500  29.196  1.00  0.00     0.210 HD
ENDBRANCH  22  30
ENDBRANCH   1  17
TORSDOF 14
ENDMDL
MODEL 3
REMARK VINA RESULT: -7.270826795      2.204      3.458
REMARK  14 active torsions:
REMARK  status: ('A' for Active; 'I' for Inactive)
REMARK    1  A    between atoms: C1_2  and  C2_3 
REMARK       I    between atoms: C1_2  and  N1_12 
REMARK    2  A    between atoms: C2_3  and  C3_4 
REMARK    3  A    between atoms: C3_4  and  C4_5 
REMARK    4  A    between atoms: C4_5  and  C5_6 
REMARK    5  A    between atoms: C5_6  and  C6_7 
REMARK    6  A    between atoms: N1_12  and  C8_14 
REMARK    7  A    between atoms: C8_14  and  C9_15 
REMARK    8  A    between atoms: C9_15  and  S4_16 
REMARK    9  A    between atoms: S4_16  and  C10_17 
REMARK   10  A    between atoms: C11_19  and  C12_20 
REMARK   11  A    between atoms: C12_20  and  O3_21 
REMARK   12  A    between atoms: C13_23  and  O4_24 
REMARK   13  A    between atoms: C14_26  and  O5_27 
REMARK   14  A    between atoms: C15_29  and  O6_30 
ROOT
HETATM    1  S4  UNL     1     -12.900  18.598  27.163  1.00  0.00    -0.133 SA
ENDROOT
BRANCH   1   2
HETATM    2  C9  UNL     1     -12.093  20.131  26.850  1.00  0.00     0.096 C 
BRANCH   2   3
HETATM    3  C8  UNL     1     -12.674  21.256  27.664  1.00  0.00     0.133 C 
BRANCH   3   4
HETATM    4  N1  UNL     1     -14.078  21.472  27.312  1.00  0.00    -0.360 N 
HETATM    5  C1  UNL     1     -15.025  21.706  28.337  1.00  0.00     0.217 C 
HETATM    6  O1  UNL     1     -14.650  21.724  29.539  1.00  0.00    -0.274 OA
ATOM      7  H1  UNL     1     -14.372  21.455  26.335  1.00  0.00     0.162 HD
BRANCH   5   8
HETATM    8  C2  UNL     1     -16.458  21.932  28.056  1.00  0.00     0.103 C 
BRANCH   8   9
HETATM    9  C3  UNL     1     -16.653  22.416  26.645  1.00  0.00     0.009 C 
BRANCH   9  10
HETATM   10  C4  UNL     1     -17.044  21.280  25.718  1.00  0.00     0.002 C 
BRANCH  10  11
HETATM   11  C5  UNL     1     -17.677  20.139  26.452  1.00  0.00     0.017 C 
BRANCH  11  12
HETATM   12  C6  UNL     1     -18.031  19.045  25.528  1.00  0.00     0.069 C 
HETATM   13  C7  UNL     1     -19.456  18.614  25.536  1.00  0.00     0.102 C 
HETATM   14  S1  UNL     1     -19.504  17.028  24.595  1.00  0.00    -0.085 SA
HETATM   15  S2  UNL     1     -18.413  17.697  22.854  1.00  0.00    -0.024 SA
HETATM   16  S3  UNL     1     -17.641  19.489  23.781  1.00  0.00    -0.080 SA
ENDBRANCH  11  12
ENDBRANCH  10  11
ENDBRANCH   9  10
ENDBRANCH   8   9
ENDBRANCH   5   8
ENDBRANCH   3   4
ENDBRANCH   2   3
ENDBRANCH   1   2
BRANCH   1  17
HETATM   17  C10 UNL     1     -12.828  17.876  28.764  1.00  0.00     0.214 C 
HETATM   18  O2  UNL     1     -11.649  18.114  29.489  1.00  0.00    -0.363 OA
HETATM   19  C11 UNL     1     -11.456  17.075  30.390  1.00  0.00     0.178 C 
HETATM   20  C13 UNL     1     -12.643  16.245  30.710  1.00  0.00     0.180 C 
HETATM   21  C14 UNL     1     -13.977  16.899  30.644  1.00  0.00     0.181 C 
HETATM   22  C15 UNL     1     -13.968  18.116  29.702  1.00  0.00     0.188 C 
BRANCH  19  23
HETATM   23  C12 UNL     1     -10.802  17.660  31.628  1.00  0.00     0.198 C 
BRANCH  23  24
HETATM   24  O3  UNL     1      -9.614  16.958  31.879  1.00  0.00    -0.398 OA
ATOM     25  H3  UNL     1      -9.822  16.184  32.389  1.00  0.00     0.209 HD
ENDBRANCH  23  24
ENDBRANCH  19  23
BRANCH  20  26
HETATM   26  O4  UNL     1     -12.475  15.759  32.035  1.00  0.00    -0.390 OA
ATOM     27  H4  UNL     1     -12.209  14.849  31.972  1.00  0.00     0.210 HD
ENDBRANCH  20  26
BRANCH  21  28
HETATM   28  O5  UNL     1     -14.913  15.982  30.184  1.00  0.00    -0.390 OA
ATOM     29  H5  UNL     1     -15.762  16.405  30.123  1.00  0.00     0.210 HD
ENDBRANCH  21  28
BRANCH  22  30
HETATM   30  O6  UNL     1     -13.734  19.196  30.561  1.00  0.00    -0.389 OA
ATOM     31  H6  UNL     1     -13.571  20.004  30.090  1.00  0.00     0.210 HD
ENDBRANCH  22  30
ENDBRANCH   1  17
TORSDOF 14
ENDMDL
MODEL 4
REMARK VINA RESULT: -7.242621202      1.565      2.620
REMARK  14 active torsions:
REMARK  status: ('A' for Active; 'I' for Inactive)
REMARK    1  A    between atoms: C1_2  and  C2_3 
REMARK       I    between atoms: C1_2  and  N1_12 
REMARK    2  A    between atoms: C2_3  and  C3_4 
REMARK    3  A    between atoms: C3_4  and  C4_5 
REMARK    4  A    between atoms: C4_5  and  C5_6 
REMARK    5  A    between atoms: C5_6  and  C6_7 
REMARK    6  A    between atoms: N1_12  and  C8_14 
REMARK    7  A    between atoms: C8_14  and  C9_15 
REMARK    8  A    between atoms: C9_15  and  S4_16 
REMARK    9  A    between atoms: S4_16  and  C10_17 
REMARK   10  A    between atoms: C11_19  and  C12_20 
REMARK   11  A    between atoms: C12_20  and  O3_21 
REMARK   12  A    between atoms: C13_23  and  O4_24 
REMARK   13  A    between atoms: C14_26  and  O5_27 
REMARK   14  A    between atoms: C15_29  and  O6_30 
ROOT
HETATM    1  S4  UNL     1     -12.672  18.431  27.108  1.00  0.00    -0.133 SA
ENDROOT
BRANCH   1   2
HETATM    2  C9  UNL     1     -11.193  19.108  26.436  1.00  0.00     0.096 C 
BRANCH   2   3
HETATM    3  C8  UNL     1     -11.248  20.609  26.338  1.00  0.00     0.133 C 
BRANCH   3   4
HETATM    4  N1  UNL     1     -12.614  21.088  26.551  1.00  0.00    -0.360 N 
HETATM    5  C1  UNL     1     -12.824  22.336  27.186  1.00  0.00     0.217 C 
HETATM    6  O1  UNL     1     -11.833  23.019  27.559  1.00  0.00    -0.274 OA
ATOM      7  H1  UNL     1     -13.410  20.528  26.245  1.00  0.00     0.162 HD
BRANCH   5   8
HETATM    8  C2  UNL     1     -14.174  22.882  27.435  1.00  0.00     0.103 C 
BRANCH   8   9
HETATM    9  C3  UNL     1     -14.947  21.984  28.362  1.00  0.00     0.009 C 
BRANCH   9  10
HETATM   10  C4  UNL     1     -16.417  21.938  27.990  1.00  0.00     0.002 C 
BRANCH  10  11
HETATM   11  C5  UNL     1     -16.662  22.382  26.581  1.00  0.00     0.017 C 
BRANCH  11  12
HETATM   12  C6  UNL     1     -17.003  21.236  25.717  1.00  0.00     0.069 C 
HETATM   13  C7  UNL     1     -15.882  20.651  24.931  1.00  0.00     0.102 C 
HETATM   14  S1  UNL     1     -16.670  19.528  23.697  1.00  0.00    -0.085 SA
HETATM   15  S2  UNL     1     -17.932  18.438  25.070  1.00  0.00    -0.024 SA
HETATM   16  S3  UNL     1     -17.721  19.848  26.694  1.00  0.00    -0.080 SA
ENDBRANCH  11  12
ENDBRANCH  10  11
ENDBRANCH   9  10
ENDBRANCH   8   9
ENDBRANCH   5   8
ENDBRANCH   3   4
ENDBRANCH   2   3
ENDBRANCH   1   2
BRANCH   1  17
HETATM   17  C10 UNL     1     -12.675  17.763  28.734  1.00  0.00     0.214 C 
HETATM   18  O2  UNL     1     -11.531  18.026  29.504  1.00  0.00    -0.363 OA
HETATM   19  C11 UNL     1     -11.380  17.017  30.447  1.00  0.00     0.178 C 
HETATM   20  C13 UNL     1     -12.581  16.196  30.739  1.00  0.00     0.180 C 
HETATM   21  C14 UNL     1     -13.911  16.846  30.590  1.00  0.00     0.181 C 
HETATM   22  C15 UNL     1     -13.858  18.031  29.609  1.00  0.00     0.188 C 
BRANCH  19  23
HETATM   23  C12 UNL     1     -10.785  17.644  31.694  1.00  0.00     0.198 C 
BRANCH  23  24
HETATM   24  O3  UNL     1      -9.594  16.973  32.006  1.00  0.00    -0.398 OA
ATOM     25  H3  UNL     1      -9.809  16.179  32.481  1.00  0.00     0.209 HD
ENDBRANCH  23  24
ENDBRANCH  19  23
BRANCH  20  26
HETATM   26  O4  UNL     1     -12.476  15.755  32.086  1.00  0.00    -0.390 OA
ATOM     27  H4  UNL     1     -12.748  14.845  32.108  1.00  0.00     0.210 HD
ENDBRANCH  20  26
BRANCH  21  28
HETATM   28  O5  UNL     1     -14.825  15.913  30.117  1.00  0.00    -0.390 OA
ATOM     29  H5  UNL     1     -15.562  15.867  30.714  1.00  0.00     0.210 HD
ENDBRANCH  21  28
BRANCH  22  30
HETATM   30  O6  UNL     1     -13.664  19.140  30.442  1.00  0.00    -0.389 OA
ATOM     31  H6  UNL     1     -14.048  19.017  31.302  1.00  0.00     0.210 HD
ENDBRANCH  22  30
ENDBRANCH   1  17
TORSDOF 14
ENDMDL
MODEL 5
REMARK VINA RESULT: -7.180316651      4.161      6.779
REMARK  14 active torsions:
REMARK  status: ('A' for Active; 'I' for Inactive)
REMARK    1  A    between atoms: C1_2  and  C2_3 
REMARK       I    between atoms: C1_2  and  N1_12 
REMARK    2  A    between atoms: C2_3  and  C3_4 
REMARK    3  A    between atoms: C3_4  and  C4_5 
REMARK    4  A    between atoms: C4_5  and  C5_6 
REMARK    5  A    between atoms: C5_6  and  C6_7 
REMARK    6  A    between atoms: N1_12  and  C8_14 
REMARK    7  A    between atoms: C8_14  and  C9_15 
REMARK    8  A    between atoms: C9_15  and  S4_16 
REMARK    9  A    between atoms: S4_16  and  C10_17 
REMARK   10  A    between atoms: C11_19  and  C12_20 
REMARK   11  A    between atoms: C12_20  and  O3_21 
REMARK   12  A    between atoms: C13_23  and  O4_24 
REMARK   13  A    between atoms: C14_26  and  O5_27 
REMARK   14  A    between atoms: C15_29  and  O6_30 
ROOT
HETATM    1  S4  UNL     1     -12.866  19.237  27.370  1.00  0.00    -0.133 SA
ENDROOT
BRANCH   1   2
HETATM    2  C9  UNL     1     -14.114  18.003  27.240  1.00  0.00     0.096 C 
BRANCH   2   3
HETATM    3  C8  UNL     1     -15.495  18.597  27.156  1.00  0.00     0.133 C 
BRANCH   3   4
HETATM    4  N1  UNL     1     -15.952  18.641  25.767  1.00  0.00    -0.360 N 
HETATM    5  C1  UNL     1     -16.854  19.654  25.362  1.00  0.00     0.217 C 
HETATM    6  O1  UNL     1     -17.252  20.505  26.201  1.00  0.00    -0.274 OA
ATOM      7  H1  UNL     1     -15.624  17.947  25.095  1.00  0.00     0.162 HD
BRANCH   5   8
HETATM    8  C2  UNL     1     -17.358  19.759  23.978  1.00  0.00     0.103 C 
BRANCH   8   9
HETATM    9  C3  UNL     1     -17.551  18.393  23.377  1.00  0.00     0.009 C 
BRANCH   9  10
HETATM   10  C4  UNL     1     -19.006  17.967  23.425  1.00  0.00     0.002 C 
BRANCH  10  11
HETATM   11  C5  UNL     1     -19.284  17.019  24.550  1.00  0.00     0.017 C 
BRANCH  11  12
HETATM   12  C6  UNL     1     -20.448  17.463  25.341  1.00  0.00     0.069 C 
HETATM   13  C7  UNL     1     -20.200  18.569  26.307  1.00  0.00     0.102 C 
HETATM   14  S1  UNL     1     -21.696  18.635  27.385  1.00  0.00    -0.085 SA
HETATM   15  S2  UNL     1     -23.178  18.660  25.813  1.00  0.00    -0.024 SA
HETATM   16  S3  UNL     1     -21.822  18.033  24.253  1.00  0.00    -0.080 SA
ENDBRANCH  11  12
ENDBRANCH  10  11
ENDBRANCH   9  10
ENDBRANCH   8   9
ENDBRANCH   5   8
ENDBRANCH   3   4
ENDBRANCH   2   3
ENDBRANCH   1   2
BRANCH   1  17
HETATM   17  C10 UNL     1     -13.146  20.844  26.712  1.00  0.00     0.214 C 
HETATM   18  O2  UNL     1     -13.908  20.898  25.535  1.00  0.00    -0.363 OA
HETATM   19  C11 UNL     1     -13.564  22.041  24.826  1.00  0.00     0.178 C 
HETATM   20  C13 UNL     1     -12.875  23.112  25.588  1.00  0.00     0.180 C 
HETATM   21  C14 UNL     1     -13.183  23.232  27.037  1.00  0.00     0.181 C 
HETATM   22  C15 UNL     1     -13.682  21.900  27.625  1.00  0.00     0.188 C 
BRANCH  19  23
HETATM   23  C12 UNL     1     -14.815  22.537  24.125  1.00  0.00     0.198 C 
BRANCH  23  24
HETATM   24  O3  UNL     1     -15.784  22.829  25.094  1.00  0.00    -0.398 OA
ATOM     25  H3  UNL     1     -16.440  22.143  25.083  1.00  0.00     0.209 HD
ENDBRANCH  23  24
ENDBRANCH  19  23
BRANCH  20  26
HETATM   26  O4  UNL     1     -13.214  24.350  24.979  1.00  0.00    -0.390 OA
ATOM     27  H4  UNL     1     -12.621  24.479  24.248  1.00  0.00     0.210 HD
ENDBRANCH  20  26
BRANCH  21  28
HETATM   28  O5  UNL     1     -12.037  23.621  27.718  1.00  0.00    -0.390 OA
ATOM     29  H5  UNL     1     -12.227  24.397  28.233  1.00  0.00     0.210 HD
ENDBRANCH  21  28
BRANCH  22  30
HETATM   30  O6  UNL     1     -15.076  22.009  27.552  1.00  0.00    -0.389 OA
ATOM     31  H6  UNL     1     -15.494  21.881  28.396  1.00  0.00     0.210 HD
ENDBRANCH  22  30
ENDBRANCH   1  17
TORSDOF 14
ENDMDL
