MODEL 1
REMARK VINA RESULT: -8.336097474      0.000      0.000
REMARK  5 active torsions:
REMARK  status: ('A' for Active; 'I' for Inactive)
REMARK    1  A    between atoms: N1_1  and  C1_4 
REMARK    2  A    between atoms: C3_10  and  N4_11 
REMARK    3  A    between atoms: N5_17  and  C9_18 
REMARK    4  A    between atoms: C11_22  and  C12_23 
REMARK       I    between atoms: C12_23  and  N7_25 
REMARK    5  A    between atoms: N7_25  and  C13_27 
ROOT
HETATM    1  N4  UNL     1       2.705  41.325 -20.120  1.00  0.00    -0.365 N 
HETATM    2  C4  UNL     1       4.005  41.860 -20.473  1.00  0.00     0.125 C 
HETATM    3  C5  UNL     1       4.170  41.513 -21.946  1.00  0.00     0.033 C 
HETATM    4  C6  UNL     1       3.443  40.225 -22.062  1.00  0.00    -0.004 C 
HETATM    5  C7  UNL     1       2.899  39.976 -23.463  1.00  0.00     0.033 C 
HETATM    6  C8  UNL     1       2.564  38.485 -23.332  1.00  0.00     0.142 C 
HETATM    7  N5  UNL     1       3.798  37.993 -22.770  1.00  0.00    -0.217 N 
HETATM    8  C17 UNL     1       4.299  39.002 -21.872  1.00  0.00     0.152 C 
HETATM    9  C18 UNL     1       2.310  40.338 -21.102  1.00  0.00     0.135 C 
ENDROOT
BRANCH   7  10
HETATM   10  C9  UNL     1       4.368  36.732 -23.082  1.00  0.00     0.679 A 
HETATM   11  N6  UNL     1       5.678  36.468 -22.887  1.00  0.00    -0.201 N 
HETATM   12  C10 UNL     1       6.261  35.293 -23.165  1.00  0.00     0.124 A 
ATOM     13  H6  UNL     1       6.262  37.210 -22.503  1.00  0.00     0.183 HD
HETATM   14  C11 UNL     1       5.506  34.276 -23.684  1.00  0.00     0.063 A 
HETATM   15  C16 UNL     1       4.162  34.536 -23.889  1.00  0.00     0.124 A 
HETATM   16  N8  UNL     1       3.641  35.718 -23.593  1.00  0.00    -0.201 N 
ATOM     17  H8  UNL     1       2.646  35.868 -23.760  1.00  0.00     0.183 HD
BRANCH  14  18
HETATM   18  C12 UNL     1       6.064  32.963 -24.017  1.00  0.00     0.254 C 
HETATM   19  O1  UNL     1       7.325  32.827 -23.964  1.00  0.00    -0.268 OA
HETATM   20  N7  UNL     1       5.290  31.856 -24.386  1.00  0.00    -0.352 N 
ATOM     21  H7  UNL     1       4.275  31.944 -24.434  1.00  0.00     0.163 HD
BRANCH  20  22
HETATM   22  C13 UNL     1       5.912  30.589 -24.700  1.00  0.00     0.084 A 
HETATM   23  C14 UNL     1       4.910  29.483 -25.038  1.00  0.00     0.027 A 
HETATM   24  C15 UNL     1       5.865  30.057 -26.086  1.00  0.00     0.027 A 
ENDBRANCH  20  22
ENDBRANCH  14  18
ENDBRANCH   7  10
BRANCH   1  25
HETATM   25  C3  UNL     1       1.915  41.691 -18.997  1.00  0.00     0.130 A 
HETATM   26  N3  UNL     1       1.122  42.775 -19.033  1.00  0.00    -0.337 N 
HETATM   27  C2  UNL     1       0.369  43.144 -17.988  1.00  0.00     0.183 A 
ATOM     28  H3  UNL     1       1.091  43.336 -19.884  1.00  0.00     0.168 HD
HETATM   29  N2  UNL     1       0.398  42.415 -16.864  1.00  0.00    -0.337 N 
HETATM   30  C1  UNL     1       1.166  41.321 -16.755  1.00  0.00     0.125 A 
ATOM     31  H2  UNL     1      -0.178  42.699 -16.071  1.00  0.00     0.168 HD
HETATM   32  C19 UNL     1       1.927  40.958 -17.829  1.00  0.00     0.121 A 
HETATM   33 CL1  UNL     1       2.941  39.536 -17.721  1.00  0.00    -0.076 Cl
BRANCH  30  34
HETATM   34  N1  UNL     1       1.160  40.662 -15.665  1.00  0.00    -0.384 N 
ATOM     35  H12 UNL     1       0.527  39.879 -15.501  1.00  0.00     0.157 HD
ATOM     36  H11 UNL     1       1.809  40.921 -14.923  1.00  0.00     0.157 HD
ENDBRANCH  30  34
ENDBRANCH   1  25
TORSDOF 5
ENDMDL
MODEL 2
REMARK VINA RESULT: -8.237184411      3.731      4.653
REMARK  5 active torsions:
REMARK  status: ('A' for Active; 'I' for Inactive)
REMARK    1  A    between atoms: N1_1  and  C1_4 
REMARK    2  A    between atoms: C3_10  and  N4_11 
REMARK    3  A    between atoms: N5_17  and  C9_18 
REMARK    4  A    between atoms: C11_22  and  C12_23 
REMARK       I    between atoms: C12_23  and  N7_25 
REMARK    5  A    between atoms: N7_25  and  C13_27 
ROOT
HETATM    1  N4  UNL     1       5.941  42.232 -22.583  1.00  0.00    -0.365 N 
HETATM    2  C4  UNL     1       5.766  42.383 -24.014  1.00  0.00     0.125 C 
HETATM    3  C5  UNL     1       4.393  41.788 -24.293  1.00  0.00     0.033 C 
HETATM    4  C6  UNL     1       4.293  40.707 -23.281  1.00  0.00    -0.004 C 
HETATM    5  C7  UNL     1       2.854  40.386 -22.897  1.00  0.00     0.033 C 
HETATM    6  C8  UNL     1       3.089  39.055 -22.172  1.00  0.00     0.142 C 
HETATM    7  N5  UNL     1       3.911  38.374 -23.142  1.00  0.00    -0.217 N 
HETATM    8  C17 UNL     1       4.766  39.359 -23.754  1.00  0.00     0.152 C 
HETATM    9  C18 UNL     1       5.020  41.231 -22.091  1.00  0.00     0.135 C 
ENDROOT
BRANCH   7  10
HETATM   10  C9  UNL     1       3.846  36.982 -23.404  1.00  0.00     0.679 A 
HETATM   11  N6  UNL     1       4.864  36.146 -23.108  1.00  0.00    -0.201 N 
HETATM   12  C10 UNL     1       4.848  34.825 -23.336  1.00  0.00     0.124 A 
ATOM     13  H6  UNL     1       5.700  36.545 -22.683  1.00  0.00     0.183 HD
HETATM   14  C11 UNL     1       3.741  34.257 -23.908  1.00  0.00     0.063 A 
HETATM   15  C16 UNL     1       2.691  35.104 -24.217  1.00  0.00     0.124 A 
HETATM   16  N8  UNL     1       2.765  36.404 -23.966  1.00  0.00    -0.201 N 
ATOM     17  H8  UNL     1       1.969  36.993 -24.210  1.00  0.00     0.183 HD
BRANCH  14  18
HETATM   18  C12 UNL     1       3.641  32.824 -24.192  1.00  0.00     0.254 C 
HETATM   19  O1  UNL     1       2.776  32.153 -23.548  1.00  0.00    -0.268 OA
HETATM   20  N7  UNL     1       4.439  32.155 -25.128  1.00  0.00    -0.352 N 
ATOM     21  H7  UNL     1       5.140  32.675 -25.655  1.00  0.00     0.163 HD
BRANCH  20  22
HETATM   22  C13 UNL     1       4.283  30.736 -25.355  1.00  0.00     0.084 A 
HETATM   23  C14 UNL     1       5.356  30.141 -26.270  1.00  0.00     0.027 A 
HETATM   24  C15 UNL     1       5.264  29.775 -24.787  1.00  0.00     0.027 A 
ENDBRANCH  20  22
ENDBRANCH  14  18
ENDBRANCH   7  10
BRANCH   1  25
HETATM   25  C3  UNL     1       6.859  42.942 -21.763  1.00  0.00     0.130 A 
HETATM   26  N3  UNL     1       6.452  43.965 -20.993  1.00  0.00    -0.337 N 
HETATM   27  C2  UNL     1       7.297  44.651 -20.212  1.00  0.00     0.183 A 
ATOM     28  H3  UNL     1       5.466  44.228 -21.002  1.00  0.00     0.168 HD
HETATM   29  N2  UNL     1       8.594  44.316 -20.189  1.00  0.00    -0.337 N 
HETATM   30  C1  UNL     1       9.073  43.307 -20.931  1.00  0.00     0.125 A 
ATOM     31  H2  UNL     1       9.233  44.841 -19.592  1.00  0.00     0.168 HD
HETATM   32  C19 UNL     1       8.198  42.616 -21.721  1.00  0.00     0.121 A 
HETATM   33 CL1  UNL     1       8.790  41.293 -22.702  1.00  0.00    -0.076 Cl
BRANCH  30  34
HETATM   34  N1  UNL     1      10.314  43.027 -20.875  1.00  0.00    -0.384 N 
ATOM     35  H12 UNL     1      11.014  43.523 -21.427  1.00  0.00     0.157 HD
ATOM     36  H11 UNL     1      10.629  42.279 -20.258  1.00  0.00     0.157 HD
ENDBRANCH  30  34
ENDBRANCH   1  25
TORSDOF 5
ENDMDL
MODEL 3
REMARK VINA RESULT: -7.989643899      3.862      4.823
REMARK  5 active torsions:
REMARK  status: ('A' for Active; 'I' for Inactive)
REMARK    1  A    between atoms: N1_1  and  C1_4 
REMARK    2  A    between atoms: C3_10  and  N4_11 
REMARK    3  A    between atoms: N5_17  and  C9_18 
REMARK    4  A    between atoms: C11_22  and  C12_23 
REMARK       I    between atoms: C12_23  and  N7_25 
REMARK    5  A    between atoms: N7_25  and  C13_27 
ROOT
HETATM    1  N4  UNL     1       6.472  41.820 -22.846  1.00  0.00    -0.365 N 
HETATM    2  C4  UNL     1       6.267  41.988 -24.271  1.00  0.00     0.125 C 
HETATM    3  C5  UNL     1       4.835  41.526 -24.505  1.00  0.00     0.033 C 
HETATM    4  C6  UNL     1       4.666  40.458 -23.489  1.00  0.00    -0.004 C 
HETATM    5  C7  UNL     1       3.216  40.275 -23.059  1.00  0.00     0.033 C 
HETATM    6  C8  UNL     1       3.346  38.927 -22.339  1.00  0.00     0.142 C 
HETATM    7  N5  UNL     1       4.069  38.172 -23.333  1.00  0.00    -0.217 N 
HETATM    8  C17 UNL     1       4.993  39.072 -23.974  1.00  0.00     0.152 C 
HETATM    9  C18 UNL     1       5.476  40.910 -22.323  1.00  0.00     0.135 C 
ENDROOT
BRANCH   7  10
HETATM   10  C9  UNL     1       3.864  36.793 -23.591  1.00  0.00     0.679 A 
HETATM   11  N6  UNL     1       2.811  36.344 -24.309  1.00  0.00    -0.201 N 
HETATM   12  C10 UNL     1       2.577  35.052 -24.579  1.00  0.00     0.124 A 
ATOM     13  H6  UNL     1       2.152  37.033 -24.669  1.00  0.00     0.183 HD
HETATM   14  C11 UNL     1       3.443  34.101 -24.108  1.00  0.00     0.063 A 
HETATM   15  C16 UNL     1       4.525  34.549 -23.371  1.00  0.00     0.124 A 
HETATM   16  N8  UNL     1       4.704  35.841 -23.137  1.00  0.00    -0.201 N 
ATOM     17  H8  UNL     1       5.515  36.129 -22.589  1.00  0.00     0.183 HD
BRANCH  14  18
HETATM   18  C12 UNL     1       3.260  32.669 -24.357  1.00  0.00     0.254 C 
HETATM   19  O1  UNL     1       2.216  32.117 -23.891  1.00  0.00    -0.268 OA
HETATM   20  N7  UNL     1       4.165  31.879 -25.075  1.00  0.00    -0.352 N 
ATOM     21  H7  UNL     1       5.011  32.303 -25.458  1.00  0.00     0.163 HD
BRANCH  20  22
HETATM   22  C13 UNL     1       3.918  30.470 -25.281  1.00  0.00     0.084 A 
HETATM   23  C14 UNL     1       4.895  29.813 -26.260  1.00  0.00     0.027 A 
HETATM   24  C15 UNL     1       4.880  29.459 -24.771  1.00  0.00     0.027 A 
ENDBRANCH  20  22
ENDBRANCH  14  18
ENDBRANCH   7  10
BRANCH   1  25
HETATM   25  C3  UNL     1       7.479  42.438 -22.057  1.00  0.00     0.130 A 
HETATM   26  N3  UNL     1       8.782  42.206 -22.290  1.00  0.00    -0.337 N 
HETATM   27  C2  UNL     1       9.750  42.775 -21.560  1.00  0.00     0.183 A 
ATOM     28  H3  UNL     1       9.042  41.575 -23.048  1.00  0.00     0.168 HD
HETATM   29  N2  UNL     1       9.422  43.606 -20.561  1.00  0.00    -0.337 N 
HETATM   30  C1  UNL     1       8.144  43.885 -20.271  1.00  0.00     0.125 A 
ATOM     31  H2  UNL     1      10.163  44.037 -20.009  1.00  0.00     0.168 HD
HETATM   32  C19 UNL     1       7.167  43.298 -21.024  1.00  0.00     0.121 A 
HETATM   33 CL1  UNL     1       5.488  43.641 -20.671  1.00  0.00    -0.076 Cl
BRANCH  30  34
HETATM   34  N1  UNL     1       7.882  44.681 -19.311  1.00  0.00    -0.384 N 
ATOM     35  H12 UNL     1       7.962  45.694 -19.401  1.00  0.00     0.157 HD
ATOM     36  H11 UNL     1       7.581  44.300 -18.415  1.00  0.00     0.157 HD
ENDBRANCH  30  34
ENDBRANCH   1  25
TORSDOF 5
ENDMDL
MODEL 4
REMARK VINA RESULT: -7.985740210      3.943      5.413
REMARK  5 active torsions:
REMARK  status: ('A' for Active; 'I' for Inactive)
REMARK    1  A    between atoms: N1_1  and  C1_4 
REMARK    2  A    between atoms: C3_10  and  N4_11 
REMARK    3  A    between atoms: N5_17  and  C9_18 
REMARK    4  A    between atoms: C11_22  and  C12_23 
REMARK       I    between atoms: C12_23  and  N7_25 
REMARK    5  A    between atoms: N7_25  and  C13_27 
ROOT
HETATM    1  N4  UNL     1       5.922  42.859 -22.321  1.00  0.00    -0.365 N 
HETATM    2  C4  UNL     1       5.559  43.234 -23.674  1.00  0.00     0.125 C 
HETATM    3  C5  UNL     1       4.065  42.949 -23.757  1.00  0.00     0.033 C 
HETATM    4  C6  UNL     1       3.905  41.778 -22.860  1.00  0.00    -0.004 C 
HETATM    5  C7  UNL     1       2.510  41.682 -22.256  1.00  0.00     0.033 C 
HETATM    6  C8  UNL     1       2.574  40.244 -21.726  1.00  0.00     0.142 C 
HETATM    7  N5  UNL     1       3.074  39.560 -22.894  1.00  0.00    -0.217 N 
HETATM    8  C17 UNL     1       4.007  40.443 -23.547  1.00  0.00     0.152 C 
HETATM    9  C18 UNL     1       4.903  41.989 -21.775  1.00  0.00     0.135 C 
ENDROOT
BRANCH   7  10
HETATM   10  C9  UNL     1       2.681  38.254 -23.282  1.00  0.00     0.679 A 
HETATM   11  N6  UNL     1       1.419  37.968 -23.671  1.00  0.00    -0.201 N 
HETATM   12  C10 UNL     1       1.002  36.751 -24.046  1.00  0.00     0.124 A 
ATOM     13  H6  UNL     1       0.740  38.728 -23.679  1.00  0.00     0.183 HD
HETATM   14  C11 UNL     1       1.889  35.709 -24.045  1.00  0.00     0.063 A 
HETATM   15  C16 UNL     1       3.185  35.989 -23.647  1.00  0.00     0.124 A 
HETATM   16  N8  UNL     1       3.539  37.214 -23.287  1.00  0.00    -0.201 N 
ATOM     17  H8  UNL     1       4.504  37.378 -23.001  1.00  0.00     0.183 HD
BRANCH  14  18
HETATM   18  C12 UNL     1       1.516  34.348 -24.440  1.00  0.00     0.254 C 
HETATM   19  O1  UNL     1       0.441  34.198 -25.098  1.00  0.00    -0.268 OA
HETATM   20  N7  UNL     1       2.273  33.210 -24.136  1.00  0.00    -0.352 N 
ATOM     21  H7  UNL     1       3.141  33.309 -23.608  1.00  0.00     0.163 HD
BRANCH  20  22
HETATM   22  C13 UNL     1       1.842  31.898 -24.560  1.00  0.00     0.084 A 
HETATM   23  C14 UNL     1       2.895  30.808 -24.347  1.00  0.00     0.027 A 
HETATM   24  C15 UNL     1       1.586  30.834 -23.555  1.00  0.00     0.027 A 
ENDBRANCH  20  22
ENDBRANCH  14  18
ENDBRANCH   7  10
BRANCH   1  25
HETATM   25  C3  UNL     1       7.085  43.266 -21.614  1.00  0.00     0.130 A 
HETATM   26  N3  UNL     1       7.040  44.277 -20.730  1.00  0.00    -0.337 N 
HETATM   27  C2  UNL     1       8.122  44.681 -20.051  1.00  0.00     0.183 A 
ATOM     28  H3  UNL     1       6.151  44.753 -20.570  1.00  0.00     0.168 HD
HETATM   29  N2  UNL     1       9.294  44.064 -20.251  1.00  0.00    -0.337 N 
HETATM   30  C1  UNL     1       9.416  43.048 -21.117  1.00  0.00     0.125 A 
ATOM     31  H2  UNL     1      10.115  44.375 -19.731  1.00  0.00     0.168 HD
HETATM   32  C19 UNL     1       8.303  42.647 -21.801  1.00  0.00     0.121 A 
HETATM   33 CL1  UNL     1       8.427  41.324 -22.939  1.00  0.00    -0.076 Cl
BRANCH  30  34
HETATM   34  N1  UNL     1      10.552  42.494 -21.272  1.00  0.00    -0.384 N 
ATOM     35  H12 UNL     1      10.889  42.180 -22.182  1.00  0.00     0.157 HD
ATOM     36  H11 UNL     1      11.154  42.356 -20.461  1.00  0.00     0.157 HD
ENDBRANCH  30  34
ENDBRANCH   1  25
TORSDOF 5
ENDMDL
MODEL 5
REMARK VINA RESULT: -7.925882261      1.207      1.568
REMARK  5 active torsions:
REMARK  status: ('A' for Active; 'I' for Inactive)
REMARK    1  A    between atoms: N1_1  and  C1_4 
REMARK    2  A    between atoms: C3_10  and  N4_11 
REMARK    3  A    between atoms: N5_17  and  C9_18 
REMARK    4  A    between atoms: C11_22  and  C12_23 
REMARK       I    between atoms: C12_23  and  N7_25 
REMARK    5  A    between atoms: N7_25  and  C13_27 
ROOT
HETATM    1  N4  UNL     1       2.871  41.472 -19.690  1.00  0.00    -0.365 N 
HETATM    2  C4  UNL     1       4.118  42.064 -20.135  1.00  0.00     0.125 C 
HETATM    3  C5  UNL     1       4.187  41.731 -21.619  1.00  0.00     0.033 C 
HETATM    4  C6  UNL     1       3.507  40.413 -21.691  1.00  0.00    -0.004 C 
HETATM    5  C7  UNL     1       2.871  40.149 -23.050  1.00  0.00     0.033 C 
HETATM    6  C8  UNL     1       2.610  38.644 -22.906  1.00  0.00     0.142 C 
HETATM    7  N5  UNL     1       3.901  38.202 -22.441  1.00  0.00    -0.217 N 
HETATM    8  C17 UNL     1       4.426  39.227 -21.575  1.00  0.00     0.152 C 
HETATM    9  C18 UNL     1       2.446  40.474 -20.648  1.00  0.00     0.135 C 
ENDROOT
BRANCH   7  10
HETATM   10  C9  UNL     1       4.499  36.968 -22.804  1.00  0.00     0.679 A 
HETATM   11  N6  UNL     1       5.823  36.741 -22.661  1.00  0.00    -0.201 N 
HETATM   12  C10 UNL     1       6.432  35.593 -22.989  1.00  0.00     0.124 A 
ATOM     13  H6  UNL     1       6.397  37.492 -22.279  1.00  0.00     0.183 HD
HETATM   14  C11 UNL     1       5.690  34.565 -23.508  1.00  0.00     0.063 A 
HETATM   15  C16 UNL     1       4.333  34.787 -23.660  1.00  0.00     0.124 A 
HETATM   16  N8  UNL     1       3.786  35.945 -23.316  1.00  0.00    -0.201 N 
ATOM     17  H8  UNL     1       2.782  36.067 -23.445  1.00  0.00     0.183 HD
BRANCH  14  18
HETATM   18  C12 UNL     1       6.276  33.279 -23.893  1.00  0.00     0.254 C 
HETATM   19  O1  UNL     1       7.543  33.195 -23.931  1.00  0.00    -0.268 OA
HETATM   20  N7  UNL     1       5.524  32.144 -24.219  1.00  0.00    -0.352 N 
ATOM     21  H7  UNL     1       4.506  32.190 -24.195  1.00  0.00     0.163 HD
BRANCH  20  22
HETATM   22  C13 UNL     1       6.174  30.907 -24.590  1.00  0.00     0.084 A 
HETATM   23  C14 UNL     1       5.195  29.767 -24.885  1.00  0.00     0.027 A 
HETATM   24  C15 UNL     1       6.063  30.392 -25.979  1.00  0.00     0.027 A 
ENDBRANCH  20  22
ENDBRANCH  14  18
ENDBRANCH   7  10
BRANCH   1  25
HETATM   25  C3  UNL     1       2.153  41.800 -18.509  1.00  0.00     0.130 A 
HETATM   26  N3  UNL     1       2.288  41.067 -17.391  1.00  0.00    -0.337 N 
HETATM   27  C2  UNL     1       1.621  41.353 -16.265  1.00  0.00     0.183 A 
ATOM     28  H3  UNL     1       2.920  40.266 -17.399  1.00  0.00     0.168 HD
HETATM   29  N2  UNL     1       0.789  42.403 -16.239  1.00  0.00    -0.337 N 
HETATM   30  C1  UNL     1       0.603  43.179 -17.316  1.00  0.00     0.125 A 
ATOM     31  H2  UNL     1       0.285  42.617 -15.379  1.00  0.00     0.168 HD
HETATM   32  C19 UNL     1       1.290  42.875 -18.457  1.00  0.00     0.121 A 
HETATM   33 CL1  UNL     1       1.071  43.867 -19.881  1.00  0.00    -0.076 Cl
BRANCH  30  34
HETATM   34  N1  UNL     1      -0.200  44.165 -17.243  1.00  0.00    -0.384 N 
ATOM     35  H12 UNL     1      -0.691  44.410 -16.383  1.00  0.00     0.157 HD
ATOM     36  H11 UNL     1      -0.364  44.737 -18.070  1.00  0.00     0.157 HD
ENDBRANCH  30  34
ENDBRANCH   1  25
TORSDOF 5
ENDMDL
