MODEL 1
REMARK VINA RESULT: -6.225002234      0.000      0.000
REMARK  7 active torsions:
REMARK  status: ('A' for Active; 'I' for Inactive)
REMARK    1  A    between atoms: C2_2  and  N1_3 
REMARK       I    between atoms: N1_3  and  C3_5 
REMARK       I    between atoms: C3_5  and  N2_7 
REMARK    2  A    between atoms: N2_7  and  C4_9 
REMARK    3  A    between atoms: C10_17  and  O2_18 
REMARK    4  A    between atoms: O2_18  and  C11_19 
REMARK    5  A    between atoms: C12_21  and  C13_22 
REMARK    6  A    between atoms: C13_22  and  O5_24 
REMARK    7  A    between atoms: C15_26  and  C16_27 
ROOT
HETATM    1  C4  UNL     1       3.670  35.661 -24.208  1.00  0.00     0.120 C 
HETATM    2  C5  UNL     1       4.558  36.144 -23.115  1.00  0.00     0.048 C 
HETATM    3  C6  UNL     1       3.919  37.380 -22.576  1.00  0.00     0.126 C 
HETATM    4  N3  UNL     1       2.757  37.664 -23.396  1.00  0.00    -0.367 N 
HETATM    5  C7  UNL     1       2.388  36.469 -23.926  1.00  0.00     0.169 C 
HETATM    6  S1  UNL     1       1.308  36.258 -25.290  1.00  0.00    -0.137 SA
HETATM    7  C8  UNL     1       1.485  37.368 -26.669  1.00  0.00     0.117 C 
HETATM    8  C9  UNL     1       2.656  38.238 -26.533  1.00  0.00    -0.008 C 
HETATM    9  C10 UNL     1       3.241  38.490 -27.692  1.00  0.00     0.154 C 
HETATM   10  C12 UNL     1       3.350  38.896 -25.429  1.00  0.00     0.071 C 
HETATM   11  C15 UNL     1       2.785  38.914 -24.076  1.00  0.00     0.033 C 
ENDROOT
BRANCH   1  12
HETATM   12  N2  UNL     1       3.355  34.235 -24.071  1.00  0.00    -0.336 N 
HETATM   13  C3  UNL     1       4.304  33.226 -24.281  1.00  0.00     0.316 C 
HETATM   14  N1  UNL     1       3.933  31.871 -24.133  1.00  0.00    -0.343 N 
HETATM   15  O1  UNL     1       5.474  33.523 -24.600  1.00  0.00    -0.247 OA
ATOM     16  H1  UNL     1       2.974  31.643 -23.873  1.00  0.00     0.164 HD
ATOM     17  H2  UNL     1       2.405  33.967 -23.813  1.00  0.00     0.164 HD
BRANCH  14  18
HETATM   18  C2  UNL     1       4.897  30.781 -24.344  1.00  0.00     0.120 C 
HETATM   19  C1  UNL     1       4.427  29.958 -25.508  1.00  0.00     0.026 C 
ENDBRANCH  14  18
ENDBRANCH   1  12
BRANCH  11  20
HETATM   20  C16 UNL     1       1.636  39.720 -23.679  1.00  0.00    -0.008 C 
HETATM   21  C17 UNL     1       0.899  40.529 -24.684  1.00  0.00     0.021 C 
HETATM   22  C18 UNL     1       2.192  40.807 -22.702  1.00  0.00     0.021 C 
HETATM   23  C19 UNL     1       0.590  39.077 -22.791  1.00  0.00     0.021 C 
ENDBRANCH  11  20
BRANCH  10  24
HETATM   24  C13 UNL     1       4.030  40.129 -25.874  1.00  0.00     0.295 C 
HETATM   25  O4  UNL     1       5.297  40.174 -26.001  1.00  0.00    -0.259 OA
BRANCH  24  26
HETATM   26  O5  UNL     1       3.408  41.327 -26.194  1.00  0.00    -0.322 OA
HETATM   27  C14 UNL     1       3.825  42.575 -25.716  1.00  0.00     0.213 C 
ENDBRANCH  24  26
ENDBRANCH  10  24
BRANCH   9  28
HETATM   28  O2  UNL     1       2.754  37.962 -28.879  1.00  0.00    -0.298 OA
BRANCH  28  29
HETATM   29  C11 UNL     1       2.564  38.714 -30.027  1.00  0.00     0.402 C 
HETATM   30  O3  UNL     1       2.663  39.972 -29.946  1.00  0.00    -0.276 OA
ENDBRANCH  28  29
ENDBRANCH   9  28
TORSDOF 7
ENDMDL
MODEL 2
REMARK VINA RESULT: -6.182258539      1.332      1.474
REMARK  7 active torsions:
REMARK  status: ('A' for Active; 'I' for Inactive)
REMARK    1  A    between atoms: C2_2  and  N1_3 
REMARK       I    between atoms: N1_3  and  C3_5 
REMARK       I    between atoms: C3_5  and  N2_7 
REMARK    2  A    between atoms: N2_7  and  C4_9 
REMARK    3  A    between atoms: C10_17  and  O2_18 
REMARK    4  A    between atoms: O2_18  and  C11_19 
REMARK    5  A    between atoms: C12_21  and  C13_22 
REMARK    6  A    between atoms: C13_22  and  O5_24 
REMARK    7  A    between atoms: C15_26  and  C16_27 
ROOT
HETATM    1  C4  UNL     1       4.104  36.472 -23.607  1.00  0.00     0.120 C 
HETATM    2  C5  UNL     1       5.326  36.993 -22.935  1.00  0.00     0.048 C 
HETATM    3  C6  UNL     1       5.019  38.402 -22.551  1.00  0.00     0.126 C 
HETATM    4  N3  UNL     1       3.705  38.721 -23.073  1.00  0.00    -0.367 N 
HETATM    5  C7  UNL     1       3.063  37.530 -23.190  1.00  0.00     0.169 C 
HETATM    6  S1  UNL     1       1.609  37.254 -24.129  1.00  0.00    -0.137 SA
HETATM    7  C8  UNL     1       1.490  38.029 -25.725  1.00  0.00     0.117 C 
HETATM    8  C9  UNL     1       2.738  38.690 -26.115  1.00  0.00    -0.008 C 
HETATM    9  C10 UNL     1       2.975  38.608 -27.413  1.00  0.00     0.154 C 
HETATM   10  C12 UNL     1       3.799  39.417 -25.421  1.00  0.00     0.071 C 
HETATM   11  C15 UNL     1       3.669  39.793 -24.010  1.00  0.00     0.033 C 
ENDROOT
BRANCH   1  12
HETATM   12  N2  UNL     1       3.686  35.176 -23.061  1.00  0.00    -0.336 N 
HETATM   13  C3  UNL     1       3.327  34.092 -23.872  1.00  0.00     0.316 C 
HETATM   14  N1  UNL     1       2.934  32.871 -23.280  1.00  0.00    -0.343 N 
HETATM   15  O1  UNL     1       3.352  34.205 -25.115  1.00  0.00    -0.247 OA
ATOM     16  H1  UNL     1       2.917  32.794 -22.263  1.00  0.00     0.164 HD
ATOM     17  H2  UNL     1       3.656  35.059 -22.048  1.00  0.00     0.164 HD
BRANCH  14  18
HETATM   18  C2  UNL     1       2.549  31.709 -24.095  1.00  0.00     0.120 C 
HETATM   19  C1  UNL     1       3.780  30.890 -24.355  1.00  0.00     0.026 C 
ENDBRANCH  14  18
ENDBRANCH   1  12
BRANCH  11  20
HETATM   20  C16 UNL     1       2.789  40.848 -23.522  1.00  0.00    -0.008 C 
HETATM   21  C17 UNL     1       1.629  41.299 -24.334  1.00  0.00     0.021 C 
HETATM   22  C18 UNL     1       3.671  42.137 -23.437  1.00  0.00     0.021 C 
HETATM   23  C19 UNL     1       2.306  40.764 -22.089  1.00  0.00     0.021 C 
ENDBRANCH  11  20
BRANCH  10  24
HETATM   24  C13 UNL     1       4.450  40.402 -26.308  1.00  0.00     0.295 C 
HETATM   25  O4  UNL     1       5.674  40.285 -26.640  1.00  0.00    -0.259 OA
BRANCH  24  26
HETATM   26  O5  UNL     1       3.841  41.520 -26.861  1.00  0.00    -0.322 OA
HETATM   27  C14 UNL     1       4.526  42.505 -27.582  1.00  0.00     0.213 C 
ENDBRANCH  24  26
ENDBRANCH  10  24
BRANCH   9  28
HETATM   28  O2  UNL     1       2.100  37.956 -28.270  1.00  0.00    -0.298 OA
BRANCH  28  29
HETATM   29  C11 UNL     1       2.403  37.659 -29.587  1.00  0.00     0.402 C 
HETATM   30  O3  UNL     1       2.857  38.581 -30.325  1.00  0.00    -0.276 OA
ENDBRANCH  28  29
ENDBRANCH   9  28
TORSDOF 7
ENDMDL
MODEL 3
REMARK VINA RESULT: -5.971301378      3.828      4.992
REMARK  7 active torsions:
REMARK  status: ('A' for Active; 'I' for Inactive)
REMARK    1  A    between atoms: C2_2  and  N1_3 
REMARK       I    between atoms: N1_3  and  C3_5 
REMARK       I    between atoms: C3_5  and  N2_7 
REMARK    2  A    between atoms: N2_7  and  C4_9 
REMARK    3  A    between atoms: C10_17  and  O2_18 
REMARK    4  A    between atoms: O2_18  and  C11_19 
REMARK    5  A    between atoms: C12_21  and  C13_22 
REMARK    6  A    between atoms: C13_22  and  O5_24 
REMARK    7  A    between atoms: C15_26  and  C16_27 
ROOT
HETATM    1  C4  UNL     1       2.664  39.149 -23.044  1.00  0.00     0.120 C 
HETATM    2  C5  UNL     1       3.602  38.592 -22.032  1.00  0.00     0.048 C 
HETATM    3  C6  UNL     1       3.999  39.735 -21.160  1.00  0.00     0.126 C 
HETATM    4  N3  UNL     1       3.397  40.934 -21.710  1.00  0.00    -0.367 N 
HETATM    5  C7  UNL     1       2.311  40.506 -22.405  1.00  0.00     0.169 C 
HETATM    6  S1  UNL     1       1.437  41.450 -23.595  1.00  0.00    -0.137 SA
HETATM    7  C8  UNL     1       2.384  42.439 -24.731  1.00  0.00     0.117 C 
HETATM    8  C9  UNL     1       3.824  42.196 -24.610  1.00  0.00    -0.008 C 
HETATM    9  C10 UNL     1       4.451  42.263 -25.772  1.00  0.00     0.154 C 
HETATM   10  C12 UNL     1       4.746  41.888 -23.519  1.00  0.00     0.071 C 
HETATM   11  C15 UNL     1       4.315  41.942 -22.119  1.00  0.00     0.033 C 
ENDROOT
BRANCH   1  12
HETATM   12  N2  UNL     1       1.435  38.357 -23.151  1.00  0.00    -0.336 N 
HETATM   13  C3  UNL     1       1.116  37.600 -24.286  1.00  0.00     0.316 C 
HETATM   14  N1  UNL     1      -0.085  36.858 -24.322  1.00  0.00    -0.343 N 
HETATM   15  O1  UNL     1       1.893  37.581 -25.264  1.00  0.00    -0.247 OA
ATOM     16  H1  UNL     1      -0.710  36.884 -23.516  1.00  0.00     0.164 HD
ATOM     17  H2  UNL     1       0.784  38.357 -22.365  1.00  0.00     0.164 HD
BRANCH  14  18
HETATM   18  C2  UNL     1      -0.457  36.052 -25.493  1.00  0.00     0.120 C 
HETATM   19  C1  UNL     1      -1.170  34.822 -25.009  1.00  0.00     0.026 C 
ENDBRANCH  14  18
ENDBRANCH   1  12
BRANCH  11  20
HETATM   20  C16 UNL     1       4.052  43.178 -21.390  1.00  0.00    -0.008 C 
HETATM   21  C17 UNL     1       3.689  44.421 -22.119  1.00  0.00     0.021 C 
HETATM   22  C18 UNL     1       5.401  43.565 -20.702  1.00  0.00     0.021 C 
HETATM   23  C19 UNL     1       3.147  43.109 -20.178  1.00  0.00     0.021 C 
ENDBRANCH  11  20
BRANCH  10  24
HETATM   24  C13 UNL     1       6.109  42.377 -23.809  1.00  0.00     0.295 C 
HETATM   25  O4  UNL     1       6.320  43.591 -24.130  1.00  0.00    -0.259 OA
BRANCH  24  26
HETATM   26  O5  UNL     1       7.267  41.615 -23.769  1.00  0.00    -0.322 OA
HETATM   27  C14 UNL     1       8.421  41.984 -23.066  1.00  0.00     0.213 C 
ENDBRANCH  24  26
ENDBRANCH  10  24
BRANCH   9  28
HETATM   28  O2  UNL     1       3.770  42.539 -26.949  1.00  0.00    -0.298 OA
BRANCH  28  29
HETATM   29  C11 UNL     1       4.197  43.475 -27.875  1.00  0.00     0.402 C 
HETATM   30  O3  UNL     1       4.703  44.555 -27.452  1.00  0.00    -0.276 OA
ENDBRANCH  28  29
ENDBRANCH   9  28
TORSDOF 7
ENDMDL
MODEL 4
REMARK VINA RESULT: -5.830485324      3.640      4.845
REMARK  7 active torsions:
REMARK  status: ('A' for Active; 'I' for Inactive)
REMARK    1  A    between atoms: C2_2  and  N1_3 
REMARK       I    between atoms: N1_3  and  C3_5 
REMARK       I    between atoms: C3_5  and  N2_7 
REMARK    2  A    between atoms: N2_7  and  C4_9 
REMARK    3  A    between atoms: C10_17  and  O2_18 
REMARK    4  A    between atoms: O2_18  and  C11_19 
REMARK    5  A    between atoms: C12_21  and  C13_22 
REMARK    6  A    between atoms: C13_22  and  O5_24 
REMARK    7  A    between atoms: C15_26  and  C16_27 
ROOT
HETATM    1  C4  UNL     1       2.718  39.173 -22.883  1.00  0.00     0.120 C 
HETATM    2  C5  UNL     1       3.517  38.573 -21.780  1.00  0.00     0.048 C 
HETATM    3  C6  UNL     1       3.902  39.703 -20.885  1.00  0.00     0.126 C 
HETATM    4  N3  UNL     1       3.434  40.928 -21.501  1.00  0.00    -0.367 N 
HETATM    5  C7  UNL     1       2.394  40.559 -22.293  1.00  0.00     0.169 C 
HETATM    6  S1  UNL     1       1.699  41.538 -23.571  1.00  0.00    -0.137 SA
HETATM    7  C8  UNL     1       2.812  42.447 -24.620  1.00  0.00     0.117 C 
HETATM    8  C9  UNL     1       4.215  42.115 -24.359  1.00  0.00    -0.008 C 
HETATM    9  C10 UNL     1       4.953  42.124 -25.456  1.00  0.00     0.154 C 
HETATM   10  C12 UNL     1       5.007  41.767 -23.182  1.00  0.00     0.071 C 
HETATM   11  C15 UNL     1       4.450  41.869 -21.830  1.00  0.00     0.033 C 
ENDROOT
BRANCH   1  12
HETATM   12  N2  UNL     1       1.456  38.458 -23.100  1.00  0.00    -0.336 N 
HETATM   13  C3  UNL     1       1.305  37.463 -24.074  1.00  0.00     0.316 C 
HETATM   14  N1  UNL     1       0.061  36.813 -24.230  1.00  0.00    -0.343 N 
HETATM   15  O1  UNL     1       2.269  37.152 -24.805  1.00  0.00    -0.247 OA
ATOM     16  H1  UNL     1      -0.717  37.078 -23.626  1.00  0.00     0.164 HD
ATOM     17  H2  UNL     1       0.654  38.695 -22.516  1.00  0.00     0.164 HD
BRANCH  14  18
HETATM   18  C2  UNL     1      -0.140  35.764 -25.240  1.00  0.00     0.120 C 
HETATM   19  C1  UNL     1      -1.055  34.724 -24.661  1.00  0.00     0.026 C 
ENDBRANCH  14  18
ENDBRANCH   1  12
BRANCH  11  20
HETATM   20  C16 UNL     1       4.199  43.130 -21.142  1.00  0.00    -0.008 C 
HETATM   21  C17 UNL     1       3.871  44.358 -21.912  1.00  0.00     0.021 C 
HETATM   22  C18 UNL     1       5.544  43.512 -20.442  1.00  0.00     0.021 C 
HETATM   23  C19 UNL     1       3.273  43.114 -19.943  1.00  0.00     0.021 C 
ENDBRANCH  11  20
BRANCH  10  24
HETATM   24  C13 UNL     1       6.420  42.164 -23.344  1.00  0.00     0.295 C 
HETATM   25  O4  UNL     1       7.367  41.347 -23.102  1.00  0.00    -0.259 OA
BRANCH  24  26
HETATM   26  O5  UNL     1       6.869  43.409 -23.759  1.00  0.00    -0.322 OA
HETATM   27  C14 UNL     1       8.120  43.633 -24.347  1.00  0.00     0.213 C 
ENDBRANCH  24  26
ENDBRANCH  10  24
BRANCH   9  28
HETATM   28  O2  UNL     1       4.407  42.424 -26.695  1.00  0.00    -0.298 OA
BRANCH  28  29
HETATM   29  C11 UNL     1       4.556  41.618 -27.810  1.00  0.00     0.402 C 
HETATM   30  O3  UNL     1       3.762  41.780 -28.782  1.00  0.00    -0.276 OA
ENDBRANCH  28  29
ENDBRANCH   9  28
TORSDOF 7
ENDMDL
MODEL 5
REMARK VINA RESULT: -5.797090063      5.265      7.359
REMARK  7 active torsions:
REMARK  status: ('A' for Active; 'I' for Inactive)
REMARK    1  A    between atoms: C2_2  and  N1_3 
REMARK       I    between atoms: N1_3  and  C3_5 
REMARK       I    between atoms: C3_5  and  N2_7 
REMARK    2  A    between atoms: N2_7  and  C4_9 
REMARK    3  A    between atoms: C10_17  and  O2_18 
REMARK    4  A    between atoms: O2_18  and  C11_19 
REMARK    5  A    between atoms: C12_21  and  C13_22 
REMARK    6  A    between atoms: C13_22  and  O5_24 
REMARK    7  A    between atoms: C15_26  and  C16_27 
ROOT
HETATM    1  C4  UNL     1       2.840  41.883 -22.570  1.00  0.00     0.120 C 
HETATM    2  C5  UNL     1       2.032  42.869 -23.338  1.00  0.00     0.048 C 
HETATM    3  C6  UNL     1       2.284  42.577 -24.780  1.00  0.00     0.126 C 
HETATM    4  N3  UNL     1       3.283  41.529 -24.846  1.00  0.00    -0.367 N 
HETATM    5  C7  UNL     1       3.181  40.858 -23.669  1.00  0.00     0.169 C 
HETATM    6  S1  UNL     1       4.384  39.758 -23.026  1.00  0.00    -0.137 SA
HETATM    7  C8  UNL     1       6.096  40.217 -23.177  1.00  0.00     0.117 C 
HETATM    8  C9  UNL     1       6.261  41.576 -23.700  1.00  0.00    -0.008 C 
HETATM    9  C10 UNL     1       7.297  42.203 -23.169  1.00  0.00     0.154 C 
HETATM   10  C12 UNL     1       5.558  42.420 -24.663  1.00  0.00     0.071 C 
HETATM   11  C15 UNL     1       4.490  41.883 -25.512  1.00  0.00     0.033 C 
ENDROOT
BRANCH   1  12
HETATM   12  N2  UNL     1       2.046  41.205 -21.539  1.00  0.00    -0.336 N 
HETATM   13  C3  UNL     1       2.402  41.207 -20.184  1.00  0.00     0.316 C 
HETATM   14  N1  UNL     1       1.591  40.534 -19.244  1.00  0.00    -0.343 N 
HETATM   15  O1  UNL     1       3.435  41.801 -19.810  1.00  0.00    -0.247 OA
ATOM     16  H1  UNL     1       0.751  40.052 -19.565  1.00  0.00     0.164 HD
ATOM     17  H2  UNL     1       1.199  40.712 -21.821  1.00  0.00     0.164 HD
BRANCH  14  18
HETATM   18  C2  UNL     1       1.929  40.510 -17.813  1.00  0.00     0.120 C 
HETATM   19  C1  UNL     1       2.771  39.296 -17.550  1.00  0.00     0.026 C 
ENDBRANCH  14  18
ENDBRANCH   1  12
BRANCH  11  20
HETATM   20  C16 UNL     1       4.715  40.986 -26.640  1.00  0.00    -0.008 C 
HETATM   21  C17 UNL     1       6.091  40.551 -26.997  1.00  0.00     0.021 C 
HETATM   22  C18 UNL     1       4.264  41.776 -27.912  1.00  0.00     0.021 C 
HETATM   23  C19 UNL     1       3.831  39.762 -26.762  1.00  0.00     0.021 C 
ENDBRANCH  11  20
BRANCH  10  24
HETATM   24  C13 UNL     1       6.468  43.399 -25.290  1.00  0.00     0.295 C 
HETATM   25  O4  UNL     1       6.040  44.254 -26.132  1.00  0.00    -0.259 OA
BRANCH  24  26
HETATM   26  O5  UNL     1       7.831  43.505 -25.053  1.00  0.00    -0.322 OA
HETATM   27  C14 UNL     1       8.690  44.331 -25.788  1.00  0.00     0.213 C 
ENDBRANCH  24  26
ENDBRANCH  10  24
BRANCH   9  28
HETATM   28  O2  UNL     1       8.108  41.593 -22.224  1.00  0.00    -0.298 OA
BRANCH  28  29
HETATM   29  C11 UNL     1       9.273  42.161 -21.738  1.00  0.00     0.402 C 
HETATM   30  O3  UNL     1       9.795  43.114 -22.385  1.00  0.00    -0.276 OA
ENDBRANCH  28  29
ENDBRANCH   9  28
TORSDOF 7
ENDMDL
