MODEL 1
REMARK VINA RESULT: -9.659383069      0.000      0.000
REMARK  7 active torsions:
REMARK  status: ('A' for Active; 'I' for Inactive)
REMARK    1  A    between atoms: C2_2  and  O1_3 
REMARK    2  A    between atoms: C5_7  and  N1_8 
REMARK    3  A    between atoms: N4_19  and  C11_21 
REMARK    4  A    between atoms: C11_21  and  C12_22 
REMARK    5  A    between atoms: C12_22  and  C13_23 
REMARK    6  A    between atoms: C19_31  and  C20_32 
REMARK    7  A    between atoms: C20_32  and  O4_33 
ROOT
HETATM    1  N1  UNL     1      -1.191  34.362 -24.710  1.00  0.00    -0.310 N 
HETATM    2  C6  UNL     1      -2.538  34.201 -24.540  1.00  0.00     0.186 A 
HETATM    3  N2  UNL     1      -2.728  33.393 -23.473  1.00  0.00    -0.349 N 
ATOM      4  H2  UNL     1      -3.626  33.089 -23.097  1.00  0.00     0.167 HD
HETATM    5  C7  UNL     1      -1.516  33.066 -23.000  1.00  0.00     0.087 A 
HETATM    6  C8  UNL     1      -1.180  32.269 -21.931  1.00  0.00     0.078 A 
HETATM    7 CL1  UNL     1      -2.408  31.516 -20.971  1.00  0.00    -0.080 Cl
HETATM    8  C9  UNL     1       0.175  32.095 -21.659  1.00  0.00     0.116 A 
HETATM    9  N3  UNL     1       1.133  32.678 -22.401  1.00  0.00    -0.349 N 
ATOM     10  H3  UNL     1       2.113  32.523 -22.163  1.00  0.00     0.167 HD
HETATM   11  C10 UNL     1       0.827  33.461 -23.448  1.00  0.00     0.134 A 
HETATM   12  N4  UNL     1       1.657  34.019 -24.165  1.00  0.00    -0.354 N 
ATOM     13  H4  UNL     1       1.139  34.538 -24.873  1.00  0.00     0.166 HD
HETATM   14  C18 UNL     1      -0.539  33.658 -23.755  1.00  0.00     0.111 A 
ENDROOT
BRANCH   1  15
HETATM   15  C5  UNL     1      -0.585  35.154 -25.742  1.00  0.00     0.229 C 
HETATM   16  C4  UNL     1      -1.540  35.396 -26.918  1.00  0.00     0.057 C 
HETATM   17  C3  UNL     1      -0.699  36.034 -27.991  1.00  0.00     0.044 C 
HETATM   18  C2  UNL     1      -0.173  37.337 -27.444  1.00  0.00     0.082 C 
HETATM   19  C1  UNL     1       1.007  37.730 -28.342  1.00  0.00     0.049 C 
HETATM   20  C19 UNL     1       0.338  37.255 -26.053  1.00  0.00     0.181 C 
HETATM   21  O3  UNL     1      -0.363  36.434 -25.207  1.00  0.00    -0.356 OA
BRANCH  18  22
HETATM   22  O1  UNL     1      -1.147  38.299 -27.646  1.00  0.00    -0.388 OA
ATOM     23  H1  UNL     1      -1.968  37.903 -27.381  1.00  0.00     0.210 HD
ENDBRANCH  18  22
BRANCH  20  24
HETATM   24  C20 UNL     1       0.299  38.654 -25.465  1.00  0.00     0.199 C 
BRANCH  24  25
HETATM   25  O4  UNL     1      -0.962  38.821 -24.895  1.00  0.00    -0.398 OA
ATOM     26  H4  UNL     1      -0.936  39.629 -24.397  1.00  0.00     0.209 HD
ENDBRANCH  24  25
ENDBRANCH  20  24
ENDBRANCH   1  15
BRANCH  12  27
HETATM   27  C11 UNL     1       2.989  34.232 -24.405  1.00  0.00     0.063 C 
BRANCH  27  28
HETATM   28  C12 UNL     1       3.871  33.099 -24.832  1.00  0.00     0.049 C 
BRANCH  28  29
HETATM   29  C13 UNL     1       5.017  32.982 -23.807  1.00  0.00    -0.006 C 
HETATM   30  C14 UNL     1       5.812  34.245 -23.865  1.00  0.00     0.031 C 
HETATM   31  C15 UNL     1       7.253  34.077 -23.473  1.00  0.00     0.168 C 
HETATM   32  O2  UNL     1       7.879  33.014 -24.071  1.00  0.00    -0.391 OA
HETATM   33  C16 UNL     1       7.107  32.314 -24.966  1.00  0.00     0.168 C 
HETATM   34  C17 UNL     1       5.870  31.823 -24.239  1.00  0.00     0.031 C 
ENDBRANCH  28  29
ENDBRANCH  27  28
ENDBRANCH  12  27
TORSDOF 7
ENDMDL
MODEL 2
REMARK VINA RESULT: -9.529224716      1.323      1.656
REMARK  7 active torsions:
REMARK  status: ('A' for Active; 'I' for Inactive)
REMARK    1  A    between atoms: C2_2  and  O1_3 
REMARK    2  A    between atoms: C5_7  and  N1_8 
REMARK    3  A    between atoms: N4_19  and  C11_21 
REMARK    4  A    between atoms: C11_21  and  C12_22 
REMARK    5  A    between atoms: C12_22  and  C13_23 
REMARK    6  A    between atoms: C19_31  and  C20_32 
REMARK    7  A    between atoms: C20_32  and  O4_33 
ROOT
HETATM    1  N1  UNL     1      -0.956  34.424 -24.479  1.00  0.00    -0.310 N 
HETATM    2  C6  UNL     1      -2.319  34.311 -24.497  1.00  0.00     0.186 A 
HETATM    3  N2  UNL     1      -2.678  33.444 -23.525  1.00  0.00    -0.349 N 
ATOM      4  H2  UNL     1      -3.628  33.155 -23.292  1.00  0.00     0.167 HD
HETATM    5  C7  UNL     1      -1.552  33.032 -22.923  1.00  0.00     0.087 A 
HETATM    6  C8  UNL     1      -1.389  32.152 -21.879  1.00  0.00     0.078 A 
HETATM    7 CL1  UNL     1      -2.759  31.392 -21.144  1.00  0.00    -0.080 Cl
HETATM    8  C9  UNL     1      -0.089  31.900 -21.446  1.00  0.00     0.116 A 
HETATM    9  N3  UNL     1       0.979  32.488 -22.013  1.00  0.00    -0.349 N 
ATOM     10  H3  UNL     1       1.912  32.274 -21.662  1.00  0.00     0.167 HD
HETATM   11  C10 UNL     1       0.843  33.351 -23.033  1.00  0.00     0.134 A 
HETATM   12  N4  UNL     1       1.780  33.918 -23.593  1.00  0.00    -0.354 N 
ATOM     13  H4  UNL     1       1.379  34.506 -24.324  1.00  0.00     0.166 HD
HETATM   14  C18 UNL     1      -0.463  33.629 -23.500  1.00  0.00     0.111 A 
ENDROOT
BRANCH   1  15
HETATM   15  C5  UNL     1      -0.191  35.254 -25.363  1.00  0.00     0.229 C 
HETATM   16  C4  UNL     1      -1.043  35.815 -26.509  1.00  0.00     0.057 C 
HETATM   17  C3  UNL     1      -0.068  36.464 -27.452  1.00  0.00     0.044 C 
HETATM   18  C2  UNL     1       0.624  37.573 -26.701  1.00  0.00     0.082 C 
HETATM   19  C1  UNL     1       1.890  37.904 -27.503  1.00  0.00     0.049 C 
HETATM   20  C19 UNL     1       1.053  37.207 -25.328  1.00  0.00     0.181 C 
HETATM   21  O3  UNL     1       0.199  36.390 -24.634  1.00  0.00    -0.356 OA
BRANCH  18  22
HETATM   22  O1  UNL     1      -0.182  38.696 -26.775  1.00  0.00    -0.388 OA
ATOM     23  H1  UNL     1      -1.031  38.432 -26.441  1.00  0.00     0.210 HD
ENDBRANCH  18  22
BRANCH  20  24
HETATM   24  C20 UNL     1       1.200  38.492 -24.534  1.00  0.00     0.199 C 
BRANCH  24  25
HETATM   25  O4  UNL     1       0.068  38.606 -23.729  1.00  0.00    -0.398 OA
ATOM     26  H4  UNL     1      -0.141  39.530 -23.673  1.00  0.00     0.209 HD
ENDBRANCH  24  25
ENDBRANCH  20  24
ENDBRANCH   1  15
BRANCH  12  27
HETATM   27  C11 UNL     1       3.138  34.087 -23.643  1.00  0.00     0.063 C 
BRANCH  27  28
HETATM   28  C12 UNL     1       3.951  33.382 -24.685  1.00  0.00     0.049 C 
BRANCH  28  29
HETATM   29  C13 UNL     1       4.473  32.069 -24.066  1.00  0.00    -0.006 C 
HETATM   30  C14 UNL     1       5.826  31.802 -24.639  1.00  0.00     0.031 C 
HETATM   31  C15 UNL     1       6.191  30.344 -24.688  1.00  0.00     0.168 C 
HETATM   32  O2  UNL     1       5.212  29.536 -25.207  1.00  0.00    -0.391 OA
HETATM   33  C16 UNL     1       4.088  30.193 -25.645  1.00  0.00     0.168 C 
HETATM   34  C17 UNL     1       3.521  30.984 -24.481  1.00  0.00     0.031 C 
ENDBRANCH  28  29
ENDBRANCH  27  28
ENDBRANCH  12  27
TORSDOF 7
ENDMDL
MODEL 3
REMARK VINA RESULT: -9.511520354      0.963      1.403
REMARK  7 active torsions:
REMARK  status: ('A' for Active; 'I' for Inactive)
REMARK    1  A    between atoms: C2_2  and  O1_3 
REMARK    2  A    between atoms: C5_7  and  N1_8 
REMARK    3  A    between atoms: N4_19  and  C11_21 
REMARK    4  A    between atoms: C11_21  and  C12_22 
REMARK    5  A    between atoms: C12_22  and  C13_23 
REMARK    6  A    between atoms: C19_31  and  C20_32 
REMARK    7  A    between atoms: C20_32  and  O4_33 
ROOT
HETATM    1  N1  UNL     1      -1.107  34.367 -24.715  1.00  0.00    -0.310 N 
HETATM    2  C6  UNL     1      -2.452  34.182 -24.551  1.00  0.00     0.186 A 
HETATM    3  N2  UNL     1      -2.633  33.369 -23.486  1.00  0.00    -0.349 N 
ATOM      4  H2  UNL     1      -3.527  33.049 -23.115  1.00  0.00     0.167 HD
HETATM    5  C7  UNL     1      -1.418  33.062 -23.009  1.00  0.00     0.087 A 
HETATM    6  C8  UNL     1      -1.073  32.268 -21.939  1.00  0.00     0.078 A 
HETATM    7 CL1  UNL     1      -2.292  31.493 -20.987  1.00  0.00    -0.080 Cl
HETATM    8  C9  UNL     1       0.283  32.117 -21.662  1.00  0.00     0.116 A 
HETATM    9  N3  UNL     1       1.235  32.717 -22.398  1.00  0.00    -0.349 N 
ATOM     10  H3  UNL     1       2.216  32.578 -22.156  1.00  0.00     0.167 HD
HETATM   11  C10 UNL     1       0.920  33.496 -23.445  1.00  0.00     0.134 A 
HETATM   12  N4  UNL     1       1.744  34.070 -24.157  1.00  0.00    -0.354 N 
ATOM     13  H4  UNL     1       1.220  34.582 -24.867  1.00  0.00     0.166 HD
HETATM   14  C18 UNL     1      -0.448  33.672 -23.758  1.00  0.00     0.111 A 
ENDROOT
BRANCH   1  15
HETATM   15  C5  UNL     1      -0.510  35.170 -25.742  1.00  0.00     0.229 C 
HETATM   16  C4  UNL     1      -1.459  35.388 -26.928  1.00  0.00     0.057 C 
HETATM   17  C3  UNL     1      -0.624  36.043 -27.994  1.00  0.00     0.044 C 
HETATM   18  C2  UNL     1      -0.132  37.359 -27.444  1.00  0.00     0.082 C 
HETATM   19  C1  UNL     1       1.047  37.777 -28.333  1.00  0.00     0.049 C 
HETATM   20  C19 UNL     1       0.367  37.291 -26.048  1.00  0.00     0.181 C 
HETATM   21  O3  UNL     1      -0.322  36.456 -25.208  1.00  0.00    -0.356 OA
BRANCH  18  22
HETATM   22  O1  UNL     1      -1.126  38.299 -27.658  1.00  0.00    -0.388 OA
ATOM     23  H1  UNL     1      -1.852  38.045 -27.100  1.00  0.00     0.210 HD
ENDBRANCH  18  22
BRANCH  20  24
HETATM   24  C20 UNL     1       0.291  38.690 -25.464  1.00  0.00     0.199 C 
BRANCH  24  25
HETATM   25  O4  UNL     1      -0.994  38.845 -24.946  1.00  0.00    -0.398 OA
ATOM     26  H4  UNL     1      -0.905  38.927 -24.004  1.00  0.00     0.209 HD
ENDBRANCH  24  25
ENDBRANCH  20  24
ENDBRANCH   1  15
BRANCH  12  27
HETATM   27  C11 UNL     1       3.073  34.305 -24.392  1.00  0.00     0.063 C 
BRANCH  27  28
HETATM   28  C12 UNL     1       4.116  33.404 -23.806  1.00  0.00     0.049 C 
BRANCH  28  29
HETATM   29  C13 UNL     1       4.467  32.340 -24.865  1.00  0.00    -0.006 C 
HETATM   30  C14 UNL     1       4.064  31.007 -24.325  1.00  0.00     0.031 C 
HETATM   31  C15 UNL     1       4.875  29.860 -24.861  1.00  0.00     0.168 C 
HETATM   32  O2  UNL     1       6.230  30.069 -24.837  1.00  0.00    -0.391 OA
HETATM   33  C16 UNL     1       6.624  31.261 -24.279  1.00  0.00     0.168 C 
HETATM   34  C17 UNL     1       5.957  32.385 -25.049  1.00  0.00     0.031 C 
ENDBRANCH  28  29
ENDBRANCH  27  28
ENDBRANCH  12  27
TORSDOF 7
ENDMDL
MODEL 4
REMARK VINA RESULT: -9.190640922      0.729      1.154
REMARK  7 active torsions:
REMARK  status: ('A' for Active; 'I' for Inactive)
REMARK    1  A    between atoms: C2_2  and  O1_3 
REMARK    2  A    between atoms: C5_7  and  N1_8 
REMARK    3  A    between atoms: N4_19  and  C11_21 
REMARK    4  A    between atoms: C11_21  and  C12_22 
REMARK    5  A    between atoms: C12_22  and  C13_23 
REMARK    6  A    between atoms: C19_31  and  C20_32 
REMARK    7  A    between atoms: C20_32  and  O4_33 
ROOT
HETATM    1  N1  UNL     1      -1.018  34.445 -24.524  1.00  0.00    -0.310 N 
HETATM    2  C6  UNL     1      -2.382  34.339 -24.554  1.00  0.00     0.186 A 
HETATM    3  N2  UNL     1      -2.754  33.480 -23.580  1.00  0.00    -0.349 N 
ATOM      4  H2  UNL     1      -3.707  33.198 -23.354  1.00  0.00     0.167 HD
HETATM    5  C7  UNL     1      -1.636  33.066 -22.965  1.00  0.00     0.087 A 
HETATM    6  C8  UNL     1      -1.487  32.192 -21.914  1.00  0.00     0.078 A 
HETATM    7 CL1  UNL     1      -2.868  31.444 -21.186  1.00  0.00    -0.080 Cl
HETATM    8  C9  UNL     1      -0.193  31.936 -21.468  1.00  0.00     0.116 A 
HETATM    9  N3  UNL     1       0.884  32.514 -22.029  1.00  0.00    -0.349 N 
ATOM     10  H3  UNL     1       1.813  32.298 -21.668  1.00  0.00     0.167 HD
HETATM   11  C10 UNL     1       0.762  33.372 -23.055  1.00  0.00     0.134 A 
HETATM   12  N4  UNL     1       1.707  33.930 -23.611  1.00  0.00    -0.354 N 
ATOM     13  H4  UNL     1       1.316  34.515 -24.349  1.00  0.00     0.166 HD
HETATM   14  C18 UNL     1      -0.538  33.654 -23.536  1.00  0.00     0.111 A 
ENDROOT
BRANCH   1  15
HETATM   15  C5  UNL     1      -0.241  35.265 -25.407  1.00  0.00     0.229 C 
HETATM   16  C4  UNL     1      -1.081  35.828 -26.560  1.00  0.00     0.057 C 
HETATM   17  C3  UNL     1      -0.095  36.467 -27.500  1.00  0.00     0.044 C 
HETATM   18  C2  UNL     1       0.603  37.572 -26.747  1.00  0.00     0.082 C 
HETATM   19  C1  UNL     1       1.876  37.890 -27.543  1.00  0.00     0.049 C 
HETATM   20  C19 UNL     1       1.020  37.208 -25.371  1.00  0.00     0.181 C 
HETATM   21  O3  UNL     1       0.154  36.401 -24.679  1.00  0.00    -0.356 OA
BRANCH  18  22
HETATM   22  O1  UNL     1      -0.194  38.701 -26.831  1.00  0.00    -0.388 OA
ATOM     23  H1  UNL     1      -1.091  38.396 -26.763  1.00  0.00     0.210 HD
ENDBRANCH  18  22
BRANCH  20  24
HETATM   24  C20 UNL     1       1.173  38.495 -24.581  1.00  0.00     0.199 C 
BRANCH  24  25
HETATM   25  O4  UNL     1       0.039  38.617 -23.778  1.00  0.00    -0.398 OA
ATOM     26  H4  UNL     1       0.137  39.420 -23.281  1.00  0.00     0.209 HD
ENDBRANCH  24  25
ENDBRANCH  20  24
ENDBRANCH   1  15
BRANCH  12  27
HETATM   27  C11 UNL     1       3.067  34.092 -23.649  1.00  0.00     0.063 C 
BRANCH  27  28
HETATM   28  C12 UNL     1       3.972  32.903 -23.545  1.00  0.00     0.049 C 
BRANCH  28  29
HETATM   29  C13 UNL     1       5.136  33.110 -24.535  1.00  0.00    -0.006 C 
HETATM   30  C14 UNL     1       5.939  31.852 -24.565  1.00  0.00     0.031 C 
HETATM   31  C15 UNL     1       7.387  32.059 -24.914  1.00  0.00     0.168 C 
HETATM   32  O2  UNL     1       7.994  33.074 -24.219  1.00  0.00    -0.391 OA
HETATM   33  C16 UNL     1       7.200  33.694 -23.286  1.00  0.00     0.168 C 
HETATM   34  C17 UNL     1       5.973  34.235 -23.994  1.00  0.00     0.031 C 
ENDBRANCH  28  29
ENDBRANCH  27  28
ENDBRANCH  12  27
TORSDOF 7
ENDMDL
MODEL 5
REMARK VINA RESULT: -8.871288577      0.947      1.435
REMARK  7 active torsions:
REMARK  status: ('A' for Active; 'I' for Inactive)
REMARK    1  A    between atoms: C2_2  and  O1_3 
REMARK    2  A    between atoms: C5_7  and  N1_8 
REMARK    3  A    between atoms: N4_19  and  C11_21 
REMARK    4  A    between atoms: C11_21  and  C12_22 
REMARK    5  A    between atoms: C12_22  and  C13_23 
REMARK    6  A    between atoms: C19_31  and  C20_32 
REMARK    7  A    between atoms: C20_32  and  O4_33 
ROOT
HETATM    1  N1  UNL     1      -1.150  34.377 -24.731  1.00  0.00    -0.310 N 
HETATM    2  C6  UNL     1      -2.493  34.205 -24.535  1.00  0.00     0.186 A 
HETATM    3  N2  UNL     1      -2.657  33.396 -23.465  1.00  0.00    -0.349 N 
ATOM      4  H2  UNL     1      -3.545  33.085 -23.073  1.00  0.00     0.167 HD
HETATM    5  C7  UNL     1      -1.434  33.079 -23.014  1.00  0.00     0.087 A 
HETATM    6  C8  UNL     1      -1.071  32.286 -21.951  1.00  0.00     0.078 A 
HETATM    7 CL1  UNL     1      -2.275  31.523 -20.968  1.00  0.00    -0.080 Cl
HETATM    8  C9  UNL     1       0.290  32.124 -21.704  1.00  0.00     0.116 A 
HETATM    9  N3  UNL     1       1.230  32.714 -22.464  1.00  0.00    -0.349 N 
ATOM     10  H3  UNL     1       2.214  32.567 -22.244  1.00  0.00     0.167 HD
HETATM   11  C10 UNL     1       0.897  33.493 -23.505  1.00  0.00     0.134 A 
HETATM   12  N4  UNL     1       1.710  34.057 -24.238  1.00  0.00    -0.354 N 
ATOM     13  H4  UNL     1       1.174  34.572 -24.937  1.00  0.00     0.166 HD
HETATM   14  C18 UNL     1      -0.476  33.679 -23.787  1.00  0.00     0.111 A 
ENDROOT
BRANCH   1  15
HETATM   15  C5  UNL     1      -0.570  35.173 -25.774  1.00  0.00     0.229 C 
HETATM   16  C4  UNL     1      -1.550  35.411 -26.930  1.00  0.00     0.057 C 
HETATM   17  C3  UNL     1      -0.736  36.054 -28.019  1.00  0.00     0.044 C 
HETATM   18  C2  UNL     1      -0.205  37.360 -27.481  1.00  0.00     0.082 C 
HETATM   19  C1  UNL     1       0.954  37.760 -28.404  1.00  0.00     0.049 C 
HETATM   20  C19 UNL     1       0.334  37.279 -26.101  1.00  0.00     0.181 C 
HETATM   21  O3  UNL     1      -0.344  36.454 -25.242  1.00  0.00    -0.356 OA
BRANCH  18  22
HETATM   22  O1  UNL     1      -1.188  38.317 -27.663  1.00  0.00    -0.388 OA
ATOM     23  H1  UNL     1      -1.747  38.270 -26.896  1.00  0.00     0.210 HD
ENDBRANCH  18  22
BRANCH  20  24
HETATM   24  C20 UNL     1       0.300  38.677 -25.512  1.00  0.00     0.199 C 
BRANCH  24  25
HETATM   25  O4  UNL     1      -0.945  38.832 -24.904  1.00  0.00    -0.398 OA
ATOM     26  H4  UNL     1      -0.844  39.494 -24.230  1.00  0.00     0.209 HD
ENDBRANCH  24  25
ENDBRANCH  20  24
ENDBRANCH   1  15
BRANCH  12  27
HETATM   27  C11 UNL     1       3.035  34.281 -24.503  1.00  0.00     0.063 C 
BRANCH  27  28
HETATM   28  C12 UNL     1       4.081  33.896 -23.503  1.00  0.00     0.049 C 
BRANCH  28  29
HETATM   29  C13 UNL     1       5.329  34.762 -23.770  1.00  0.00    -0.006 C 
HETATM   30  C14 UNL     1       6.534  33.910 -23.536  1.00  0.00     0.031 C 
HETATM   31  C15 UNL     1       7.752  34.680 -23.110  1.00  0.00     0.168 C 
HETATM   32  O2  UNL     1       7.523  35.585 -22.105  1.00  0.00    -0.391 OA
HETATM   33  C16 UNL     1       6.239  35.601 -21.619  1.00  0.00     0.168 C 
HETATM   34  C17 UNL     1       5.300  35.886 -22.776  1.00  0.00     0.031 C 
ENDBRANCH  28  29
ENDBRANCH  27  28
ENDBRANCH  12  27
TORSDOF 7
ENDMDL
