MODEL 1
REMARK VINA RESULT: -8.612752346      0.000      0.000
REMARK  6 active torsions:
REMARK  status: ('A' for Active; 'I' for Inactive)
REMARK    1  A    between atoms: C2_3  and  N1_4 
REMARK    2  A    between atoms: C6_8  and  N2_9 
REMARK    3  A    between atoms: N2_9  and  C7_11 
REMARK    4  A    between atoms: C7_11  and  C8_12 
REMARK    5  A    between atoms: C17_28  and  N6_29 
REMARK    6  A    between atoms: N6_29  and  C18_31 
ROOT
HETATM    1 CL1  UNL     1       6.300  33.100 -23.266  1.00  0.00    -0.076 Cl
HETATM    2  C1  UNL     1       5.508  31.900 -24.257  1.00  0.00     0.121 A 
HETATM    3  C2  UNL     1       4.181  31.998 -24.565  1.00  0.00     0.130 A 
HETATM    4  N4  UNL     1       3.707  30.945 -25.331  1.00  0.00    -0.337 N 
ATOM      5  H4  UNL     1       2.722  30.956 -25.597  1.00  0.00     0.168 HD
HETATM    6  C16 UNL     1       4.444  29.925 -25.742  1.00  0.00     0.183 A 
HETATM    7  N5  UNL     1       5.753  29.841 -25.432  1.00  0.00    -0.337 N 
ATOM      8  H5  UNL     1       6.325  29.057 -25.747  1.00  0.00     0.168 HD
HETATM    9  C17 UNL     1       6.274  30.833 -24.690  1.00  0.00     0.132 A 
ENDROOT
BRANCH   3  10
HETATM   10  N1  UNL     1       3.291  33.037 -24.237  1.00  0.00    -0.364 N 
HETATM   11  C3  UNL     1       3.023  33.217 -22.778  1.00  0.00     0.124 C 
HETATM   12  C4  UNL     1       1.593  32.741 -22.574  1.00  0.00     0.022 C 
HETATM   13  C5  UNL     1       0.883  32.501 -23.900  1.00  0.00     0.028 C 
HETATM   14  C6  UNL     1       1.030  33.728 -24.793  1.00  0.00     0.094 C 
HETATM   15  C15 UNL     1       2.545  33.939 -25.051  1.00  0.00     0.149 C 
BRANCH  14  16
HETATM   16  N2  UNL     1       0.394  34.888 -24.294  1.00  0.00    -0.413 N 
ATOM     17  H2  UNL     1      -0.473  34.843 -23.759  1.00  0.00     0.153 HD
BRANCH  16  18
HETATM   18  C7  UNL     1       1.036  36.118 -24.582  1.00  0.00     0.153 C 
BRANCH  18  19
HETATM   19  C8  UNL     1       0.611  36.832 -25.814  1.00  0.00     0.141 C 
HETATM   20  C9  UNL     1       0.209  38.283 -25.525  1.00  0.00     0.041 C 
HETATM   21  C10 UNL     1      -0.806  38.679 -26.599  1.00  0.00     0.009 C 
HETATM   22  C11 UNL     1      -0.350  37.963 -27.882  1.00  0.00     0.011 C 
HETATM   23  C12 UNL     1      -0.919  36.546 -27.782  1.00  0.00     0.009 C 
HETATM   24  C14 UNL     1       1.165  37.839 -27.866  1.00  0.00     0.238 C 
HETATM   25  C13 UNL     1      -0.596  36.072 -26.374  1.00  0.00     0.041 C 
HETATM   26  N3  UNL     1       1.616  36.903 -26.842  1.00  0.00    -0.064 N 
ATOM     27  H32 UNL     1       2.537  37.140 -26.474  1.00  0.00     0.278 HD
ATOM     28  H31 UNL     1       1.850  35.987 -27.225  1.00  0.00     0.278 HD
ENDBRANCH  18  19
ENDBRANCH  16  18
ENDBRANCH  14  16
ENDBRANCH   3  10
BRANCH   9  29
HETATM   29  N6  UNL     1       7.542  30.778 -24.383  1.00  0.00    -0.339 N 
ATOM     30  H6  UNL     1       7.809  30.624 -23.410  1.00  0.00     0.167 HD
BRANCH  29  31
HETATM   31  C18 UNL     1       8.567  30.928 -25.367  1.00  0.00     0.064 A 
HETATM   32  C19 UNL     1       9.575  29.955 -25.471  1.00  0.00     0.119 A 
HETATM   33  N7  UNL     1      10.532  30.112 -26.393  1.00  0.00    -0.360 N 
HETATM   34  C20 UNL     1      10.592  31.157 -27.239  1.00  0.00     0.180 A 
ATOM     35  H7  UNL     1      11.258  29.399 -26.458  1.00  0.00     0.166 HD
HETATM   36  N8  UNL     1       9.625  32.080 -27.132  1.00  0.00    -0.360 N 
HETATM   37  C21 UNL     1       8.636  31.990 -26.235  1.00  0.00     0.119 A 
ATOM     38  H8  UNL     1       9.644  32.883 -27.760  1.00  0.00     0.166 HD
ENDBRANCH  29  31
ENDBRANCH   9  29
TORSDOF 6
ENDMDL
MODEL 2
REMARK VINA RESULT: -8.595884832      0.537      1.106
REMARK  6 active torsions:
REMARK  status: ('A' for Active; 'I' for Inactive)
REMARK    1  A    between atoms: C2_3  and  N1_4 
REMARK    2  A    between atoms: C6_8  and  N2_9 
REMARK    3  A    between atoms: N2_9  and  C7_11 
REMARK    4  A    between atoms: C7_11  and  C8_12 
REMARK    5  A    between atoms: C17_28  and  N6_29 
REMARK    6  A    between atoms: N6_29  and  C18_31 
ROOT
HETATM    1 CL1  UNL     1       6.297  33.126 -23.272  1.00  0.00    -0.076 Cl
HETATM    2  C1  UNL     1       5.498  31.891 -24.214  1.00  0.00     0.121 A 
HETATM    3  C2  UNL     1       4.166  31.972 -24.504  1.00  0.00     0.130 A 
HETATM    4  N4  UNL     1       3.687  30.893 -25.230  1.00  0.00    -0.337 N 
ATOM      5  H4  UNL     1       2.698  30.891 -25.481  1.00  0.00     0.168 HD
HETATM    6  C16 UNL     1       4.424  29.865 -25.621  1.00  0.00     0.183 A 
HETATM    7  N5  UNL     1       5.738  29.799 -25.329  1.00  0.00    -0.337 N 
ATOM      8  H5  UNL     1       6.310  29.009 -25.629  1.00  0.00     0.168 HD
HETATM    9  C17 UNL     1       6.264  30.816 -24.625  1.00  0.00     0.132 A 
ENDROOT
BRANCH   3  10
HETATM   10  N1  UNL     1       3.274  33.015 -24.194  1.00  0.00    -0.364 N 
HETATM   11  C3  UNL     1       3.028  33.239 -22.737  1.00  0.00     0.124 C 
HETATM   12  C4  UNL     1       1.605  32.762 -22.496  1.00  0.00     0.022 C 
HETATM   13  C5  UNL     1       0.876  32.476 -23.802  1.00  0.00     0.028 C 
HETATM   14  C6  UNL     1       1.000  33.675 -24.735  1.00  0.00     0.094 C 
HETATM   15  C15 UNL     1       2.510  33.887 -25.023  1.00  0.00     0.149 C 
BRANCH  14  16
HETATM   16  N2  UNL     1       0.365  34.847 -24.262  1.00  0.00    -0.413 N 
ATOM     17  H2  UNL     1      -0.490  34.813 -23.708  1.00  0.00     0.153 HD
BRANCH  16  18
HETATM   18  C7  UNL     1       0.991  36.072 -24.604  1.00  0.00     0.153 C 
BRANCH  18  19
HETATM   19  C8  UNL     1       0.425  36.824 -25.753  1.00  0.00     0.141 C 
HETATM   20  C9  UNL     1      -0.791  36.114 -26.360  1.00  0.00     0.041 C 
HETATM   21  C10 UNL     1      -0.851  36.528 -27.832  1.00  0.00     0.009 C 
HETATM   22  C11 UNL     1      -0.376  37.991 -27.869  1.00  0.00     0.011 C 
HETATM   23  C12 UNL     1       1.152  37.923 -27.888  1.00  0.00     0.009 C 
HETATM   24  C14 UNL     1      -0.777  38.672 -26.571  1.00  0.00     0.238 C 
HETATM   25  C13 UNL     1       1.533  36.925 -26.807  1.00  0.00     0.041 C 
HETATM   26  N3  UNL     1      -0.019  38.156 -25.437  1.00  0.00    -0.064 N 
ATOM     27  H32 UNL     1      -0.544  38.198 -24.563  1.00  0.00     0.278 HD
ATOM     28  H31 UNL     1       0.749  38.771 -25.167  1.00  0.00     0.278 HD
ENDBRANCH  18  19
ENDBRANCH  16  18
ENDBRANCH  14  16
ENDBRANCH   3  10
BRANCH   9  29
HETATM   29  N6  UNL     1       7.537  30.778 -24.337  1.00  0.00    -0.339 N 
ATOM     30  H6  UNL     1       7.820  30.626 -23.368  1.00  0.00     0.167 HD
BRANCH  29  31
HETATM   31  C18 UNL     1       8.546  30.944 -25.335  1.00  0.00     0.064 A 
HETATM   32  C19 UNL     1       9.563  29.982 -25.458  1.00  0.00     0.119 A 
HETATM   33  N7  UNL     1      10.504  30.155 -26.394  1.00  0.00    -0.360 N 
HETATM   34  C20 UNL     1      10.541  31.204 -27.236  1.00  0.00     0.180 A 
ATOM     35  H7  UNL     1      11.237  29.449 -26.473  1.00  0.00     0.166 HD
HETATM   36  N8  UNL     1       9.565  32.115 -27.110  1.00  0.00    -0.360 N 
HETATM   37  C21 UNL     1       8.590  32.011 -26.199  1.00  0.00     0.119 A 
ATOM     38  H8  UNL     1       9.566  32.922 -27.734  1.00  0.00     0.166 HD
ENDBRANCH  29  31
ENDBRANCH   9  29
TORSDOF 6
ENDMDL
MODEL 3
REMARK VINA RESULT: -8.499707407      3.873      8.634
REMARK  6 active torsions:
REMARK  status: ('A' for Active; 'I' for Inactive)
REMARK    1  A    between atoms: C2_3  and  N1_4 
REMARK    2  A    between atoms: C6_8  and  N2_9 
REMARK    3  A    between atoms: N2_9  and  C7_11 
REMARK    4  A    between atoms: C7_11  and  C8_12 
REMARK    5  A    between atoms: C17_28  and  N6_29 
REMARK    6  A    between atoms: N6_29  and  C18_31 
ROOT
HETATM    1 CL1  UNL     1       4.293  37.043 -23.162  1.00  0.00    -0.076 Cl
HETATM    2  C1  UNL     1       2.671  37.681 -23.269  1.00  0.00     0.121 A 
HETATM    3  C2  UNL     1       1.683  37.001 -23.921  1.00  0.00     0.130 A 
HETATM    4  N4  UNL     1       0.467  37.665 -23.940  1.00  0.00    -0.337 N 
ATOM      5  H4  UNL     1      -0.315  37.211 -24.412  1.00  0.00     0.168 HD
HETATM    6  C16 UNL     1       0.250  38.848 -23.386  1.00  0.00     0.183 A 
HETATM    7  N5  UNL     1       1.233  39.508 -22.744  1.00  0.00    -0.337 N 
ATOM      8  H5  UNL     1       1.070  40.420 -22.316  1.00  0.00     0.168 HD
HETATM    9  C17 UNL     1       2.439  38.916 -22.692  1.00  0.00     0.132 A 
ENDROOT
BRANCH   3  10
HETATM   10  N1  UNL     1       1.755  35.727 -24.515  1.00  0.00    -0.364 N 
HETATM   11  C3  UNL     1       0.599  35.358 -25.387  1.00  0.00     0.124 C 
HETATM   12  C4  UNL     1      -0.157  34.290 -24.614  1.00  0.00     0.022 C 
HETATM   13  C5  UNL     1       0.626  33.809 -23.399  1.00  0.00     0.028 C 
HETATM   14  C6  UNL     1       2.039  33.418 -23.819  1.00  0.00     0.094 C 
HETATM   15  C15 UNL     1       2.719  34.683 -24.405  1.00  0.00     0.149 C 
BRANCH  14  16
HETATM   16  N2  UNL     1       2.097  32.311 -24.698  1.00  0.00    -0.413 N 
ATOM     17  H2  UNL     1       1.579  32.289 -25.576  1.00  0.00     0.153 HD
BRANCH  16  18
HETATM   18  C7  UNL     1       2.919  31.234 -24.282  1.00  0.00     0.153 C 
BRANCH  18  19
HETATM   19  C8  UNL     1       4.286  31.162 -24.860  1.00  0.00     0.141 C 
HETATM   20  C9  UNL     1       4.902  29.767 -24.704  1.00  0.00     0.041 C 
HETATM   21  C10 UNL     1       6.419  29.960 -24.664  1.00  0.00     0.009 C 
HETATM   22  C11 UNL     1       6.713  31.124 -25.625  1.00  0.00     0.011 C 
HETATM   23  C12 UNL     1       6.470  32.396 -24.811  1.00  0.00     0.009 C 
HETATM   24  C14 UNL     1       5.689  31.107 -26.747  1.00  0.00     0.238 C 
HETATM   25  C13 UNL     1       5.142  32.184 -24.103  1.00  0.00     0.041 C 
HETATM   26  N3  UNL     1       4.359  31.466 -26.265  1.00  0.00    -0.064 N 
ATOM     27  H32 UNL     1       3.615  31.021 -26.802  1.00  0.00     0.278 HD
ATOM     28  H31 UNL     1       4.117  32.436 -26.470  1.00  0.00     0.278 HD
ENDBRANCH  18  19
ENDBRANCH  16  18
ENDBRANCH  14  16
ENDBRANCH   3  10
BRANCH   9  29
HETATM   29  N6  UNL     1       3.406  39.532 -22.068  1.00  0.00    -0.339 N 
ATOM     30  H6  UNL     1       4.151  39.965 -22.615  1.00  0.00     0.167 HD
BRANCH  29  31
HETATM   31  C18 UNL     1       3.454  39.620 -20.642  1.00  0.00     0.064 A 
HETATM   32  C19 UNL     1       3.802  38.485 -19.890  1.00  0.00     0.119 A 
HETATM   33  N7  UNL     1       3.835  38.580 -18.556  1.00  0.00    -0.360 N 
HETATM   34  C20 UNL     1       3.554  39.708 -17.878  1.00  0.00     0.180 A 
ATOM     35  H7  UNL     1       4.089  37.749 -18.021  1.00  0.00     0.166 HD
HETATM   36  N8  UNL     1       3.224  40.785 -18.605  1.00  0.00    -0.360 N 
HETATM   37  C21 UNL     1       3.169  40.766 -19.942  1.00  0.00     0.119 A 
ATOM     38  H8  UNL     1       3.005  41.655 -18.120  1.00  0.00     0.166 HD
ENDBRANCH  29  31
ENDBRANCH   9  29
TORSDOF 6
ENDMDL
MODEL 4
REMARK VINA RESULT: -8.481524995      5.255      9.019
REMARK  6 active torsions:
REMARK  status: ('A' for Active; 'I' for Inactive)
REMARK    1  A    between atoms: C2_3  and  N1_4 
REMARK    2  A    between atoms: C6_8  and  N2_9 
REMARK    3  A    between atoms: N2_9  and  C7_11 
REMARK    4  A    between atoms: C7_11  and  C8_12 
REMARK    5  A    between atoms: C17_28  and  N6_29 
REMARK    6  A    between atoms: N6_29  and  C18_31 
ROOT
HETATM    1 CL1  UNL     1       4.973  38.682 -24.226  1.00  0.00    -0.076 Cl
HETATM    2  C1  UNL     1       4.503  38.996 -22.574  1.00  0.00     0.121 A 
HETATM    3  C2  UNL     1       4.382  37.983 -21.666  1.00  0.00     0.130 A 
HETATM    4  N4  UNL     1       3.967  38.404 -20.413  1.00  0.00    -0.337 N 
ATOM      5  H4  UNL     1       3.857  37.696 -19.687  1.00  0.00     0.168 HD
HETATM    6  C16 UNL     1       3.706  39.662 -20.092  1.00  0.00     0.183 A 
HETATM    7  N5  UNL     1       3.831  40.652 -20.997  1.00  0.00    -0.337 N 
ATOM      8  H5  UNL     1       3.631  41.623 -20.754  1.00  0.00     0.168 HD
HETATM    9  C17 UNL     1       4.229  40.308 -22.233  1.00  0.00     0.132 A 
ENDROOT
BRANCH   3  10
HETATM   10  N1  UNL     1       4.664  36.617 -21.850  1.00  0.00    -0.364 N 
HETATM   11  C3  UNL     1       5.374  35.949 -20.717  1.00  0.00     0.124 C 
HETATM   12  C4  UNL     1       6.782  35.690 -21.227  1.00  0.00     0.022 C 
HETATM   13  C5  UNL     1       6.900  35.954 -22.723  1.00  0.00     0.028 C 
HETATM   14  C6  UNL     1       5.800  35.205 -23.467  1.00  0.00     0.094 C 
HETATM   15  C15 UNL     1       4.439  35.743 -22.953  1.00  0.00     0.149 C 
BRANCH  14  16
HETATM   16  N2  UNL     1       5.898  33.796 -23.381  1.00  0.00    -0.413 N 
ATOM     17  H2  UNL     1       6.759  33.330 -23.096  1.00  0.00     0.153 HD
BRANCH  16  18
HETATM   18  C7  UNL     1       4.726  33.073 -23.715  1.00  0.00     0.153 C 
BRANCH  18  19
HETATM   19  C8  UNL     1       4.879  31.932 -24.655  1.00  0.00     0.141 C 
HETATM   20  C9  UNL     1       4.054  30.716 -24.217  1.00  0.00     0.041 C 
HETATM   21  C10 UNL     1       4.769  29.480 -24.770  1.00  0.00     0.009 C 
HETATM   22  C11 UNL     1       5.346  29.911 -26.130  1.00  0.00     0.011 C 
HETATM   23  C12 UNL     1       6.670  30.607 -25.808  1.00  0.00     0.009 C 
HETATM   24  C14 UNL     1       4.430  30.955 -26.746  1.00  0.00     0.238 C 
HETATM   25  C13 UNL     1       6.366  31.561 -24.666  1.00  0.00     0.041 C 
HETATM   26  N3  UNL     1       4.475  32.212 -26.008  1.00  0.00    -0.064 N 
ATOM     27  H32 UNL     1       3.595  32.726 -26.056  1.00  0.00     0.278 HD
ATOM     28  H31 UNL     1       5.068  32.909 -26.458  1.00  0.00     0.278 HD
ENDBRANCH  18  19
ENDBRANCH  16  18
ENDBRANCH  14  16
ENDBRANCH   3  10
BRANCH   9  29
HETATM   29  N6  UNL     1       4.366  41.252 -23.127  1.00  0.00    -0.339 N 
ATOM     30  H6  UNL     1       3.582  41.465 -23.744  1.00  0.00     0.167 HD
BRANCH  29  31
HETATM   31  C18 UNL     1       5.578  41.995 -23.265  1.00  0.00     0.064 A 
HETATM   32  C19 UNL     1       6.312  41.906 -24.460  1.00  0.00     0.119 A 
HETATM   33  N7  UNL     1       7.450  42.603 -24.571  1.00  0.00    -0.360 N 
HETATM   34  C20 UNL     1       7.943  43.393 -23.600  1.00  0.00     0.180 A 
ATOM     35  H7  UNL     1       7.973  42.530 -25.444  1.00  0.00     0.166 HD
HETATM   36  N8  UNL     1       7.234  43.470 -22.464  1.00  0.00    -0.360 N 
HETATM   37  C21 UNL     1       6.089  42.804 -22.279  1.00  0.00     0.119 A 
ATOM     38  H8  UNL     1       7.583  44.061 -21.710  1.00  0.00     0.166 HD
ENDBRANCH  29  31
ENDBRANCH   9  29
TORSDOF 6
ENDMDL
MODEL 5
REMARK VINA RESULT: -8.364983734      1.057      1.905
REMARK  6 active torsions:
REMARK  status: ('A' for Active; 'I' for Inactive)
REMARK    1  A    between atoms: C2_3  and  N1_4 
REMARK    2  A    between atoms: C6_8  and  N2_9 
REMARK    3  A    between atoms: N2_9  and  C7_11 
REMARK    4  A    between atoms: C7_11  and  C8_12 
REMARK    5  A    between atoms: C17_28  and  N6_29 
REMARK    6  A    between atoms: N6_29  and  C18_31 
ROOT
HETATM    1 CL1  UNL     1       6.161  33.120 -23.211  1.00  0.00    -0.076 Cl
HETATM    2  C1  UNL     1       5.410  31.913 -24.227  1.00  0.00     0.121 A 
HETATM    3  C2  UNL     1       4.089  31.992 -24.563  1.00  0.00     0.130 A 
HETATM    4  N4  UNL     1       3.649  30.936 -25.345  1.00  0.00    -0.337 N 
ATOM      5  H4  UNL     1       2.670  30.933 -25.632  1.00  0.00     0.168 HD
HETATM    6  C16 UNL     1       4.411  29.931 -25.748  1.00  0.00     0.183 A 
HETATM    7  N5  UNL     1       5.715  29.867 -25.411  1.00  0.00    -0.337 N 
ATOM      8  H5  UNL     1       6.306  29.095 -25.719  1.00  0.00     0.168 HD
HETATM    9  C17 UNL     1       6.203  30.862 -24.651  1.00  0.00     0.132 A 
ENDROOT
BRANCH   3  10
HETATM   10  N1  UNL     1       3.174  33.013 -24.247  1.00  0.00    -0.364 N 
HETATM   11  C3  UNL     1       2.928  33.226 -22.788  1.00  0.00     0.124 C 
HETATM   12  C4  UNL     1       1.517  32.716 -22.543  1.00  0.00     0.022 C 
HETATM   13  C5  UNL     1       0.790  32.418 -23.848  1.00  0.00     0.028 C 
HETATM   14  C6  UNL     1       0.885  33.623 -24.778  1.00  0.00     0.094 C 
HETATM   15  C15 UNL     1       2.388  33.870 -25.070  1.00  0.00     0.149 C 
BRANCH  14  16
HETATM   16  N2  UNL     1       0.224  34.778 -24.299  1.00  0.00    -0.413 N 
ATOM     17  H2  UNL     1       0.086  34.949 -23.303  1.00  0.00     0.153 HD
BRANCH  16  18
HETATM   18  C7  UNL     1      -0.234  35.684 -25.288  1.00  0.00     0.153 C 
BRANCH  18  19
HETATM   19  C8  UNL     1       0.191  37.102 -25.157  1.00  0.00     0.141 C 
HETATM   20  C9  UNL     1       1.132  37.524 -26.292  1.00  0.00     0.041 C 
HETATM   21  C10 UNL     1       2.012  38.647 -25.737  1.00  0.00     0.009 C 
HETATM   22  C11 UNL     1       1.108  39.446 -24.784  1.00  0.00     0.011 C 
HETATM   23  C12 UNL     1       1.139  38.685 -23.457  1.00  0.00     0.009 C 
HETATM   24  C14 UNL     1      -0.321  39.393 -25.297  1.00  0.00     0.238 C 
HETATM   25  C13 UNL     1       0.925  37.224 -23.817  1.00  0.00     0.041 C 
HETATM   26  N3  UNL     1      -0.887  38.054 -25.168  1.00  0.00    -0.064 N 
ATOM     27  H32 UNL     1      -1.581  37.852 -25.889  1.00  0.00     0.278 HD
ATOM     28  H31 UNL     1      -1.498  37.964 -24.357  1.00  0.00     0.278 HD
ENDBRANCH  18  19
ENDBRANCH  16  18
ENDBRANCH  14  16
ENDBRANCH   3  10
BRANCH   9  29
HETATM   29  N6  UNL     1       7.465  30.826 -24.317  1.00  0.00    -0.339 N 
ATOM     30  H6  UNL     1       7.714  30.741 -23.331  1.00  0.00     0.167 HD
BRANCH  29  31
HETATM   31  C18 UNL     1       8.508  30.903 -25.291  1.00  0.00     0.064 A 
HETATM   32  C19 UNL     1       8.558  32.000 -26.167  1.00  0.00     0.119 A 
HETATM   33  N7  UNL     1       9.537  32.055 -27.079  1.00  0.00    -0.360 N 
HETATM   34  C20 UNL     1      10.490  31.114 -27.212  1.00  0.00     0.180 A 
ATOM     35  H7  UNL     1       9.562  32.857 -27.709  1.00  0.00     0.166 HD
HETATM   36  N8  UNL     1      10.433  30.072 -26.369  1.00  0.00    -0.360 N 
HETATM   37  C21 UNL     1       9.485  29.949 -25.433  1.00  0.00     0.119 A 
ATOM     38  H8  UNL     1      11.142  29.343 -26.446  1.00  0.00     0.166 HD
ENDBRANCH  29  31
ENDBRANCH   9  29
TORSDOF 6
ENDMDL
