MODEL 1
REMARK VINA RESULT: -8.111631675      0.000      0.000
REMARK  8 active torsions:
REMARK  status: ('A' for Active; 'I' for Inactive)
REMARK    1  A    between atoms: C2_2  and  N1_3 
REMARK       I    between atoms: N1_3  and  C3_5 
REMARK       I    between atoms: C3_5  and  N2_7 
REMARK    2  A    between atoms: N2_7  and  C4_9 
REMARK    3  A    between atoms: C5_14  and  C6_15 
REMARK    4  A    between atoms: C6_15  and  C7_16 
REMARK    5  A    between atoms: C12_23  and  C13_24 
REMARK    6  A    between atoms: C13_24  and  C14_25 
REMARK    7  A    between atoms: C14_25  and  O3_27 
REMARK    8  A    between atoms: O3_27  and  C15_28 
ROOT
HETATM    1  C7  UNL     1       2.385  36.251 -25.861  1.00  0.00     0.170 C 
HETATM    2  C8  UNL     1       1.710  37.375 -26.464  1.00  0.00     0.062 C 
HETATM    3  N5  UNL     1       1.170  38.284 -26.973  1.00  0.00    -0.197 NA
ENDROOT
BRANCH   1   4
HETATM    4  C6  UNL     1       1.882  35.953 -24.478  1.00  0.00     0.188 C 
HETATM    5  C9  UNL     1       0.384  36.029 -24.376  1.00  0.00     0.050 C 
HETATM    6  C10 UNL     1      -0.301  34.728 -24.670  1.00  0.00     0.042 C 
HETATM    7  C11 UNL     1       0.452  33.524 -24.251  1.00  0.00     0.201 C 
HETATM    8  F1  UNL     1       0.418  33.302 -22.883  1.00  0.00    -0.247 F 
HETATM    9  C12 UNL     1       1.920  33.628 -24.663  1.00  0.00     0.230 C 
HETATM   10  N6  UNL     1       2.456  34.755 -23.953  1.00  0.00    -0.052 N 
ATOM     11  H62 UNL     1       3.475  34.775 -23.968  1.00  0.00     0.279 HD
ATOM     12  H61 UNL     1       2.330  34.674 -22.944  1.00  0.00     0.279 HD
BRANCH   4  13
HETATM   13  C5  UNL     1       2.383  37.076 -23.594  1.00  0.00     0.107 A 
HETATM   14  N4  UNL     1       1.707  38.145 -23.201  1.00  0.00    -0.293 N 
HETATM   15  N3  UNL     1       2.256  39.014 -22.459  1.00  0.00    -0.279 N 
ATOM     16  H4  UNL     1       0.740  38.271 -23.497  1.00  0.00     0.187 HD
HETATM   17  C4  UNL     1       3.529  38.822 -22.084  1.00  0.00     0.169 A 
ATOM     18  H3  UNL     1       1.740  39.840 -22.154  1.00  0.00     0.189 HD
HETATM   19  S1  UNL     1       3.896  37.337 -22.850  1.00  0.00    -0.035 SA
BRANCH  17  20
HETATM   20  N2  UNL     1       4.258  39.606 -21.322  1.00  0.00    -0.288 N 
HETATM   21  C3  UNL     1       3.559  40.458 -20.441  1.00  0.00     0.322 C 
HETATM   22  N1  UNL     1       3.185  40.041 -19.137  1.00  0.00    -0.343 N 
HETATM   23  O1  UNL     1       3.270  41.609 -20.839  1.00  0.00    -0.247 OA
ATOM     24  H1  UNL     1       3.427  39.100 -18.826  1.00  0.00     0.164 HD
ATOM     25  H2  UNL     1       5.277  39.600 -21.365  1.00  0.00     0.172 HD
BRANCH  22  26
HETATM   26  C2  UNL     1       2.461  40.932 -18.230  1.00  0.00     0.120 C 
HETATM   27  C1  UNL     1       1.986  40.225 -16.995  1.00  0.00     0.026 C 
ENDBRANCH  22  26
ENDBRANCH  17  20
ENDBRANCH   4  13
BRANCH   9  28
HETATM   28  C13 UNL     1       2.648  32.341 -24.321  1.00  0.00     0.147 C 
BRANCH  28  29
HETATM   29  C14 UNL     1       4.108  32.508 -24.387  1.00  0.00     0.261 C 
HETATM   30  O2  UNL     1       4.727  33.129 -23.489  1.00  0.00    -0.265 OA
BRANCH  29  31
HETATM   31  O3  UNL     1       4.818  31.985 -25.439  1.00  0.00    -0.311 OA
BRANCH  31  32
HETATM   32  C15 UNL     1       5.668  30.873 -25.376  1.00  0.00     0.060 C 
HETATM   33  C16 UNL     1       6.171  30.596 -26.794  1.00  0.00     0.045 C 
HETATM   34  C17 UNL     1       4.927  29.627 -24.930  1.00  0.00     0.045 C 
HETATM   35  C18 UNL     1       6.867  31.051 -24.485  1.00  0.00     0.045 C 
ENDBRANCH  31  32
ENDBRANCH  29  31
ENDBRANCH  28  29
ENDBRANCH   9  28
ENDBRANCH   1   4
TORSDOF 8
ENDMDL
MODEL 2
REMARK VINA RESULT: -7.977188001      2.028      2.474
REMARK  8 active torsions:
REMARK  status: ('A' for Active; 'I' for Inactive)
REMARK    1  A    between atoms: C2_2  and  N1_3 
REMARK       I    between atoms: N1_3  and  C3_5 
REMARK       I    between atoms: C3_5  and  N2_7 
REMARK    2  A    between atoms: N2_7  and  C4_9 
REMARK    3  A    between atoms: C5_14  and  C6_15 
REMARK    4  A    between atoms: C6_15  and  C7_16 
REMARK    5  A    between atoms: C12_23  and  C13_24 
REMARK    6  A    between atoms: C13_24  and  C14_25 
REMARK    7  A    between atoms: C14_25  and  O3_27 
REMARK    8  A    between atoms: O3_27  and  C15_28 
ROOT
HETATM    1  C7  UNL     1       1.933  36.419 -25.996  1.00  0.00     0.170 C 
HETATM    2  C8  UNL     1       1.208  37.424 -26.736  1.00  0.00     0.062 C 
HETATM    3  N5  UNL     1       0.629  38.235 -27.354  1.00  0.00    -0.197 NA
ENDROOT
BRANCH   1   4
HETATM    4  C6  UNL     1       1.309  36.125 -24.662  1.00  0.00     0.188 C 
HETATM    5  C9  UNL     1      -0.154  35.798 -24.765  1.00  0.00     0.050 C 
HETATM    6  C10 UNL     1      -0.427  34.337 -24.971  1.00  0.00     0.042 C 
HETATM    7  C11 UNL     1       0.532  33.429 -24.303  1.00  0.00     0.201 C 
HETATM    8  F1  UNL     1       0.338  33.335 -22.934  1.00  0.00    -0.247 F 
HETATM    9  C12 UNL     1       1.971  33.892 -24.531  1.00  0.00     0.230 C 
HETATM   10  N6  UNL     1       2.080  35.183 -23.913  1.00  0.00    -0.052 N 
ATOM     11  H62 UNL     1       3.048  35.478 -23.799  1.00  0.00     0.279 HD
ATOM     12  H61 UNL     1       1.819  35.164 -22.927  1.00  0.00     0.279 HD
BRANCH   4  13
HETATM   13  C5  UNL     1       1.357  37.418 -23.877  1.00  0.00     0.107 A 
HETATM   14  N4  UNL     1       0.327  38.146 -23.471  1.00  0.00    -0.293 N 
HETATM   15  N3  UNL     1       0.514  39.217 -22.820  1.00  0.00    -0.279 N 
ATOM     16  H4  UNL     1      -0.623  37.842 -23.684  1.00  0.00     0.187 HD
HETATM   17  C4  UNL     1       1.775  39.591 -22.554  1.00  0.00     0.169 A 
ATOM     18  H3  UNL     1      -0.275  39.782 -22.506  1.00  0.00     0.189 HD
HETATM   19  S1  UNL     1       2.671  38.331 -23.284  1.00  0.00    -0.035 SA
BRANCH  17  20
HETATM   20  N2  UNL     1       2.162  40.660 -21.896  1.00  0.00    -0.288 N 
HETATM   21  C3  UNL     1       2.243  41.860 -22.633  1.00  0.00     0.322 C 
HETATM   22  N1  UNL     1       1.127  42.724 -22.780  1.00  0.00    -0.343 N 
HETATM   23  O1  UNL     1       3.338  42.153 -23.164  1.00  0.00    -0.247 OA
ATOM     24  H1  UNL     1       0.240  42.473 -22.343  1.00  0.00     0.164 HD
ATOM     25  H2  UNL     1       2.393  40.624 -20.903  1.00  0.00     0.172 HD
BRANCH  22  26
HETATM   26  C2  UNL     1       1.221  43.968 -23.546  1.00  0.00     0.120 C 
HETATM   27  C1  UNL     1       0.137  44.087 -24.575  1.00  0.00     0.026 C 
ENDBRANCH  22  26
ENDBRANCH  17  20
ENDBRANCH   4  13
BRANCH   9  28
HETATM   28  C13 UNL     1       2.940  32.890 -23.932  1.00  0.00     0.147 C 
BRANCH  28  29
HETATM   29  C14 UNL     1       4.253  32.941 -24.592  1.00  0.00     0.261 C 
HETATM   30  O2  UNL     1       5.077  33.849 -24.319  1.00  0.00    -0.265 OA
BRANCH  29  31
HETATM   31  O3  UNL     1       4.599  31.992 -25.522  1.00  0.00    -0.311 OA
BRANCH  31  32
HETATM   32  C15 UNL     1       5.534  30.967 -25.332  1.00  0.00     0.060 C 
HETATM   33  C16 UNL     1       6.171  30.667 -26.691  1.00  0.00     0.045 C 
HETATM   34  C17 UNL     1       4.870  29.682 -24.873  1.00  0.00     0.045 C 
HETATM   35  C18 UNL     1       6.637  31.297 -24.365  1.00  0.00     0.045 C 
ENDBRANCH  31  32
ENDBRANCH  29  31
ENDBRANCH  28  29
ENDBRANCH   9  28
ENDBRANCH   1   4
TORSDOF 8
ENDMDL
MODEL 3
REMARK VINA RESULT: -7.947861115      1.609      2.208
REMARK  8 active torsions:
REMARK  status: ('A' for Active; 'I' for Inactive)
REMARK    1  A    between atoms: C2_2  and  N1_3 
REMARK       I    between atoms: N1_3  and  C3_5 
REMARK       I    between atoms: C3_5  and  N2_7 
REMARK    2  A    between atoms: N2_7  and  C4_9 
REMARK    3  A    between atoms: C5_14  and  C6_15 
REMARK    4  A    between atoms: C6_15  and  C7_16 
REMARK    5  A    between atoms: C12_23  and  C13_24 
REMARK    6  A    between atoms: C13_24  and  C14_25 
REMARK    7  A    between atoms: C14_25  and  O3_27 
REMARK    8  A    between atoms: O3_27  and  C15_28 
ROOT
HETATM    1  C7  UNL     1       1.865  36.364 -26.017  1.00  0.00     0.170 C 
HETATM    2  C8  UNL     1       1.138  37.374 -26.748  1.00  0.00     0.062 C 
HETATM    3  N5  UNL     1       0.558  38.190 -27.360  1.00  0.00    -0.197 NA
ENDROOT
BRANCH   1   4
HETATM    4  C6  UNL     1       1.257  36.078 -24.674  1.00  0.00     0.188 C 
HETATM    5  C9  UNL     1      -0.204  35.735 -24.759  1.00  0.00     0.050 C 
HETATM    6  C10 UNL     1      -0.464  34.269 -24.946  1.00  0.00     0.042 C 
HETATM    7  C11 UNL     1       0.512  33.378 -24.279  1.00  0.00     0.201 C 
HETATM    8  F1  UNL     1       0.333  33.296 -22.906  1.00  0.00    -0.247 F 
HETATM    9  C12 UNL     1       1.944  33.854 -24.527  1.00  0.00     0.230 C 
HETATM   10  N6  UNL     1       2.045  35.153 -23.923  1.00  0.00    -0.052 N 
ATOM     11  H62 UNL     1       3.012  35.459 -23.822  1.00  0.00     0.279 HD
ATOM     12  H61 UNL     1       1.794  35.142 -22.935  1.00  0.00     0.279 HD
BRANCH   4  13
HETATM   13  C5  UNL     1       1.299  37.380 -23.903  1.00  0.00     0.107 A 
HETATM   14  N4  UNL     1       0.266  38.112 -23.512  1.00  0.00    -0.293 N 
HETATM   15  N3  UNL     1       0.448  39.191 -22.873  1.00  0.00    -0.279 N 
ATOM     16  H4  UNL     1      -0.682  37.805 -23.728  1.00  0.00     0.187 HD
HETATM   17  C4  UNL     1       1.707  39.568 -22.602  1.00  0.00     0.169 A 
ATOM     18  H3  UNL     1      -0.343  39.758 -22.570  1.00  0.00     0.189 HD
HETATM   19  S1  UNL     1       2.609  38.300 -23.312  1.00  0.00    -0.035 SA
BRANCH  17  20
HETATM   20  N2  UNL     1       2.090  40.645 -21.954  1.00  0.00    -0.288 N 
HETATM   21  C3  UNL     1       3.475  40.782 -21.720  1.00  0.00     0.322 C 
HETATM   22  N1  UNL     1       4.333  41.408 -22.659  1.00  0.00    -0.343 N 
HETATM   23  O1  UNL     1       3.938  40.332 -20.648  1.00  0.00    -0.247 OA
ATOM     24  H1  UNL     1       3.942  41.770 -23.529  1.00  0.00     0.164 HD
ATOM     25  H2  UNL     1       1.421  41.345 -21.636  1.00  0.00     0.172 HD
BRANCH  22  26
HETATM   26  C2  UNL     1       5.768  41.548 -22.407  1.00  0.00     0.120 C 
HETATM   27  C1  UNL     1       6.555  41.720 -23.672  1.00  0.00     0.026 C 
ENDBRANCH  22  26
ENDBRANCH  17  20
ENDBRANCH   4  13
BRANCH   9  28
HETATM   28  C13 UNL     1       2.930  32.868 -23.926  1.00  0.00     0.147 C 
BRANCH  28  29
HETATM   29  C14 UNL     1       4.245  32.950 -24.578  1.00  0.00     0.261 C 
HETATM   30  O2  UNL     1       5.056  33.863 -24.282  1.00  0.00    -0.265 OA
BRANCH  29  31
HETATM   31  O3  UNL     1       4.608  32.025 -25.525  1.00  0.00    -0.311 OA
BRANCH  31  32
HETATM   32  C15 UNL     1       5.527  30.984 -25.338  1.00  0.00     0.060 C 
HETATM   33  C16 UNL     1       6.156  30.675 -26.698  1.00  0.00     0.045 C 
HETATM   34  C17 UNL     1       4.842  29.710 -24.880  1.00  0.00     0.045 C 
HETATM   35  C18 UNL     1       6.637  31.294 -24.373  1.00  0.00     0.045 C 
ENDBRANCH  31  32
ENDBRANCH  29  31
ENDBRANCH  28  29
ENDBRANCH   9  28
ENDBRANCH   1   4
TORSDOF 8
ENDMDL
MODEL 4
REMARK VINA RESULT: -7.945516593      1.698      2.247
REMARK  8 active torsions:
REMARK  status: ('A' for Active; 'I' for Inactive)
REMARK    1  A    between atoms: C2_2  and  N1_3 
REMARK       I    between atoms: N1_3  and  C3_5 
REMARK       I    between atoms: C3_5  and  N2_7 
REMARK    2  A    between atoms: N2_7  and  C4_9 
REMARK    3  A    between atoms: C5_14  and  C6_15 
REMARK    4  A    between atoms: C6_15  and  C7_16 
REMARK    5  A    between atoms: C12_23  and  C13_24 
REMARK    6  A    between atoms: C13_24  and  C14_25 
REMARK    7  A    between atoms: C14_25  and  O3_27 
REMARK    8  A    between atoms: O3_27  and  C15_28 
ROOT
HETATM    1  C7  UNL     1       2.379  36.277 -25.832  1.00  0.00     0.170 C 
HETATM    2  C8  UNL     1       1.693  37.409 -26.407  1.00  0.00     0.062 C 
HETATM    3  N5  UNL     1       1.142  38.324 -26.892  1.00  0.00    -0.197 NA
ENDROOT
BRANCH   1   4
HETATM    4  C6  UNL     1       1.966  36.014 -24.412  1.00  0.00     0.188 C 
HETATM    5  C9  UNL     1       0.480  36.111 -24.212  1.00  0.00     0.050 C 
HETATM    6  C10 UNL     1      -0.239  34.813 -24.432  1.00  0.00     0.042 C 
HETATM    7  C11 UNL     1       0.526  33.608 -24.038  1.00  0.00     0.201 C 
HETATM    8  F1  UNL     1       0.582  33.416 -22.666  1.00  0.00    -0.247 F 
HETATM    9  C12 UNL     1       1.966  33.686 -24.549  1.00  0.00     0.230 C 
HETATM   10  N6  UNL     1       2.561  34.820 -23.901  1.00  0.00    -0.052 N 
ATOM     11  H62 UNL     1       3.576  34.826 -23.984  1.00  0.00     0.279 HD
ATOM     12  H61 UNL     1       2.501  34.762 -22.884  1.00  0.00     0.279 HD
BRANCH   4  13
HETATM   13  C5  UNL     1       2.537  37.149 -23.588  1.00  0.00     0.107 A 
HETATM   14  N4  UNL     1       1.870  38.153 -23.039  1.00  0.00    -0.293 N 
HETATM   15  N3  UNL     1       2.480  39.042 -22.373  1.00  0.00    -0.279 N 
ATOM     16  H4  UNL     1       0.859  38.211 -23.154  1.00  0.00     0.187 HD
HETATM   17  C4  UNL     1       3.811  38.937 -22.239  1.00  0.00     0.169 A 
ATOM     18  H3  UNL     1       1.972  39.817 -21.949  1.00  0.00     0.189 HD
HETATM   19  S1  UNL     1       4.137  37.506 -23.115  1.00  0.00    -0.035 SA
BRANCH  17  20
HETATM   20  N2  UNL     1       4.608  39.755 -21.588  1.00  0.00    -0.288 N 
HETATM   21  C3  UNL     1       5.215  40.780 -22.345  1.00  0.00     0.322 C 
HETATM   22  N1  UNL     1       4.585  42.035 -22.544  1.00  0.00    -0.343 N 
HETATM   23  O1  UNL     1       6.340  40.555 -22.845  1.00  0.00    -0.247 OA
ATOM     24  H1  UNL     1       3.667  42.204 -22.132  1.00  0.00     0.164 HD
ATOM     25  H2  UNL     1       4.779  39.654 -20.588  1.00  0.00     0.172 HD
BRANCH  22  26
HETATM   26  C2  UNL     1       5.224  43.092 -23.330  1.00  0.00     0.120 C 
HETATM   27  C1  UNL     1       4.225  43.953 -24.045  1.00  0.00     0.026 C 
ENDBRANCH  22  26
ENDBRANCH  17  20
ENDBRANCH   4  13
BRANCH   9  28
HETATM   28  C13 UNL     1       2.700  32.397 -24.229  1.00  0.00     0.147 C 
BRANCH  28  29
HETATM   29  C14 UNL     1       4.157  32.556 -24.350  1.00  0.00     0.261 C 
HETATM   30  O2  UNL     1       4.810  33.193 -23.486  1.00  0.00    -0.265 OA
BRANCH  29  31
HETATM   31  O3  UNL     1       4.828  32.011 -25.416  1.00  0.00    -0.311 OA
BRANCH  31  32
HETATM   32  C15 UNL     1       5.684  30.904 -25.360  1.00  0.00     0.060 C 
HETATM   33  C16 UNL     1       6.178  30.631 -26.783  1.00  0.00     0.045 C 
HETATM   34  C17 UNL     1       4.953  29.653 -24.910  1.00  0.00     0.045 C 
HETATM   35  C18 UNL     1       6.888  31.088 -24.478  1.00  0.00     0.045 C 
ENDBRANCH  31  32
ENDBRANCH  29  31
ENDBRANCH  28  29
ENDBRANCH   9  28
ENDBRANCH   1   4
TORSDOF 8
ENDMDL
MODEL 5
REMARK VINA RESULT: -7.914118998      4.184      8.042
REMARK  8 active torsions:
REMARK  status: ('A' for Active; 'I' for Inactive)
REMARK    1  A    between atoms: C2_2  and  N1_3 
REMARK       I    between atoms: N1_3  and  C3_5 
REMARK       I    between atoms: C3_5  and  N2_7 
REMARK    2  A    between atoms: N2_7  and  C4_9 
REMARK    3  A    between atoms: C5_14  and  C6_15 
REMARK    4  A    between atoms: C6_15  and  C7_16 
REMARK    5  A    between atoms: C12_23  and  C13_24 
REMARK    6  A    between atoms: C13_24  and  C14_25 
REMARK    7  A    between atoms: C14_25  and  O3_27 
REMARK    8  A    between atoms: O3_27  and  C15_28 
ROOT
HETATM    1  C7  UNL     1       1.904  34.861 -23.659  1.00  0.00     0.170 C 
HETATM    2  C8  UNL     1       3.215  34.905 -23.057  1.00  0.00     0.062 C 
HETATM    3  N5  UNL     1       4.278  34.962 -22.564  1.00  0.00    -0.197 NA
ENDROOT
BRANCH   1   4
HETATM    4  C6  UNL     1       1.384  33.459 -23.802  1.00  0.00     0.188 C 
HETATM    5  C9  UNL     1       1.052  32.826 -22.481  1.00  0.00     0.050 C 
HETATM    6  C10 UNL     1      -0.360  33.072 -22.038  1.00  0.00     0.042 C 
HETATM    7  C11 UNL     1      -1.348  33.152 -23.137  1.00  0.00     0.201 C 
HETATM    8  F1  UNL     1      -1.668  31.917 -23.680  1.00  0.00    -0.247 F 
HETATM    9  C12 UNL     1      -0.827  34.030 -24.275  1.00  0.00     0.230 C 
HETATM   10  N6  UNL     1       0.347  33.377 -24.781  1.00  0.00    -0.052 N 
ATOM     11  H62 UNL     1       0.637  33.747 -25.686  1.00  0.00     0.279 HD
ATOM     12  H61 UNL     1       0.162  32.417 -25.071  1.00  0.00     0.279 HD
BRANCH   4  13
HETATM   13  C5  UNL     1       2.533  32.634 -24.344  1.00  0.00     0.107 A 
HETATM   14  N4  UNL     1       3.504  33.046 -25.145  1.00  0.00    -0.293 N 
HETATM   15  N3  UNL     1       4.406  32.242 -25.527  1.00  0.00    -0.279 N 
ATOM     16  H4  UNL     1       3.526  34.016 -25.457  1.00  0.00     0.187 HD
HETATM   17  C4  UNL     1       4.351  30.971 -25.099  1.00  0.00     0.169 A 
ATOM     18  H3  UNL     1       5.155  32.553 -26.144  1.00  0.00     0.189 HD
HETATM   19  S1  UNL     1       2.944  30.993 -24.127  1.00  0.00    -0.035 SA
BRANCH  17  20
HETATM   20  N2  UNL     1       5.191  30.002 -25.385  1.00  0.00    -0.288 N 
HETATM   21  C3  UNL     1       6.382  30.373 -26.044  1.00  0.00     0.322 C 
HETATM   22  N1  UNL     1       7.543  30.761 -25.327  1.00  0.00    -0.343 N 
HETATM   23  O1  UNL     1       6.394  30.352 -27.296  1.00  0.00    -0.247 OA
ATOM     24  H1  UNL     1       7.519  30.774 -24.307  1.00  0.00     0.164 HD
ATOM     25  H2  UNL     1       4.992  29.031 -25.143  1.00  0.00     0.172 HD
BRANCH  22  26
HETATM   26  C2  UNL     1       8.775  31.142 -26.020  1.00  0.00     0.120 C 
HETATM   27  C1  UNL     1       9.772  30.022 -26.068  1.00  0.00     0.026 C 
ENDBRANCH  22  26
ENDBRANCH  17  20
ENDBRANCH   4  13
BRANCH   9  28
HETATM   28  C13 UNL     1      -1.897  34.186 -25.341  1.00  0.00     0.147 C 
BRANCH  28  29
HETATM   29  C14 UNL     1      -1.351  34.767 -26.578  1.00  0.00     0.261 C 
HETATM   30  O2  UNL     1      -1.947  34.625 -27.674  1.00  0.00    -0.265 OA
BRANCH  29  31
HETATM   31  O3  UNL     1      -0.175  35.475 -26.551  1.00  0.00    -0.311 OA
BRANCH  31  32
HETATM   32  C15 UNL     1      -0.055  36.860 -26.722  1.00  0.00     0.060 C 
HETATM   33  C16 UNL     1       1.436  37.179 -26.859  1.00  0.00     0.045 C 
HETATM   34  C17 UNL     1      -0.547  37.619 -25.504  1.00  0.00     0.045 C 
HETATM   35  C18 UNL     1      -0.759  37.405 -27.933  1.00  0.00     0.045 C 
ENDBRANCH  31  32
ENDBRANCH  29  31
ENDBRANCH  28  29
ENDBRANCH   9  28
ENDBRANCH   1   4
TORSDOF 8
ENDMDL
