MODEL 1
REMARK VINA RESULT: -7.945895190      0.000      0.000
REMARK  8 active torsions:
REMARK  status: ('A' for Active; 'I' for Inactive)
REMARK    1  A    between atoms: C4_6  and  C5_7 
REMARK    2  A    between atoms: C9_11  and  N2_12 
REMARK    3  A    between atoms: C10_15  and  S1_16 
REMARK    4  A    between atoms: S1_16  and  N3_19 
REMARK    5  A    between atoms: N3_19  and  C11_21 
REMARK    6  A    between atoms: C17_27  and  C18_28 
REMARK    7  A    between atoms: C18_28  and  O5_29 
REMARK    8  A    between atoms: N4_31  and  O6_33 
ROOT
HETATM    1  S1  UNL     1     -35.581  -7.944  25.891  1.00  0.00     0.263 S 
HETATM    2  O3  UNL     1     -34.653  -6.805  25.446  1.00  0.00    -0.200 OA
HETATM    3  O4  UNL     1     -35.983  -7.715  27.320  1.00  0.00    -0.200 OA
ENDROOT
BRANCH   1   4
HETATM    4  C10 UNL     1     -34.723  -9.421  25.659  1.00  0.00     0.135 A 
HETATM    5  C2  UNL     1     -33.445  -9.597  26.209  1.00  0.00     0.031 A 
HETATM    6  C1  UNL     1     -32.835  -8.475  26.979  1.00  0.00     0.070 C 
HETATM    7  N1  UNL     1     -32.791 -10.747  26.026  1.00  0.00    -0.368 N 
HETATM    8  C3  UNL     1     -33.299 -11.768  25.329  1.00  0.00     0.098 A 
ATOM      9  H1  UNL     1     -31.863 -10.850  26.436  1.00  0.00     0.165 HD
HETATM   10  C4  UNL     1     -34.570 -11.637  24.762  1.00  0.00    -0.001 A 
HETATM   11  C9  UNL     1     -35.298 -10.444  24.931  1.00  0.00     0.136 A 
BRANCH  10  12
HETATM   12  C5  UNL     1     -35.053 -12.769  23.982  1.00  0.00    -0.020 C 
HETATM   13  C6  UNL     1     -34.112 -13.975  24.169  1.00  0.00     0.019 C 
HETATM   14  C7  UNL     1     -34.964 -12.526  22.470  1.00  0.00     0.019 C 
HETATM   15  C8  UNL     1     -36.419 -13.289  24.357  1.00  0.00     0.019 C 
ENDBRANCH  10  12
BRANCH  11  16
HETATM   16  N2  UNL     1     -36.603 -10.414  24.417  1.00  0.00    -0.113 N 
HETATM   17  O1  UNL     1     -37.005 -10.152  23.286  1.00  0.00    -0.532 OA
HETATM   18  O2  UNL     1     -37.643 -10.719  25.312  1.00  0.00    -0.532 OA
ENDBRANCH  11  16
ENDBRANCH   1   4
BRANCH   1  19
HETATM   19  N3  UNL     1     -36.979  -7.764  24.953  1.00  0.00    -0.309 N 
ATOM     20  H3  UNL     1     -37.739  -8.444  24.992  1.00  0.00     0.172 HD
BRANCH  19  21
HETATM   21  C11 UNL     1     -37.044  -6.608  24.098  1.00  0.00     0.108 C 
HETATM   22  C12 UNL     1     -37.297  -5.424  25.071  1.00  0.00     0.006 C 
HETATM   23  C13 UNL     1     -38.515  -5.654  25.899  1.00  0.00     0.012 C 
HETATM   24  C14 UNL     1     -37.354  -4.112  24.382  1.00  0.00     0.006 C 
HETATM   25  C15 UNL     1     -37.617  -4.307  22.914  1.00  0.00     0.001 C 
HETATM   26  C16 UNL     1     -38.738  -5.296  22.789  1.00  0.00     0.015 C 
HETATM   27  C17 UNL     1     -38.159  -6.667  23.089  1.00  0.00     0.086 C 
BRANCH  27  28
HETATM   28  C18 UNL     1     -37.772  -7.269  21.810  1.00  0.00     0.141 C 
HETATM   29  N4  UNL     1     -38.444  -8.273  21.318  1.00  0.00    -0.251 N 
ATOM     30  H4  UNL     1     -39.242  -8.627  21.845  1.00  0.00     0.196 HD
BRANCH  28  31
HETATM   31  O5  UNL     1     -36.702  -6.833  21.052  1.00  0.00    -0.348 OA
ATOM     32  H5  UNL     1     -36.755  -6.657  20.120  1.00  0.00     0.219 HD
ENDBRANCH  28  31
BRANCH  29  33
HETATM   33  O6  UNL     1     -38.128  -8.876  20.128  1.00  0.00    -0.288 OA
ATOM     34  H6  UNL     1     -38.593  -8.702  19.318  1.00  0.00     0.244 HD
ENDBRANCH  29  33
ENDBRANCH  27  28
ENDBRANCH  19  21
ENDBRANCH   1  19
TORSDOF 8
ENDMDL
MODEL 2
REMARK VINA RESULT: -7.896350477      1.338      1.683
REMARK  8 active torsions:
REMARK  status: ('A' for Active; 'I' for Inactive)
REMARK    1  A    between atoms: C4_6  and  C5_7 
REMARK    2  A    between atoms: C9_11  and  N2_12 
REMARK    3  A    between atoms: C10_15  and  S1_16 
REMARK    4  A    between atoms: S1_16  and  N3_19 
REMARK    5  A    between atoms: N3_19  and  C11_21 
REMARK    6  A    between atoms: C17_27  and  C18_28 
REMARK    7  A    between atoms: C18_28  and  O5_29 
REMARK    8  A    between atoms: N4_31  and  O6_33 
ROOT
HETATM    1  S1  UNL     1     -36.578  -9.080  26.181  1.00  0.00     0.263 S 
HETATM    2  O3  UNL     1     -36.160  -8.183  27.354  1.00  0.00    -0.200 OA
HETATM    3  O4  UNL     1     -37.552 -10.110  26.676  1.00  0.00    -0.200 OA
ENDROOT
BRANCH   1   4
HETATM    4  C10 UNL     1     -35.139  -9.770  25.529  1.00  0.00     0.135 A 
HETATM    5  C2  UNL     1     -33.889  -9.191  25.790  1.00  0.00     0.031 A 
HETATM    6  C1  UNL     1     -33.831  -7.956  26.624  1.00  0.00     0.070 C 
HETATM    7  N1  UNL     1     -32.780  -9.735  25.283  1.00  0.00    -0.368 N 
HETATM    8  C3  UNL     1     -32.794 -10.832  24.519  1.00  0.00     0.098 A 
ATOM      9  H1  UNL     1     -31.883  -9.296  25.488  1.00  0.00     0.165 HD
HETATM   10  C4  UNL     1     -34.017 -11.443  24.231  1.00  0.00    -0.001 A 
HETATM   11  C9  UNL     1     -35.212 -10.906  24.746  1.00  0.00     0.136 A 
BRANCH  10  12
HETATM   12  C5  UNL     1     -33.972 -12.611  23.362  1.00  0.00    -0.020 C 
HETATM   13  C6  UNL     1     -32.549 -12.791  22.798  1.00  0.00     0.019 C 
HETATM   14  C7  UNL     1     -34.801 -12.431  22.084  1.00  0.00     0.019 C 
HETATM   15  C8  UNL     1     -34.291 -13.932  24.019  1.00  0.00     0.019 C 
ENDBRANCH  10  12
BRANCH  11  16
HETATM   16  N2  UNL     1     -36.394 -11.621  24.498  1.00  0.00    -0.113 N 
HETATM   17  O1  UNL     1     -37.254 -11.458  23.635  1.00  0.00    -0.532 OA
HETATM   18  O2  UNL     1     -36.676 -12.697  25.358  1.00  0.00    -0.532 OA
ENDBRANCH  11  16
ENDBRANCH   1   4
BRANCH   1  19
HETATM   19  N3  UNL     1     -37.431  -8.063  25.131  1.00  0.00    -0.309 N 
ATOM     20  H3  UNL     1     -38.429  -7.887  25.251  1.00  0.00     0.172 HD
BRANCH  19  21
HETATM   21  C11 UNL     1     -36.683  -7.456  24.061  1.00  0.00     0.108 C 
HETATM   22  C12 UNL     1     -35.981  -6.239  24.723  1.00  0.00     0.006 C 
HETATM   23  C13 UNL     1     -36.969  -5.336  25.380  1.00  0.00     0.012 C 
HETATM   24  C14 UNL     1     -35.110  -5.493  23.784  1.00  0.00     0.006 C 
HETATM   25  C15 UNL     1     -35.486  -5.811  22.362  1.00  0.00     0.001 C 
HETATM   26  C16 UNL     1     -36.980  -5.726  22.266  1.00  0.00     0.015 C 
HETATM   27  C17 UNL     1     -37.542  -6.974  22.923  1.00  0.00     0.086 C 
BRANCH  27  28
HETATM   28  C18 UNL     1     -37.746  -7.970  21.868  1.00  0.00     0.141 C 
HETATM   29  N4  UNL     1     -37.763  -7.615  20.613  1.00  0.00    -0.251 N 
ATOM     30  H4  UNL     1     -37.631  -6.630  20.386  1.00  0.00     0.196 HD
BRANCH  28  31
HETATM   31  O5  UNL     1     -37.929  -9.318  22.113  1.00  0.00    -0.348 OA
ATOM     32  H5  UNL     1     -37.226  -9.909  22.354  1.00  0.00     0.219 HD
ENDBRANCH  28  31
BRANCH  29  33
HETATM   33  O6  UNL     1     -37.950  -8.502  19.584  1.00  0.00    -0.288 OA
ATOM     34  H6  UNL     1     -37.523  -8.417  18.740  1.00  0.00     0.244 HD
ENDBRANCH  29  33
ENDBRANCH  27  28
ENDBRANCH  19  21
ENDBRANCH   1  19
TORSDOF 8
ENDMDL
MODEL 3
REMARK VINA RESULT: -7.811892655      2.234      6.525
REMARK  8 active torsions:
REMARK  status: ('A' for Active; 'I' for Inactive)
REMARK    1  A    between atoms: C4_6  and  C5_7 
REMARK    2  A    between atoms: C9_11  and  N2_12 
REMARK    3  A    between atoms: C10_15  and  S1_16 
REMARK    4  A    between atoms: S1_16  and  N3_19 
REMARK    5  A    between atoms: N3_19  and  C11_21 
REMARK    6  A    between atoms: C17_27  and  C18_28 
REMARK    7  A    between atoms: C18_28  and  O5_29 
REMARK    8  A    between atoms: N4_31  and  O6_33 
ROOT
HETATM    1  S1  UNL     1     -35.737  -9.614  25.167  1.00  0.00     0.263 S 
HETATM    2  O3  UNL     1     -36.862  -9.176  26.114  1.00  0.00    -0.200 OA
HETATM    3  O4  UNL     1     -34.620 -10.208  25.977  1.00  0.00    -0.200 OA
ENDROOT
BRANCH   1   4
HETATM    4  C10 UNL     1     -35.255  -8.224  24.269  1.00  0.00     0.135 A 
HETATM    5  C2  UNL     1     -33.922  -7.792  24.285  1.00  0.00     0.031 A 
HETATM    6  C1  UNL     1     -32.933  -8.545  25.110  1.00  0.00     0.070 C 
HETATM    7  N1  UNL     1     -33.559  -6.715  23.583  1.00  0.00    -0.368 N 
HETATM    8  C3  UNL     1     -34.419  -6.006  22.845  1.00  0.00     0.098 A 
ATOM      9  H1  UNL     1     -32.582  -6.421  23.611  1.00  0.00     0.165 HD
HETATM   10  C4  UNL     1     -35.759  -6.400  22.800  1.00  0.00    -0.001 A 
HETATM   11  C9  UNL     1     -36.187  -7.530  23.522  1.00  0.00     0.136 A 
BRANCH  10  12
HETATM   12  C5  UNL     1     -36.655  -5.565  22.010  1.00  0.00    -0.020 C 
HETATM   13  C6  UNL     1     -35.864  -4.409  21.367  1.00  0.00     0.019 C 
HETATM   14  C7  UNL     1     -37.676  -4.812  22.873  1.00  0.00     0.019 C 
HETATM   15  C8  UNL     1     -37.340  -6.249  20.852  1.00  0.00     0.019 C 
ENDBRANCH  10  12
BRANCH  11  16
HETATM   16  N2  UNL     1     -37.524  -7.924  23.357  1.00  0.00    -0.113 N 
HETATM   17  O1  UNL     1     -38.544  -7.523  23.912  1.00  0.00    -0.532 OA
HETATM   18  O2  UNL     1     -37.772  -8.945  22.423  1.00  0.00    -0.532 OA
ENDBRANCH  11  16
ENDBRANCH   1   4
BRANCH   1  19
HETATM   19  N3  UNL     1     -36.400 -10.873  24.250  1.00  0.00    -0.309 N 
ATOM     20  H3  UNL     1     -36.821 -10.704  23.336  1.00  0.00     0.172 HD
BRANCH  19  21
HETATM   21  C11 UNL     1     -36.344 -12.194  24.820  1.00  0.00     0.108 C 
HETATM   22  C12 UNL     1     -35.190 -12.896  24.054  1.00  0.00     0.006 C 
HETATM   23  C13 UNL     1     -35.421 -12.865  22.581  1.00  0.00     0.012 C 
HETATM   24  C14 UNL     1     -34.935 -14.276  24.530  1.00  0.00     0.006 C 
HETATM   25  C15 UNL     1     -36.130 -14.795  25.284  1.00  0.00     0.001 C 
HETATM   26  C16 UNL     1     -37.347 -14.469  24.470  1.00  0.00     0.015 C 
HETATM   27  C17 UNL     1     -37.612 -12.984  24.639  1.00  0.00     0.086 C 
BRANCH  27  28
HETATM   28  C18 UNL     1     -38.570 -12.832  25.737  1.00  0.00     0.141 C 
HETATM   29  N4  UNL     1     -39.419 -13.782  26.014  1.00  0.00    -0.251 N 
ATOM     30  H4  UNL     1     -39.399 -14.631  25.449  1.00  0.00     0.196 HD
BRANCH  28  31
HETATM   31  O5  UNL     1     -38.645 -11.707  26.537  1.00  0.00    -0.348 OA
ATOM     32  H5  UNL     1     -38.517 -11.722  27.478  1.00  0.00     0.219 HD
ENDBRANCH  28  31
BRANCH  29  33
HETATM   33  O6  UNL     1     -40.338 -13.696  27.028  1.00  0.00    -0.288 OA
ATOM     34  H6  UNL     1     -41.258 -13.509  26.882  1.00  0.00     0.244 HD
ENDBRANCH  29  33
ENDBRANCH  27  28
ENDBRANCH  19  21
ENDBRANCH   1  19
TORSDOF 8
ENDMDL
MODEL 4
REMARK VINA RESULT: -7.723000672      1.804      2.752
REMARK  8 active torsions:
REMARK  status: ('A' for Active; 'I' for Inactive)
REMARK    1  A    between atoms: C4_6  and  C5_7 
REMARK    2  A    between atoms: C9_11  and  N2_12 
REMARK    3  A    between atoms: C10_15  and  S1_16 
REMARK    4  A    between atoms: S1_16  and  N3_19 
REMARK    5  A    between atoms: N3_19  and  C11_21 
REMARK    6  A    between atoms: C17_27  and  C18_28 
REMARK    7  A    between atoms: C18_28  and  O5_29 
REMARK    8  A    between atoms: N4_31  and  O6_33 
ROOT
HETATM    1  S1  UNL     1     -36.553  -9.191  25.894  1.00  0.00     0.263 S 
HETATM    2  O3  UNL     1     -36.250  -7.890  26.650  1.00  0.00    -0.200 OA
HETATM    3  O4  UNL     1     -37.563  -9.984  26.673  1.00  0.00    -0.200 OA
ENDROOT
BRANCH   1   4
HETATM    4  C10 UNL     1     -35.056 -10.021  25.689  1.00  0.00     0.135 A 
HETATM    5  C2  UNL     1     -33.924  -9.642  26.424  1.00  0.00     0.031 A 
HETATM    6  C1  UNL     1     -34.034  -8.493  27.370  1.00  0.00     0.070 C 
HETATM    7  N1  UNL     1     -32.770 -10.294  26.260  1.00  0.00    -0.368 N 
HETATM    8  C3  UNL     1     -32.629 -11.317  25.410  1.00  0.00     0.098 A 
ATOM      9  H1  UNL     1     -31.961  -9.999  26.806  1.00  0.00     0.165 HD
HETATM   10  C4  UNL     1     -33.731 -11.729  24.656  1.00  0.00    -0.001 A 
HETATM   11  C9  UNL     1     -34.968 -11.073  24.798  1.00  0.00     0.136 A 
BRANCH  10  12
HETATM   12  C5  UNL     1     -33.505 -12.823  23.721  1.00  0.00    -0.020 C 
HETATM   13  C6  UNL     1     -31.992 -13.049  23.532  1.00  0.00     0.019 C 
HETATM   14  C7  UNL     1     -33.956 -12.484  22.294  1.00  0.00     0.019 C 
HETATM   15  C8  UNL     1     -34.041 -14.169  24.142  1.00  0.00     0.019 C 
ENDBRANCH  10  12
BRANCH  11  16
HETATM   16  N2  UNL     1     -36.055 -11.597  24.082  1.00  0.00    -0.113 N 
HETATM   17  O1  UNL     1     -36.508 -11.284  22.983  1.00  0.00    -0.532 OA
HETATM   18  O2  UNL     1     -36.769 -12.644  24.692  1.00  0.00    -0.532 OA
ENDBRANCH  11  16
ENDBRANCH   1   4
BRANCH   1  19
HETATM   19  N3  UNL     1     -37.310  -8.702  24.462  1.00  0.00    -0.309 N 
ATOM     20  H3  UNL     1     -37.881  -9.345  23.912  1.00  0.00     0.172 HD
BRANCH  19  21
HETATM   21  C11 UNL     1     -37.112  -7.335  24.055  1.00  0.00     0.108 C 
HETATM   22  C12 UNL     1     -38.336  -7.022  23.150  1.00  0.00     0.006 C 
HETATM   23  C13 UNL     1     -38.441  -7.996  22.026  1.00  0.00     0.012 C 
HETATM   24  C14 UNL     1     -38.345  -5.625  22.655  1.00  0.00     0.006 C 
HETATM   25  C15 UNL     1     -36.969  -5.025  22.763  1.00  0.00     0.001 C 
HETATM   26  C16 UNL     1     -36.000  -6.032  22.219  1.00  0.00     0.015 C 
HETATM   27  C17 UNL     1     -35.847  -7.117  23.270  1.00  0.00     0.086 C 
BRANCH  27  28
HETATM   28  C18 UNL     1     -34.688  -6.766  24.096  1.00  0.00     0.141 C 
HETATM   29  N4  UNL     1     -33.515  -7.280  23.847  1.00  0.00    -0.251 N 
ATOM     30  H4  UNL     1     -33.426  -7.929  23.066  1.00  0.00     0.196 HD
BRANCH  28  31
HETATM   31  O5  UNL     1     -34.747  -5.894  25.166  1.00  0.00    -0.348 OA
ATOM     32  H5  UNL     1     -34.966  -6.161  26.051  1.00  0.00     0.219 HD
ENDBRANCH  28  31
BRANCH  29  33
HETATM   33  O6  UNL     1     -32.397  -6.990  24.585  1.00  0.00    -0.288 OA
ATOM     34  H6  UNL     1     -31.772  -7.649  24.864  1.00  0.00     0.244 HD
ENDBRANCH  29  33
ENDBRANCH  27  28
ENDBRANCH  19  21
ENDBRANCH   1  19
TORSDOF 8
ENDMDL
MODEL 5
REMARK VINA RESULT: -7.617975305      1.387      1.594
REMARK  8 active torsions:
REMARK  status: ('A' for Active; 'I' for Inactive)
REMARK    1  A    between atoms: C4_6  and  C5_7 
REMARK    2  A    between atoms: C9_11  and  N2_12 
REMARK    3  A    between atoms: C10_15  and  S1_16 
REMARK    4  A    between atoms: S1_16  and  N3_19 
REMARK    5  A    between atoms: N3_19  and  C11_21 
REMARK    6  A    between atoms: C17_27  and  C18_28 
REMARK    7  A    between atoms: C18_28  and  O5_29 
REMARK    8  A    between atoms: N4_31  and  O6_33 
ROOT
HETATM    1  S1  UNL     1     -35.108  -7.998  26.084  1.00  0.00     0.263 S 
HETATM    2  O3  UNL     1     -33.969  -6.969  26.086  1.00  0.00    -0.200 OA
HETATM    3  O4  UNL     1     -35.815  -7.947  27.409  1.00  0.00    -0.200 OA
ENDROOT
BRANCH   1   4
HETATM    4  C10 UNL     1     -34.405  -9.537  25.754  1.00  0.00     0.135 A 
HETATM    5  C2  UNL     1     -33.182  -9.902  26.335  1.00  0.00     0.031 A 
HETATM    6  C1  UNL     1     -32.492  -8.925  27.227  1.00  0.00     0.070 C 
HETATM    7  N1  UNL     1     -32.647 -11.097  26.075  1.00  0.00    -0.368 N 
HETATM    8  C3  UNL     1     -33.228 -11.992  25.268  1.00  0.00     0.098 A 
ATOM      9  H1  UNL     1     -31.757 -11.339  26.510  1.00  0.00     0.165 HD
HETATM   10  C4  UNL     1     -34.448 -11.671  24.666  1.00  0.00    -0.001 A 
HETATM   11  C9  UNL     1     -35.050 -10.423  24.914  1.00  0.00     0.136 A 
BRANCH  10  12
HETATM   12  C5  UNL     1     -35.011 -12.671  23.768  1.00  0.00    -0.020 C 
HETATM   13  C6  UNL     1     -34.316 -14.028  23.991  1.00  0.00     0.019 C 
HETATM   14  C7  UNL     1     -34.694 -12.388  22.294  1.00  0.00     0.019 C 
HETATM   15  C8  UNL     1     -36.481 -12.961  23.949  1.00  0.00     0.019 C 
ENDBRANCH  10  12
BRANCH  11  16
HETATM   16  N2  UNL     1     -36.318 -10.203  24.353  1.00  0.00    -0.113 N 
HETATM   17  O1  UNL     1     -36.633  -9.813  23.231  1.00  0.00    -0.532 OA
HETATM   18  O2  UNL     1     -37.427 -10.449  25.181  1.00  0.00    -0.532 OA
ENDBRANCH  11  16
ENDBRANCH   1   4
BRANCH   1  19
HETATM   19  N3  UNL     1     -36.204  -7.439  24.922  1.00  0.00    -0.309 N 
ATOM     20  H3  UNL     1     -36.874  -8.065  24.475  1.00  0.00     0.172 HD
BRANCH  19  21
HETATM   21  C11 UNL     1     -36.146  -6.039  24.592  1.00  0.00     0.108 C 
HETATM   22  C12 UNL     1     -37.111  -5.365  25.606  1.00  0.00     0.006 C 
HETATM   23  C13 UNL     1     -38.474  -5.963  25.535  1.00  0.00     0.012 C 
HETATM   24  C14 UNL     1     -37.162  -3.890  25.463  1.00  0.00     0.006 C 
HETATM   25  C15 UNL     1     -36.647  -3.481  24.109  1.00  0.00     0.001 C 
HETATM   26  C16 UNL     1     -37.292  -4.380  23.097  1.00  0.00     0.015 C 
HETATM   27  C17 UNL     1     -36.602  -5.729  23.193  1.00  0.00     0.086 C 
BRANCH  27  28
HETATM   28  C18 UNL     1     -35.524  -5.741  22.199  1.00  0.00     0.141 C 
HETATM   29  N4  UNL     1     -35.716  -5.255  21.004  1.00  0.00    -0.251 N 
ATOM     30  H4  UNL     1     -36.632  -4.866  20.780  1.00  0.00     0.196 HD
BRANCH  28  31
HETATM   31  O5  UNL     1     -34.264  -6.252  22.444  1.00  0.00    -0.348 OA
ATOM     32  H5  UNL     1     -33.587  -6.324  21.781  1.00  0.00     0.219 HD
ENDBRANCH  28  31
BRANCH  29  33
HETATM   33  O6  UNL     1     -34.747  -5.240  20.035  1.00  0.00    -0.288 OA
ATOM     34  H6  UNL     1     -34.820  -4.734  19.234  1.00  0.00     0.244 HD
ENDBRANCH  29  33
ENDBRANCH  27  28
ENDBRANCH  19  21
ENDBRANCH   1  19
TORSDOF 8
ENDMDL
