MODEL 1
REMARK VINA RESULT: -8.360721586      0.000      0.000
REMARK  8 active torsions:
REMARK  status: ('A' for Active; 'I' for Inactive)
REMARK    1  A    between atoms: C6_6  and  O1_7 
REMARK    2  A    between atoms: C8_10  and  O2_11 
REMARK    3  A    between atoms: C16_22  and  C17_23 
REMARK    4  A    between atoms: C17_23  and  C18_24 
REMARK    5  A    between atoms: C18_24  and  C19_25 
REMARK    6  A    between atoms: C19_25  and  C20_26 
REMARK    7  A    between atoms: C20_26  and  C21_27 
REMARK    8  A    between atoms: C21_27  and  O5_28 
ROOT
HETATM    1  C1  UNL     1     -36.861  -6.901  26.099  1.00  0.00     0.015 C 
HETATM    2  C2  UNL     1     -36.274  -8.036  25.303  1.00  0.00     0.048 C 
HETATM    3  C3  UNL     1     -37.230  -9.239  25.330  1.00  0.00     0.017 C 
HETATM    4  C4  UNL     1     -36.641 -10.192  24.302  1.00  0.00     0.019 C 
HETATM    5  C5  UNL     1     -37.416 -11.442  24.135  1.00  0.00     0.046 C 
HETATM    6  C6  UNL     1     -36.666 -12.444  25.022  1.00  0.00     0.073 C 
HETATM    7  C7  UNL     1     -35.247 -12.021  25.021  1.00  0.00     0.079 C 
HETATM    8  C8  UNL     1     -34.364 -12.728  24.049  1.00  0.00     0.127 C 
HETATM    9  C9  UNL     1     -34.504 -14.229  24.322  1.00  0.00     0.033 C 
HETATM   10  C10 UNL     1     -35.904 -14.577  23.926  1.00  0.00     0.014 C 
HETATM   11  C11 UNL     1     -36.964 -13.835  24.659  1.00  0.00    -0.016 C 
HETATM   12  C12 UNL     1     -38.198 -13.830  23.743  1.00  0.00     0.018 C 
HETATM   13  C13 UNL     1     -37.372 -14.697  25.859  1.00  0.00     0.018 C 
HETATM   14  C14 UNL     1     -35.247 -10.517  24.733  1.00  0.00     0.139 C 
HETATM   15  O3  UNL     1     -34.806  -9.885  25.855  1.00  0.00    -0.346 OA
HETATM   16  C15 UNL     1     -34.949  -8.520  25.912  1.00  0.00     0.204 C 
HETATM   17  O4  UNL     1     -35.068  -8.189  27.269  1.00  0.00    -0.319 OA
HETATM   18  C16 UNL     1     -33.881  -8.222  27.970  1.00  0.00     0.300 C 
HETATM   19  O6  UNL     1     -32.782  -7.938  27.170  1.00  0.00    -0.207 OA
HETATM   20  O7  UNL     1     -33.215  -7.026  26.290  1.00  0.00    -0.222 OA
HETATM   21  C22 UNL     1     -33.768  -7.844  25.271  1.00  0.00     0.145 C 
HETATM   22  C23 UNL     1     -34.117  -6.935  24.145  1.00  0.00     0.054 C 
HETATM   23  C24 UNL     1     -32.662  -8.808  24.896  1.00  0.00     0.054 C 
ENDROOT
BRANCH  18  24
HETATM   24  C17 UNL     1     -33.924  -7.190  29.061  1.00  0.00     0.064 C 
BRANCH  24  25
HETATM   25  C18 UNL     1     -34.995  -7.335  30.077  1.00  0.00     0.005 C 
BRANCH  25  26
HETATM   26  C19 UNL     1     -35.004  -6.410  31.226  1.00  0.00     0.002 C 
BRANCH  26  27
HETATM   27  C20 UNL     1     -33.693  -5.661  31.298  1.00  0.00     0.026 C 
BRANCH  27  28
HETATM   28  C21 UNL     1     -33.068  -5.856  32.636  1.00  0.00     0.164 C 
BRANCH  28  29
HETATM   29  O5  UNL     1     -33.857  -6.743  33.424  1.00  0.00    -0.401 OA
ATOM     30  H5  UNL     1     -33.298  -7.357  33.886  1.00  0.00     0.209 HD
ENDBRANCH  28  29
ENDBRANCH  27  28
ENDBRANCH  26  27
ENDBRANCH  25  26
ENDBRANCH  24  25
ENDBRANCH  18  24
BRANCH   6  31
HETATM   31  O1  UNL     1     -37.174 -12.214  26.324  1.00  0.00    -0.388 OA
ATOM     32  H1  UNL     1     -36.557 -11.607  26.716  1.00  0.00     0.210 HD
ENDBRANCH   6  31
BRANCH   8  33
HETATM   33  O2  UNL     1     -34.590 -12.414  22.730  1.00  0.00    -0.395 OA
ATOM     34  H2  UNL     1     -35.158 -13.018  22.267  1.00  0.00     0.210 HD
ENDBRANCH   8  33
TORSDOF 8
ENDMDL
MODEL 2
REMARK VINA RESULT: -8.218985573      1.056      1.158
REMARK  8 active torsions:
REMARK  status: ('A' for Active; 'I' for Inactive)
REMARK    1  A    between atoms: C6_6  and  O1_7 
REMARK    2  A    between atoms: C8_10  and  O2_11 
REMARK    3  A    between atoms: C16_22  and  C17_23 
REMARK    4  A    between atoms: C17_23  and  C18_24 
REMARK    5  A    between atoms: C18_24  and  C19_25 
REMARK    6  A    between atoms: C19_25  and  C20_26 
REMARK    7  A    between atoms: C20_26  and  C21_27 
REMARK    8  A    between atoms: C21_27  and  O5_28 
ROOT
HETATM    1  C1  UNL     1     -36.883  -6.892  26.080  1.00  0.00     0.015 C 
HETATM    2  C2  UNL     1     -36.286  -8.025  25.288  1.00  0.00     0.048 C 
HETATM    3  C3  UNL     1     -37.237  -9.232  25.311  1.00  0.00     0.017 C 
HETATM    4  C4  UNL     1     -36.639 -10.184  24.287  1.00  0.00     0.019 C 
HETATM    5  C5  UNL     1     -37.408 -11.437  24.117  1.00  0.00     0.046 C 
HETATM    6  C6  UNL     1     -36.658 -12.435  25.009  1.00  0.00     0.073 C 
HETATM    7  C7  UNL     1     -35.242 -12.006  25.016  1.00  0.00     0.079 C 
HETATM    8  C8  UNL     1     -34.350 -12.710  24.049  1.00  0.00     0.127 C 
HETATM    9  C9  UNL     1     -34.485 -14.211  24.323  1.00  0.00     0.033 C 
HETATM   10  C10 UNL     1     -35.881 -14.566  23.920  1.00  0.00     0.014 C 
HETATM   11  C11 UNL     1     -36.949 -13.827  24.645  1.00  0.00    -0.016 C 
HETATM   12  C12 UNL     1     -38.177 -13.829  23.723  1.00  0.00     0.018 C 
HETATM   13  C13 UNL     1     -37.361 -14.690  25.844  1.00  0.00     0.018 C 
HETATM   14  C14 UNL     1     -35.246 -10.502  24.726  1.00  0.00     0.139 C 
HETATM   15  O3  UNL     1     -34.814  -9.867  25.850  1.00  0.00    -0.346 OA
HETATM   16  C15 UNL     1     -34.963  -8.503  25.905  1.00  0.00     0.204 C 
HETATM   17  O4  UNL     1     -35.091  -8.171  27.262  1.00  0.00    -0.319 OA
HETATM   18  C16 UNL     1     -33.909  -8.199  27.969  1.00  0.00     0.300 C 
HETATM   19  O6  UNL     1     -32.806  -7.910  27.175  1.00  0.00    -0.207 OA
HETATM   20  O7  UNL     1     -33.237  -7.002  26.292  1.00  0.00    -0.222 OA
HETATM   21  C22 UNL     1     -33.781  -7.823  25.271  1.00  0.00     0.145 C 
HETATM   22  C23 UNL     1     -34.128  -6.916  24.142  1.00  0.00     0.054 C 
HETATM   23  C24 UNL     1     -32.669  -8.782  24.903  1.00  0.00     0.054 C 
ENDROOT
BRANCH  18  24
HETATM   24  C17 UNL     1     -33.962  -7.166  29.059  1.00  0.00     0.064 C 
BRANCH  24  25
HETATM   25  C18 UNL     1     -34.890  -7.430  30.186  1.00  0.00     0.005 C 
BRANCH  25  26
HETATM   26  C19 UNL     1     -35.519  -6.281  30.864  1.00  0.00     0.002 C 
BRANCH  26  27
HETATM   27  C20 UNL     1     -34.533  -5.139  30.972  1.00  0.00     0.026 C 
BRANCH  27  28
HETATM   28  C21 UNL     1     -35.217  -3.847  30.690  1.00  0.00     0.164 C 
BRANCH  28  29
HETATM   29  O5  UNL     1     -36.043  -3.968  29.536  1.00  0.00    -0.401 OA
ATOM     30  H5  UNL     1     -36.960  -3.914  29.780  1.00  0.00     0.209 HD
ENDBRANCH  28  29
ENDBRANCH  27  28
ENDBRANCH  26  27
ENDBRANCH  25  26
ENDBRANCH  24  25
ENDBRANCH  18  24
BRANCH   6  31
HETATM   31  O1  UNL     1     -37.176 -12.206  26.308  1.00  0.00    -0.388 OA
ATOM     32  H1  UNL     1     -37.767 -12.934  26.459  1.00  0.00     0.210 HD
ENDBRANCH   6  31
BRANCH   8  33
HETATM   33  O2  UNL     1     -34.569 -12.398  22.729  1.00  0.00    -0.395 OA
ATOM     34  H2  UNL     1     -33.858 -12.625  22.141  1.00  0.00     0.210 HD
ENDBRANCH   8  33
TORSDOF 8
ENDMDL
MODEL 3
REMARK VINA RESULT: -7.970300155      4.115      5.926
REMARK  8 active torsions:
REMARK  status: ('A' for Active; 'I' for Inactive)
REMARK    1  A    between atoms: C6_6  and  O1_7 
REMARK    2  A    between atoms: C8_10  and  O2_11 
REMARK    3  A    between atoms: C16_22  and  C17_23 
REMARK    4  A    between atoms: C17_23  and  C18_24 
REMARK    5  A    between atoms: C18_24  and  C19_25 
REMARK    6  A    between atoms: C19_25  and  C20_26 
REMARK    7  A    between atoms: C20_26  and  C21_27 
REMARK    8  A    between atoms: C21_27  and  O5_28 
ROOT
HETATM    1  C1  UNL     1     -40.139  -3.388  26.362  1.00  0.00     0.015 C 
HETATM    2  C2  UNL     1     -39.125  -3.998  25.432  1.00  0.00     0.048 C 
HETATM    3  C3  UNL     1     -38.844  -5.450  25.850  1.00  0.00     0.017 C 
HETATM    4  C4  UNL     1     -38.018  -6.005  24.700  1.00  0.00     0.019 C 
HETATM    5  C5  UNL     1     -37.634  -7.424  24.872  1.00  0.00     0.046 C 
HETATM    6  C6  UNL     1     -36.209  -7.339  25.434  1.00  0.00     0.073 C 
HETATM    7  C7  UNL     1     -35.618  -6.099  24.885  1.00  0.00     0.079 C 
HETATM    8  C8  UNL     1     -34.771  -6.271  23.668  1.00  0.00     0.127 C 
HETATM    9  C9  UNL     1     -33.694  -7.305  24.012  1.00  0.00     0.033 C 
HETATM   10  C10 UNL     1     -34.424  -8.599  24.186  1.00  0.00     0.014 C 
HETATM   11  C11 UNL     1     -35.466  -8.591  25.246  1.00  0.00    -0.016 C 
HETATM   12  C12 UNL     1     -36.474  -9.687  24.868  1.00  0.00     0.018 C 
HETATM   13  C13 UNL     1     -34.805  -9.099  26.534  1.00  0.00     0.018 C 
HETATM   14  C14 UNL     1     -36.790  -5.162  24.579  1.00  0.00     0.139 C 
HETATM   15  O3  UNL     1     -36.703  -4.106  25.433  1.00  0.00    -0.346 OA
HETATM   16  C15 UNL     1     -37.781  -3.257  25.505  1.00  0.00     0.204 C 
HETATM   17  O4  UNL     1     -37.773  -2.713  26.797  1.00  0.00    -0.319 OA
HETATM   18  C16 UNL     1     -36.826  -1.731  26.996  1.00  0.00     0.300 C 
HETATM   19  O6  UNL     1     -36.528  -1.035  25.831  1.00  0.00    -0.207 OA
HETATM   20  O7  UNL     1     -37.683  -0.966  25.159  1.00  0.00    -0.222 OA
HETATM   21  C22 UNL     1     -37.680  -2.193  24.447  1.00  0.00     0.145 C 
HETATM   22  C23 UNL     1     -38.839  -2.142  23.514  1.00  0.00     0.054 C 
HETATM   23  C24 UNL     1     -36.360  -2.215  23.706  1.00  0.00     0.054 C 
ENDROOT
BRANCH  18  24
HETATM   24  C17 UNL     1     -37.348  -0.738  27.995  1.00  0.00     0.064 C 
BRANCH  24  25
HETATM   25  C18 UNL     1     -36.889  -0.895  29.397  1.00  0.00     0.005 C 
BRANCH  25  26
HETATM   26  C19 UNL     1     -35.603  -1.574  29.643  1.00  0.00     0.002 C 
BRANCH  26  27
HETATM   27  C20 UNL     1     -35.633  -2.266  30.989  1.00  0.00     0.026 C 
BRANCH  27  28
HETATM   28  C21 UNL     1     -35.267  -3.701  30.831  1.00  0.00     0.164 C 
BRANCH  28  29
HETATM   29  O5  UNL     1     -35.875  -4.239  29.661  1.00  0.00    -0.401 OA
ATOM     30  H5  UNL     1     -36.822  -4.203  29.736  1.00  0.00     0.209 HD
ENDBRANCH  28  29
ENDBRANCH  27  28
ENDBRANCH  26  27
ENDBRANCH  25  26
ENDBRANCH  24  25
ENDBRANCH  18  24
BRANCH   6  31
HETATM   31  O1  UNL     1     -36.388  -7.142  26.825  1.00  0.00    -0.388 OA
ATOM     32  H1  UNL     1     -35.594  -7.486  27.217  1.00  0.00     0.210 HD
ENDBRANCH   6  31
BRANCH   8  33
HETATM   33  O2  UNL     1     -35.462  -6.598  22.526  1.00  0.00    -0.395 OA
ATOM     34  H2  UNL     1     -35.975  -5.891  22.152  1.00  0.00     0.210 HD
ENDBRANCH   8  33
TORSDOF 8
ENDMDL
MODEL 4
REMARK VINA RESULT: -7.814331570      3.357      7.456
REMARK  8 active torsions:
REMARK  status: ('A' for Active; 'I' for Inactive)
REMARK    1  A    between atoms: C6_6  and  O1_7 
REMARK    2  A    between atoms: C8_10  and  O2_11 
REMARK    3  A    between atoms: C16_22  and  C17_23 
REMARK    4  A    between atoms: C17_23  and  C18_24 
REMARK    5  A    between atoms: C18_24  and  C19_25 
REMARK    6  A    between atoms: C19_25  and  C20_26 
REMARK    7  A    between atoms: C20_26  and  C21_27 
REMARK    8  A    between atoms: C21_27  and  O5_28 
ROOT
HETATM    1  C1  UNL     1     -32.910  -7.209  24.666  1.00  0.00     0.015 C 
HETATM    2  C2  UNL     1     -34.325  -6.818  24.336  1.00  0.00     0.048 C 
HETATM    3  C3  UNL     1     -34.408  -5.298  24.125  1.00  0.00     0.017 C 
HETATM    4  C4  UNL     1     -35.806  -5.087  23.563  1.00  0.00     0.019 C 
HETATM    5  C5  UNL     1     -36.118  -3.672  23.257  1.00  0.00     0.046 C 
HETATM    6  C6  UNL     1     -36.892  -3.205  24.496  1.00  0.00     0.073 C 
HETATM    7  C7  UNL     1     -37.594  -4.397  25.023  1.00  0.00     0.079 C 
HETATM    8  C8  UNL     1     -39.017  -4.547  24.600  1.00  0.00     0.127 C 
HETATM    9  C9  UNL     1     -39.740  -3.251  24.984  1.00  0.00     0.033 C 
HETATM   10  C10 UNL     1     -39.162  -2.195  24.097  1.00  0.00     0.014 C 
HETATM   11  C11 UNL     1     -37.693  -2.004  24.226  1.00  0.00    -0.016 C 
HETATM   12  C12 UNL     1     -37.217  -1.408  22.892  1.00  0.00     0.018 C 
HETATM   13  C13 UNL     1     -37.470  -0.888  25.253  1.00  0.00     0.018 C 
HETATM   14  C14 UNL     1     -36.781  -5.612  24.567  1.00  0.00     0.139 C 
HETATM   15  O3  UNL     1     -36.243  -6.185  25.678  1.00  0.00    -0.346 OA
HETATM   16  C15 UNL     1     -35.281  -7.148  25.493  1.00  0.00     0.204 C 
HETATM   17  O4  UNL     1     -34.456  -7.108  26.626  1.00  0.00    -0.319 OA
HETATM   18  C16 UNL     1     -35.002  -7.689  27.750  1.00  0.00     0.300 C 
HETATM   19  O6  UNL     1     -35.892  -8.711  27.443  1.00  0.00    -0.207 OA
HETATM   20  O7  UNL     1     -35.385  -9.300  26.352  1.00  0.00    -0.222 OA
HETATM   21  C22 UNL     1     -35.921  -8.497  25.312  1.00  0.00     0.145 C 
HETATM   22  C23 UNL     1     -35.571  -9.176  24.034  1.00  0.00     0.054 C 
HETATM   23  C24 UNL     1     -37.415  -8.485  25.554  1.00  0.00     0.054 C 
ENDROOT
BRANCH  18  24
HETATM   24  C17 UNL     1     -33.902  -8.283  28.582  1.00  0.00     0.064 C 
BRANCH  24  25
HETATM   25  C18 UNL     1     -32.613  -8.546  27.897  1.00  0.00     0.005 C 
BRANCH  25  26
HETATM   26  C19 UNL     1     -32.148  -9.942  27.784  1.00  0.00     0.002 C 
BRANCH  26  27
HETATM   27  C20 UNL     1     -32.543 -10.512  26.440  1.00  0.00     0.026 C 
BRANCH  27  28
HETATM   28  C21 UNL     1     -31.327 -10.935  25.689  1.00  0.00     0.164 C 
BRANCH  28  29
HETATM   29  O5  UNL     1     -31.413 -10.509  24.333  1.00  0.00    -0.401 OA
ATOM     30  H5  UNL     1     -32.246 -10.080  24.175  1.00  0.00     0.209 HD
ENDBRANCH  28  29
ENDBRANCH  27  28
ENDBRANCH  26  27
ENDBRANCH  25  26
ENDBRANCH  24  25
ENDBRANCH  18  24
BRANCH   6  31
HETATM   31  O1  UNL     1     -35.887  -2.858  25.431  1.00  0.00    -0.388 OA
ATOM     32  H1  UNL     1     -36.364  -2.505  26.172  1.00  0.00     0.210 HD
ENDBRANCH   6  31
BRANCH   8  33
HETATM   33  O2  UNL     1     -39.195  -4.871  23.276  1.00  0.00    -0.395 OA
ATOM     34  H2  UNL     1     -39.956  -5.409  23.096  1.00  0.00     0.210 HD
ENDBRANCH   8  33
TORSDOF 8
ENDMDL
MODEL 5
REMARK VINA RESULT: -7.810688300      5.113      7.470
REMARK  8 active torsions:
REMARK  status: ('A' for Active; 'I' for Inactive)
REMARK    1  A    between atoms: C6_6  and  O1_7 
REMARK    2  A    between atoms: C8_10  and  O2_11 
REMARK    3  A    between atoms: C16_22  and  C17_23 
REMARK    4  A    between atoms: C17_23  and  C18_24 
REMARK    5  A    between atoms: C18_24  and  C19_25 
REMARK    6  A    between atoms: C19_25  and  C20_26 
REMARK    7  A    between atoms: C20_26  and  C21_27 
REMARK    8  A    between atoms: C21_27  and  O5_28 
ROOT
HETATM    1  C1  UNL     1     -40.369  -4.675  23.262  1.00  0.00     0.015 C 
HETATM    2  C2  UNL     1     -38.904  -4.985  23.101  1.00  0.00     0.048 C 
HETATM    3  C3  UNL     1     -38.606  -6.384  23.663  1.00  0.00     0.017 C 
HETATM    4  C4  UNL     1     -37.179  -6.658  23.212  1.00  0.00     0.019 C 
HETATM    5  C5  UNL     1     -36.666  -7.983  23.629  1.00  0.00     0.046 C 
HETATM    6  C6  UNL     1     -35.865  -7.668  24.899  1.00  0.00     0.073 C 
HETATM    7  C7  UNL     1     -35.350  -6.291  24.736  1.00  0.00     0.079 C 
HETATM    8  C8  UNL     1     -33.951  -6.181  24.227  1.00  0.00     0.127 C 
HETATM    9  C9  UNL     1     -33.065  -7.008  25.165  1.00  0.00     0.033 C 
HETATM   10  C10 UNL     1     -33.468  -8.431  24.944  1.00  0.00     0.014 C 
HETATM   11  C11 UNL     1     -34.899  -8.726  25.219  1.00  0.00    -0.016 C 
HETATM   12  C12 UNL     1     -35.254  -9.961  24.376  1.00  0.00     0.018 C 
HETATM   13  C13 UNL     1     -34.990  -9.206  26.672  1.00  0.00     0.018 C 
HETATM   14  C14 UNL     1     -36.312  -5.581  23.780  1.00  0.00     0.139 C 
HETATM   15  O3  UNL     1     -36.951  -4.610  24.488  1.00  0.00    -0.346 OA
HETATM   16  C15 UNL     1     -38.033  -4.003  23.898  1.00  0.00     0.204 C 
HETATM   17  O4  UNL     1     -38.873  -3.586  24.941  1.00  0.00    -0.319 OA
HETATM   18  C16 UNL     1     -38.440  -2.459  25.605  1.00  0.00     0.300 C 
HETATM   19  O6  UNL     1     -37.694  -1.615  24.792  1.00  0.00    -0.207 OA
HETATM   20  O7  UNL     1     -38.250  -1.715  23.579  1.00  0.00    -0.222 OA
HETATM   21  C22 UNL     1     -37.583  -2.848  23.046  1.00  0.00     0.145 C 
HETATM   22  C23 UNL     1     -37.992  -2.944  21.617  1.00  0.00     0.054 C 
HETATM   23  C24 UNL     1     -36.108  -2.540  23.191  1.00  0.00     0.054 C 
ENDROOT
BRANCH  18  24
HETATM   24  C17 UNL     1     -39.633  -1.683  26.088  1.00  0.00     0.064 C 
BRANCH  24  25
HETATM   25  C18 UNL     1     -40.963  -2.310  25.890  1.00  0.00     0.005 C 
BRANCH  25  26
HETATM   26  C19 UNL     1     -41.825  -1.804  24.805  1.00  0.00     0.002 C 
BRANCH  26  27
HETATM   27  C20 UNL     1     -42.975  -1.011  25.383  1.00  0.00     0.026 C 
BRANCH  27  28
HETATM   28  C21 UNL     1     -44.172  -1.136  24.506  1.00  0.00     0.164 C 
BRANCH  28  29
HETATM   29  O5  UNL     1     -43.949  -2.126  23.506  1.00  0.00    -0.401 OA
ATOM     30  H5  UNL     1     -43.056  -2.447  23.555  1.00  0.00     0.209 HD
ENDBRANCH  28  29
ENDBRANCH  27  28
ENDBRANCH  26  27
ENDBRANCH  25  26
ENDBRANCH  24  25
ENDBRANCH  18  24
BRANCH   6  31
HETATM   31  O1  UNL     1     -36.836  -7.637  25.930  1.00  0.00    -0.388 OA
ATOM     32  H1  UNL     1     -36.755  -6.767  26.305  1.00  0.00     0.210 HD
ENDBRANCH   6  31
BRANCH   8  33
HETATM   33  O2  UNL     1     -33.787  -6.534  22.909  1.00  0.00    -0.395 OA
ATOM     34  H2  UNL     1     -34.405  -7.180  22.588  1.00  0.00     0.210 HD
ENDBRANCH   8  33
TORSDOF 8
ENDMDL
