MODEL 1
REMARK VINA RESULT: -7.188054088      0.000      0.000
REMARK  6 active torsions:
REMARK  status: ('A' for Active; 'I' for Inactive)
REMARK    1  A    between atoms: C6_7  and  C7_8 
REMARK    2  A    between atoms: C6_7  and  O6_30 
REMARK    3  A    between atoms: C7_8  and  C8_9 
REMARK    4  A    between atoms: C12_13  and  O2_14 
REMARK    5  A    between atoms: C13_16  and  C15_18 
REMARK    6  A    between atoms: C17_21  and  O4_23 
ROOT
HETATM    1  C8  UNL     1     -36.048  -9.203  24.576  1.00  0.00    -0.029 C 
HETATM    2  C9  UNL     1     -37.251  -9.293  23.653  1.00  0.00     0.016 C 
HETATM    3  C10 UNL     1     -36.645  -9.528  25.914  1.00  0.00     0.012 C 
HETATM    4  C11 UNL     1     -35.766  -8.882  26.907  1.00  0.00     0.033 C 
HETATM    5  C12 UNL     1     -35.774  -7.482  26.263  1.00  0.00     0.129 C 
HETATM    6  C13 UNL     1     -35.563  -7.801  24.768  1.00  0.00     0.018 C 
HETATM    7  C14 UNL     1     -34.101  -7.570  24.544  1.00  0.00     0.021 C 
ENDROOT
BRANCH   1   8
HETATM    8  C7  UNL     1     -34.908 -10.008  24.119  1.00  0.00     0.056 C 
BRANCH   8   9
HETATM    9  C6  UNL     1     -34.718 -11.433  24.335  1.00  0.00     0.121 C 
HETATM   10  C5  UNL     1     -33.406 -11.595  25.098  1.00  0.00     0.161 C 
HETATM   11  C4  UNL     1     -32.307 -10.629  25.271  1.00  0.00     0.086 C 
HETATM   12  O1  UNL     1     -33.210 -12.654  25.647  1.00  0.00    -0.295 OA
HETATM   13  C3  UNL     1     -31.239 -11.021  24.248  1.00  0.00     0.041 C 
HETATM   14  C2  UNL     1     -31.841 -11.997  23.271  1.00  0.00    -0.089 C 
HETATM   15  C1  UNL     1     -31.133 -13.113  23.177  1.00  0.00     0.014 C 
HETATM   16  C25 UNL     1     -33.057 -11.856  22.455  1.00  0.00     0.036 C 
HETATM   17  C24 UNL     1     -34.340 -12.240  23.074  1.00  0.00     0.050 C 
BRANCH   9  18
HETATM   18  O6  UNL     1     -35.646 -12.182  24.966  1.00  0.00    -0.377 OA
HETATM   19  C23 UNL     1     -36.529 -12.954  24.296  1.00  0.00     0.203 C 
ENDBRANCH   9  18
ENDBRANCH   8   9
ENDBRANCH   1   8
BRANCH   6  20
HETATM   20  C15 UNL     1     -36.296  -6.696  24.035  1.00  0.00     0.158 C 
HETATM   21  C16 UNL     1     -36.176  -6.705  22.564  1.00  0.00     0.204 C 
HETATM   22  O3  UNL     1     -35.867  -5.451  22.007  1.00  0.00    -0.353 OA
HETATM   23  C17 UNL     1     -37.012  -4.647  21.906  1.00  0.00     0.160 C 
HETATM   24  C18 UNL     1     -36.781  -3.448  21.041  1.00  0.00     0.078 C 
HETATM   25  C19 UNL     1     -37.419  -4.316  23.301  1.00  0.00     0.105 C 
HETATM   26  C20 UNL     1     -36.334  -4.366  24.321  1.00  0.00     0.059 C 
HETATM   27  C21 UNL     1     -35.182  -3.409  23.973  1.00  0.00     0.045 C 
HETATM   28  C22 UNL     1     -36.963  -3.705  25.570  1.00  0.00     0.045 C 
HETATM   29  O5  UNL     1     -35.815  -5.545  24.648  1.00  0.00    -0.372 OA
BRANCH  23  30
HETATM   30  O4  UNL     1     -38.087  -5.360  21.327  1.00  0.00    -0.365 OA
ATOM     31  H4  UNL     1     -38.206  -5.123  20.414  1.00  0.00     0.213 HD
ENDBRANCH  23  30
ENDBRANCH   6  20
BRANCH   5  32
HETATM   32  O2  UNL     1     -37.087  -7.053  26.489  1.00  0.00    -0.395 OA
ATOM     33  H2  UNL     1     -36.967  -6.336  27.101  1.00  0.00     0.210 HD
ENDBRANCH   5  32
TORSDOF 6
ENDMDL
MODEL 2
REMARK VINA RESULT: -7.180829210      2.721      7.909
REMARK  6 active torsions:
REMARK  status: ('A' for Active; 'I' for Inactive)
REMARK    1  A    between atoms: C6_7  and  C7_8 
REMARK    2  A    between atoms: C6_7  and  O6_30 
REMARK    3  A    between atoms: C7_8  and  C8_9 
REMARK    4  A    between atoms: C12_13  and  O2_14 
REMARK    5  A    between atoms: C13_16  and  C15_18 
REMARK    6  A    between atoms: C17_21  and  O4_23 
ROOT
HETATM    1  C8  UNL     1     -38.082  -5.504  24.122  1.00  0.00    -0.029 C 
HETATM    2  C9  UNL     1     -38.845  -6.358  25.120  1.00  0.00     0.016 C 
HETATM    3  C10 UNL     1     -38.564  -6.042  22.806  1.00  0.00     0.012 C 
HETATM    4  C11 UNL     1     -37.486  -5.751  21.841  1.00  0.00     0.033 C 
HETATM    5  C12 UNL     1     -36.341  -6.364  22.669  1.00  0.00     0.129 C 
HETATM    6  C13 UNL     1     -36.620  -5.813  24.084  1.00  0.00     0.018 C 
HETATM    7  C14 UNL     1     -35.693  -4.646  24.215  1.00  0.00     0.021 C 
ENDROOT
BRANCH   1   8
HETATM    8  C7  UNL     1     -38.225  -4.063  24.367  1.00  0.00     0.056 C 
BRANCH   8   9
HETATM    9  C6  UNL     1     -39.102  -3.438  25.345  1.00  0.00     0.121 C 
HETATM   10  C5  UNL     1     -38.621  -2.000  25.517  1.00  0.00     0.161 C 
HETATM   11  C4  UNL     1     -37.329  -1.401  25.135  1.00  0.00     0.086 C 
HETATM   12  O1  UNL     1     -39.381  -1.218  26.040  1.00  0.00    -0.295 OA
HETATM   13  C3  UNL     1     -36.491  -1.360  26.415  1.00  0.00     0.041 C 
HETATM   14  C2  UNL     1     -37.157  -2.219  27.457  1.00  0.00    -0.089 C 
HETATM   15  C1  UNL     1     -37.374  -1.561  28.586  1.00  0.00     0.014 C 
HETATM   16  C25 UNL     1     -37.570  -3.629  27.366  1.00  0.00     0.036 C 
HETATM   17  C24 UNL     1     -38.902  -3.913  26.800  1.00  0.00     0.050 C 
BRANCH   9  18
HETATM   18  O6  UNL     1     -40.439  -3.396  25.170  1.00  0.00    -0.377 OA
HETATM   19  C23 UNL     1     -41.005  -3.308  23.947  1.00  0.00     0.203 C 
ENDBRANCH   9  18
ENDBRANCH   8   9
ENDBRANCH   1   8
BRANCH   6  20
HETATM   20  C15 UNL     1     -36.103  -6.887  25.020  1.00  0.00     0.158 C 
HETATM   21  C16 UNL     1     -36.298  -6.637  26.462  1.00  0.00     0.204 C 
HETATM   22  O3  UNL     1     -35.150  -6.865  27.242  1.00  0.00    -0.353 OA
HETATM   23  C17 UNL     1     -34.981  -8.232  27.505  1.00  0.00     0.160 C 
HETATM   24  C18 UNL     1     -33.968  -8.476  28.578  1.00  0.00     0.078 C 
HETATM   25  C19 UNL     1     -34.647  -8.873  26.202  1.00  0.00     0.105 C 
HETATM   26  C20 UNL     1     -34.032  -7.980  25.180  1.00  0.00     0.059 C 
HETATM   27  C21 UNL     1     -32.728  -7.345  25.690  1.00  0.00     0.045 C 
HETATM   28  C22 UNL     1     -33.533  -8.952  24.084  1.00  0.00     0.045 C 
HETATM   29  O5  UNL     1     -34.777  -7.027  24.630  1.00  0.00    -0.372 OA
BRANCH  23  30
HETATM   30  O4  UNL     1     -36.188  -8.820  27.950  1.00  0.00    -0.365 OA
ATOM     31  H4  UNL     1     -36.599  -9.326  27.258  1.00  0.00     0.213 HD
ENDBRANCH  23  30
ENDBRANCH   6  20
BRANCH   5  32
HETATM   32  O2  UNL     1     -36.626  -7.733  22.614  1.00  0.00    -0.395 OA
ATOM     33  H2  UNL     1     -37.002  -7.900  23.471  1.00  0.00     0.210 HD
ENDBRANCH   5  32
TORSDOF 6
ENDMDL
MODEL 3
REMARK VINA RESULT: -7.120585407      2.347      8.064
REMARK  6 active torsions:
REMARK  status: ('A' for Active; 'I' for Inactive)
REMARK    1  A    between atoms: C6_7  and  C7_8 
REMARK    2  A    between atoms: C6_7  and  O6_30 
REMARK    3  A    between atoms: C7_8  and  C8_9 
REMARK    4  A    between atoms: C12_13  and  O2_14 
REMARK    5  A    between atoms: C13_16  and  C15_18 
REMARK    6  A    between atoms: C17_21  and  O4_23 
ROOT
HETATM    1  C8  UNL     1     -36.920  -5.441  23.038  1.00  0.00    -0.029 C 
HETATM    2  C9  UNL     1     -37.386  -6.322  21.891  1.00  0.00     0.016 C 
HETATM    3  C10 UNL     1     -35.811  -4.652  22.404  1.00  0.00     0.012 C 
HETATM    4  C11 UNL     1     -34.921  -4.259  23.513  1.00  0.00     0.033 C 
HETATM    5  C12 UNL     1     -34.758  -5.668  24.113  1.00  0.00     0.129 C 
HETATM    6  C13 UNL     1     -36.206  -6.204  24.108  1.00  0.00     0.018 C 
HETATM    7  C14 UNL     1     -36.685  -5.986  25.508  1.00  0.00     0.021 C 
ENDROOT
BRANCH   1   8
HETATM    8  C7  UNL     1     -38.013  -4.699  23.677  1.00  0.00     0.056 C 
BRANCH   8   9
HETATM    9  C6  UNL     1     -38.472  -3.365  23.321  1.00  0.00     0.121 C 
HETATM   10  C5  UNL     1     -38.398  -2.518  24.589  1.00  0.00     0.161 C 
HETATM   11  C4  UNL     1     -38.287  -2.955  25.992  1.00  0.00     0.086 C 
HETATM   12  O1  UNL     1     -38.436  -1.317  24.458  1.00  0.00    -0.295 OA
HETATM   13  C3  UNL     1     -39.704  -2.884  26.567  1.00  0.00     0.041 C 
HETATM   14  C2  UNL     1     -40.679  -2.723  25.430  1.00  0.00    -0.089 C 
HETATM   15  C1  UNL     1     -41.471  -1.674  25.594  1.00  0.00     0.014 C 
HETATM   16  C25 UNL     1     -40.841  -3.556  24.228  1.00  0.00     0.036 C 
HETATM   17  C24 UNL     1     -39.990  -3.244  23.064  1.00  0.00     0.050 C 
BRANCH   9  18
HETATM   18  O6  UNL     1     -37.891  -2.658  22.331  1.00  0.00    -0.377 OA
HETATM   19  C23 UNL     1     -38.507  -2.426  21.151  1.00  0.00     0.203 C 
ENDBRANCH   9  18
ENDBRANCH   8   9
ENDBRANCH   1   8
BRANCH   6  20
HETATM   20  C15 UNL     1     -36.057  -7.701  23.925  1.00  0.00     0.158 C 
HETATM   21  C16 UNL     1     -37.306  -8.487  23.986  1.00  0.00     0.204 C 
HETATM   22  O3  UNL     1     -37.225  -9.626  24.808  1.00  0.00    -0.353 OA
HETATM   23  C17 UNL     1     -36.594 -10.686  24.140  1.00  0.00     0.160 C 
HETATM   24  C18 UNL     1     -36.773 -11.987  24.858  1.00  0.00     0.078 C 
HETATM   25  C19 UNL     1     -35.170 -10.284  23.964  1.00  0.00     0.105 C 
HETATM   26  C20 UNL     1     -34.654  -9.284  24.942  1.00  0.00     0.059 C 
HETATM   27  C21 UNL     1     -34.781  -9.786  26.389  1.00  0.00     0.045 C 
HETATM   28  C22 UNL     1     -33.124  -9.290  24.711  1.00  0.00     0.045 C 
HETATM   29  O5  UNL     1     -35.113  -8.039  24.887  1.00  0.00    -0.372 OA
BRANCH  23  30
HETATM   30  O4  UNL     1     -37.129 -10.865  22.843  1.00  0.00    -0.365 OA
ATOM     31  H4  UNL     1     -36.829 -11.680  22.457  1.00  0.00     0.213 HD
ENDBRANCH  23  30
ENDBRANCH   6  20
BRANCH   5  32
HETATM   32  O2  UNL     1     -33.992  -6.324  23.142  1.00  0.00    -0.395 OA
ATOM     33  H2  UNL     1     -33.225  -6.594  23.633  1.00  0.00     0.210 HD
ENDBRANCH   5  32
TORSDOF 6
ENDMDL
MODEL 4
REMARK VINA RESULT: -6.823974152      2.252      3.634
REMARK  6 active torsions:
REMARK  status: ('A' for Active; 'I' for Inactive)
REMARK    1  A    between atoms: C6_7  and  C7_8 
REMARK    2  A    between atoms: C6_7  and  O6_30 
REMARK    3  A    between atoms: C7_8  and  C8_9 
REMARK    4  A    between atoms: C12_13  and  O2_14 
REMARK    5  A    between atoms: C13_16  and  C15_18 
REMARK    6  A    between atoms: C17_21  and  O4_23 
ROOT
HETATM    1  C8  UNL     1     -37.184  -6.918  23.167  1.00  0.00    -0.029 C 
HETATM    2  C9  UNL     1     -37.764  -7.510  21.894  1.00  0.00     0.016 C 
HETATM    3  C10 UNL     1     -38.395  -6.801  24.046  1.00  0.00     0.012 C 
HETATM    4  C11 UNL     1     -38.089  -5.717  25.000  1.00  0.00     0.033 C 
HETATM    5  C12 UNL     1     -37.668  -4.673  23.948  1.00  0.00     0.129 C 
HETATM    6  C13 UNL     1     -36.758  -5.493  23.008  1.00  0.00     0.018 C 
HETATM    7  C14 UNL     1     -35.370  -5.163  23.459  1.00  0.00     0.021 C 
ENDROOT
BRANCH   1   8
HETATM    8  C7  UNL     1     -36.033  -7.670  23.681  1.00  0.00     0.056 C 
BRANCH   8   9
HETATM    9  C6  UNL     1     -36.079  -8.941  24.387  1.00  0.00     0.121 C 
HETATM   10  C5  UNL     1     -35.832  -8.638  25.863  1.00  0.00     0.161 C 
HETATM   11  C4  UNL     1     -35.264  -7.426  26.479  1.00  0.00     0.086 C 
HETATM   12  O1  UNL     1     -36.131  -9.493  26.664  1.00  0.00    -0.295 OA
HETATM   13  C3  UNL     1     -33.795  -7.748  26.762  1.00  0.00     0.041 C 
HETATM   14  C2  UNL     1     -33.426  -9.009  26.026  1.00  0.00    -0.089 C 
HETATM   15  C1  UNL     1     -32.904  -9.924  26.830  1.00  0.00     0.014 C 
HETATM   16  C25 UNL     1     -33.573  -9.320  24.595  1.00  0.00     0.036 C 
HETATM   17  C24 UNL     1     -34.868  -9.867  24.146  1.00  0.00     0.050 C 
BRANCH   9  18
HETATM   18  O6  UNL     1     -37.157  -9.749  24.318  1.00  0.00    -0.377 OA
HETATM   19  C23 UNL     1     -37.155 -10.897  23.607  1.00  0.00     0.203 C 
ENDBRANCH   9  18
ENDBRANCH   8   9
ENDBRANCH   1   8
BRANCH   6  20
HETATM   20  C15 UNL     1     -36.939  -4.852  21.648  1.00  0.00     0.158 C 
HETATM   21  C16 UNL     1     -36.127  -5.418  20.553  1.00  0.00     0.204 C 
HETATM   22  O3  UNL     1     -35.470  -4.453  19.768  1.00  0.00    -0.353 OA
HETATM   23  C17 UNL     1     -36.343  -3.889  18.826  1.00  0.00     0.160 C 
HETATM   24  C18 UNL     1     -35.612  -3.102  17.784  1.00  0.00     0.078 C 
HETATM   25  C19 UNL     1     -37.338  -3.091  19.597  1.00  0.00     0.105 C 
HETATM   26  C20 UNL     1     -36.888  -2.616  20.936  1.00  0.00     0.059 C 
HETATM   27  C21 UNL     1     -35.626  -1.743  20.835  1.00  0.00     0.045 C 
HETATM   28  C22 UNL     1     -37.975  -1.598  21.357  1.00  0.00     0.045 C 
HETATM   29  O5  UNL     1     -36.706  -3.506  21.905  1.00  0.00    -0.372 OA
BRANCH  23  30
HETATM   30  O4  UNL     1     -37.069  -4.889  18.139  1.00  0.00    -0.365 OA
ATOM     31  H4  UNL     1     -37.523  -4.529  17.385  1.00  0.00     0.213 HD
ENDBRANCH  23  30
ENDBRANCH   6  20
BRANCH   5  32
HETATM   32  O2  UNL     1     -38.880  -4.375  23.315  1.00  0.00    -0.395 OA
ATOM     33  H2  UNL     1     -39.216  -3.659  23.840  1.00  0.00     0.210 HD
ENDBRANCH   5  32
TORSDOF 6
ENDMDL
MODEL 5
REMARK VINA RESULT: -6.662105898      2.538      4.473
REMARK  6 active torsions:
REMARK  status: ('A' for Active; 'I' for Inactive)
REMARK    1  A    between atoms: C6_7  and  C7_8 
REMARK    2  A    between atoms: C6_7  and  O6_30 
REMARK    3  A    between atoms: C7_8  and  C8_9 
REMARK    4  A    between atoms: C12_13  and  O2_14 
REMARK    5  A    between atoms: C13_16  and  C15_18 
REMARK    6  A    between atoms: C17_21  and  O4_23 
ROOT
HETATM    1  C8  UNL     1     -36.329  -6.286  23.934  1.00  0.00    -0.029 C 
HETATM    2  C9  UNL     1     -35.204  -5.277  24.091  1.00  0.00     0.016 C 
HETATM    3  C10 UNL     1     -36.329  -6.536  22.454  1.00  0.00     0.012 C 
HETATM    4  C11 UNL     1     -37.700  -6.972  22.127  1.00  0.00     0.033 C 
HETATM    5  C12 UNL     1     -38.425  -5.800  22.815  1.00  0.00     0.129 C 
HETATM    6  C13 UNL     1     -37.682  -5.694  24.165  1.00  0.00     0.018 C 
HETATM    7  C14 UNL     1     -38.566  -6.420  25.130  1.00  0.00     0.021 C 
ENDROOT
BRANCH   1   8
HETATM    8  C7  UNL     1     -36.193  -7.445  24.825  1.00  0.00     0.056 C 
BRANCH   8   9
HETATM    9  C6  UNL     1     -35.363  -8.617  24.596  1.00  0.00     0.121 C 
HETATM   10  C5  UNL     1     -35.234  -9.339  25.935  1.00  0.00     0.161 C 
HETATM   11  C4  UNL     1     -35.509  -8.834  27.292  1.00  0.00     0.086 C 
HETATM   12  O1  UNL     1     -34.853 -10.486  25.913  1.00  0.00    -0.295 OA
HETATM   13  C3  UNL     1     -34.150  -8.448  27.880  1.00  0.00     0.041 C 
HETATM   14  C2  UNL     1     -33.133  -8.420  26.768  1.00  0.00    -0.089 C 
HETATM   15  C1  UNL     1     -32.082  -9.182  27.032  1.00  0.00     0.014 C 
HETATM   16  C25 UNL     1     -33.176  -7.682  25.497  1.00  0.00     0.036 C 
HETATM   17  C24 UNL     1     -33.866  -8.321  24.360  1.00  0.00     0.050 C 
BRANCH   9  18
HETATM   18  O6  UNL     1     -35.688  -9.542  23.670  1.00  0.00    -0.377 OA
HETATM   19  C23 UNL     1     -36.898 -10.141  23.640  1.00  0.00     0.203 C 
ENDBRANCH   9  18
ENDBRANCH   8   9
ENDBRANCH   1   8
BRANCH   6  20
HETATM   20  C15 UNL     1     -37.756  -4.225  24.526  1.00  0.00     0.158 C 
HETATM   21  C16 UNL     1     -36.958  -3.806  25.695  1.00  0.00     0.204 C 
HETATM   22  O3  UNL     1     -37.661  -2.999  26.608  1.00  0.00    -0.353 OA
HETATM   23  C17 UNL     1     -37.713  -1.667  26.170  1.00  0.00     0.160 C 
HETATM   24  C18 UNL     1     -38.168  -0.738  27.250  1.00  0.00     0.078 C 
HETATM   25  C19 UNL     1     -38.580  -1.657  24.958  1.00  0.00     0.105 C 
HETATM   26  C20 UNL     1     -39.567  -2.769  24.859  1.00  0.00     0.059 C 
HETATM   27  C21 UNL     1     -40.519  -2.795  26.066  1.00  0.00     0.045 C 
HETATM   28  C22 UNL     1     -40.498  -2.342  23.699  1.00  0.00     0.045 C 
HETATM   29  O5  UNL     1     -39.122  -4.003  24.648  1.00  0.00    -0.372 OA
BRANCH  23  30
HETATM   30  O4  UNL     1     -36.437  -1.214  25.760  1.00  0.00    -0.365 OA
ATOM     31  H4  UNL     1     -36.401  -0.265  25.736  1.00  0.00     0.213 HD
ENDBRANCH  23  30
ENDBRANCH   6  20
BRANCH   5  32
HETATM   32  O2  UNL     1     -38.098  -4.716  21.993  1.00  0.00    -0.395 OA
ATOM     33  H2  UNL     1     -38.082  -3.990  22.605  1.00  0.00     0.210 HD
ENDBRANCH   5  32
TORSDOF 6
ENDMDL
