MODEL 1
REMARK VINA RESULT: -6.780600225      0.000      0.000
REMARK  9 active torsions:
REMARK  status: ('A' for Active; 'I' for Inactive)
REMARK    1  A    between atoms: C3_3  and  C5_5 
REMARK    2  A    between atoms: C5_5  and  O2_7 
REMARK    3  A    between atoms: O2_7  and  C6_8 
REMARK    4  A    between atoms: C6_8  and  C7_9 
REMARK    5  A    between atoms: C15_17  and  O3_18 
REMARK    6  A    between atoms: C16_20  and  C17_21 
REMARK    7  A    between atoms: C17_21  and  O4_23 
REMARK    8  A    between atoms: C22_30  and  O7_31 
REMARK    9  A    between atoms: C22_30  and  C23_33 
ROOT
HETATM    1  C6  UNL     1     -38.331  -3.506  24.524  1.00  0.00     0.238 C 
HETATM    2  O5  UNL     1     -36.957  -2.986  24.590  1.00  0.00    -0.275 OA
HETATM    3  C19 UNL     1     -37.092  -1.719  25.136  1.00  0.00     0.268 C 
HETATM    4  O6  UNL     1     -36.333  -0.738  25.017  1.00  0.00    -0.265 OA
HETATM    5  C20 UNL     1     -38.348  -1.758  25.912  1.00  0.00     0.121 C 
HETATM    6  C21 UNL     1     -38.304  -1.060  27.197  1.00  0.00     0.024 C 
HETATM    7  C22 UNL     1     -38.521  -3.309  25.970  1.00  0.00     0.131 C 
ENDROOT
BRANCH   1   8
HETATM    8  O2  UNL     1     -38.933  -2.480  23.765  1.00  0.00    -0.271 OA
BRANCH   8   9
HETATM    9  C5  UNL     1     -39.901  -2.610  22.794  1.00  0.00     0.291 C 
HETATM   10  O1  UNL     1     -39.573  -2.651  21.621  1.00  0.00    -0.260 OA
BRANCH   9  11
HETATM   11  C3  UNL     1     -41.330  -2.703  23.139  1.00  0.00     0.009 C 
HETATM   12  C2  UNL     1     -41.848  -1.862  24.004  1.00  0.00    -0.018 C 
HETATM   13  C1  UNL     1     -43.278  -1.959  24.345  1.00  0.00     0.036 C 
HETATM   14  C4  UNL     1     -42.175  -3.748  22.504  1.00  0.00     0.054 C 
ENDBRANCH   9  11
ENDBRANCH   8   9
ENDBRANCH   1   8
BRANCH   1  15
HETATM   15  C7  UNL     1     -38.351  -4.842  23.855  1.00  0.00    -0.006 C 
HETATM   16  C8  UNL     1     -38.637  -5.976  24.807  1.00  0.00     0.041 C 
HETATM   17  C9  UNL     1     -37.679  -7.083  24.957  1.00  0.00     0.017 C 
HETATM   18  C10 UNL     1     -37.296  -7.577  23.636  1.00  0.00    -0.009 C 
HETATM   19  C11 UNL     1     -38.410  -8.102  22.811  1.00  0.00     0.018 C 
HETATM   20  C12 UNL     1     -36.153  -8.586  23.811  1.00  0.00     0.012 C 
HETATM   21  C15 UNL     1     -36.534  -6.437  23.003  1.00  0.00     0.091 C 
HETATM   22  C13 UNL     1     -34.977  -7.725  24.215  1.00  0.00     0.004 C 
HETATM   23  C14 UNL     1     -35.314  -6.303  23.820  1.00  0.00     0.043 C 
HETATM   24  C16 UNL     1     -37.333  -5.166  22.823  1.00  0.00    -0.009 C 
BRANCH  21  25
HETATM   25  O3  UNL     1     -36.187  -7.053  21.775  1.00  0.00    -0.384 OA
ATOM     26  H3  UNL     1     -36.823  -6.630  21.210  1.00  0.00     0.211 HD
ENDBRANCH  21  25
BRANCH  24  27
HETATM   27  C17 UNL     1     -36.393  -4.187  22.249  1.00  0.00     0.146 C 
HETATM   28  C18 UNL     1     -36.330  -3.985  20.786  1.00  0.00     0.044 C 
BRANCH  27  29
HETATM   29  O4  UNL     1     -35.083  -4.705  22.545  1.00  0.00    -0.391 OA
ATOM     30  H4  UNL     1     -34.623  -3.989  22.968  1.00  0.00     0.210 HD
ENDBRANCH  27  29
ENDBRANCH  24  27
ENDBRANCH   1  15
BRANCH   7  31
HETATM   31  O7  UNL     1     -39.736  -3.459  26.526  1.00  0.00    -0.383 OA
ATOM     32  H7  UNL     1     -40.205  -2.709  26.872  1.00  0.00     0.210 HD
ENDBRANCH   7  31
BRANCH   7  33
HETATM   33  C23 UNL     1     -37.349  -3.727  26.848  1.00  0.00     0.040 C 
HETATM   34  C24 UNL     1     -37.693  -4.493  28.066  1.00  0.00     0.008 C 
ENDBRANCH   7  33
TORSDOF 9
ENDMDL
MODEL 2
REMARK VINA RESULT: -6.732835510      0.911      1.015
REMARK  9 active torsions:
REMARK  status: ('A' for Active; 'I' for Inactive)
REMARK    1  A    between atoms: C3_3  and  C5_5 
REMARK    2  A    between atoms: C5_5  and  O2_7 
REMARK    3  A    between atoms: O2_7  and  C6_8 
REMARK    4  A    between atoms: C6_8  and  C7_9 
REMARK    5  A    between atoms: C15_17  and  O3_18 
REMARK    6  A    between atoms: C16_20  and  C17_21 
REMARK    7  A    between atoms: C17_21  and  O4_23 
REMARK    8  A    between atoms: C22_30  and  O7_31 
REMARK    9  A    between atoms: C22_30  and  C23_33 
ROOT
HETATM    1  C6  UNL     1     -38.186  -3.922  24.706  1.00  0.00     0.238 C 
HETATM    2  O5  UNL     1     -36.962  -3.108  24.664  1.00  0.00    -0.275 OA
HETATM    3  C19 UNL     1     -37.387  -1.827  24.979  1.00  0.00     0.268 C 
HETATM    4  O6  UNL     1     -36.860  -0.738  24.681  1.00  0.00    -0.265 OA
HETATM    5  C20 UNL     1     -38.626  -2.007  25.764  1.00  0.00     0.121 C 
HETATM    6  C21 UNL     1     -38.774  -1.103  26.904  1.00  0.00     0.024 C 
HETATM    7  C22 UNL     1     -38.456  -3.524  26.096  1.00  0.00     0.131 C 
ENDROOT
BRANCH   1   8
HETATM    8  O2  UNL     1     -38.976  -3.204  23.784  1.00  0.00    -0.271 OA
BRANCH   8   9
HETATM    9  C5  UNL     1     -40.198  -3.566  23.263  1.00  0.00     0.291 C 
HETATM   10  O1  UNL     1     -40.336  -4.670  22.766  1.00  0.00    -0.260 OA
BRANCH   9  11
HETATM   11  C3  UNL     1     -41.351  -2.648  23.292  1.00  0.00     0.009 C 
HETATM   12  C2  UNL     1     -41.936  -2.372  24.434  1.00  0.00    -0.018 C 
HETATM   13  C1  UNL     1     -43.088  -1.453  24.456  1.00  0.00     0.036 C 
HETATM   14  C4  UNL     1     -41.842  -2.043  22.026  1.00  0.00     0.054 C 
ENDBRANCH   9  11
ENDBRANCH   8   9
ENDBRANCH   1   8
BRANCH   1  15
HETATM   15  C7  UNL     1     -37.893  -5.326  24.284  1.00  0.00    -0.006 C 
HETATM   16  C8  UNL     1     -37.805  -6.286  25.442  1.00  0.00     0.041 C 
HETATM   17  C9  UNL     1     -36.580  -7.068  25.672  1.00  0.00     0.017 C 
HETATM   18  C10 UNL     1     -36.165  -7.700  24.421  1.00  0.00    -0.009 C 
HETATM   19  C11 UNL     1     -37.150  -8.636  23.830  1.00  0.00     0.018 C 
HETATM   20  C12 UNL     1     -34.786  -8.338  24.637  1.00  0.00     0.012 C 
HETATM   21  C15 UNL     1     -35.776  -6.553  23.519  1.00  0.00     0.091 C 
HETATM   22  C13 UNL     1     -33.858  -7.149  24.752  1.00  0.00     0.004 C 
HETATM   23  C14 UNL     1     -34.586  -5.962  24.158  1.00  0.00     0.043 C 
HETATM   24  C16 UNL     1     -36.894  -5.582  23.214  1.00  0.00    -0.009 C 
BRANCH  21  25
HETATM   25  O3  UNL     1     -35.358  -7.290  22.385  1.00  0.00    -0.384 OA
ATOM     26  H3  UNL     1     -35.801  -6.792  21.709  1.00  0.00     0.211 HD
ENDBRANCH  21  25
BRANCH  24  27
HETATM   27  C17 UNL     1     -36.287  -4.531  22.378  1.00  0.00     0.146 C 
HETATM   28  C18 UNL     1     -37.096  -3.833  21.357  1.00  0.00     0.044 C 
BRANCH  27  29
HETATM   29  O4  UNL     1     -35.301  -5.209  21.579  1.00  0.00    -0.391 OA
ATOM     30  H4  UNL     1     -34.631  -4.557  21.405  1.00  0.00     0.210 HD
ENDBRANCH  27  29
ENDBRANCH  24  27
ENDBRANCH   1  15
BRANCH   7  31
HETATM   31  O7  UNL     1     -39.624  -3.839  26.683  1.00  0.00    -0.383 OA
ATOM     32  H7  UNL     1     -39.643  -4.398  27.451  1.00  0.00     0.210 HD
ENDBRANCH   7  31
BRANCH   7  33
HETATM   33  C23 UNL     1     -37.247  -3.512  27.022  1.00  0.00     0.040 C 
HETATM   34  C24 UNL     1     -37.405  -4.237  28.302  1.00  0.00     0.008 C 
ENDBRANCH   7  33
TORSDOF 9
ENDMDL
MODEL 3
REMARK VINA RESULT: -6.718677389      3.052      6.677
REMARK  9 active torsions:
REMARK  status: ('A' for Active; 'I' for Inactive)
REMARK    1  A    between atoms: C3_3  and  C5_5 
REMARK    2  A    between atoms: C5_5  and  O2_7 
REMARK    3  A    between atoms: O2_7  and  C6_8 
REMARK    4  A    between atoms: C6_8  and  C7_9 
REMARK    5  A    between atoms: C15_17  and  O3_18 
REMARK    6  A    between atoms: C16_20  and  C17_21 
REMARK    7  A    between atoms: C17_21  and  O4_23 
REMARK    8  A    between atoms: C22_30  and  O7_31 
REMARK    9  A    between atoms: C22_30  and  C23_33 
ROOT
HETATM    1  C6  UNL     1     -36.109  -8.075  25.231  1.00  0.00     0.238 C 
HETATM    2  O5  UNL     1     -36.087  -7.438  26.555  1.00  0.00    -0.275 OA
HETATM    3  C19 UNL     1     -35.480  -8.373  27.380  1.00  0.00     0.268 C 
HETATM    4  O6  UNL     1     -35.593  -8.510  28.613  1.00  0.00    -0.265 OA
HETATM    5  C20 UNL     1     -34.646  -9.202  26.485  1.00  0.00     0.121 C 
HETATM    6  C21 UNL     1     -33.336  -9.568  27.023  1.00  0.00     0.024 C 
HETATM    7  C22 UNL     1     -34.648  -8.254  25.244  1.00  0.00     0.131 C 
ENDROOT
BRANCH   1   8
HETATM    8  O2  UNL     1     -36.792  -9.266  25.555  1.00  0.00    -0.271 OA
BRANCH   8   9
HETATM    9  C5  UNL     1     -37.035 -10.346  24.736  1.00  0.00     0.291 C 
HETATM   10  O1  UNL     1     -36.734 -10.284  23.556  1.00  0.00    -0.260 OA
BRANCH   9  11
HETATM   11  C3  UNL     1     -37.651 -11.581  25.251  1.00  0.00     0.009 C 
HETATM   12  C2  UNL     1     -38.383 -11.539  26.339  1.00  0.00    -0.018 C 
HETATM   13  C1  UNL     1     -38.997 -12.778  26.849  1.00  0.00     0.036 C 
HETATM   14  C4  UNL     1     -37.438 -12.865  24.533  1.00  0.00     0.054 C 
ENDBRANCH   9  11
ENDBRANCH   8   9
ENDBRANCH   1   8
BRANCH   1  15
HETATM   15  C7  UNL     1     -36.833  -7.212  24.249  1.00  0.00    -0.006 C 
HETATM   16  C8  UNL     1     -36.102  -7.064  22.939  1.00  0.00     0.041 C 
HETATM   17  C9  UNL     1     -35.721  -5.731  22.444  1.00  0.00     0.017 C 
HETATM   18  C10 UNL     1     -36.876  -4.838  22.517  1.00  0.00    -0.009 C 
HETATM   19  C11 UNL     1     -38.049  -5.257  21.716  1.00  0.00     0.018 C 
HETATM   20  C12 UNL     1     -36.405  -3.413  22.191  1.00  0.00     0.012 C 
HETATM   21  C15 UNL     1     -37.151  -4.682  23.994  1.00  0.00     0.091 C 
HETATM   22  C13 UNL     1     -35.586  -3.023  23.400  1.00  0.00     0.004 C 
HETATM   23  C14 UNL     1     -35.976  -3.964  24.520  1.00  0.00     0.043 C 
HETATM   24  C16 UNL     1     -37.498  -5.967  24.711  1.00  0.00    -0.009 C 
BRANCH  21  25
HETATM   25  O3  UNL     1     -38.237  -3.775  23.925  1.00  0.00    -0.384 OA
ATOM     26  H3  UNL     1     -38.286  -3.529  24.841  1.00  0.00     0.211 HD
ENDBRANCH  21  25
BRANCH  24  27
HETATM   27  C17 UNL     1     -37.671  -5.595  26.127  1.00  0.00     0.146 C 
HETATM   28  C18 UNL     1     -38.926  -4.962  26.582  1.00  0.00     0.044 C 
BRANCH  27  29
HETATM   29  O4  UNL     1     -36.700  -4.560  26.364  1.00  0.00    -0.391 OA
ATOM     30  H4  UNL     1     -37.080  -4.014  27.043  1.00  0.00     0.210 HD
ENDBRANCH  27  29
ENDBRANCH  24  27
ENDBRANCH   1  15
BRANCH   7  31
HETATM   31  O7  UNL     1     -34.041  -8.991  24.298  1.00  0.00    -0.383 OA
ATOM     32  H7  UNL     1     -33.601  -8.571  23.567  1.00  0.00     0.210 HD
ENDBRANCH   7  31
BRANCH   7  33
HETATM   33  C23 UNL     1     -33.847  -7.063  25.753  1.00  0.00     0.040 C 
HETATM   34  C24 UNL     1     -32.913  -6.448  24.783  1.00  0.00     0.008 C 
ENDBRANCH   7  33
TORSDOF 9
ENDMDL
MODEL 4
REMARK VINA RESULT: -6.651050758      2.024      4.658
REMARK  9 active torsions:
REMARK  status: ('A' for Active; 'I' for Inactive)
REMARK    1  A    between atoms: C3_3  and  C5_5 
REMARK    2  A    between atoms: C5_5  and  O2_7 
REMARK    3  A    between atoms: O2_7  and  C6_8 
REMARK    4  A    between atoms: C6_8  and  C7_9 
REMARK    5  A    between atoms: C15_17  and  O3_18 
REMARK    6  A    between atoms: C16_20  and  C17_21 
REMARK    7  A    between atoms: C17_21  and  O4_23 
REMARK    8  A    between atoms: C22_30  and  O7_31 
REMARK    9  A    between atoms: C22_30  and  C23_33 
ROOT
HETATM    1  C6  UNL     1     -36.775  -3.560  23.462  1.00  0.00     0.238 C 
HETATM    2  O5  UNL     1     -38.219  -3.834  23.505  1.00  0.00    -0.275 OA
HETATM    3  C19 UNL     1     -38.795  -2.764  22.840  1.00  0.00     0.268 C 
HETATM    4  O6  UNL     1     -39.948  -2.306  22.957  1.00  0.00    -0.265 OA
HETATM    5  C20 UNL     1     -37.745  -2.255  21.934  1.00  0.00     0.121 C 
HETATM    6  C21 UNL     1     -38.213  -1.856  20.606  1.00  0.00     0.024 C 
HETATM    7  C22 UNL     1     -36.789  -3.489  21.992  1.00  0.00     0.131 C 
ENDROOT
BRANCH   1   8
HETATM    8  O2  UNL     1     -36.762  -2.281  24.056  1.00  0.00    -0.271 OA
BRANCH   8   9
HETATM    9  C5  UNL     1     -36.176  -1.913  25.247  1.00  0.00     0.291 C 
HETATM   10  O1  UNL     1     -34.961  -1.832  25.318  1.00  0.00    -0.260 OA
BRANCH   9  11
HETATM   11  C3  UNL     1     -36.982  -1.614  26.443  1.00  0.00     0.009 C 
HETATM   12  C2  UNL     1     -36.403  -1.550  27.620  1.00  0.00    -0.018 C 
HETATM   13  C1  UNL     1     -37.215  -1.250  28.813  1.00  0.00     0.036 C 
HETATM   14  C4  UNL     1     -38.445  -1.388  26.308  1.00  0.00     0.054 C 
ENDBRANCH   9  11
ENDBRANCH   8   9
ENDBRANCH   1   8
BRANCH   1  15
HETATM   15  C7  UNL     1     -36.025  -4.594  24.238  1.00  0.00    -0.006 C 
HETATM   16  C8  UNL     1     -35.028  -5.354  23.401  1.00  0.00     0.041 C 
HETATM   17  C9  UNL     1     -35.113  -6.819  23.286  1.00  0.00     0.017 C 
HETATM   18  C10 UNL     1     -35.250  -7.404  24.618  1.00  0.00    -0.009 C 
HETATM   19  C11 UNL     1     -34.130  -7.126  25.547  1.00  0.00     0.018 C 
HETATM   20  C12 UNL     1     -35.540  -8.903  24.459  1.00  0.00     0.012 C 
HETATM   21  C15 UNL     1     -36.600  -6.935  25.109  1.00  0.00     0.091 C 
HETATM   22  C13 UNL     1     -36.951  -8.937  23.916  1.00  0.00     0.004 C 
HETATM   23  C14 UNL     1     -37.571  -7.588  24.213  1.00  0.00     0.043 C 
HETATM   24  C16 UNL     1     -36.741  -5.435  25.232  1.00  0.00    -0.009 C 
BRANCH  21  25
HETATM   25  O3  UNL     1     -36.626  -7.599  26.361  1.00  0.00    -0.384 OA
ATOM     26  H3  UNL     1     -37.014  -6.910  26.887  1.00  0.00     0.211 HD
ENDBRANCH  21  25
BRANCH  24  27
HETATM   27  C17 UNL     1     -38.130  -5.204  25.667  1.00  0.00     0.146 C 
HETATM   28  C18 UNL     1     -38.435  -4.985  27.096  1.00  0.00     0.044 C 
BRANCH  27  29
HETATM   29  O4  UNL     1     -38.821  -6.435  25.389  1.00  0.00    -0.391 OA
ATOM     30  H4  UNL     1     -38.468  -6.735  24.559  1.00  0.00     0.210 HD
ENDBRANCH  27  29
ENDBRANCH  24  27
ENDBRANCH   1  15
BRANCH   7  31
HETATM   31  O7  UNL     1     -35.705  -3.065  21.319  1.00  0.00    -0.383 OA
ATOM     32  H7  UNL     1     -35.350  -2.197  21.472  1.00  0.00     0.210 HD
ENDBRANCH   7  31
BRANCH   7  33
HETATM   33  C23 UNL     1     -37.612  -4.561  21.291  1.00  0.00     0.040 C 
HETATM   34  C24 UNL     1     -36.898  -5.358  20.268  1.00  0.00     0.008 C 
ENDBRANCH   7  33
TORSDOF 9
ENDMDL
MODEL 5
REMARK VINA RESULT: -6.565038700      2.051      5.146
REMARK  9 active torsions:
REMARK  status: ('A' for Active; 'I' for Inactive)
REMARK    1  A    between atoms: C3_3  and  C5_5 
REMARK    2  A    between atoms: C5_5  and  O2_7 
REMARK    3  A    between atoms: O2_7  and  C6_8 
REMARK    4  A    between atoms: C6_8  and  C7_9 
REMARK    5  A    between atoms: C15_17  and  O3_18 
REMARK    6  A    between atoms: C16_20  and  C17_21 
REMARK    7  A    between atoms: C17_21  and  O4_23 
REMARK    8  A    between atoms: C22_30  and  O7_31 
REMARK    9  A    between atoms: C22_30  and  C23_33 
ROOT
HETATM    1  C6  UNL     1     -37.099  -5.423  24.872  1.00  0.00     0.238 C 
HETATM    2  O5  UNL     1     -35.707  -5.628  24.447  1.00  0.00    -0.275 OA
HETATM    3  C19 UNL     1     -35.209  -6.572  25.331  1.00  0.00     0.268 C 
HETATM    4  O6  UNL     1     -34.027  -6.773  25.668  1.00  0.00    -0.265 OA
HETATM    5  C20 UNL     1     -36.390  -7.319  25.813  1.00  0.00     0.121 C 
HETATM    6  C21 UNL     1     -36.196  -8.762  25.950  1.00  0.00     0.024 C 
HETATM    7  C22 UNL     1     -37.403  -6.854  24.718  1.00  0.00     0.131 C 
ENDROOT
BRANCH   1   8
HETATM    8  O2  UNL     1     -36.881  -5.068  26.220  1.00  0.00    -0.271 OA
BRANCH   8   9
HETATM    9  C5  UNL     1     -37.789  -4.529  27.105  1.00  0.00     0.291 C 
HETATM   10  O1  UNL     1     -38.776  -5.171  27.419  1.00  0.00    -0.260 OA
BRANCH   9  11
HETATM   11  C3  UNL     1     -37.597  -3.188  27.685  1.00  0.00     0.009 C 
HETATM   12  C2  UNL     1     -38.185  -2.150  27.137  1.00  0.00    -0.018 C 
HETATM   13  C1  UNL     1     -37.989  -0.812  27.722  1.00  0.00     0.036 C 
HETATM   14  C4  UNL     1     -36.737  -3.022  28.886  1.00  0.00     0.054 C 
ENDBRANCH   9  11
ENDBRANCH   8   9
ENDBRANCH   1   8
BRANCH   1  15
HETATM   15  C7  UNL     1     -37.739  -4.343  24.060  1.00  0.00    -0.006 C 
HETATM   16  C8  UNL     1     -38.546  -4.873  22.903  1.00  0.00     0.041 C 
HETATM   17  C9  UNL     1     -38.232  -4.464  21.524  1.00  0.00     0.017 C 
HETATM   18  C10 UNL     1     -38.105  -3.009  21.467  1.00  0.00    -0.009 C 
HETATM   19  C11 UNL     1     -39.318  -2.254  21.857  1.00  0.00     0.018 C 
HETATM   20  C12 UNL     1     -37.581  -2.626  20.076  1.00  0.00     0.012 C 
HETATM   21  C15 UNL     1     -36.881  -2.695  22.294  1.00  0.00     0.091 C 
HETATM   22  C13 UNL     1     -36.145  -3.101  20.093  1.00  0.00     0.004 C 
HETATM   23  C14 UNL     1     -35.759  -3.289  21.544  1.00  0.00     0.043 C 
HETATM   24  C16 UNL     1     -36.978  -3.107  23.746  1.00  0.00    -0.009 C 
BRANCH  21  25
HETATM   25  O3  UNL     1     -36.846  -1.290  22.118  1.00  0.00    -0.384 OA
ATOM     26  H3  UNL     1     -36.729  -1.028  23.023  1.00  0.00     0.211 HD
ENDBRANCH  21  25
BRANCH  24  27
HETATM   27  C17 UNL     1     -35.675  -2.761  24.342  1.00  0.00     0.146 C 
HETATM   28  C18 UNL     1     -35.403  -1.377  24.784  1.00  0.00     0.044 C 
BRANCH  27  29
HETATM   29  O4  UNL     1     -34.718  -2.939  23.282  1.00  0.00    -0.391 OA
ATOM     30  H4  UNL     1     -35.194  -3.384  22.590  1.00  0.00     0.210 HD
ENDBRANCH  27  29
ENDBRANCH  24  27
ENDBRANCH   1  15
BRANCH   7  31
HETATM   31  O7  UNL     1     -38.572  -7.355  25.154  1.00  0.00    -0.383 OA
ATOM     32  H7  UNL     1     -39.341  -6.800  25.221  1.00  0.00     0.210 HD
ENDBRANCH   7  31
BRANCH   7  33
HETATM   33  C23 UNL     1     -36.841  -7.513  23.466  1.00  0.00     0.040 C 
HETATM   34  C24 UNL     1     -37.799  -8.313  22.670  1.00  0.00     0.008 C 
ENDBRANCH   7  33
TORSDOF 9
ENDMDL
