MODEL 1
REMARK VINA RESULT: -7.611322556      0.000      0.000
REMARK  2 active torsions:
REMARK  status: ('A' for Active; 'I' for Inactive)
REMARK    1  A    between atoms: O1_2  and  C2_3 
REMARK    2  A    between atoms: C5_6  and  C6_7 
ROOT
HETATM    1  C6  UNL     1     -41.755   2.931  13.070  1.00  0.00     0.111 C 
HETATM    2  C7  UNL     1     -42.356   2.199  14.225  1.00  0.00     0.031 C 
HETATM    3  C8  UNL     1     -43.742   2.658  14.599  1.00  0.00     0.030 C 
HETATM    4  C9  UNL     1     -44.647   1.522  15.030  1.00  0.00     0.232 C 
HETATM    5  N1  UNL     1     -45.807   2.185  15.654  1.00  0.00    -0.074 N 
ATOM      6  H11 UNL     1     -45.524   2.765  16.444  1.00  0.00     0.277 HD
ATOM      7  H12 UNL     1     -46.396   1.517  16.152  1.00  0.00     0.277 HD
HETATM    8  C10 UNL     1     -46.562   2.935  14.697  1.00  0.00     0.259 C 
HETATM    9  C11 UNL     1     -46.560   4.424  14.944  1.00  0.00     0.259 C 
HETATM   10  N2  UNL     1     -46.578   5.105  13.667  1.00  0.00    -0.072 N 
ATOM     11  H21 UNL     1     -47.413   4.853  13.139  1.00  0.00     0.277 HD
ATOM     12  H22 UNL     1     -45.860   4.724  13.050  1.00  0.00     0.277 HD
HETATM   13  C12 UNL     1     -46.455   6.528  13.759  1.00  0.00     0.258 C 
HETATM   14  C13 UNL     1     -45.125   7.066  13.274  1.00  0.00     0.195 C 
HETATM   15  O2  UNL     1     -44.230   6.013  13.250  1.00  0.00    -0.388 OA
HETATM   16  C14 UNL     1     -43.127   6.176  14.056  1.00  0.00     0.186 C 
HETATM   17  C15 UNL     1     -42.008   5.316  13.480  1.00  0.00     0.140 C 
HETATM   18  N3  UNL     1     -42.472   4.170  12.776  1.00  0.00    -0.411 N 
ATOM     19  H3  UNL     1     -43.247   4.210  12.115  1.00  0.00     0.154 HD
ENDROOT
BRANCH   1  20
HETATM   20  C5  UNL     1     -41.693   2.050  11.886  1.00  0.00    -0.012 A 
HETATM   21  C4  UNL     1     -42.415   0.897  11.739  1.00  0.00     0.014 A 
HETATM   22  C3  UNL     1     -42.373   0.080  10.606  1.00  0.00     0.039 A 
HETATM   23  C2  UNL     1     -41.537   0.495   9.586  1.00  0.00     0.091 A 
HETATM   24  C17 UNL     1     -40.807   1.654   9.723  1.00  0.00     0.089 A 
HETATM   25  C16 UNL     1     -40.849   2.451  10.831  1.00  0.00     0.067 A 
HETATM   26 CL2  UNL     1     -39.736   2.173   8.415  1.00  0.00    -0.080 Cl
HETATM   27 CL1  UNL     1     -39.916   3.925  11.004  1.00  0.00    -0.082 Cl
BRANCH  23  28
HETATM   28  O1  UNL     1     -41.417  -0.229   8.426  1.00  0.00    -0.354 OA
HETATM   29  C1  UNL     1     -42.391  -0.998   7.801  1.00  0.00     0.210 C 
ENDBRANCH  23  28
ENDBRANCH   1  20
TORSDOF 2
ENDMDL
MODEL 2
REMARK VINA RESULT: -7.504448186      3.089      4.428
REMARK  2 active torsions:
REMARK  status: ('A' for Active; 'I' for Inactive)
REMARK    1  A    between atoms: O1_2  and  C2_3 
REMARK    2  A    between atoms: C5_6  and  C6_7 
ROOT
HETATM    1  C6  UNL     1     -43.203   4.114  13.259  1.00  0.00     0.111 C 
HETATM    2  C7  UNL     1     -41.988   4.879  13.670  1.00  0.00     0.031 C 
HETATM    3  C8  UNL     1     -41.476   4.541  15.046  1.00  0.00     0.030 C 
HETATM    4  C9  UNL     1     -39.963   4.541  15.132  1.00  0.00     0.232 C 
HETATM    5  N1  UNL     1     -39.672   4.522  16.578  1.00  0.00    -0.074 N 
ATOM      6  H11 UNL     1     -40.079   5.329  17.051  1.00  0.00     0.277 HD
ATOM      7  H12 UNL     1     -38.686   4.711  16.763  1.00  0.00     0.277 HD
HETATM    8  C10 UNL     1     -40.091   3.295  17.183  1.00  0.00     0.259 C 
HETATM    9  C11 UNL     1     -41.198   3.456  18.196  1.00  0.00     0.259 C 
HETATM   10  N2  UNL     1     -42.060   2.295  18.130  1.00  0.00    -0.072 N 
ATOM     11  H21 UNL     1     -41.533   1.448  18.340  1.00  0.00     0.277 HD
ATOM     12  H22 UNL     1     -42.324   2.102  17.164  1.00  0.00     0.277 HD
HETATM   13  C12 UNL     1     -43.224   2.379  18.960  1.00  0.00     0.258 C 
HETATM   14  C13 UNL     1     -44.517   2.555  18.192  1.00  0.00     0.195 C 
HETATM   15  O2  UNL     1     -44.196   2.994  16.922  1.00  0.00    -0.388 OA
HETATM   16  C14 UNL     1     -44.729   4.216  16.583  1.00  0.00     0.186 C 
HETATM   17  C15 UNL     1     -44.829   4.266  15.063  1.00  0.00     0.140 C 
HETATM   18  N3  UNL     1     -43.854   3.471  14.398  1.00  0.00    -0.411 N 
ATOM     19  H3  UNL     1     -43.626   2.522  14.695  1.00  0.00     0.154 HD
ENDROOT
BRANCH   1  20
HETATM   20  C5  UNL     1     -42.857   3.132  12.211  1.00  0.00    -0.012 A 
HETATM   21  C4  UNL     1     -41.688   2.421  12.171  1.00  0.00     0.014 A 
HETATM   22  C3  UNL     1     -41.374   1.474  11.193  1.00  0.00     0.039 A 
HETATM   23  C2  UNL     1     -42.332   1.267  10.217  1.00  0.00     0.091 A 
HETATM   24  C17 UNL     1     -43.511   1.976  10.248  1.00  0.00     0.089 A 
HETATM   25  C16 UNL     1     -43.816   2.902  11.205  1.00  0.00     0.067 A 
HETATM   26 CL2  UNL     1     -44.726   1.708   8.992  1.00  0.00    -0.080 Cl
HETATM   27 CL1  UNL     1     -45.317   3.805  11.241  1.00  0.00    -0.082 Cl
BRANCH  23  28
HETATM   28  O1  UNL     1     -42.131   0.360   9.206  1.00  0.00    -0.354 OA
HETATM   29  C1  UNL     1     -41.032  -0.466   9.013  1.00  0.00     0.210 C 
ENDBRANCH  23  28
ENDBRANCH   1  20
TORSDOF 2
ENDMDL
MODEL 3
REMARK VINA RESULT: -7.428542214      4.717      6.245
REMARK  2 active torsions:
REMARK  status: ('A' for Active; 'I' for Inactive)
REMARK    1  A    between atoms: O1_2  and  C2_3 
REMARK    2  A    between atoms: C5_6  and  C6_7 
ROOT
HETATM    1  C6  UNL     1     -47.088   5.130  13.488  1.00  0.00     0.111 C 
HETATM    2  C7  UNL     1     -46.048   6.201  13.438  1.00  0.00     0.031 C 
HETATM    3  C8  UNL     1     -44.766   5.857  14.151  1.00  0.00     0.030 C 
HETATM    4  C9  UNL     1     -43.534   6.377  13.439  1.00  0.00     0.232 C 
HETATM    5  N1  UNL     1     -42.446   6.239  14.425  1.00  0.00    -0.074 N 
ATOM      6  H11 UNL     1     -42.645   6.767  15.275  1.00  0.00     0.277 HD
ATOM      7  H12 UNL     1     -41.605   6.732  14.125  1.00  0.00     0.277 HD
HETATM    8  C10 UNL     1     -42.171   4.865  14.716  1.00  0.00     0.259 C 
HETATM    9  C11 UNL     1     -42.467   4.467  16.141  1.00  0.00     0.259 C 
HETATM   10  N2  UNL     1     -42.947   3.102  16.150  1.00  0.00    -0.072 N 
ATOM     11  H21 UNL     1     -42.243   2.473  15.764  1.00  0.00     0.277 HD
ATOM     12  H22 UNL     1     -43.687   2.979  15.458  1.00  0.00     0.277 HD
HETATM   13  C12 UNL     1     -43.381   2.640  17.433  1.00  0.00     0.258 C 
HETATM   14  C13 UNL     1     -44.880   2.464  17.552  1.00  0.00     0.195 C 
HETATM   15  O2  UNL     1     -45.469   3.179  16.527  1.00  0.00    -0.388 OA
HETATM   16  C14 UNL     1     -46.330   4.171  16.937  1.00  0.00     0.186 C 
HETATM   17  C15 UNL     1     -47.319   4.417  15.803  1.00  0.00     0.140 C 
HETATM   18  N3  UNL     1     -46.793   4.131  14.513  1.00  0.00    -0.411 N 
ATOM     19  H3  UNL     1     -46.250   3.289  14.317  1.00  0.00     0.154 HD
ENDROOT
BRANCH   1  20
HETATM   20  C5  UNL     1     -47.242   4.508  12.157  1.00  0.00    -0.012 A 
HETATM   21  C4  UNL     1     -46.243   4.409  11.227  1.00  0.00     0.014 A 
HETATM   22  C3  UNL     1     -46.386   3.797   9.979  1.00  0.00     0.039 A 
HETATM   23  C2  UNL     1     -47.632   3.267   9.700  1.00  0.00     0.091 A 
HETATM   24  C17 UNL     1     -48.644   3.361  10.628  1.00  0.00     0.089 A 
HETATM   25  C16 UNL     1     -48.503   3.959  11.847  1.00  0.00     0.067 A 
HETATM   26 CL2  UNL     1     -50.235   2.685  10.258  1.00  0.00    -0.080 Cl
HETATM   27 CL1  UNL     1     -49.794   4.080  13.026  1.00  0.00    -0.082 Cl
BRANCH  23  28
HETATM   28  O1  UNL     1     -47.886   2.642   8.504  1.00  0.00    -0.354 OA
HETATM   29  C1  UNL     1     -47.395   1.420   8.063  1.00  0.00     0.210 C 
ENDBRANCH  23  28
ENDBRANCH   1  20
TORSDOF 2
ENDMDL
MODEL 4
REMARK VINA RESULT: -7.360782996      2.318      3.173
REMARK  2 active torsions:
REMARK  status: ('A' for Active; 'I' for Inactive)
REMARK    1  A    between atoms: O1_2  and  C2_3 
REMARK    2  A    between atoms: C5_6  and  C6_7 
ROOT
HETATM    1  C6  UNL     1     -42.158   4.136  13.038  1.00  0.00     0.111 C 
HETATM    2  C7  UNL     1     -41.034   4.429  13.978  1.00  0.00     0.031 C 
HETATM    3  C8  UNL     1     -41.371   4.227  15.433  1.00  0.00     0.030 C 
HETATM    4  C9  UNL     1     -40.221   3.648  16.232  1.00  0.00     0.232 C 
HETATM    5  N1  UNL     1     -40.617   3.833  17.641  1.00  0.00    -0.074 N 
ATOM      6  H11 UNL     1     -40.773   4.818  17.858  1.00  0.00     0.277 HD
ATOM      7  H12 UNL     1     -39.837   3.653  18.274  1.00  0.00     0.277 HD
HETATM    8  C10 UNL     1     -41.757   3.037  17.976  1.00  0.00     0.259 C 
HETATM    9  C11 UNL     1     -42.983   3.839  18.336  1.00  0.00     0.259 C 
HETATM   10  N2  UNL     1     -44.155   3.129  17.869  1.00  0.00    -0.072 N 
ATOM     11  H21 UNL     1     -44.214   2.210  18.309  1.00  0.00     0.277 HD
ATOM     12  H22 UNL     1     -44.038   2.848  16.895  1.00  0.00     0.277 HD
HETATM   13  C12 UNL     1     -45.383   3.844  18.040  1.00  0.00     0.258 C 
HETATM   14  C13 UNL     1     -45.992   4.344  16.747  1.00  0.00     0.195 C 
HETATM   15  O2  UNL     1     -45.001   4.330  15.784  1.00  0.00    -0.388 OA
HETATM   16  C14 UNL     1     -44.723   5.557  15.226  1.00  0.00     0.186 C 
HETATM   17  C15 UNL     1     -44.132   5.308  13.843  1.00  0.00     0.140 C 
HETATM   18  N3  UNL     1     -43.443   4.068  13.730  1.00  0.00    -0.411 N 
ATOM     19  H3  UNL     1     -43.819   3.197  14.103  1.00  0.00     0.154 HD
ENDROOT
BRANCH   1  20
HETATM   20  C5  UNL     1     -41.884   2.893  12.288  1.00  0.00    -0.012 A 
HETATM   21  C4  UNL     1     -42.445   1.677  12.570  1.00  0.00     0.014 A 
HETATM   22  C3  UNL     1     -42.203   0.509  11.842  1.00  0.00     0.039 A 
HETATM   23  C2  UNL     1     -41.333   0.628  10.773  1.00  0.00     0.091 A 
HETATM   24  C17 UNL     1     -40.763   1.845  10.481  1.00  0.00     0.089 A 
HETATM   25  C16 UNL     1     -41.001   2.986  11.193  1.00  0.00     0.067 A 
HETATM   26 CL2  UNL     1     -39.649   1.984   9.115  1.00  0.00    -0.080 Cl
HETATM   27 CL1  UNL     1     -40.272   4.535  10.820  1.00  0.00    -0.082 Cl
BRANCH  23  28
HETATM   28  O1  UNL     1     -41.022  -0.455   9.988  1.00  0.00    -0.354 OA
HETATM   29  C1  UNL     1     -41.596  -0.817   8.776  1.00  0.00     0.210 C 
ENDBRANCH  23  28
ENDBRANCH   1  20
TORSDOF 2
ENDMDL
MODEL 5
REMARK VINA RESULT: -7.139230009      4.337      7.268
REMARK  2 active torsions:
REMARK  status: ('A' for Active; 'I' for Inactive)
REMARK    1  A    between atoms: O1_2  and  C2_3 
REMARK    2  A    between atoms: C5_6  and  C6_7 
ROOT
HETATM    1  C6  UNL     1     -47.003   3.370  15.060  1.00  0.00     0.111 C 
HETATM    2  C7  UNL     1     -46.635   4.725  15.569  1.00  0.00     0.031 C 
HETATM    3  C8  UNL     1     -45.333   5.259  15.029  1.00  0.00     0.030 C 
HETATM    4  C9  UNL     1     -45.368   6.751  14.764  1.00  0.00     0.232 C 
HETATM    5  N1  UNL     1     -43.956   7.128  14.569  1.00  0.00    -0.074 N 
ATOM      6  H11 UNL     1     -43.393   6.901  15.388  1.00  0.00     0.277 HD
ATOM      7  H12 UNL     1     -43.837   8.142  14.571  1.00  0.00     0.277 HD
HETATM    8  C10 UNL     1     -43.414   6.541  13.382  1.00  0.00     0.259 C 
HETATM    9  C11 UNL     1     -42.306   5.549  13.638  1.00  0.00     0.259 C 
HETATM   10  N2  UNL     1     -42.391   4.494  12.650  1.00  0.00    -0.072 N 
ATOM     11  H21 UNL     1     -42.290   4.877  11.710  1.00  0.00     0.277 HD
ATOM     12  H22 UNL     1     -43.346   4.138  12.590  1.00  0.00     0.277 HD
HETATM   13  C12 UNL     1     -41.467   3.420  12.856  1.00  0.00     0.258 C 
HETATM   14  C13 UNL     1     -42.113   2.130  13.315  1.00  0.00     0.195 C 
HETATM   15  O2  UNL     1     -43.368   2.439  13.804  1.00  0.00    -0.388 OA
HETATM   16  C14 UNL     1     -43.570   2.108  15.124  1.00  0.00     0.186 C 
HETATM   17  C15 UNL     1     -45.069   1.918  15.324  1.00  0.00     0.140 C 
HETATM   18  N3  UNL     1     -45.868   2.693  14.438  1.00  0.00    -0.411 N 
ATOM     19  H3  UNL     1     -45.663   2.770  13.442  1.00  0.00     0.154 HD
ENDROOT
BRANCH   1  20
HETATM   20  C5  UNL     1     -48.147   3.469  14.130  1.00  0.00    -0.012 A 
HETATM   21  C4  UNL     1     -48.368   4.521  13.283  1.00  0.00     0.014 A 
HETATM   22  C3  UNL     1     -49.437   4.600  12.386  1.00  0.00     0.039 A 
HETATM   23  C2  UNL     1     -50.308   3.526  12.381  1.00  0.00     0.091 A 
HETATM   24  C17 UNL     1     -50.095   2.463  13.228  1.00  0.00     0.089 A 
HETATM   25  C16 UNL     1     -49.049   2.388  14.104  1.00  0.00     0.067 A 
HETATM   26 CL2  UNL     1     -51.218   1.097  13.218  1.00  0.00    -0.080 Cl
HETATM   27 CL1  UNL     1     -48.782   1.033  15.184  1.00  0.00    -0.082 Cl
BRANCH  23  28
HETATM   28  O1  UNL     1     -51.393   3.496  11.540  1.00  0.00    -0.354 OA
HETATM   29  C1  UNL     1     -51.411   3.719  10.170  1.00  0.00     0.210 C 
ENDBRANCH  23  28
ENDBRANCH   1  20
TORSDOF 2
ENDMDL
