MODEL 1
REMARK VINA RESULT: -8.698267761      0.000      0.000
REMARK  2 active torsions:
REMARK  status: ('A' for Active; 'I' for Inactive)
REMARK    1  A    between atoms: C8_18  and  N5_19 
REMARK    2  A    between atoms: N5_19  and  C9_21 
ROOT
HETATM    1  C1  UNL     1     -45.382   4.046  14.373  1.00  0.00     0.045 C 
HETATM    2  C2  UNL     1     -44.101   3.260  14.590  1.00  0.00     0.222 C 
HETATM    3  N1  UNL     1     -43.361   3.903  15.652  1.00  0.00    -0.046 N 
ATOM      4  H11 UNL     1     -43.826   3.804  16.554  1.00  0.00     0.280 HD
ATOM      5  H12 UNL     1     -43.394   4.920  15.575  1.00  0.00     0.280 HD
HETATM    6  C3  UNL     1     -41.977   3.401  15.690  1.00  0.00     0.295 C 
HETATM    7  C4  UNL     1     -41.406   3.817  16.988  1.00  0.00     0.066 C 
HETATM    8  C5  UNL     1     -39.927   3.599  17.138  1.00  0.00     0.086 C 
HETATM    9  S1  UNL     1     -39.042   4.580  15.866  1.00  0.00    -0.094 SA
HETATM   10  C6  UNL     1     -40.100   4.543  14.428  1.00  0.00     0.143 C 
HETATM   11  N2  UNL     1     -39.714   5.153  13.341  1.00  0.00    -0.380 N 
ATOM     12  H21 UNL     1     -40.318   5.132  12.520  1.00  0.00     0.158 HD
ATOM     13  H22 UNL     1     -38.827   5.653  13.279  1.00  0.00     0.158 HD
HETATM   14  N3  UNL     1     -41.326   3.852  14.514  1.00  0.00    -0.283 N 
HETATM   15  C7  UNL     1     -41.993   3.571  13.258  1.00  0.00     0.136 A 
HETATM   16  N4  UNL     1     -41.318   3.594  12.117  1.00  0.00    -0.176 N 
ATOM     17  H4  UNL     1     -40.321   3.811  12.115  1.00  0.00     0.186 HD
HETATM   18  C8  UNL     1     -41.972   3.322  10.928  1.00  0.00     0.679 A 
HETATM   19  N6  UNL     1     -43.282   3.041  10.955  1.00  0.00    -0.201 N 
ATOM     20  H6  UNL     1     -43.771   2.840  10.082  1.00  0.00     0.183 HD
HETATM   21  C15 UNL     1     -43.963   3.020  12.115  1.00  0.00     0.119 A 
HETATM   22  C16 UNL     1     -43.340   3.286  13.322  1.00  0.00     0.033 A 
ENDROOT
BRANCH  18  23
HETATM   23  N5  UNL     1     -41.277   3.361   9.898  1.00  0.00    -0.221 N 
ATOM     24  H5  UNL     1     -41.431   4.227   9.381  1.00  0.00     0.178 HD
BRANCH  23  25
HETATM   25  C9  UNL     1     -40.345   2.549   9.255  1.00  0.00     0.099 C 
HETATM   26  C10 UNL     1     -38.911   3.063   9.226  1.00  0.00     0.031 C 
HETATM   27  C11 UNL     1     -38.217   2.300   8.106  1.00  0.00     0.081 C 
HETATM   28  C12 UNL     1     -38.286   0.819   8.254  1.00  0.00     0.243 C 
HETATM   29  F1  UNL     1     -37.996   0.268   6.998  1.00  0.00    -0.206 F 
HETATM   30  F2  UNL     1     -37.304   0.401   9.110  1.00  0.00    -0.206 F 
HETATM   31  C13 UNL     1     -39.647   0.286   8.636  1.00  0.00     0.081 C 
HETATM   32  C14 UNL     1     -40.255   1.106   9.764  1.00  0.00     0.031 C 
ENDBRANCH  23  25
ENDBRANCH  18  23
TORSDOF 2
ENDMDL
MODEL 2
REMARK VINA RESULT: -8.513573291      1.481      2.054
REMARK  2 active torsions:
REMARK  status: ('A' for Active; 'I' for Inactive)
REMARK    1  A    between atoms: C8_18  and  N5_19 
REMARK    2  A    between atoms: N5_19  and  C9_21 
ROOT
HETATM    1  C1  UNL     1     -45.907   5.601  14.515  1.00  0.00     0.045 C 
HETATM    2  C2  UNL     1     -45.017   4.461  14.976  1.00  0.00     0.222 C 
HETATM    3  N1  UNL     1     -44.176   4.958  16.042  1.00  0.00    -0.046 N 
ATOM      4  H11 UNL     1     -44.712   5.163  16.885  1.00  0.00     0.280 HD
ATOM      5  H12 UNL     1     -43.834   5.899  15.847  1.00  0.00     0.280 HD
HETATM    6  C3  UNL     1     -43.074   4.018  16.308  1.00  0.00     0.295 C 
HETATM    7  C4  UNL     1     -42.491   4.399  17.610  1.00  0.00     0.066 C 
HETATM    8  C5  UNL     1     -41.206   3.706  17.966  1.00  0.00     0.086 C 
HETATM    9  S1  UNL     1     -39.934   4.115  16.710  1.00  0.00    -0.094 SA
HETATM   10  C6  UNL     1     -40.822   4.233  15.166  1.00  0.00     0.143 C 
HETATM   11  N2  UNL     1     -40.161   4.501  14.074  1.00  0.00    -0.380 N 
ATOM     12  H21 UNL     1     -40.668   4.569  13.192  1.00  0.00     0.158 HD
ATOM     13  H22 UNL     1     -39.151   4.646  14.066  1.00  0.00     0.158 HD
HETATM   14  N3  UNL     1     -42.217   4.033  15.178  1.00  0.00    -0.283 N 
HETATM   15  C7  UNL     1     -42.844   3.817  13.888  1.00  0.00     0.136 A 
HETATM   16  N4  UNL     1     -42.123   3.432  12.844  1.00  0.00    -0.176 N 
ATOM     17  H4  UNL     1     -41.118   3.286  12.942  1.00  0.00     0.186 HD
HETATM   18  C8  UNL     1     -42.740   3.230  11.623  1.00  0.00     0.679 A 
HETATM   19  N6  UNL     1     -44.061   3.429  11.518  1.00  0.00    -0.201 N 
ATOM     20  H6  UNL     1     -44.522   3.282  10.620  1.00  0.00     0.183 HD
HETATM   21  C15 UNL     1     -44.788   3.820  12.580  1.00  0.00     0.119 A 
HETATM   22  C16 UNL     1     -44.204   4.031  13.817  1.00  0.00     0.033 A 
ENDROOT
BRANCH  18  23
HETATM   23  N5  UNL     1     -42.002   2.870  10.689  1.00  0.00    -0.221 N 
ATOM     24  H5  UNL     1     -41.779   3.651  10.072  1.00  0.00     0.178 HD
BRANCH  23  25
HETATM   25  C9  UNL     1     -41.395   1.695  10.252  1.00  0.00     0.099 C 
HETATM   26  C10 UNL     1     -42.331   0.591   9.774  1.00  0.00     0.031 C 
HETATM   27  C11 UNL     1     -41.517  -0.695   9.819  1.00  0.00     0.081 C 
HETATM   28  C12 UNL     1     -40.256  -0.638   9.026  1.00  0.00     0.243 C 
HETATM   29  F1  UNL     1     -39.439  -1.681   9.481  1.00  0.00    -0.206 F 
HETATM   30  F2  UNL     1     -40.535  -0.891   7.711  1.00  0.00    -0.206 F 
HETATM   31  C13 UNL     1     -39.453   0.629   9.210  1.00  0.00     0.081 C 
HETATM   32  C14 UNL     1     -40.349   1.856   9.144  1.00  0.00     0.031 C 
ENDBRANCH  23  25
ENDBRANCH  18  23
TORSDOF 2
ENDMDL
MODEL 3
REMARK VINA RESULT: -8.469278366      0.568      1.286
REMARK  2 active torsions:
REMARK  status: ('A' for Active; 'I' for Inactive)
REMARK    1  A    between atoms: C8_18  and  N5_19 
REMARK    2  A    between atoms: N5_19  and  C9_21 
ROOT
HETATM    1  C1  UNL     1     -45.524   4.379  13.805  1.00  0.00     0.045 C 
HETATM    2  C2  UNL     1     -44.347   3.533  14.256  1.00  0.00     0.222 C 
HETATM    3  N1  UNL     1     -43.682   4.236  15.330  1.00  0.00    -0.046 N 
ATOM      4  H11 UNL     1     -44.254   4.270  16.173  1.00  0.00     0.280 HD
ATOM      5  H12 UNL     1     -43.621   5.237  15.147  1.00  0.00     0.280 HD
HETATM    6  C3  UNL     1     -42.358   3.644  15.589  1.00  0.00     0.295 C 
HETATM    7  C4  UNL     1     -41.907   4.159  16.898  1.00  0.00     0.066 C 
HETATM    8  C5  UNL     1     -40.479   3.855  17.250  1.00  0.00     0.086 C 
HETATM    9  S1  UNL     1     -39.375   4.623  16.003  1.00  0.00    -0.094 SA
HETATM   10  C6  UNL     1     -40.260   4.502  14.457  1.00  0.00     0.143 C 
HETATM   11  N2  UNL     1     -39.703   4.959  13.370  1.00  0.00    -0.380 N 
ATOM     12  H21 UNL     1     -40.208   4.890  12.487  1.00  0.00     0.158 HD
ATOM     13  H22 UNL     1     -38.775   5.385  13.367  1.00  0.00     0.158 HD
HETATM   14  N3  UNL     1     -41.541   3.914  14.462  1.00  0.00    -0.283 N 
HETATM   15  C7  UNL     1     -42.082   3.544  13.168  1.00  0.00     0.136 A 
HETATM   16  N4  UNL     1     -41.281   3.392  12.122  1.00  0.00    -0.176 N 
ATOM     17  H4  UNL     1     -40.276   3.536  12.221  1.00  0.00     0.186 HD
HETATM   18  C8  UNL     1     -41.815   3.037  10.896  1.00  0.00     0.679 A 
HETATM   19  N6  UNL     1     -43.138   2.855  10.790  1.00  0.00    -0.201 N 
ATOM     20  H6  UNL     1     -43.539   2.593   9.889  1.00  0.00     0.183 HD
HETATM   21  C15 UNL     1     -43.947   3.010  11.854  1.00  0.00     0.119 A 
HETATM   22  C16 UNL     1     -43.446   3.364  13.095  1.00  0.00     0.033 A 
ENDROOT
BRANCH  18  23
HETATM   23  N5  UNL     1     -41.005   2.912   9.961  1.00  0.00    -0.221 N 
ATOM     24  H5  UNL     1     -41.087   3.682   9.296  1.00  0.00     0.178 HD
BRANCH  23  25
HETATM   25  C9  UNL     1     -40.017   2.011   9.570  1.00  0.00     0.099 C 
HETATM   26  C10 UNL     1     -40.494   0.770   8.826  1.00  0.00     0.031 C 
HETATM   27  C11 UNL     1     -39.365  -0.244   8.938  1.00  0.00     0.081 C 
HETATM   28  C12 UNL     1     -38.055   0.254   8.428  1.00  0.00     0.243 C 
HETATM   29  F1  UNL     1     -37.065  -0.582   8.960  1.00  0.00    -0.206 F 
HETATM   30  F2  UNL     1     -38.013   0.111   7.068  1.00  0.00    -0.206 F 
HETATM   31  C13 UNL     1     -37.698   1.654   8.872  1.00  0.00     0.081 C 
HETATM   32  C14 UNL     1     -38.885   2.593   8.716  1.00  0.00     0.031 C 
ENDBRANCH  23  25
ENDBRANCH  18  23
TORSDOF 2
ENDMDL
MODEL 4
REMARK VINA RESULT: -8.424449086      1.571      1.823
REMARK  2 active torsions:
REMARK  status: ('A' for Active; 'I' for Inactive)
REMARK    1  A    between atoms: C8_18  and  N5_19 
REMARK    2  A    between atoms: N5_19  and  C9_21 
ROOT
HETATM    1  C1  UNL     1     -45.941   5.537  14.843  1.00  0.00     0.045 C 
HETATM    2  C2  UNL     1     -44.901   4.471  15.138  1.00  0.00     0.222 C 
HETATM    3  N1  UNL     1     -43.940   5.033  16.060  1.00  0.00    -0.046 N 
ATOM      4  H11 UNL     1     -44.347   5.193  16.982  1.00  0.00     0.280 HD
ATOM      5  H12 UNL     1     -43.709   5.998  15.826  1.00  0.00     0.280 HD
HETATM    6  C3  UNL     1     -42.739   4.183  16.131  1.00  0.00     0.295 C 
HETATM    7  C4  UNL     1     -41.984   4.608  17.328  1.00  0.00     0.066 C 
HETATM    8  C5  UNL     1     -40.608   4.020  17.461  1.00  0.00     0.086 C 
HETATM    9  S1  UNL     1     -39.593   4.530  16.022  1.00  0.00    -0.094 SA
HETATM   10  C6  UNL     1     -40.726   4.579  14.644  1.00  0.00     0.143 C 
HETATM   11  N2  UNL     1     -40.275   4.899  13.462  1.00  0.00    -0.380 N 
ATOM     12  H21 UNL     1     -40.922   4.927  12.675  1.00  0.00     0.158 HD
ATOM     13  H22 UNL     1     -39.294   5.124  13.293  1.00  0.00     0.158 HD
HETATM   14  N3  UNL     1     -42.081   4.268  14.878  1.00  0.00    -0.283 N 
HETATM   15  C7  UNL     1     -42.890   4.003  13.704  1.00  0.00     0.136 A 
HETATM   16  N4  UNL     1     -42.320   3.678  12.552  1.00  0.00    -0.176 N 
ATOM     17  H4  UNL     1     -41.305   3.613  12.484  1.00  0.00     0.186 HD
HETATM   18  C8  UNL     1     -43.109   3.429  11.444  1.00  0.00     0.679 A 
HETATM   19  N6  UNL     1     -44.441   3.522  11.557  1.00  0.00    -0.201 N 
ATOM     20  H6  UNL     1     -45.029   3.339  10.744  1.00  0.00     0.183 HD
HETATM   21  C15 UNL     1     -45.015   3.852  12.728  1.00  0.00     0.119 A 
HETATM   22  C16 UNL     1     -44.256   4.108  13.857  1.00  0.00     0.033 A 
ENDROOT
BRANCH  18  23
HETATM   23  N5  UNL     1     -42.507   3.129  10.398  1.00  0.00    -0.221 N 
ATOM     24  H5  UNL     1     -42.352   3.951   9.812  1.00  0.00     0.178 HD
BRANCH  23  25
HETATM   25  C9  UNL     1     -41.984   1.983   9.804  1.00  0.00     0.099 C 
HETATM   26  C10 UNL     1     -40.483   1.768   9.960  1.00  0.00     0.031 C 
HETATM   27  C11 UNL     1     -40.088   0.780   8.871  1.00  0.00     0.081 C 
HETATM   28  C12 UNL     1     -40.851  -0.499   8.913  1.00  0.00     0.243 C 
HETATM   29  F1  UNL     1     -40.696  -1.109   7.661  1.00  0.00    -0.206 F 
HETATM   30  F2  UNL     1     -40.288  -1.335   9.838  1.00  0.00    -0.206 F 
HETATM   31  C13 UNL     1     -42.340  -0.339   9.114  1.00  0.00     0.081 C 
HETATM   32  C14 UNL     1     -42.635   0.660  10.223  1.00  0.00     0.031 C 
ENDBRANCH  23  25
ENDBRANCH  18  23
TORSDOF 2
ENDMDL
MODEL 5
REMARK VINA RESULT: -8.382312917      2.299      3.735
REMARK  2 active torsions:
REMARK  status: ('A' for Active; 'I' for Inactive)
REMARK    1  A    between atoms: C8_18  and  N5_19 
REMARK    2  A    between atoms: N5_19  and  C9_21 
ROOT
HETATM    1  C1  UNL     1     -41.687   4.341  16.835  1.00  0.00     0.045 C 
HETATM    2  C2  UNL     1     -42.422   5.196  15.819  1.00  0.00     0.222 C 
HETATM    3  N1  UNL     1     -43.838   4.952  15.975  1.00  0.00    -0.046 N 
ATOM      4  H11 UNL     1     -44.192   5.321  16.858  1.00  0.00     0.280 HD
ATOM      5  H12 UNL     1     -44.038   3.965  16.133  1.00  0.00     0.280 HD
HETATM    6  C3  UNL     1     -44.582   5.485  14.821  1.00  0.00     0.295 C 
HETATM    7  C4  UNL     1     -46.006   5.526  15.212  1.00  0.00     0.066 C 
HETATM    8  C5  UNL     1     -46.969   5.829  14.098  1.00  0.00     0.086 C 
HETATM    9  S1  UNL     1     -46.839   4.522  12.819  1.00  0.00    -0.094 SA
HETATM   10  C6  UNL     1     -45.114   4.061  12.795  1.00  0.00     0.143 C 
HETATM   11  N2  UNL     1     -44.714   3.148  11.953  1.00  0.00    -0.380 N 
ATOM     12  H21 UNL     1     -43.729   2.884  11.940  1.00  0.00     0.158 HD
ATOM     13  H22 UNL     1     -45.350   2.683  11.305  1.00  0.00     0.158 HD
HETATM   14  N3  UNL     1     -44.236   4.702  13.691  1.00  0.00    -0.283 N 
HETATM   15  C7  UNL     1     -42.819   4.543  13.425  1.00  0.00     0.136 A 
HETATM   16  N4  UNL     1     -42.397   4.178  12.222  1.00  0.00    -0.176 N 
ATOM     17  H4  UNL     1     -43.068   4.005  11.474  1.00  0.00     0.186 HD
HETATM   18  C8  UNL     1     -41.041   4.033  11.987  1.00  0.00     0.679 A 
HETATM   19  N6  UNL     1     -40.178   4.264  12.986  1.00  0.00    -0.201 N 
ATOM     20  H6  UNL     1     -39.177   4.159  12.820  1.00  0.00     0.183 HD
HETATM   21  C15 UNL     1     -40.611   4.635  14.204  1.00  0.00     0.119 A 
HETATM   22  C16 UNL     1     -41.960   4.790  14.474  1.00  0.00     0.033 A 
ENDROOT
BRANCH  18  23
HETATM   23  N5  UNL     1     -40.718   3.688  10.837  1.00  0.00    -0.221 N 
ATOM     24  H5  UNL     1     -40.434   4.493  10.277  1.00  0.00     0.178 HD
BRANCH  23  25
HETATM   25  C9  UNL     1     -40.636   2.508  10.101  1.00  0.00     0.099 C 
HETATM   26  C10 UNL     1     -39.268   2.170   9.522  1.00  0.00     0.031 C 
HETATM   27  C11 UNL     1     -39.523   1.163   8.409  1.00  0.00     0.081 C 
HETATM   28  C12 UNL     1     -40.267  -0.050   8.853  1.00  0.00     0.243 C 
HETATM   29  F1  UNL     1     -40.782  -0.659   7.701  1.00  0.00    -0.206 F 
HETATM   30  F2  UNL     1     -39.393  -0.938   9.418  1.00  0.00    -0.206 F 
HETATM   31  C13 UNL     1     -41.457   0.231   9.741  1.00  0.00     0.081 C 
HETATM   32  C14 UNL     1     -41.103   1.240  10.823  1.00  0.00     0.031 C 
ENDBRANCH  23  25
ENDBRANCH  18  23
TORSDOF 2
ENDMDL
