MODEL 1
REMARK VINA RESULT: -7.045972515      0.000      0.000
REMARK  4 active torsions:
REMARK  status: ('A' for Active; 'I' for Inactive)
REMARK    1  A    between atoms: C2_2  and  C5_5 
REMARK    2  A    between atoms: C6_9  and  C7_10 
REMARK    3  A    between atoms: C8_13  and  C9_14 
REMARK       I    between atoms: C9_14  and  N3_16 
REMARK    4  A    between atoms: N3_16  and  N4_18 
REMARK       I    between atoms: N4_18  and  C10_20 
ROOT
HETATM    1  C5  UNL     1     -48.778   3.136  12.983  1.00  0.00     0.078 A 
HETATM    2  N1  UNL     1     -47.830   3.245  13.881  1.00  0.00    -0.288 N 
ATOM      3  H1  UNL     1     -47.923   2.761  14.774  1.00  0.00     0.188 HD
HETATM    4  N2  UNL     1     -46.791   3.951  13.650  1.00  0.00    -0.232 N 
HETATM    5  C6  UNL     1     -45.619   4.238  14.332  1.00  0.00     0.102 A 
HETATM    6  C8  UNL     1     -44.815   5.035  13.567  1.00  0.00     0.132 A 
HETATM    7  N6  UNL     1     -45.499   5.245  12.407  1.00  0.00    -0.329 N 
ATOM      8  H6  UNL     1     -45.177   5.805  11.617  1.00  0.00     0.168 HD
HETATM    9  C11 UNL     1     -46.686   4.580  12.481  1.00  0.00     0.173 A 
HETATM   10  S1  UNL     1     -48.140   4.122  11.715  1.00  0.00    -0.037 SA
ENDROOT
BRANCH   6  11
HETATM   11  C9  UNL     1     -43.460   5.561  13.847  1.00  0.00     0.288 C 
HETATM   12  O1  UNL     1     -43.198   6.463  14.660  1.00  0.00    -0.264 OA
HETATM   13  N3  UNL     1     -42.385   4.959  13.107  1.00  0.00    -0.261 N 
ATOM     14  H3  UNL     1     -42.553   4.216  12.429  1.00  0.00     0.190 HD
BRANCH  13  15
HETATM   15  N4  UNL     1     -41.099   5.439  13.359  1.00  0.00    -0.251 N 
HETATM   16  C10 UNL     1     -40.022   4.729  12.727  1.00  0.00     0.347 C 
HETATM   17  N5  UNL     1     -38.715   5.185  12.964  1.00  0.00    -0.038 NA
HETATM   18  O2  UNL     1     -40.216   3.739  11.992  1.00  0.00    -0.249 OA
ATOM     19  H4  UNL     1     -40.934   6.248  13.958  1.00  0.00     0.191 HD
ENDBRANCH  13  15
ENDBRANCH   6  11
BRANCH   5  20
HETATM   20  C7  UNL     1     -45.301   3.716  15.704  1.00  0.00     0.232 C 
HETATM   21 CL1  UNL     1     -46.762   4.195  16.697  1.00  0.00    -0.101 Cl
HETATM   22 CL2  UNL     1     -45.240   1.944  15.744  1.00  0.00    -0.101 Cl
ENDBRANCH   5  20
BRANCH   1  23
HETATM   23  C2  UNL     1     -50.046   2.333  13.024  1.00  0.00    -0.001 C 
HETATM   24  C1  UNL     1     -51.186   3.316  13.250  1.00  0.00     0.021 C 
HETATM   25  C3  UNL     1     -50.177   1.549  11.770  1.00  0.00     0.021 C 
HETATM   26  C4  UNL     1     -49.870   1.427  14.250  1.00  0.00     0.021 C 
ENDBRANCH   1  23
TORSDOF 4
ENDMDL
MODEL 2
REMARK VINA RESULT: -6.927526459      4.386      5.858
REMARK  4 active torsions:
REMARK  status: ('A' for Active; 'I' for Inactive)
REMARK    1  A    between atoms: C2_2  and  C5_5 
REMARK    2  A    between atoms: C6_9  and  C7_10 
REMARK    3  A    between atoms: C8_13  and  C9_14 
REMARK       I    between atoms: C9_14  and  N3_16 
REMARK    4  A    between atoms: N3_16  and  N4_18 
REMARK       I    between atoms: N4_18  and  C10_20 
ROOT
HETATM    1  C5  UNL     1     -44.876   4.292  13.122  1.00  0.00     0.078 A 
HETATM    2  N1  UNL     1     -44.674   3.715  11.963  1.00  0.00    -0.288 N 
ATOM      3  H1  UNL     1     -45.365   3.821  11.220  1.00  0.00     0.188 HD
HETATM    4  N2  UNL     1     -43.622   3.021  11.754  1.00  0.00    -0.232 N 
HETATM    5  C6  UNL     1     -43.089   2.335  10.674  1.00  0.00     0.102 A 
HETATM    6  C8  UNL     1     -41.879   1.797  11.012  1.00  0.00     0.132 A 
HETATM    7  N6  UNL     1     -41.667   2.151  12.311  1.00  0.00    -0.329 N 
ATOM      8  H6  UNL     1     -40.851   1.904  12.871  1.00  0.00     0.168 HD
HETATM    9  C11 UNL     1     -42.732   2.889  12.736  1.00  0.00     0.173 A 
HETATM   10  S1  UNL     1     -43.458   3.801  13.980  1.00  0.00    -0.037 SA
ENDROOT
BRANCH   6  11
HETATM   11  C9  UNL     1     -40.922   1.026  10.188  1.00  0.00     0.288 C 
HETATM   12  O1  UNL     1     -40.958  -0.203  10.014  1.00  0.00    -0.264 OA
HETATM   13  N3  UNL     1     -39.883   1.787   9.550  1.00  0.00    -0.261 N 
ATOM     14  H3  UNL     1     -39.814   2.798   9.664  1.00  0.00     0.190 HD
BRANCH  13  15
HETATM   15  N4  UNL     1     -38.972   1.078   8.766  1.00  0.00    -0.251 N 
HETATM   16  C10 UNL     1     -38.323   1.820   7.721  1.00  0.00     0.347 C 
HETATM   17  N5  UNL     1     -37.403   1.134   6.911  1.00  0.00    -0.038 NA
HETATM   18  O2  UNL     1     -38.554   3.030   7.519  1.00  0.00    -0.249 OA
ATOM     19  H4  UNL     1     -38.778   0.090   8.926  1.00  0.00     0.191 HD
ENDBRANCH  13  15
ENDBRANCH   6  11
BRANCH   5  20
HETATM   20  C7  UNL     1     -43.760   2.234   9.334  1.00  0.00     0.232 C 
HETATM   21 CL1  UNL     1     -44.345   0.501   9.275  1.00  0.00    -0.101 Cl
HETATM   22 CL2  UNL     1     -45.213   3.245   9.240  1.00  0.00    -0.101 Cl
ENDBRANCH   5  20
BRANCH   1  23
HETATM   23  C2  UNL     1     -46.003   5.180  13.565  1.00  0.00    -0.001 C 
HETATM   24  C1  UNL     1     -47.204   4.837  12.696  1.00  0.00     0.021 C 
HETATM   25  C3  UNL     1     -46.244   4.987  15.017  1.00  0.00     0.021 C 
HETATM   26  C4  UNL     1     -45.503   6.596  13.251  1.00  0.00     0.021 C 
ENDBRANCH   1  23
TORSDOF 4
ENDMDL
MODEL 3
REMARK VINA RESULT: -6.859300047      4.561      5.896
REMARK  4 active torsions:
REMARK  status: ('A' for Active; 'I' for Inactive)
REMARK    1  A    between atoms: C2_2  and  C5_5 
REMARK    2  A    between atoms: C6_9  and  C7_10 
REMARK    3  A    between atoms: C8_13  and  C9_14 
REMARK       I    between atoms: C9_14  and  N3_16 
REMARK    4  A    between atoms: N3_16  and  N4_18 
REMARK       I    between atoms: N4_18  and  C10_20 
ROOT
HETATM    1  C5  UNL     1     -45.009   4.051  12.909  1.00  0.00     0.078 A 
HETATM    2  N1  UNL     1     -44.654   3.457  11.796  1.00  0.00    -0.288 N 
ATOM      3  H1  UNL     1     -45.360   3.239  11.093  1.00  0.00     0.188 HD
HETATM    4  N2  UNL     1     -43.434   3.146  11.584  1.00  0.00    -0.232 N 
HETATM    5  C6  UNL     1     -42.727   2.571  10.539  1.00  0.00     0.102 A 
HETATM    6  C8  UNL     1     -41.397   2.519  10.845  1.00  0.00     0.132 A 
HETATM    7  N6  UNL     1     -41.283   3.061  12.091  1.00  0.00    -0.329 N 
ATOM      8  H6  UNL     1     -40.416   3.171  12.617  1.00  0.00     0.168 HD
HETATM    9  C11 UNL     1     -42.524   3.432  12.514  1.00  0.00     0.173 A 
HETATM   10  S1  UNL     1     -43.485   4.169  13.715  1.00  0.00    -0.037 SA
ENDROOT
BRANCH   6  11
HETATM   11  C9  UNL     1     -40.256   2.038  10.035  1.00  0.00     0.288 C 
HETATM   12  O1  UNL     1     -39.394   2.765   9.512  1.00  0.00    -0.264 OA
HETATM   13  N3  UNL     1     -40.163   0.614   9.858  1.00  0.00    -0.261 N 
ATOM     14  H3  UNL     1     -40.848  -0.021  10.269  1.00  0.00     0.190 HD
BRANCH  13  15
HETATM   15  N4  UNL     1     -39.092   0.141   9.100  1.00  0.00    -0.251 N 
HETATM   16  C10 UNL     1     -38.910  -1.284   9.080  1.00  0.00     0.347 C 
HETATM   17  N5  UNL     1     -37.838  -1.793   8.328  1.00  0.00    -0.038 NA
HETATM   18  O2  UNL     1     -39.662  -2.062   9.703  1.00  0.00    -0.249 OA
ATOM     19  H4  UNL     1     -38.474   0.770   8.588  1.00  0.00     0.191 HD
ENDBRANCH  13  15
ENDBRANCH   6  11
BRANCH   5  20
HETATM   20  C7  UNL     1     -43.360   2.103   9.260  1.00  0.00     0.232 C 
HETATM   21 CL1  UNL     1     -43.918   0.405   9.652  1.00  0.00    -0.101 Cl
HETATM   22 CL2  UNL     1     -44.824   3.022   8.867  1.00  0.00    -0.101 Cl
ENDBRANCH   5  20
BRANCH   1  23
HETATM   23  C2  UNL     1     -46.361   4.542  13.341  1.00  0.00    -0.001 C 
HETATM   24  C1  UNL     1     -47.278   4.437  12.131  1.00  0.00     0.021 C 
HETATM   25  C3  UNL     1     -46.824   3.753  14.509  1.00  0.00     0.021 C 
HETATM   26  C4  UNL     1     -46.121   6.014  13.702  1.00  0.00     0.021 C 
ENDBRANCH   1  23
TORSDOF 4
ENDMDL
MODEL 4
REMARK VINA RESULT: -6.812431842      3.916      5.134
REMARK  4 active torsions:
REMARK  status: ('A' for Active; 'I' for Inactive)
REMARK    1  A    between atoms: C2_2  and  C5_5 
REMARK    2  A    between atoms: C6_9  and  C7_10 
REMARK    3  A    between atoms: C8_13  and  C9_14 
REMARK       I    between atoms: C9_14  and  N3_16 
REMARK    4  A    between atoms: N3_16  and  N4_18 
REMARK       I    between atoms: N4_18  and  C10_20 
ROOT
HETATM    1  C5  UNL     1     -45.622   4.695  13.163  1.00  0.00     0.078 A 
HETATM    2  N1  UNL     1     -44.481   4.052  13.107  1.00  0.00    -0.288 N 
ATOM      3  H1  UNL     1     -43.882   4.015  13.932  1.00  0.00     0.188 HD
HETATM    4  N2  UNL     1     -44.111   3.471  12.031  1.00  0.00    -0.232 N 
HETATM    5  C6  UNL     1     -43.029   2.694  11.649  1.00  0.00     0.102 A 
HETATM    6  C8  UNL     1     -43.178   2.290  10.352  1.00  0.00     0.132 A 
HETATM    7  N6  UNL     1     -44.358   2.825   9.931  1.00  0.00    -0.329 N 
ATOM      8  H6  UNL     1     -44.765   2.716   9.002  1.00  0.00     0.168 HD
HETATM    9  C11 UNL     1     -44.902   3.532  10.961  1.00  0.00     0.173 A 
HETATM   10  S1  UNL     1     -46.206   4.458  11.554  1.00  0.00    -0.037 SA
ENDROOT
BRANCH   6  11
HETATM   11  C9  UNL     1     -42.313   1.417   9.527  1.00  0.00     0.288 C 
HETATM   12  O1  UNL     1     -42.707   0.447   8.858  1.00  0.00    -0.264 OA
HETATM   13  N3  UNL     1     -40.913   1.744   9.516  1.00  0.00    -0.261 N 
ATOM     14  H3  UNL     1     -40.544   2.532  10.050  1.00  0.00     0.190 HD
BRANCH  13  15
HETATM   15  N4  UNL     1     -40.082   0.935   8.741  1.00  0.00    -0.251 N 
HETATM   16  C10 UNL     1     -38.718   1.369   8.609  1.00  0.00     0.347 C 
HETATM   17  N5  UNL     1     -37.856   0.578   7.832  1.00  0.00    -0.038 NA
HETATM   18  O2  UNL     1     -38.293   2.409   9.153  1.00  0.00    -0.249 OA
ATOM     19  H4  UNL     1     -40.422   0.084   8.294  1.00  0.00     0.191 HD
ENDBRANCH  13  15
ENDBRANCH   6  11
BRANCH   5  20
HETATM   20  C7  UNL     1     -41.885   2.348  12.559  1.00  0.00     0.232 C 
HETATM   21 CL1  UNL     1     -40.924   3.903  12.653  1.00  0.00    -0.101 Cl
HETATM   22 CL2  UNL     1     -42.429   2.008  14.211  1.00  0.00    -0.101 Cl
ENDBRANCH   5  20
BRANCH   1  23
HETATM   23  C2  UNL     1     -46.267   5.399  14.321  1.00  0.00    -0.001 C 
HETATM   24  C1  UNL     1     -45.891   4.623  15.576  1.00  0.00     0.021 C 
HETATM   25  C3  UNL     1     -45.830   6.817  14.345  1.00  0.00     0.021 C 
HETATM   26  C4  UNL     1     -47.770   5.267  14.043  1.00  0.00     0.021 C 
ENDBRANCH   1  23
TORSDOF 4
ENDMDL
MODEL 5
REMARK VINA RESULT: -6.761766736      3.111      4.521
REMARK  4 active torsions:
REMARK  status: ('A' for Active; 'I' for Inactive)
REMARK    1  A    between atoms: C2_2  and  C5_5 
REMARK    2  A    between atoms: C6_9  and  C7_10 
REMARK    3  A    between atoms: C8_13  and  C9_14 
REMARK       I    between atoms: C9_14  and  N3_16 
REMARK    4  A    between atoms: N3_16  and  N4_18 
REMARK       I    between atoms: N4_18  and  C10_20 
ROOT
HETATM    1  C5  UNL     1     -45.411   4.464  14.565  1.00  0.00     0.078 A 
HETATM    2  N1  UNL     1     -44.660   3.644  13.871  1.00  0.00    -0.288 N 
ATOM      3  H1  UNL     1     -44.977   2.689  13.704  1.00  0.00     0.188 HD
HETATM    4  N2  UNL     1     -43.536   4.028  13.402  1.00  0.00    -0.232 N 
HETATM    5  C6  UNL     1     -42.545   3.458  12.617  1.00  0.00     0.102 A 
HETATM    6  C8  UNL     1     -41.556   4.369  12.377  1.00  0.00     0.132 A 
HETATM    7  N6  UNL     1     -41.936   5.507  13.023  1.00  0.00    -0.329 N 
ATOM      8  H6  UNL     1     -41.414   6.383  13.046  1.00  0.00     0.168 HD
HETATM    9  C11 UNL     1     -43.134   5.276  13.632  1.00  0.00     0.173 A 
HETATM   10  S1  UNL     1     -44.433   5.888  14.552  1.00  0.00    -0.037 SA
ENDROOT
BRANCH   6  11
HETATM   11  C9  UNL     1     -40.327   4.240  11.561  1.00  0.00     0.288 C 
HETATM   12  O1  UNL     1     -39.176   4.486  11.960  1.00  0.00    -0.264 OA
HETATM   13  N3  UNL     1     -40.512   3.791  10.208  1.00  0.00    -0.261 N 
ATOM     14  H3  UNL     1     -41.438   3.578   9.838  1.00  0.00     0.190 HD
BRANCH  13  15
HETATM   15  N4  UNL     1     -39.365   3.661   9.425  1.00  0.00    -0.251 N 
HETATM   16  C10 UNL     1     -39.233   2.432   8.692  1.00  0.00     0.347 C 
HETATM   17  N5  UNL     1     -38.088   2.268   7.896  1.00  0.00    -0.038 NA
HETATM   18  O2  UNL     1     -40.092   1.527   8.747  1.00  0.00    -0.249 OA
ATOM     19  H4  UNL     1     -38.660   4.396   9.374  1.00  0.00     0.191 HD
ENDBRANCH  13  15
ENDBRANCH   6  11
BRANCH   5  20
HETATM   20  C7  UNL     1     -42.594   2.047  12.104  1.00  0.00     0.232 C 
HETATM   21 CL1  UNL     1     -43.467   1.136  13.429  1.00  0.00    -0.101 Cl
HETATM   22 CL2  UNL     1     -43.607   1.899  10.657  1.00  0.00    -0.101 Cl
ENDBRANCH   5  20
BRANCH   1  23
HETATM   23  C2  UNL     1     -46.770   4.242  15.162  1.00  0.00    -0.001 C 
HETATM   24  C1  UNL     1     -47.172   2.811  14.830  1.00  0.00     0.021 C 
HETATM   25  C3  UNL     1     -46.723   4.524  16.618  1.00  0.00     0.021 C 
HETATM   26  C4  UNL     1     -47.669   5.235  14.414  1.00  0.00     0.021 C 
ENDBRANCH   1  23
TORSDOF 4
ENDMDL
