MODEL 1
REMARK VINA RESULT: -6.431416032      0.000      0.000
REMARK  6 active torsions:
REMARK  status: ('A' for Active; 'I' for Inactive)
REMARK    1  A    between atoms: C2_2  and  N1_4 
REMARK    2  A    between atoms: C6_8  and  C7_9 
REMARK       I    between atoms: C7_9  and  N2_11 
REMARK    3  A    between atoms: N2_11  and  C8_13 
REMARK    4  A    between atoms: C8_13  and  N3_15 
REMARK    5  A    between atoms: N3_15  and  C9_17 
REMARK    6  A    between atoms: C9_17  and  N4_20 
ROOT
HETATM    1  C7  UNL     1      41.880   2.838 -11.557  1.00  0.00     0.277 C 
HETATM    2  O1  UNL     1      43.024   3.235 -11.310  1.00  0.00    -0.266 OA
HETATM    3  N2  UNL     1      41.044   3.438 -12.500  1.00  0.00    -0.298 N 
ATOM      4  H2  UNL     1      40.117   3.033 -12.629  1.00  0.00     0.171 HD
ENDROOT
BRANCH   3   5
HETATM    5  C8  UNL     1      41.373   4.543 -13.277  1.00  0.00     0.176 C 
HETATM    6  S1  UNL     1      40.503   4.683 -14.706  1.00  0.00    -0.041 SA
BRANCH   5   7
HETATM    7  N3  UNL     1      42.336   5.520 -12.984  1.00  0.00    -0.335 N 
ATOM      8  H3  UNL     1      42.132   6.216 -12.266  1.00  0.00     0.164 HD
BRANCH   7   9
HETATM    9  C9  UNL     1      43.619   5.571 -13.675  1.00  0.00     0.190 C 
HETATM   10  C10 UNL     1      43.818   4.414 -14.602  1.00  0.00     0.070 C 
HETATM   11  C11 UNL     1      43.705   6.864 -14.443  1.00  0.00     0.070 C 
BRANCH   9  12
HETATM   12  N4  UNL     1      44.680   5.575 -12.700  1.00  0.00    -0.053 N 
ATOM     13  H43 UNL     1      44.710   6.441 -12.164  1.00  0.00     0.277 HD
ATOM     14  H42 UNL     1      44.498   4.933 -11.928  1.00  0.00     0.277 HD
ATOM     15  H41 UNL     1      45.564   5.378 -13.169  1.00  0.00     0.277 HD
ENDBRANCH   9  12
ENDBRANCH   7   9
ENDBRANCH   5   7
ENDBRANCH   3   5
BRANCH   1  16
HETATM   16  C6  UNL     1      41.438   1.665 -10.780  1.00  0.00     0.139 A 
HETATM   17  C5  UNL     1      41.957   0.395 -10.736  1.00  0.00     0.084 A 
HETATM   18  C4  UNL     1      41.192  -0.325  -9.865  1.00  0.00     0.137 A 
HETATM   19 CL1  UNL     1      43.353  -0.101 -11.671  1.00  0.00    -0.080 Cl
HETATM   20  N1  UNL     1      40.236   0.489  -9.396  1.00  0.00    -0.297 N 
HETATM   21  N5  UNL     1      40.398   1.671  -9.953  1.00  0.00    -0.292 N 
ATOM     22  H5  UNL     1      39.805   2.481  -9.774  1.00  0.00     0.187 HD
BRANCH  20  23
HETATM   23  C2  UNL     1      39.197   0.161  -8.449  1.00  0.00     0.099 C 
HETATM   24  C1  UNL     1      38.410  -1.014  -8.979  1.00  0.00     0.034 C 
HETATM   25  C3  UNL     1      38.302   1.398  -8.347  1.00  0.00     0.034 C 
ENDBRANCH  20  23
ENDBRANCH   1  16
TORSDOF 6
ENDMDL
MODEL 2
REMARK VINA RESULT: -6.423082303      2.036      2.338
REMARK  6 active torsions:
REMARK  status: ('A' for Active; 'I' for Inactive)
REMARK    1  A    between atoms: C2_2  and  N1_4 
REMARK    2  A    between atoms: C6_8  and  C7_9 
REMARK       I    between atoms: C7_9  and  N2_11 
REMARK    3  A    between atoms: N2_11  and  C8_13 
REMARK    4  A    between atoms: C8_13  and  N3_15 
REMARK    5  A    between atoms: N3_15  and  C9_17 
REMARK    6  A    between atoms: C9_17  and  N4_20 
ROOT
HETATM    1  C7  UNL     1      43.226   2.344 -12.146  1.00  0.00     0.277 C 
HETATM    2  O1  UNL     1      43.879   1.643 -12.928  1.00  0.00    -0.266 OA
HETATM    3  N2  UNL     1      43.022   3.712 -12.325  1.00  0.00    -0.298 N 
ATOM      4  H2  UNL     1      42.468   4.200 -11.620  1.00  0.00     0.171 HD
ENDROOT
BRANCH   3   5
HETATM    5  C8  UNL     1      43.513   4.465 -13.386  1.00  0.00     0.176 C 
HETATM    6  S1  UNL     1      42.341   5.269 -14.280  1.00  0.00    -0.041 SA
BRANCH   5   7
HETATM    7  N3  UNL     1      44.856   4.610 -13.764  1.00  0.00    -0.335 N 
ATOM      8  H3  UNL     1      45.211   4.062 -14.547  1.00  0.00     0.164 HD
BRANCH   7   9
HETATM    9  C9  UNL     1      45.759   5.521 -13.069  1.00  0.00     0.190 C 
HETATM   10  C10 UNL     1      46.419   4.885 -11.888  1.00  0.00     0.070 C 
HETATM   11  C11 UNL     1      46.802   6.005 -14.041  1.00  0.00     0.070 C 
BRANCH   9  12
HETATM   12  N4  UNL     1      45.015   6.672 -12.622  1.00  0.00    -0.053 N 
ATOM     13  H43 UNL     1      45.621   7.456 -12.382  1.00  0.00     0.277 HD
ATOM     14  H42 UNL     1      44.498   7.117 -13.381  1.00  0.00     0.277 HD
ATOM     15  H41 UNL     1      44.410   6.398 -11.848  1.00  0.00     0.277 HD
ENDBRANCH   9  12
ENDBRANCH   7   9
ENDBRANCH   5   7
ENDBRANCH   3   5
BRANCH   1  16
HETATM   16  C6  UNL     1      42.662   1.632 -10.983  1.00  0.00     0.139 A 
HETATM   17  C5  UNL     1      43.148   1.514  -9.706  1.00  0.00     0.084 A 
HETATM   18  C4  UNL     1      42.260   0.755  -9.002  1.00  0.00     0.137 A 
HETATM   19 CL1  UNL     1      44.650   2.250  -9.181  1.00  0.00    -0.080 Cl
HETATM   20  N1  UNL     1      41.263   0.421  -9.834  1.00  0.00    -0.297 N 
HETATM   21  N5  UNL     1      41.520   0.953 -11.011  1.00  0.00    -0.292 N 
ATOM     22  H5  UNL     1      40.923   0.856 -11.832  1.00  0.00     0.187 HD
BRANCH  20  23
HETATM   23  C2  UNL     1      40.099  -0.377  -9.528  1.00  0.00     0.099 C 
HETATM   24  C1  UNL     1      39.061   0.508  -8.880  1.00  0.00     0.034 C 
HETATM   25  C3  UNL     1      40.564  -1.456  -8.549  1.00  0.00     0.034 C 
ENDBRANCH  20  23
ENDBRANCH   1  16
TORSDOF 6
ENDMDL
MODEL 3
REMARK VINA RESULT: -6.361965075      1.560      1.893
REMARK  6 active torsions:
REMARK  status: ('A' for Active; 'I' for Inactive)
REMARK    1  A    between atoms: C2_2  and  N1_4 
REMARK    2  A    between atoms: C6_8  and  C7_9 
REMARK       I    between atoms: C7_9  and  N2_11 
REMARK    3  A    between atoms: N2_11  and  C8_13 
REMARK    4  A    between atoms: C8_13  and  N3_15 
REMARK    5  A    between atoms: N3_15  and  C9_17 
REMARK    6  A    between atoms: C9_17  and  N4_20 
ROOT
HETATM    1  C7  UNL     1      42.721   2.997 -12.046  1.00  0.00     0.277 C 
HETATM    2  O1  UNL     1      43.729   2.714 -12.704  1.00  0.00    -0.266 OA
HETATM    3  N2  UNL     1      41.912   4.101 -12.313  1.00  0.00    -0.298 N 
ATOM      4  H2  UNL     1      41.102   4.246 -11.709  1.00  0.00     0.171 HD
ENDROOT
BRANCH   3   5
HETATM    5  C8  UNL     1      42.118   5.019 -13.337  1.00  0.00     0.176 C 
HETATM    6  S1  UNL     1      41.356   4.643 -14.785  1.00  0.00    -0.041 SA
BRANCH   5   7
HETATM    7  N3  UNL     1      42.881   6.194 -13.270  1.00  0.00    -0.335 N 
ATOM      8  H3  UNL     1      42.520   6.989 -12.742  1.00  0.00     0.164 HD
BRANCH   7   9
HETATM    9  C9  UNL     1      44.174   6.314 -13.935  1.00  0.00     0.190 C 
HETATM   10  C10 UNL     1      44.077   6.998 -15.260  1.00  0.00     0.070 C 
HETATM   11  C11 UNL     1      45.114   7.070 -13.033  1.00  0.00     0.070 C 
BRANCH   9  12
HETATM   12  N4  UNL     1      44.726   4.997 -14.130  1.00  0.00    -0.053 N 
ATOM     13  H43 UNL     1      45.621   4.877 -13.655  1.00  0.00     0.277 HD
ATOM     14  H42 UNL     1      44.201   4.279 -13.631  1.00  0.00     0.277 HD
ATOM     15  H41 UNL     1      44.790   4.807 -15.130  1.00  0.00     0.277 HD
ENDBRANCH   9  12
ENDBRANCH   7   9
ENDBRANCH   5   7
ENDBRANCH   3   5
BRANCH   1  16
HETATM   16  C6  UNL     1      42.418   2.077 -10.933  1.00  0.00     0.139 A 
HETATM   17  C5  UNL     1      43.099   1.861  -9.762  1.00  0.00     0.084 A 
HETATM   18  C4  UNL     1      42.413   0.912  -9.063  1.00  0.00     0.137 A 
HETATM   19 CL1  UNL     1      44.573   2.710  -9.342  1.00  0.00    -0.080 Cl
HETATM   20  N1  UNL     1      41.345   0.562  -9.794  1.00  0.00    -0.297 N 
HETATM   21  N5  UNL     1      41.365   1.267 -10.906  1.00  0.00    -0.292 N 
ATOM     22  H5  UNL     1      40.666   1.200 -11.645  1.00  0.00     0.187 HD
BRANCH  20  23
HETATM   23  C2  UNL     1      40.334  -0.411  -9.454  1.00  0.00     0.099 C 
HETATM   24  C1  UNL     1      39.105   0.318  -8.962  1.00  0.00     0.034 C 
HETATM   25  C3  UNL     1      40.924  -1.272  -8.336  1.00  0.00     0.034 C 
ENDBRANCH  20  23
ENDBRANCH   1  16
TORSDOF 6
ENDMDL
MODEL 4
REMARK VINA RESULT: -6.323823812      2.916      3.653
REMARK  6 active torsions:
REMARK  status: ('A' for Active; 'I' for Inactive)
REMARK    1  A    between atoms: C2_2  and  N1_4 
REMARK    2  A    between atoms: C6_8  and  C7_9 
REMARK       I    between atoms: C7_9  and  N2_11 
REMARK    3  A    between atoms: N2_11  and  C8_13 
REMARK    4  A    between atoms: C8_13  and  N3_15 
REMARK    5  A    between atoms: N3_15  and  C9_17 
REMARK    6  A    between atoms: C9_17  and  N4_20 
ROOT
HETATM    1  C7  UNL     1      42.190   2.134 -13.007  1.00  0.00     0.277 C 
HETATM    2  O1  UNL     1      43.358   1.797 -13.230  1.00  0.00    -0.266 OA
HETATM    3  N2  UNL     1      41.429   2.902 -13.889  1.00  0.00    -0.298 N 
ATOM      4  H2  UNL     1      40.473   3.126 -13.611  1.00  0.00     0.171 HD
ENDROOT
BRANCH   3   5
HETATM    5  C8  UNL     1      41.867   3.385 -15.117  1.00  0.00     0.176 C 
HETATM    6  S1  UNL     1      42.723   4.827 -15.041  1.00  0.00    -0.041 SA
BRANCH   5   7
HETATM    7  N3  UNL     1      41.666   2.794 -16.373  1.00  0.00    -0.335 N 
ATOM      8  H3  UNL     1      42.424   2.259 -16.796  1.00  0.00     0.164 HD
BRANCH   7   9
HETATM    9  C9  UNL     1      40.403   2.924 -17.093  1.00  0.00     0.190 C 
HETATM   10  C10 UNL     1      39.603   4.103 -16.641  1.00  0.00     0.070 C 
HETATM   11  C11 UNL     1      40.695   3.035 -18.566  1.00  0.00     0.070 C 
BRANCH   9  12
HETATM   12  N4  UNL     1      39.624   1.728 -16.894  1.00  0.00    -0.053 N 
ATOM     13  H43 UNL     1      39.954   1.177 -16.103  1.00  0.00     0.277 HD
ATOM     14  H42 UNL     1      38.686   1.930 -16.548  1.00  0.00     0.277 HD
ATOM     15  H41 UNL     1      39.610   1.191 -17.762  1.00  0.00     0.277 HD
ENDBRANCH   9  12
ENDBRANCH   7   9
ENDBRANCH   5   7
ENDBRANCH   3   5
BRANCH   1  16
HETATM   16  C6  UNL     1      41.632   1.667 -11.724  1.00  0.00     0.139 A 
HETATM   17  C5  UNL     1      41.015   2.376 -10.725  1.00  0.00     0.084 A 
HETATM   18  C4  UNL     1      40.680   1.488  -9.745  1.00  0.00     0.137 A 
HETATM   19 CL1  UNL     1      40.755   4.107 -10.801  1.00  0.00    -0.080 Cl
HETATM   20  N1  UNL     1      41.086   0.274 -10.141  1.00  0.00    -0.297 N 
HETATM   21  N5  UNL     1      41.652   0.400 -11.323  1.00  0.00    -0.292 N 
ATOM     22  H5  UNL     1      42.051  -0.371 -11.858  1.00  0.00     0.187 HD
BRANCH  20  23
HETATM   23  C2  UNL     1      40.945  -0.972  -9.425  1.00  0.00     0.099 C 
HETATM   24  C1  UNL     1      39.474  -1.244  -9.209  1.00  0.00     0.034 C 
HETATM   25  C3  UNL     1      41.652  -0.779  -8.082  1.00  0.00     0.034 C 
ENDBRANCH  20  23
ENDBRANCH   1  16
TORSDOF 6
ENDMDL
MODEL 5
REMARK VINA RESULT: -6.313317120      1.861      2.165
REMARK  6 active torsions:
REMARK  status: ('A' for Active; 'I' for Inactive)
REMARK    1  A    between atoms: C2_2  and  N1_4 
REMARK    2  A    between atoms: C6_8  and  C7_9 
REMARK       I    between atoms: C7_9  and  N2_11 
REMARK    3  A    between atoms: N2_11  and  C8_13 
REMARK    4  A    between atoms: C8_13  and  N3_15 
REMARK    5  A    between atoms: N3_15  and  C9_17 
REMARK    6  A    between atoms: C9_17  and  N4_20 
ROOT
HETATM    1  C7  UNL     1      42.160   1.963 -10.501  1.00  0.00     0.277 C 
HETATM    2  O1  UNL     1      42.638   2.926  -9.890  1.00  0.00    -0.266 OA
HETATM    3  N2  UNL     1      42.297   1.779 -11.877  1.00  0.00    -0.298 N 
ATOM      4  H2  UNL     1      41.864   0.950 -12.285  1.00  0.00     0.171 HD
ENDROOT
BRANCH   3   5
HETATM    5  C8  UNL     1      42.976   2.635 -12.738  1.00  0.00     0.176 C 
HETATM    6  S1  UNL     1      43.811   1.870 -13.977  1.00  0.00    -0.041 SA
BRANCH   5   7
HETATM    7  N3  UNL     1      43.023   4.035 -12.667  1.00  0.00    -0.335 N 
ATOM      8  H3  UNL     1      43.765   4.478 -12.126  1.00  0.00     0.164 HD
BRANCH   7   9
HETATM    9  C9  UNL     1      42.042   4.875 -13.344  1.00  0.00     0.190 C 
HETATM   10  C10 UNL     1      42.010   4.645 -14.821  1.00  0.00     0.070 C 
HETATM   11  C11 UNL     1      40.683   4.606 -12.753  1.00  0.00     0.070 C 
BRANCH   9  12
HETATM   12  N4  UNL     1      42.356   6.260 -13.095  1.00  0.00    -0.053 N 
ATOM     13  H43 UNL     1      42.068   6.562 -12.165  1.00  0.00     0.277 HD
ATOM     14  H42 UNL     1      43.358   6.417 -12.994  1.00  0.00     0.277 HD
ATOM     15  H41 UNL     1      41.945   6.832 -13.833  1.00  0.00     0.277 HD
ENDBRANCH   9  12
ENDBRANCH   7   9
ENDBRANCH   5   7
ENDBRANCH   3   5
BRANCH   1  16
HETATM   16  C6  UNL     1      41.419   0.995  -9.670  1.00  0.00     0.139 A 
HETATM   17  C5  UNL     1      41.889   0.003  -8.848  1.00  0.00     0.084 A 
HETATM   18  C4  UNL     1      40.805  -0.618  -8.300  1.00  0.00     0.137 A 
HETATM   19 CL1  UNL     1      43.596  -0.319  -8.616  1.00  0.00    -0.080 Cl
HETATM   20  N1  UNL     1      39.708  -0.017  -8.781  1.00  0.00    -0.297 N 
HETATM   21  N5  UNL     1      40.093   0.942  -9.596  1.00  0.00    -0.292 N 
ATOM     22  H5  UNL     1      39.460   1.560 -10.102  1.00  0.00     0.187 HD
BRANCH  20  23
HETATM   23  C2  UNL     1      38.332  -0.338  -8.480  1.00  0.00     0.099 C 
HETATM   24  C1  UNL     1      37.906  -1.502  -9.343  1.00  0.00     0.034 C 
HETATM   25  C3  UNL     1      37.514   0.908  -8.826  1.00  0.00     0.034 C 
ENDBRANCH  20  23
ENDBRANCH   1  16
TORSDOF 6
ENDMDL
