MODEL 1
REMARK VINA RESULT: -6.388590397      0.000      0.000
REMARK  6 active torsions:
REMARK  status: ('A' for Active; 'I' for Inactive)
REMARK    1  A    between atoms: S1_2  and  C2_3 
REMARK    2  A    between atoms: C2_3  and  N2_8 
REMARK    3  A    between atoms: N1_4  and  O1_6 
REMARK    4  A    between atoms: N2_8  and  N3_10 
REMARK    5  A    between atoms: C3_12  and  C4_13 
REMARK    6  A    between atoms: C6_16  and  O3_17 
ROOT
HETATM    1  N3  UNL     1      40.474  -1.041  -9.243  1.00  0.00    -0.309 N 
ATOM      2  H3  UNL     1      40.613  -0.958 -10.250  1.00  0.00     0.186 HD
HETATM    3  C3  UNL     1      41.339  -0.492  -8.468  1.00  0.00     0.122 C 
ENDROOT
BRANCH   1   4
HETATM    4  N2  UNL     1      39.372  -1.734  -8.797  1.00  0.00    -0.279 N 
ATOM      5  H2  UNL     1      39.493  -2.549  -8.195  1.00  0.00     0.189 HD
BRANCH   4   6
HETATM    6  C2  UNL     1      38.072  -1.321  -9.173  1.00  0.00     0.178 C 
HETATM    7  N1  UNL     1      37.229  -2.240  -9.506  1.00  0.00    -0.246 N 
ATOM      8  H1  UNL     1      37.501  -3.223  -9.496  1.00  0.00     0.196 HD
BRANCH   6   9
HETATM    9  S1  UNL     1      37.654   0.410  -9.172  1.00  0.00    -0.095 SA
HETATM   10  C1  UNL     1      37.955   1.110  -7.536  1.00  0.00     0.099 C 
ENDBRANCH   6   9
BRANCH   7  11
HETATM   11  O1  UNL     1      35.968  -1.873  -9.873  1.00  0.00    -0.288 OA
ATOM     12  H1  UNL     1      35.860  -1.287 -10.614  1.00  0.00     0.244 HD
ENDBRANCH   7  11
ENDBRANCH   4   6
ENDBRANCH   1   4
BRANCH   3  13
HETATM   13  C4  UNL     1      42.491   0.232  -8.976  1.00  0.00     0.025 A 
HETATM   14  C5  UNL     1      43.821  -0.132  -8.973  1.00  0.00     0.159 A 
HETATM   15  O2  UNL     1      44.541   0.823  -9.537  1.00  0.00    -0.298 OA
HETATM   16  C6  UNL     1      43.785   1.814  -9.924  1.00  0.00     0.201 A 
HETATM   17  C7  UNL     1      42.473   1.481  -9.587  1.00  0.00     0.082 A 
HETATM   18 BR1  UNL     1      40.955   2.570  -9.922  1.00  0.00    -0.045 Br
BRANCH  16  19
HETATM   19  O3  UNL     1      44.200   2.985 -10.555  1.00  0.00    -0.340 OA
ATOM     20  H3  UNL     1      43.644   3.672 -10.905  1.00  0.00     0.220 HD
ENDBRANCH  16  19
ENDBRANCH   3  13
TORSDOF 6
ENDMDL
MODEL 2
REMARK VINA RESULT: -6.007218069      4.773      5.946
REMARK  6 active torsions:
REMARK  status: ('A' for Active; 'I' for Inactive)
REMARK    1  A    between atoms: S1_2  and  C2_3 
REMARK    2  A    between atoms: C2_3  and  N2_8 
REMARK    3  A    between atoms: N1_4  and  O1_6 
REMARK    4  A    between atoms: N2_8  and  N3_10 
REMARK    5  A    between atoms: C3_12  and  C4_13 
REMARK    6  A    between atoms: C6_16  and  O3_17 
ROOT
HETATM    1  N3  UNL     1      41.886   3.670 -11.504  1.00  0.00    -0.309 N 
ATOM      2  H3  UNL     1      42.807   3.273 -11.690  1.00  0.00     0.186 HD
HETATM    3  C3  UNL     1      41.137   3.079 -10.644  1.00  0.00     0.122 C 
ENDROOT
BRANCH   1   4
HETATM    4  N2  UNL     1      41.522   4.806 -12.189  1.00  0.00    -0.279 N 
ATOM      5  H2  UNL     1      41.893   5.713 -11.904  1.00  0.00     0.189 HD
BRANCH   4   6
HETATM    6  C2  UNL     1      40.635   4.722 -13.288  1.00  0.00     0.178 C 
HETATM    7  N1  UNL     1      39.389   4.978 -13.067  1.00  0.00    -0.246 N 
ATOM      8  H1  UNL     1      39.068   5.231 -12.133  1.00  0.00     0.196 HD
BRANCH   6   9
HETATM    9  S1  UNL     1      41.252   4.275 -14.897  1.00  0.00    -0.095 SA
HETATM   10  C1  UNL     1      42.798   5.148 -15.222  1.00  0.00     0.099 C 
ENDBRANCH   6   9
BRANCH   7  11
HETATM   11  O1  UNL     1      38.509   4.903 -14.107  1.00  0.00    -0.288 OA
ATOM     12  H1  UNL     1      38.243   4.047 -14.420  1.00  0.00     0.244 HD
ENDBRANCH   7  11
ENDBRANCH   4   6
ENDBRANCH   1   4
BRANCH   3  13
HETATM   13  C4  UNL     1      41.556   1.879  -9.941  1.00  0.00     0.025 A 
HETATM   14  C5  UNL     1      42.796   1.279  -9.902  1.00  0.00     0.159 A 
HETATM   15  O2  UNL     1      42.741   0.200  -9.138  1.00  0.00    -0.298 OA
HETATM   16  C6  UNL     1      41.542   0.029  -8.655  1.00  0.00     0.201 A 
HETATM   17  C7  UNL     1      40.754   1.074  -9.140  1.00  0.00     0.082 A 
HETATM   18 BR1  UNL     1      38.913   1.319  -8.748  1.00  0.00    -0.045 Br
BRANCH  16  19
HETATM   19  O3  UNL     1      41.117  -0.998  -7.814  1.00  0.00    -0.340 OA
ATOM     20  H3  UNL     1      40.449  -0.944  -7.140  1.00  0.00     0.220 HD
ENDBRANCH  16  19
ENDBRANCH   3  13
TORSDOF 6
ENDMDL
MODEL 3
REMARK VINA RESULT: -5.887494584      6.933      8.054
REMARK  6 active torsions:
REMARK  status: ('A' for Active; 'I' for Inactive)
REMARK    1  A    between atoms: S1_2  and  C2_3 
REMARK    2  A    between atoms: C2_3  and  N2_8 
REMARK    3  A    between atoms: N1_4  and  O1_6 
REMARK    4  A    between atoms: N2_8  and  N3_10 
REMARK    5  A    between atoms: C3_12  and  C4_13 
REMARK    6  A    between atoms: C6_16  and  O3_17 
ROOT
HETATM    1  N3  UNL     1      42.738   4.487 -15.435  1.00  0.00    -0.309 N 
ATOM      2  H3  UNL     1      43.106   3.753 -14.828  1.00  0.00     0.186 HD
HETATM    3  C3  UNL     1      43.576   5.277 -16.002  1.00  0.00     0.122 C 
ENDROOT
BRANCH   1   4
HETATM    4  N2  UNL     1      41.374   4.568 -15.595  1.00  0.00    -0.279 N 
ATOM      5  H2  UNL     1      40.967   4.513 -16.529  1.00  0.00     0.189 HD
BRANCH   4   6
HETATM    6  C2  UNL     1      40.533   4.727 -14.468  1.00  0.00     0.178 C 
HETATM    7  N1  UNL     1      39.263   4.817 -14.681  1.00  0.00    -0.246 N 
ATOM      8  H1  UNL     1      38.891   4.773 -15.629  1.00  0.00     0.196 HD
BRANCH   6   9
HETATM    9  S1  UNL     1      41.239   4.797 -12.835  1.00  0.00    -0.095 SA
HETATM   10  C1  UNL     1      41.474   3.123 -12.200  1.00  0.00     0.099 C 
ENDBRANCH   6   9
BRANCH   7  11
HETATM   11  O1  UNL     1      38.428   4.971 -13.614  1.00  0.00    -0.288 OA
ATOM     12  H1  UNL     1      37.501   5.109 -13.775  1.00  0.00     0.244 HD
ENDBRANCH   7  11
ENDBRANCH   4   6
ENDBRANCH   1   4
BRANCH   3  13
HETATM   13  C4  UNL     1      45.011   5.161 -15.808  1.00  0.00     0.025 A 
HETATM   14  C5  UNL     1      45.942   4.488 -16.569  1.00  0.00     0.159 A 
HETATM   15  O2  UNL     1      47.143   4.640 -16.035  1.00  0.00    -0.298 OA
HETATM   16  C6  UNL     1      47.086   5.375 -14.959  1.00  0.00     0.201 A 
HETATM   17  C7  UNL     1      45.749   5.729 -14.776  1.00  0.00     0.082 A 
HETATM   18 BR1  UNL     1      45.094   6.802 -13.354  1.00  0.00    -0.045 Br
BRANCH  16  19
HETATM   19  O3  UNL     1      48.153   5.744 -14.141  1.00  0.00    -0.340 OA
ATOM     20  H3  UNL     1      48.428   6.628 -13.926  1.00  0.00     0.220 HD
ENDBRANCH  16  19
ENDBRANCH   3  13
TORSDOF 6
ENDMDL
MODEL 4
REMARK VINA RESULT: -5.850569888      1.664      2.032
REMARK  6 active torsions:
REMARK  status: ('A' for Active; 'I' for Inactive)
REMARK    1  A    between atoms: S1_2  and  C2_3 
REMARK    2  A    between atoms: C2_3  and  N2_8 
REMARK    3  A    between atoms: N1_4  and  O1_6 
REMARK    4  A    between atoms: N2_8  and  N3_10 
REMARK    5  A    between atoms: C3_12  and  C4_13 
REMARK    6  A    between atoms: C6_16  and  O3_17 
ROOT
HETATM    1  N3  UNL     1      40.665   0.092  -9.065  1.00  0.00    -0.309 N 
ATOM      2  H3  UNL     1      40.927   0.794  -8.372  1.00  0.00     0.186 HD
HETATM    3  C3  UNL     1      41.115   0.228 -10.260  1.00  0.00     0.122 C 
ENDROOT
BRANCH   1   4
HETATM    4  N2  UNL     1      39.851  -0.941  -8.661  1.00  0.00    -0.279 N 
ATOM      5  H2  UNL     1      40.242  -1.717  -8.126  1.00  0.00     0.189 HD
BRANCH   4   6
HETATM    6  C2  UNL     1      38.475  -0.932  -8.987  1.00  0.00     0.178 C 
HETATM    7  N1  UNL     1      37.950  -2.043  -9.383  1.00  0.00    -0.246 N 
ATOM      8  H1  UNL     1      38.515  -2.889  -9.454  1.00  0.00     0.196 HD
BRANCH   6   9
HETATM    9  S1  UNL     1      37.537   0.575  -8.844  1.00  0.00    -0.095 SA
HETATM   10  C1  UNL     1      37.874   1.354  -7.251  1.00  0.00     0.099 C 
ENDBRANCH   6   9
BRANCH   7  11
HETATM   11  O1  UNL     1      36.625  -2.065  -9.705  1.00  0.00    -0.288 OA
ATOM     12  H1  UNL     1      36.278  -1.378 -10.263  1.00  0.00     0.244 HD
ENDBRANCH   7  11
ENDBRANCH   4   6
ENDBRANCH   1   4
BRANCH   3  13
HETATM   13  C4  UNL     1      41.972   1.334 -10.648  1.00  0.00     0.025 A 
HETATM   14  C5  UNL     1      41.702   2.396 -11.484  1.00  0.00     0.159 A 
HETATM   15  O2  UNL     1      42.765   3.178 -11.565  1.00  0.00    -0.298 OA
HETATM   16  C6  UNL     1      43.743   2.714 -10.836  1.00  0.00     0.201 A 
HETATM   17  C7  UNL     1      43.284   1.542 -10.234  1.00  0.00     0.082 A 
HETATM   18 BR1  UNL     1      44.302   0.451  -9.061  1.00  0.00    -0.045 Br
BRANCH  16  19
HETATM   19  O3  UNL     1      45.009   3.276 -10.681  1.00  0.00    -0.340 OA
ATOM     20  H3  UNL     1      45.822   2.813 -10.513  1.00  0.00     0.220 HD
ENDBRANCH  16  19
ENDBRANCH   3  13
TORSDOF 6
ENDMDL
MODEL 5
REMARK VINA RESULT: -5.839259776      4.819      6.043
REMARK  6 active torsions:
REMARK  status: ('A' for Active; 'I' for Inactive)
REMARK    1  A    between atoms: S1_2  and  C2_3 
REMARK    2  A    between atoms: C2_3  and  N2_8 
REMARK    3  A    between atoms: N1_4  and  O1_6 
REMARK    4  A    between atoms: N2_8  and  N3_10 
REMARK    5  A    between atoms: C3_12  and  C4_13 
REMARK    6  A    between atoms: C6_16  and  O3_17 
ROOT
HETATM    1  N3  UNL     1      41.243   3.618 -10.932  1.00  0.00    -0.309 N 
ATOM      2  H3  UNL     1      41.020   3.974 -10.002  1.00  0.00     0.186 HD
HETATM    3  C3  UNL     1      41.267   2.345 -11.100  1.00  0.00     0.122 C 
ENDROOT
BRANCH   1   4
HETATM    4  N2  UNL     1      41.498   4.531 -11.929  1.00  0.00    -0.279 N 
ATOM      5  H2  UNL     1      42.281   5.179 -11.837  1.00  0.00     0.189 HD
BRANCH   4   6
HETATM    6  C2  UNL     1      40.679   4.574 -13.082  1.00  0.00     0.178 C 
HETATM    7  N1  UNL     1      39.444   4.912 -12.921  1.00  0.00    -0.246 N 
ATOM      8  H1  UNL     1      39.083   5.139 -11.995  1.00  0.00     0.196 HD
BRANCH   6   9
HETATM    9  S1  UNL     1      41.364   4.168 -14.675  1.00  0.00    -0.095 SA
HETATM   10  C1  UNL     1      42.695   5.320 -15.078  1.00  0.00     0.099 C 
ENDBRANCH   6   9
BRANCH   7  11
HETATM   11  O1  UNL     1      38.630   4.962 -14.014  1.00  0.00    -0.288 OA
ATOM     12  H1  UNL     1      39.000   4.775 -14.869  1.00  0.00     0.244 HD
ENDBRANCH   7  11
ENDBRANCH   4   6
ENDBRANCH   1   4
BRANCH   3  13
HETATM   13  C4  UNL     1      40.992   1.412 -10.022  1.00  0.00     0.025 A 
HETATM   14  C5  UNL     1      39.820   1.198  -9.330  1.00  0.00     0.159 A 
HETATM   15  O2  UNL     1      40.006   0.253  -8.425  1.00  0.00    -0.298 OA
HETATM   16  C6  UNL     1      41.233  -0.191  -8.456  1.00  0.00     0.201 A 
HETATM   17  C7  UNL     1      41.897   0.518  -9.458  1.00  0.00     0.082 A 
HETATM   18 BR1  UNL     1      43.717   0.275  -9.937  1.00  0.00    -0.045 Br
BRANCH  16  19
HETATM   19  O3  UNL     1      41.784  -1.184  -7.649  1.00  0.00    -0.340 OA
ATOM     20  H3  UNL     1      42.558  -1.110  -7.101  1.00  0.00     0.220 HD
ENDBRANCH  16  19
ENDBRANCH   3  13
TORSDOF 6
ENDMDL
