MODEL 1
REMARK VINA RESULT: -6.827746031      0.000      0.000
REMARK  4 active torsions:
REMARK  status: ('A' for Active; 'I' for Inactive)
REMARK    1  A    between atoms: C2_2  and  C4_4 
REMARK    2  A    between atoms: C5_7  and  N2_8 
REMARK    3  A    between atoms: C9_13  and  C10_14 
REMARK    4  A    between atoms: C10_14  and  N3_15 
ROOT
HETATM    1  N2  UNL     1      44.924   4.161 -14.145  1.00  0.00    -0.341 N 
HETATM    2  C6  UNL     1      45.800   3.328 -14.931  1.00  0.00     0.170 C 
HETATM    3  C7  UNL     1      47.000   3.995 -15.483  1.00  0.00     0.121 C 
HETATM    4  C8  UNL     1      46.887   4.083 -17.008  1.00  0.00     0.054 C 
HETATM    5  F1  UNL     1      48.078   3.120 -15.266  1.00  0.00    -0.241 F 
HETATM    6  C9  UNL     1      47.351   5.325 -14.920  1.00  0.00     0.054 C 
HETATM    7  C11 UNL     1      46.228   6.168 -14.454  1.00  0.00     0.040 C 
HETATM    8  C12 UNL     1      44.869   5.558 -14.491  1.00  0.00     0.029 C 
HETATM    9  C13 UNL     1      44.190   5.794 -15.822  1.00  0.00     0.038 C 
HETATM   10  C14 UNL     1      43.984   6.245 -13.439  1.00  0.00     0.038 C 
ENDROOT
BRANCH   1  11
HETATM   11  C5  UNL     1      44.143   3.609 -13.065  1.00  0.00     0.191 C 
HETATM   12  N1  UNL     1      43.020   3.008 -13.119  1.00  0.00    -0.341 N 
HETATM   13  C4  UNL     1      42.549   2.597 -11.823  1.00  0.00     0.202 C 
ATOM     14  H1  UNL     1      42.511   2.837 -13.987  1.00  0.00     0.164 HD
HETATM   15  N5  UNL     1      43.718   2.666 -10.999  1.00  0.00    -0.113 NA
HETATM   16  N4  UNL     1      44.497   3.634 -11.686  1.00  0.00    -0.273 N 
ATOM     17  H4  UNL     1      45.194   4.246 -11.262  1.00  0.00     0.185 HD
BRANCH  13  18
HETATM   18  C2  UNL     1      42.000   1.183 -11.929  1.00  0.00     0.018 C 
HETATM   19  C1  UNL     1      41.251   0.911 -10.629  1.00  0.00     0.013 C 
HETATM   20  C3  UNL     1      43.173   0.242 -12.105  1.00  0.00     0.013 C 
ENDBRANCH  13  18
ENDBRANCH   1  11
BRANCH   6  21
HETATM   21  C10 UNL     1      48.447   5.237 -13.856  1.00  0.00     0.237 C 
BRANCH  21  22
HETATM   22  N3  UNL     1      47.950   4.903 -12.566  1.00  0.00    -0.079 N 
ATOM     23  H33 UNL     1      47.319   5.626 -12.222  1.00  0.00     0.274 HD
ATOM     24  H32 UNL     1      47.296   4.121 -12.620  1.00  0.00     0.274 HD
ATOM     25  H31 UNL     1      48.688   4.713 -11.887  1.00  0.00     0.274 HD
ENDBRANCH  21  22
ENDBRANCH   6  21
TORSDOF 4
ENDMDL
MODEL 2
REMARK VINA RESULT: -6.715992082      2.072      3.385
REMARK  4 active torsions:
REMARK  status: ('A' for Active; 'I' for Inactive)
REMARK    1  A    between atoms: C2_2  and  C4_4 
REMARK    2  A    between atoms: C5_7  and  N2_8 
REMARK    3  A    between atoms: C9_13  and  C10_14 
REMARK    4  A    between atoms: C10_14  and  N3_15 
ROOT
HETATM    1  N2  UNL     1      44.013   3.305 -12.721  1.00  0.00    -0.341 N 
HETATM    2  C6  UNL     1      45.184   4.111 -12.474  1.00  0.00     0.170 C 
HETATM    3  C7  UNL     1      45.465   5.163 -13.476  1.00  0.00     0.121 C 
HETATM    4  C8  UNL     1      46.743   4.816 -14.246  1.00  0.00     0.054 C 
HETATM    5  F1  UNL     1      45.800   6.322 -12.753  1.00  0.00    -0.241 F 
HETATM    6  C9  UNL     1      44.372   5.499 -14.426  1.00  0.00     0.054 C 
HETATM    7  C11 UNL     1      43.451   4.400 -14.797  1.00  0.00     0.040 C 
HETATM    8  C12 UNL     1      43.642   3.099 -14.097  1.00  0.00     0.029 C 
HETATM    9  C13 UNL     1      44.624   2.213 -14.831  1.00  0.00     0.038 C 
HETATM   10  C14 UNL     1      42.309   2.335 -14.091  1.00  0.00     0.038 C 
ENDROOT
BRANCH   1  11
HETATM   11  C5  UNL     1      43.259   2.736 -11.632  1.00  0.00     0.191 C 
HETATM   12  N1  UNL     1      43.312   1.556 -11.155  1.00  0.00    -0.341 N 
HETATM   13  C4  UNL     1      42.399   1.358 -10.059  1.00  0.00     0.202 C 
ATOM     14  H1  UNL     1      43.933   0.829 -11.512  1.00  0.00     0.164 HD
HETATM   15  N5  UNL     1      42.060   2.689  -9.657  1.00  0.00    -0.113 NA
HETATM   16  N4  UNL     1      42.277   3.417 -10.857  1.00  0.00    -0.273 N 
ATOM     17  H4  UNL     1      41.807   4.284 -11.120  1.00  0.00     0.185 HD
BRANCH  13  18
HETATM   18  C2  UNL     1      43.114   0.587  -8.961  1.00  0.00     0.018 C 
HETATM   19  C1  UNL     1      44.273  -0.143  -9.630  1.00  0.00     0.013 C 
HETATM   20  C3  UNL     1      42.122  -0.379  -8.350  1.00  0.00     0.013 C 
ENDBRANCH  13  18
ENDBRANCH   1  11
BRANCH   6  21
HETATM   21  C10 UNL     1      43.594   6.745 -14.002  1.00  0.00     0.237 C 
BRANCH  21  22
HETATM   22  N3  UNL     1      42.465   6.451 -13.187  1.00  0.00    -0.079 N 
ATOM     23  H33 UNL     1      41.658   7.006 -13.471  1.00  0.00     0.274 HD
ATOM     24  H32 UNL     1      42.105   5.518 -13.388  1.00  0.00     0.274 HD
ATOM     25  H31 UNL     1      42.648   6.563 -12.190  1.00  0.00     0.274 HD
ENDBRANCH  21  22
ENDBRANCH   6  21
TORSDOF 4
ENDMDL
MODEL 3
REMARK VINA RESULT: -6.713448935      1.829      2.287
REMARK  4 active torsions:
REMARK  status: ('A' for Active; 'I' for Inactive)
REMARK    1  A    between atoms: C2_2  and  C4_4 
REMARK    2  A    between atoms: C5_7  and  N2_8 
REMARK    3  A    between atoms: C9_13  and  C10_14 
REMARK    4  A    between atoms: C10_14  and  N3_15 
ROOT
HETATM    1  N2  UNL     1      43.590   3.882 -13.624  1.00  0.00    -0.341 N 
HETATM    2  C6  UNL     1      44.706   3.684 -14.517  1.00  0.00     0.170 C 
HETATM    3  C7  UNL     1      45.045   4.832 -15.387  1.00  0.00     0.121 C 
HETATM    4  C8  UNL     1      44.735   4.484 -16.847  1.00  0.00     0.054 C 
HETATM    5  F1  UNL     1      46.445   4.958 -15.352  1.00  0.00    -0.241 F 
HETATM    6  C9  UNL     1      44.444   6.145 -15.037  1.00  0.00     0.054 C 
HETATM    7  C11 UNL     1      43.109   6.117 -14.397  1.00  0.00     0.040 C 
HETATM    8  C12 UNL     1      42.551   4.776 -14.066  1.00  0.00     0.029 C 
HETATM    9  C13 UNL     1      41.755   4.205 -15.219  1.00  0.00     0.038 C 
HETATM   10  C14 UNL     1      41.560   4.920 -12.901  1.00  0.00     0.038 C 
ENDROOT
BRANCH   1  11
HETATM   11  C5  UNL     1      43.530   3.209 -12.350  1.00  0.00     0.191 C 
HETATM   12  N1  UNL     1      42.785   2.238 -11.995  1.00  0.00    -0.341 N 
HETATM   13  C4  UNL     1      43.013   1.832 -10.633  1.00  0.00     0.202 C 
ATOM     14  H1  UNL     1      42.101   1.795 -12.610  1.00  0.00     0.164 HD
HETATM   15  N5  UNL     1      44.280   2.417 -10.313  1.00  0.00    -0.113 NA
HETATM   16  N4  UNL     1      44.323   3.518 -11.208  1.00  0.00    -0.273 N 
ATOM     17  H4  UNL     1      44.838   4.387 -11.059  1.00  0.00     0.185 HD
BRANCH  13  18
HETATM   18  C2  UNL     1      43.046   0.313 -10.574  1.00  0.00     0.018 C 
HETATM   19  C1  UNL     1      41.689  -0.129 -10.040  1.00  0.00     0.013 C 
HETATM   20  C3  UNL     1      44.171  -0.090  -9.644  1.00  0.00     0.013 C 
ENDBRANCH  13  18
ENDBRANCH   1  11
BRANCH   6  21
HETATM   21  C10 UNL     1      45.407   7.037 -14.253  1.00  0.00     0.237 C 
BRANCH  21  22
HETATM   22  N3  UNL     1      45.156   7.038 -12.852  1.00  0.00    -0.079 N 
ATOM     23  H33 UNL     1      45.387   6.134 -12.442  1.00  0.00     0.274 HD
ATOM     24  H32 UNL     1      45.834   7.622 -12.362  1.00  0.00     0.274 HD
ATOM     25  H31 UNL     1      44.203   7.311 -12.615  1.00  0.00     0.274 HD
ENDBRANCH  21  22
ENDBRANCH   6  21
TORSDOF 4
ENDMDL
MODEL 4
REMARK VINA RESULT: -6.620300842      1.989      3.023
REMARK  4 active torsions:
REMARK  status: ('A' for Active; 'I' for Inactive)
REMARK    1  A    between atoms: C2_2  and  C4_4 
REMARK    2  A    between atoms: C5_7  and  N2_8 
REMARK    3  A    between atoms: C9_13  and  C10_14 
REMARK    4  A    between atoms: C10_14  and  N3_15 
ROOT
HETATM    1  N2  UNL     1      43.828   3.695 -13.267  1.00  0.00    -0.341 N 
HETATM    2  C6  UNL     1      45.065   4.213 -12.736  1.00  0.00     0.170 C 
HETATM    3  C7  UNL     1      45.813   5.131 -13.623  1.00  0.00     0.121 C 
HETATM    4  C8  UNL     1      47.116   4.465 -14.077  1.00  0.00     0.054 C 
HETATM    5  F1  UNL     1      46.234   6.206 -12.821  1.00  0.00    -0.241 F 
HETATM    6  C9  UNL     1      45.083   5.677 -14.798  1.00  0.00     0.054 C 
HETATM    7  C11 UNL     1      44.042   4.812 -15.396  1.00  0.00     0.040 C 
HETATM    8  C12 UNL     1      43.751   3.530 -14.696  1.00  0.00     0.029 C 
HETATM    9  C13 UNL     1      44.638   2.411 -15.193  1.00  0.00     0.038 C 
HETATM   10  C14 UNL     1      42.311   3.100 -15.019  1.00  0.00     0.038 C 
ENDROOT
BRANCH   1  11
HETATM   11  C5  UNL     1      42.727   3.361 -12.397  1.00  0.00     0.191 C 
HETATM   12  N1  UNL     1      42.387   2.220 -11.943  1.00  0.00    -0.341 N 
HETATM   13  C4  UNL     1      41.224   2.284 -11.097  1.00  0.00     0.202 C 
ATOM     14  H1  UNL     1      42.886   1.356 -12.155  1.00  0.00     0.164 HD
HETATM   15  N5  UNL     1      41.124   3.673 -10.764  1.00  0.00    -0.113 NA
HETATM   16  N4  UNL     1      41.780   4.282 -11.865  1.00  0.00    -0.273 N 
ATOM     17  H4  UNL     1      41.603   5.224 -12.216  1.00  0.00     0.185 HD
BRANCH  13  18
HETATM   18  C2  UNL     1      41.459   1.412  -9.875  1.00  0.00     0.018 C 
HETATM   19  C1  UNL     1      42.143   0.144 -10.374  1.00  0.00     0.013 C 
HETATM   20  C3  UNL     1      40.113   1.113  -9.251  1.00  0.00     0.013 C 
ENDBRANCH  13  18
ENDBRANCH   1  11
BRANCH   6  21
HETATM   21  C10 UNL     1      44.546   7.087 -14.546  1.00  0.00     0.237 C 
BRANCH  21  22
HETATM   22  N3  UNL     1      43.247   7.095 -13.965  1.00  0.00    -0.079 N 
ATOM     23  H33 UNL     1      42.535   7.278 -14.672  1.00  0.00     0.274 HD
ATOM     24  H32 UNL     1      42.968   6.155 -13.686  1.00  0.00     0.274 HD
ATOM     25  H31 UNL     1      43.159   7.747 -13.186  1.00  0.00     0.274 HD
ENDBRANCH  21  22
ENDBRANCH   6  21
TORSDOF 4
ENDMDL
MODEL 5
REMARK VINA RESULT: -6.561107694      1.846      2.668
REMARK  4 active torsions:
REMARK  status: ('A' for Active; 'I' for Inactive)
REMARK    1  A    between atoms: C2_2  and  C4_4 
REMARK    2  A    between atoms: C5_7  and  N2_8 
REMARK    3  A    between atoms: C9_13  and  C10_14 
REMARK    4  A    between atoms: C10_14  and  N3_15 
ROOT
HETATM    1  N2  UNL     1      44.060   3.696 -13.877  1.00  0.00    -0.341 N 
HETATM    2  C6  UNL     1      45.323   4.191 -13.386  1.00  0.00     0.170 C 
HETATM    3  C7  UNL     1      45.937   5.284 -14.172  1.00  0.00     0.121 C 
HETATM    4  C8  UNL     1      47.212   4.778 -14.852  1.00  0.00     0.054 C 
HETATM    5  F1  UNL     1      46.393   6.235 -13.243  1.00  0.00    -0.241 F 
HETATM    6  C9  UNL     1      45.068   5.972 -15.163  1.00  0.00     0.054 C 
HETATM    7  C11 UNL     1      44.008   5.157 -15.797  1.00  0.00     0.040 C 
HETATM    8  C12 UNL     1      43.843   3.763 -15.299  1.00  0.00     0.029 C 
HETATM    9  C13 UNL     1      44.721   2.794 -16.060  1.00  0.00     0.038 C 
HETATM   10  C14 UNL     1      42.397   3.309 -15.553  1.00  0.00     0.038 C 
ENDROOT
BRANCH   1  11
HETATM   11  C5  UNL     1      43.069   3.161 -12.976  1.00  0.00     0.191 C 
HETATM   12  N1  UNL     1      42.779   1.943 -12.743  1.00  0.00    -0.341 N 
HETATM   13  C4  UNL     1      41.725   1.800 -11.772  1.00  0.00     0.202 C 
ATOM     14  H1  UNL     1      43.242   1.154 -13.195  1.00  0.00     0.164 HD
HETATM   15  N5  UNL     1      41.676   3.081 -11.135  1.00  0.00    -0.113 NA
HETATM   16  N4  UNL     1      42.199   3.927 -12.148  1.00  0.00    -0.273 N 
ATOM     17  H4  UNL     1      41.987   4.918 -12.264  1.00  0.00     0.185 HD
BRANCH  13  18
HETATM   18  C2  UNL     1      42.100   0.689 -10.804  1.00  0.00     0.018 C 
HETATM   19  C1  UNL     1      42.450   1.365  -9.483  1.00  0.00     0.013 C 
HETATM   20  C3  UNL     1      43.286  -0.052 -11.384  1.00  0.00     0.013 C 
ENDBRANCH  13  18
ENDBRANCH   1  11
BRANCH   6  21
HETATM   21  C10 UNL     1      44.501   7.288 -14.627  1.00  0.00     0.237 C 
BRANCH  21  22
HETATM   22  N3  UNL     1      43.263   7.127 -13.945  1.00  0.00    -0.079 N 
ATOM     23  H33 UNL     1      42.511   6.917 -14.602  1.00  0.00     0.274 HD
ATOM     24  H32 UNL     1      43.257   6.264 -13.402  1.00  0.00     0.274 HD
ATOM     25  H31 UNL     1      43.020   7.927 -13.360  1.00  0.00     0.274 HD
ENDBRANCH  21  22
ENDBRANCH   6  21
TORSDOF 4
ENDMDL
