MODEL 1
REMARK VINA RESULT: -6.421096700      0.000      0.000
REMARK  7 active torsions:
REMARK  status: ('A' for Active; 'I' for Inactive)
REMARK    1  A    between atoms: C2_2  and  O1_4 
REMARK    2  A    between atoms: O1_4  and  C4_5 
REMARK    3  A    between atoms: C4_5  and  C5_7 
REMARK    4  A    between atoms: N3_12  and  C6_13 
REMARK    5  A    between atoms: C6_13  and  N4_15 
REMARK    6  A    between atoms: N4_15  and  C7_17 
REMARK    7  A    between atoms: C11_21  and  N5_22 
ROOT
HETATM    1  C5  UNL     1      41.697   1.677 -11.202  1.00  0.00     0.170 A 
HETATM    2  N1  UNL     1      41.801   1.287 -12.508  1.00  0.00    -0.277 N 
ATOM      3  H1  UNL     1      42.011   0.339 -12.820  1.00  0.00     0.189 HD
HETATM    4  N2  UNL     1      41.590   2.317 -13.305  1.00  0.00    -0.231 N 
ATOM      5  H2  UNL     1      41.612   2.288 -14.325  1.00  0.00     0.209 HD
HETATM    6  N3  UNL     1      41.349   3.383 -12.582  1.00  0.00    -0.197 N 
HETATM    7  C11 UNL     1      41.408   3.020 -11.268  1.00  0.00     0.159 A 
ENDROOT
BRANCH   6   8
HETATM    8  C6  UNL     1      41.073   4.693 -13.037  1.00  0.00     0.197 C 
HETATM    9  S1  UNL     1      39.611   5.073 -13.632  1.00  0.00    -0.039 SA
BRANCH   8  10
HETATM   10  N4  UNL     1      42.073   5.681 -12.977  1.00  0.00    -0.357 N 
ATOM     11  H4  UNL     1      42.010   6.413 -12.269  1.00  0.00     0.162 HD
BRANCH  10  12
HETATM   12  C7  UNL     1      43.190   5.678 -13.901  1.00  0.00     0.021 C 
HETATM   13  C8  UNL     1      43.683   7.092 -14.049  1.00  0.00     0.037 C 
HETATM   14  C9  UNL     1      42.761   5.158 -15.246  1.00  0.00     0.037 C 
HETATM   15  C10 UNL     1      44.268   4.764 -13.344  1.00  0.00     0.037 C 
ENDBRANCH  10  12
ENDBRANCH   8  10
ENDBRANCH   6   8
BRANCH   7  16
HETATM   16  N5  UNL     1      41.221   3.817 -10.289  1.00  0.00    -0.382 N 
ATOM     17  H52 UNL     1      41.968   4.264  -9.758  1.00  0.00     0.157 HD
ATOM     18  H51 UNL     1      40.326   4.119  -9.903  1.00  0.00     0.157 HD
ENDBRANCH   7  16
BRANCH   1  19
HETATM   19  C4  UNL     1      41.867   0.813 -10.047  1.00  0.00     0.315 C 
HETATM   20  O2  UNL     1      42.816   0.026  -9.951  1.00  0.00    -0.257 OA
BRANCH  19  21
HETATM   21  O1  UNL     1      40.942   0.867  -9.014  1.00  0.00    -0.312 OA
BRANCH  21  22
HETATM   22  C2  UNL     1      39.636   0.389  -9.267  1.00  0.00     0.124 C 
HETATM   23  C1  UNL     1      39.594  -1.037  -8.708  1.00  0.00     0.040 C 
HETATM   24  C3  UNL     1      38.694   1.208  -8.409  1.00  0.00     0.040 C 
ENDBRANCH  21  22
ENDBRANCH  19  21
ENDBRANCH   1  19
TORSDOF 7
ENDMDL
MODEL 2
REMARK VINA RESULT: -6.296641123      1.291      2.328
REMARK  7 active torsions:
REMARK  status: ('A' for Active; 'I' for Inactive)
REMARK    1  A    between atoms: C2_2  and  O1_4 
REMARK    2  A    between atoms: O1_4  and  C4_5 
REMARK    3  A    between atoms: C4_5  and  C5_7 
REMARK    4  A    between atoms: N3_12  and  C6_13 
REMARK    5  A    between atoms: C6_13  and  N4_15 
REMARK    6  A    between atoms: N4_15  and  C7_17 
REMARK    7  A    between atoms: C11_21  and  N5_22 
ROOT
HETATM    1  C5  UNL     1      41.601   1.708 -11.246  1.00  0.00     0.170 A 
HETATM    2  N1  UNL     1      41.735   1.325 -12.551  1.00  0.00    -0.277 N 
ATOM      3  H1  UNL     1      41.950   0.377 -12.862  1.00  0.00     0.189 HD
HETATM    4  N2  UNL     1      41.546   2.358 -13.348  1.00  0.00    -0.231 N 
ATOM      5  H2  UNL     1      41.592   2.334 -14.367  1.00  0.00     0.209 HD
HETATM    6  N3  UNL     1      41.290   3.422 -12.626  1.00  0.00    -0.197 N 
HETATM    7  C11 UNL     1      41.317   3.053 -11.313  1.00  0.00     0.159 A 
ENDROOT
BRANCH   6   8
HETATM    8  C6  UNL     1      41.028   4.734 -13.081  1.00  0.00     0.197 C 
HETATM    9  S1  UNL     1      39.571   5.128 -13.683  1.00  0.00    -0.039 SA
BRANCH   8  10
HETATM   10  N4  UNL     1      42.036   5.713 -13.016  1.00  0.00    -0.357 N 
ATOM     11  H4  UNL     1      41.972   6.451 -12.314  1.00  0.00     0.162 HD
BRANCH  10  12
HETATM   12  C7  UNL     1      43.163   5.694 -13.927  1.00  0.00     0.021 C 
HETATM   13  C8  UNL     1      43.677   7.101 -14.072  1.00  0.00     0.037 C 
HETATM   14  C9  UNL     1      42.744   5.176 -15.276  1.00  0.00     0.037 C 
HETATM   15  C10 UNL     1      44.223   4.767 -13.356  1.00  0.00     0.037 C 
ENDBRANCH  10  12
ENDBRANCH   8  10
ENDBRANCH   6   8
BRANCH   7  16
HETATM   16  N5  UNL     1      41.109   3.846 -10.335  1.00  0.00    -0.382 N 
ATOM     17  H52 UNL     1      41.102   3.565  -9.355  1.00  0.00     0.157 HD
ATOM     18  H51 UNL     1      40.923   4.848 -10.384  1.00  0.00     0.157 HD
ENDBRANCH   7  16
BRANCH   1  19
HETATM   19  C4  UNL     1      41.742   0.839 -10.091  1.00  0.00     0.315 C 
HETATM   20  O2  UNL     1      41.051  -0.177  -9.948  1.00  0.00    -0.257 OA
BRANCH  19  21
HETATM   21  O1  UNL     1      42.678   1.149  -9.115  1.00  0.00    -0.312 OA
BRANCH  21  22
HETATM   22  C2  UNL     1      44.014   1.361  -9.521  1.00  0.00     0.124 C 
HETATM   23  C1  UNL     1      44.416   2.727  -8.954  1.00  0.00     0.040 C 
HETATM   24  C3  UNL     1      44.862   0.336  -8.797  1.00  0.00     0.040 C 
ENDBRANCH  21  22
ENDBRANCH  19  21
ENDBRANCH   1  19
TORSDOF 7
ENDMDL
MODEL 3
REMARK VINA RESULT: -6.203968181      1.153      1.958
REMARK  7 active torsions:
REMARK  status: ('A' for Active; 'I' for Inactive)
REMARK    1  A    between atoms: C2_2  and  O1_4 
REMARK    2  A    between atoms: O1_4  and  C4_5 
REMARK    3  A    between atoms: C4_5  and  C5_7 
REMARK    4  A    between atoms: N3_12  and  C6_13 
REMARK    5  A    between atoms: C6_13  and  N4_15 
REMARK    6  A    between atoms: N4_15  and  C7_17 
REMARK    7  A    between atoms: C11_21  and  N5_22 
ROOT
HETATM    1  C5  UNL     1      41.325   1.770 -11.040  1.00  0.00     0.170 A 
HETATM    2  N1  UNL     1      41.689   1.351 -12.289  1.00  0.00    -0.277 N 
ATOM      3  H1  UNL     1      41.970   0.400 -12.527  1.00  0.00     0.189 HD
HETATM    4  N2  UNL     1      41.622   2.356 -13.141  1.00  0.00    -0.231 N 
ATOM      5  H2  UNL     1      41.843   2.303 -14.135  1.00  0.00     0.209 HD
HETATM    6  N3  UNL     1      41.227   3.434 -12.509  1.00  0.00    -0.197 N 
HETATM    7  C11 UNL     1      41.034   3.105 -11.199  1.00  0.00     0.159 A 
ENDROOT
BRANCH   6   8
HETATM    8  C6  UNL     1      41.025   4.727 -13.045  1.00  0.00     0.197 C 
HETATM    9  S1  UNL     1      39.611   5.124 -13.738  1.00  0.00    -0.039 SA
BRANCH   8  10
HETATM   10  N4  UNL     1      42.056   5.681 -12.982  1.00  0.00    -0.357 N 
ATOM     11  H4  UNL     1      42.026   6.403 -12.262  1.00  0.00     0.162 HD
BRANCH  10  12
HETATM   12  C7  UNL     1      43.160   5.659 -13.921  1.00  0.00     0.021 C 
HETATM   13  C8  UNL     1      43.662   7.067 -14.094  1.00  0.00     0.037 C 
HETATM   14  C9  UNL     1      42.710   5.125 -15.254  1.00  0.00     0.037 C 
HETATM   15  C10 UNL     1      44.239   4.744 -13.368  1.00  0.00     0.037 C 
ENDBRANCH  10  12
ENDBRANCH   8  10
ENDBRANCH   6   8
BRANCH   7  16
HETATM   16  N5  UNL     1      40.646   3.922 -10.298  1.00  0.00    -0.382 N 
ATOM     17  H52 UNL     1      40.688   3.739  -9.296  1.00  0.00     0.157 HD
ATOM     18  H51 UNL     1      40.248   4.851 -10.439  1.00  0.00     0.157 HD
ENDBRANCH   7  16
BRANCH   1  19
HETATM   19  C4  UNL     1      41.279   0.939  -9.850  1.00  0.00     0.315 C 
HETATM   20  O2  UNL     1      40.445   1.121  -8.955  1.00  0.00    -0.257 OA
BRANCH  19  21
HETATM   21  O1  UNL     1      42.194  -0.095  -9.706  1.00  0.00    -0.312 OA
BRANCH  21  22
HETATM   22  C2  UNL     1      43.133  -0.008  -8.654  1.00  0.00     0.124 C 
HETATM   23  C1  UNL     1      42.842  -1.194  -7.729  1.00  0.00     0.040 C 
HETATM   24  C3  UNL     1      44.497  -0.267  -9.259  1.00  0.00     0.040 C 
ENDBRANCH  21  22
ENDBRANCH  19  21
ENDBRANCH   1  19
TORSDOF 7
ENDMDL
MODEL 4
REMARK VINA RESULT: -6.159877357      0.781      1.532
REMARK  7 active torsions:
REMARK  status: ('A' for Active; 'I' for Inactive)
REMARK    1  A    between atoms: C2_2  and  O1_4 
REMARK    2  A    between atoms: O1_4  and  C4_5 
REMARK    3  A    between atoms: C4_5  and  C5_7 
REMARK    4  A    between atoms: N3_12  and  C6_13 
REMARK    5  A    between atoms: C6_13  and  N4_15 
REMARK    6  A    between atoms: N4_15  and  C7_17 
REMARK    7  A    between atoms: C11_21  and  N5_22 
ROOT
HETATM    1  C5  UNL     1      41.203   2.277 -10.580  1.00  0.00     0.170 A 
HETATM    2  N1  UNL     1      40.897   3.407  -9.876  1.00  0.00    -0.277 N 
ATOM      3  H1  UNL     1      40.655   3.430  -8.885  1.00  0.00     0.189 HD
HETATM    4  N2  UNL     1      40.959   4.463 -10.665  1.00  0.00    -0.231 N 
ATOM      5  H2  UNL     1      40.774   5.424 -10.379  1.00  0.00     0.209 HD
HETATM    6  N3  UNL     1      41.295   4.083 -11.873  1.00  0.00    -0.197 N 
HETATM    7  C11 UNL     1      41.455   2.727 -11.856  1.00  0.00     0.159 A 
ENDROOT
BRANCH   6   8
HETATM    8  C6  UNL     1      41.472   4.892 -13.017  1.00  0.00     0.197 C 
HETATM    9  S1  UNL     1      40.593   4.634 -14.358  1.00  0.00    -0.039 SA
BRANCH   8  10
HETATM   10  N4  UNL     1      42.419   5.932 -13.002  1.00  0.00    -0.357 N 
ATOM     11  H4  UNL     1      42.216   6.786 -12.483  1.00  0.00     0.162 HD
BRANCH  10  12
HETATM   12  C7  UNL     1      43.679   5.813 -13.709  1.00  0.00     0.021 C 
HETATM   13  C8  UNL     1      44.557   6.967 -13.308  1.00  0.00     0.037 C 
HETATM   14  C9  UNL     1      43.456   5.852 -15.197  1.00  0.00     0.037 C 
HETATM   15  C10 UNL     1      44.306   4.478 -13.345  1.00  0.00     0.037 C 
ENDBRANCH  10  12
ENDBRANCH   8  10
ENDBRANCH   6   8
BRANCH   7  16
HETATM   16  N5  UNL     1      41.784   2.026 -12.870  1.00  0.00    -0.382 N 
ATOM     17  H52 UNL     1      41.727   1.008 -12.911  1.00  0.00     0.157 HD
ATOM     18  H51 UNL     1      42.141   2.365 -13.763  1.00  0.00     0.157 HD
ENDBRANCH   7  16
BRANCH   1  19
HETATM   19  C4  UNL     1      41.236   0.929 -10.042  1.00  0.00     0.315 C 
HETATM   20  O2  UNL     1      41.944   0.043 -10.535  1.00  0.00    -0.257 OA
BRANCH  19  21
HETATM   21  O1  UNL     1      40.454   0.617  -8.939  1.00  0.00    -0.312 OA
BRANCH  21  22
HETATM   22  C2  UNL     1      39.090   0.320  -9.156  1.00  0.00     0.124 C 
HETATM   23  C1  UNL     1      38.954  -1.196  -8.977  1.00  0.00     0.040 C 
HETATM   24  C3  UNL     1      38.315   0.951  -8.018  1.00  0.00     0.040 C 
ENDBRANCH  21  22
ENDBRANCH  19  21
ENDBRANCH   1  19
TORSDOF 7
ENDMDL
MODEL 5
REMARK VINA RESULT: -6.148444907      1.027      1.458
REMARK  7 active torsions:
REMARK  status: ('A' for Active; 'I' for Inactive)
REMARK    1  A    between atoms: C2_2  and  O1_4 
REMARK    2  A    between atoms: O1_4  and  C4_5 
REMARK    3  A    between atoms: C4_5  and  C5_7 
REMARK    4  A    between atoms: N3_12  and  C6_13 
REMARK    5  A    between atoms: C6_13  and  N4_15 
REMARK    6  A    between atoms: N4_15  and  C7_17 
REMARK    7  A    between atoms: C11_21  and  N5_22 
ROOT
HETATM    1  C5  UNL     1      42.090   1.484 -12.370  1.00  0.00     0.170 A 
HETATM    2  N1  UNL     1      41.969   1.201 -13.701  1.00  0.00    -0.277 N 
ATOM      3  H1  UNL     1      42.144   0.289 -14.123  1.00  0.00     0.189 HD
HETATM    4  N2  UNL     1      41.593   2.280 -14.361  1.00  0.00    -0.231 N 
ATOM      5  H2  UNL     1      41.433   2.330 -15.367  1.00  0.00     0.209 HD
HETATM    6  N3  UNL     1      41.457   3.276 -13.521  1.00  0.00    -0.197 N 
HETATM    7  C11 UNL     1      41.759   2.815 -12.272  1.00  0.00     0.159 A 
ENDROOT
BRANCH   6   8
HETATM    8  C6  UNL     1      41.071   4.605 -13.809  1.00  0.00     0.197 C 
HETATM    9  S1  UNL     1      39.591   4.930 -14.393  1.00  0.00    -0.039 SA
BRANCH   8  10
HETATM   10  N4  UNL     1      41.975   5.660 -13.591  1.00  0.00    -0.357 N 
ATOM     11  H4  UNL     1      41.749   6.379 -12.904  1.00  0.00     0.162 HD
BRANCH  10  12
HETATM   12  C7  UNL     1      43.222   5.747 -14.327  1.00  0.00     0.021 C 
HETATM   13  C8  UNL     1      42.965   5.315 -15.745  1.00  0.00     0.037 C 
HETATM   14  C9  UNL     1      44.260   4.847 -13.714  1.00  0.00     0.037 C 
HETATM   15  C10 UNL     1      43.717   7.181 -14.259  1.00  0.00     0.037 C 
ENDBRANCH  10  12
ENDBRANCH   8  10
ENDBRANCH   6   8
BRANCH   7  16
HETATM   16  N5  UNL     1      41.730   3.526 -11.213  1.00  0.00    -0.382 N 
ATOM     17  H52 UNL     1      41.815   3.156 -10.267  1.00  0.00     0.157 HD
ATOM     18  H51 UNL     1      41.620   4.539 -11.154  1.00  0.00     0.157 HD
ENDBRANCH   7  16
BRANCH   1  19
HETATM   19  C4  UNL     1      42.485   0.540 -11.339  1.00  0.00     0.315 C 
HETATM   20  O2  UNL     1      43.272  -0.386 -11.565  1.00  0.00    -0.257 OA
BRANCH  19  21
HETATM   21  O1  UNL     1      41.970   0.677 -10.057  1.00  0.00    -0.312 OA
BRANCH  21  22
HETATM   22  C2  UNL     1      40.750   0.030  -9.760  1.00  0.00     0.124 C 
HETATM   23  C1  UNL     1      41.032  -0.866  -8.549  1.00  0.00     0.040 C 
HETATM   24  C3  UNL     1      39.791   1.100  -9.281  1.00  0.00     0.040 C 
ENDBRANCH  21  22
ENDBRANCH  19  21
ENDBRANCH   1  19
TORSDOF 7
ENDMDL
