MODEL 1
REMARK VINA RESULT: -7.295946229      0.000      0.000
REMARK  6 active torsions:
REMARK  status: ('A' for Active; 'I' for Inactive)
REMARK    1  A    between atoms: C2_2  and  O1_4 
REMARK    2  A    between atoms: C2_2  and  C4_6 
REMARK    3  A    between atoms: C6_10  and  C7_11 
REMARK    4  A    between atoms: N2_17  and  C12_18 
REMARK    5  A    between atoms: C12_18  and  O2_19 
REMARK    6  A    between atoms: N3_21  and  O3_23 
ROOT
HETATM    1  C7  UNL     1      41.954   3.262 -15.140  1.00  0.00     0.053 C 
HETATM    2  C8  UNL     1      43.410   3.666 -15.378  1.00  0.00     0.097 C 
HETATM    3  C9  UNL     1      43.609   4.847 -16.230  1.00  0.00     0.177 C 
HETATM    4  F1  UNL     1      44.878   4.692 -16.823  1.00  0.00    -0.249 F 
HETATM    5  C10 UNL     1      42.623   4.740 -17.373  1.00  0.00     0.058 C 
HETATM    6  C11 UNL     1      41.276   4.965 -16.799  1.00  0.00     0.135 C 
HETATM    7  N2  UNL     1      41.008   4.213 -15.524  1.00  0.00    -0.313 N 
ENDROOT
BRANCH   1   8
HETATM    8  C6  UNL     1      41.876   2.587 -13.836  1.00  0.00     0.116 A 
HETATM    9  C5  UNL     1      41.954   1.270 -13.479  1.00  0.00     0.129 A 
HETATM   10  N1  UNL     1      41.843   1.236 -12.112  1.00  0.00    -0.345 N 
HETATM   11  C4  UNL     1      41.707   2.479 -11.669  1.00  0.00     0.158 A 
ATOM     12  H1  UNL     1      41.861   0.396 -11.533  1.00  0.00     0.167 HD
HETATM   13  O4  UNL     1      41.731   3.257 -12.691  1.00  0.00    -0.291 OA
BRANCH  11  14
HETATM   14  C2  UNL     1      41.565   2.790 -10.199  1.00  0.00     0.115 C 
HETATM   15  C1  UNL     1      40.447   2.050  -9.544  1.00  0.00     0.054 C 
HETATM   16  C3  UNL     1      42.840   2.708  -9.465  1.00  0.00     0.054 C 
BRANCH  14  17
HETATM   17  O1  UNL     1      41.148   4.167 -10.116  1.00  0.00    -0.382 OA
ATOM     18  H1  UNL     1      41.824   4.570  -9.583  1.00  0.00     0.211 HD
ENDBRANCH  14  17
ENDBRANCH  11  14
ENDBRANCH   1   8
BRANCH   7  19
HETATM   19  C12 UNL     1      39.778   4.610 -15.010  1.00  0.00     0.243 C 
HETATM   20  N3  UNL     1      39.659   4.990 -13.779  1.00  0.00    -0.232 N 
ATOM     21  H3  UNL     1      40.478   4.991 -13.171  1.00  0.00     0.198 HD
BRANCH  19  22
HETATM   22  O2  UNL     1      38.673   4.618 -15.819  1.00  0.00    -0.331 OA
ATOM     23  H2  UNL     1      37.904   5.115 -15.563  1.00  0.00     0.221 HD
ENDBRANCH  19  22
BRANCH  20  24
HETATM   24  O3  UNL     1      38.426   5.397 -13.275  1.00  0.00    -0.287 OA
ATOM     25  H3  UNL     1      38.268   5.424 -12.338  1.00  0.00     0.244 HD
ENDBRANCH  20  24
ENDBRANCH   7  19
TORSDOF 6
ENDMDL
MODEL 2
REMARK VINA RESULT: -7.282059544      2.214      2.620
REMARK  6 active torsions:
REMARK  status: ('A' for Active; 'I' for Inactive)
REMARK    1  A    between atoms: C2_2  and  O1_4 
REMARK    2  A    between atoms: C2_2  and  C4_6 
REMARK    3  A    between atoms: C6_10  and  C7_11 
REMARK    4  A    between atoms: N2_17  and  C12_18 
REMARK    5  A    between atoms: C12_18  and  O2_19 
REMARK    6  A    between atoms: N3_21  and  O3_23 
ROOT
HETATM    1  C7  UNL     1      42.912   3.283 -13.448  1.00  0.00     0.053 C 
HETATM    2  C8  UNL     1      44.357   3.686 -13.147  1.00  0.00     0.097 C 
HETATM    3  C9  UNL     1      44.651   5.122 -13.254  1.00  0.00     0.177 C 
HETATM    4  F1  UNL     1      46.022   5.218 -13.566  1.00  0.00    -0.249 F 
HETATM    5  C10 UNL     1      43.929   5.632 -14.483  1.00  0.00     0.058 C 
HETATM    6  C11 UNL     1      42.481   5.609 -14.169  1.00  0.00     0.135 C 
HETATM    7  N2  UNL     1      42.006   4.343 -13.510  1.00  0.00    -0.313 N 
ENDROOT
BRANCH   1   8
HETATM    8  C6  UNL     1      42.612   2.062 -12.687  1.00  0.00     0.116 A 
HETATM    9  C5  UNL     1      42.859   0.742 -12.938  1.00  0.00     0.129 A 
HETATM   10  N1  UNL     1      42.376   0.049 -11.856  1.00  0.00    -0.345 N 
HETATM   11  C4  UNL     1      41.863   0.917 -10.995  1.00  0.00     0.158 A 
ATOM     12  H1  UNL     1      42.405  -0.964 -11.736  1.00  0.00     0.167 HD
HETATM   13  O4  UNL     1      42.012   2.091 -11.495  1.00  0.00    -0.291 OA
BRANCH  11  14
HETATM   14  C2  UNL     1      41.250   0.476  -9.688  1.00  0.00     0.115 C 
HETATM   15  C1  UNL     1      42.258   0.034  -8.681  1.00  0.00     0.054 C 
HETATM   16  C3  UNL     1      40.266   1.437  -9.158  1.00  0.00     0.054 C 
BRANCH  14  17
HETATM   17  O1  UNL     1      40.512  -0.728  -9.974  1.00  0.00    -0.382 OA
ATOM     18  H1  UNL     1      39.612  -0.485  -9.789  1.00  0.00     0.211 HD
ENDBRANCH  14  17
ENDBRANCH  11  14
ENDBRANCH   1   8
BRANCH   7  19
HETATM   19  C12 UNL     1      40.674   4.494 -13.139  1.00  0.00     0.243 C 
HETATM   20  N3  UNL     1      39.781   4.878 -13.992  1.00  0.00    -0.232 N 
ATOM     21  H3  UNL     1      40.057   5.082 -14.953  1.00  0.00     0.198 HD
BRANCH  19  22
HETATM   22  O2  UNL     1      40.291   4.218 -11.853  1.00  0.00    -0.331 OA
ATOM     23  H2  UNL     1      40.705   4.673 -11.128  1.00  0.00     0.221 HD
ENDBRANCH  19  22
BRANCH  20  24
HETATM   24  O3  UNL     1      38.447   5.016 -13.615  1.00  0.00    -0.287 OA
ATOM     25  H3  UNL     1      37.925   5.744 -13.932  1.00  0.00     0.244 HD
ENDBRANCH  20  24
ENDBRANCH   7  19
TORSDOF 6
ENDMDL
MODEL 3
REMARK VINA RESULT: -7.280276244      2.273      2.738
REMARK  6 active torsions:
REMARK  status: ('A' for Active; 'I' for Inactive)
REMARK    1  A    between atoms: C2_2  and  O1_4 
REMARK    2  A    between atoms: C2_2  and  C4_6 
REMARK    3  A    between atoms: C6_10  and  C7_11 
REMARK    4  A    between atoms: N2_17  and  C12_18 
REMARK    5  A    between atoms: C12_18  and  O2_19 
REMARK    6  A    between atoms: N3_21  and  O3_23 
ROOT
HETATM    1  C7  UNL     1      43.037   3.338 -13.681  1.00  0.00     0.053 C 
HETATM    2  C8  UNL     1      44.474   3.850 -13.564  1.00  0.00     0.097 C 
HETATM    3  C9  UNL     1      44.668   5.274 -13.871  1.00  0.00     0.177 C 
HETATM    4  F1  UNL     1      46.000   5.400 -14.316  1.00  0.00    -0.249 F 
HETATM    5  C10 UNL     1      43.816   5.585 -15.084  1.00  0.00     0.058 C 
HETATM    6  C11 UNL     1      42.404   5.528 -14.640  1.00  0.00     0.135 C 
HETATM    7  N2  UNL     1      42.065   4.333 -13.790  1.00  0.00    -0.313 N 
ENDROOT
BRANCH   1   8
HETATM    8  C6  UNL     1      42.878   2.210 -12.752  1.00  0.00     0.116 A 
HETATM    9  C5  UNL     1      42.106   1.084 -12.801  1.00  0.00     0.129 A 
HETATM   10  N1  UNL     1      42.391   0.373 -11.662  1.00  0.00    -0.345 N 
HETATM   11  C4  UNL     1      43.298   1.044 -10.964  1.00  0.00     0.158 A 
ATOM     12  H1  UNL     1      41.977  -0.521 -11.398  1.00  0.00     0.167 HD
HETATM   13  O4  UNL     1      43.573   2.115 -11.616  1.00  0.00    -0.291 OA
BRANCH  11  14
HETATM   14  C2  UNL     1      43.834   0.527  -9.651  1.00  0.00     0.115 C 
HETATM   15  C1  UNL     1      44.668   1.524  -8.919  1.00  0.00     0.054 C 
HETATM   16  C3  UNL     1      42.801  -0.107  -8.813  1.00  0.00     0.054 C 
BRANCH  14  17
HETATM   17  O1  UNL     1      44.772  -0.516  -9.980  1.00  0.00    -0.382 OA
ATOM     18  H1  UNL     1      44.567  -1.202  -9.355  1.00  0.00     0.211 HD
ENDBRANCH  14  17
ENDBRANCH  11  14
ENDBRANCH   1   8
BRANCH   7  19
HETATM   19  C12 UNL     1      40.761   4.462 -13.322  1.00  0.00     0.243 C 
HETATM   20  N3  UNL     1      39.816   4.902 -14.086  1.00  0.00    -0.232 N 
ATOM     21  H3  UNL     1      40.029   5.169 -15.048  1.00  0.00     0.198 HD
BRANCH  19  22
HETATM   22  O2  UNL     1      40.463   4.102 -12.034  1.00  0.00    -0.331 OA
ATOM     23  H2  UNL     1      40.536   4.742 -11.335  1.00  0.00     0.221 HD
ENDBRANCH  19  22
BRANCH  20  24
HETATM   24  O3  UNL     1      38.511   5.018 -13.612  1.00  0.00    -0.287 OA
ATOM     25  H3  UNL     1      38.078   5.863 -13.580  1.00  0.00     0.244 HD
ENDBRANCH  20  24
ENDBRANCH   7  19
TORSDOF 6
ENDMDL
MODEL 4
REMARK VINA RESULT: -7.182466557      3.564      6.774
REMARK  6 active torsions:
REMARK  status: ('A' for Active; 'I' for Inactive)
REMARK    1  A    between atoms: C2_2  and  O1_4 
REMARK    2  A    between atoms: C2_2  and  C4_6 
REMARK    3  A    between atoms: C6_10  and  C7_11 
REMARK    4  A    between atoms: N2_17  and  C12_18 
REMARK    5  A    between atoms: C12_18  and  O2_19 
REMARK    6  A    between atoms: N3_21  and  O3_23 
ROOT
HETATM    1  C7  UNL     1      41.886   0.503 -10.626  1.00  0.00     0.053 C 
HETATM    2  C8  UNL     1      40.459   0.311 -10.107  1.00  0.00     0.097 C 
HETATM    3  C9  UNL     1      40.334   0.097  -8.659  1.00  0.00     0.177 C 
HETATM    4  F1  UNL     1      39.151  -0.646  -8.474  1.00  0.00    -0.249 F 
HETATM    5  C10 UNL     1      41.455  -0.835  -8.250  1.00  0.00     0.058 C 
HETATM    6  C11 UNL     1      42.715  -0.065  -8.367  1.00  0.00     0.135 C 
HETATM    7  N2  UNL     1      42.846   0.727  -9.639  1.00  0.00    -0.313 N 
ENDROOT
BRANCH   1   8
HETATM    8  C6  UNL     1      41.822   1.335 -11.836  1.00  0.00     0.116 A 
HETATM    9  C5  UNL     1      41.980   1.039 -13.161  1.00  0.00     0.129 A 
HETATM   10  N1  UNL     1      41.781   2.213 -13.843  1.00  0.00    -0.345 N 
HETATM   11  C4  UNL     1      41.513   3.170 -12.964  1.00  0.00     0.158 A 
ATOM     12  H1  UNL     1      41.832   2.331 -14.854  1.00  0.00     0.167 HD
HETATM   13  O4  UNL     1      41.538   2.638 -11.795  1.00  0.00    -0.291 OA
BRANCH  11  14
HETATM   14  C2  UNL     1      41.238   4.591 -13.391  1.00  0.00     0.115 C 
HETATM   15  C1  UNL     1      41.830   4.934 -14.717  1.00  0.00     0.054 C 
HETATM   16  C3  UNL     1      39.820   4.970 -13.262  1.00  0.00     0.054 C 
BRANCH  14  17
HETATM   17  O1  UNL     1      41.959   5.437 -12.474  1.00  0.00    -0.382 OA
ATOM     18  H1  UNL     1      41.519   5.289 -11.645  1.00  0.00     0.211 HD
ENDBRANCH  14  17
ENDBRANCH  11  14
ENDBRANCH   1   8
BRANCH   7  19
HETATM   19  C12 UNL     1      43.993   1.511  -9.572  1.00  0.00     0.243 C 
HETATM   20  N3  UNL     1      43.930   2.799  -9.673  1.00  0.00    -0.232 N 
ATOM     21  H3  UNL     1      43.026   3.250  -9.813  1.00  0.00     0.198 HD
BRANCH  19  22
HETATM   22  O2  UNL     1      45.213   0.917  -9.378  1.00  0.00    -0.331 OA
ATOM     23  H2  UNL     1      45.972   1.452  -9.175  1.00  0.00     0.221 HD
ENDBRANCH  19  22
BRANCH  20  24
HETATM   24  O3  UNL     1      45.083   3.578  -9.594  1.00  0.00    -0.287 OA
ATOM     25  H3  UNL     1      45.491   3.925 -10.379  1.00  0.00     0.244 HD
ENDBRANCH  20  24
ENDBRANCH   7  19
TORSDOF 6
ENDMDL
MODEL 5
REMARK VINA RESULT: -7.061053816      3.595      6.730
REMARK  6 active torsions:
REMARK  status: ('A' for Active; 'I' for Inactive)
REMARK    1  A    between atoms: C2_2  and  O1_4 
REMARK    2  A    between atoms: C2_2  and  C4_6 
REMARK    3  A    between atoms: C6_10  and  C7_11 
REMARK    4  A    between atoms: N2_17  and  C12_18 
REMARK    5  A    between atoms: C12_18  and  O2_19 
REMARK    6  A    between atoms: N3_21  and  O3_23 
ROOT
HETATM    1  C7  UNL     1      41.983   1.224  -9.192  1.00  0.00     0.053 C 
HETATM    2  C8  UNL     1      43.439   1.020  -9.616  1.00  0.00     0.097 C 
HETATM    3  C9  UNL     1      43.989  -0.321  -9.374  1.00  0.00     0.177 C 
HETATM    4  F1  UNL     1      45.380  -0.152  -9.222  1.00  0.00    -0.249 F 
HETATM    5  C10 UNL     1      43.494  -0.764  -8.013  1.00  0.00     0.058 C 
HETATM    6  C11 UNL     1      42.040  -1.017  -8.149  1.00  0.00     0.135 C 
HETATM    7  N2  UNL     1      41.287   0.052  -8.893  1.00  0.00    -0.313 N 
ENDROOT
BRANCH   1   8
HETATM    8  C6  UNL     1      41.400   2.263 -10.053  1.00  0.00     0.116 A 
HETATM    9  C5  UNL     1      40.438   3.207  -9.826  1.00  0.00     0.129 A 
HETATM   10  N1  UNL     1      40.321   3.923 -10.991  1.00  0.00    -0.345 N 
HETATM   11  C4  UNL     1      41.179   3.431 -11.875  1.00  0.00     0.158 A 
ATOM     12  H1  UNL     1      39.683   4.702 -11.151  1.00  0.00     0.167 HD
HETATM   13  O4  UNL     1      41.803   2.462 -11.309  1.00  0.00    -0.291 OA
BRANCH  11  14
HETATM   14  C2  UNL     1      41.306   4.003 -13.266  1.00  0.00     0.115 C 
HETATM   15  C1  UNL     1      42.053   5.294 -13.308  1.00  0.00     0.054 C 
HETATM   16  C3  UNL     1      41.774   3.017 -14.256  1.00  0.00     0.054 C 
BRANCH  14  17
HETATM   17  O1  UNL     1      39.975   4.373 -13.675  1.00  0.00    -0.382 OA
ATOM     18  H1  UNL     1      39.705   3.649 -14.228  1.00  0.00     0.211 HD
ENDBRANCH  14  17
ENDBRANCH  11  14
ENDBRANCH   1   8
BRANCH   7  19
HETATM   19  C12 UNL     1      39.972  -0.361  -9.078  1.00  0.00     0.243 C 
HETATM   20  N3  UNL     1      39.699  -1.542  -9.530  1.00  0.00    -0.232 N 
ATOM     21  H3  UNL     1      40.460  -2.180  -9.763  1.00  0.00     0.198 HD
BRANCH  19  22
HETATM   22  O2  UNL     1      38.942   0.486  -8.763  1.00  0.00    -0.331 OA
ATOM     23  H2  UNL     1      39.129   1.381  -8.504  1.00  0.00     0.221 HD
ENDBRANCH  19  22
BRANCH  20  24
HETATM   24  O3  UNL     1      38.379  -1.952  -9.702  1.00  0.00    -0.287 OA
ATOM     25  H3  UNL     1      37.989  -2.596  -9.121  1.00  0.00     0.244 HD
ENDBRANCH  20  24
ENDBRANCH   7  19
TORSDOF 6
ENDMDL
