MODEL 1
REMARK VINA RESULT: -7.736853546      0.000      0.000
REMARK  11 active torsions:
REMARK  status: ('A' for Active; 'I' for Inactive)
REMARK    1  A    between atoms: N1_2  and  O1_3 
REMARK    2  A    between atoms: N1_2  and  C2_5 
REMARK    3  A    between atoms: C2_5  and  O2_7 
REMARK    4  A    between atoms: O2_7  and  C3_8 
REMARK    5  A    between atoms: C3_8  and  C4_9 
REMARK    6  A    between atoms: C4_9  and  C5_10 
REMARK    7  A    between atoms: C5_10  and  C22_32 
REMARK    8  A    between atoms: C6_11  and  C7_12 
REMARK    9  A    between atoms: C7_12  and  O3_13 
REMARK   10  A    between atoms: C8_15  and  O4_16 
REMARK   11  A    between atoms: C22_32  and  C23_34 
ROOT
HETATM    1  C7  UNL     1      -3.239   3.639  12.692  1.00  0.00     0.106 C 
HETATM    2  C8  UNL     1      -2.370   4.335  13.753  1.00  0.00     0.157 C 
HETATM    3  C9  UNL     1      -1.650   5.529  13.273  1.00  0.00     0.036 C 
HETATM    4  C10 UNL     1      -2.089   6.097  11.975  1.00  0.00     0.012 C 
HETATM    5  C11 UNL     1      -2.335   5.083  10.895  1.00  0.00    -0.032 C 
HETATM    6  C12 UNL     1      -3.668   5.467  10.246  1.00  0.00     0.016 C 
HETATM    7  C13 UNL     1      -1.322   5.223   9.777  1.00  0.00     0.010 C 
HETATM    8  C14 UNL     1      -1.925   4.656   8.484  1.00  0.00     0.014 C 
HETATM    9  C15 UNL     1      -0.787   4.004   7.734  1.00  0.00     0.079 C 
HETATM   10  C16 UNL     1       0.409   4.365   8.506  1.00  0.00     0.135 C 
HETATM   11  O5  UNL     1       1.516   4.528   8.042  1.00  0.00    -0.297 OA
HETATM   12  C17 UNL     1      -0.062   4.478   9.939  1.00  0.00     0.021 C 
HETATM   13  C18 UNL     1       1.039   5.236  10.649  1.00  0.00     0.024 C 
HETATM   14  C19 UNL     1      -0.209   3.085  10.447  1.00  0.00     0.018 C 
HETATM   15  C20 UNL     1      -1.173   2.951  11.582  1.00  0.00     0.010 C 
HETATM   16  C21 UNL     1      -2.473   3.689  11.393  1.00  0.00     0.035 C 
ENDROOT
BRANCH   1  17
HETATM   17  C6  UNL     1      -3.524   2.298  13.164  1.00  0.00     0.024 C 
HETATM   18  C5  UNL     1      -4.269   1.313  12.691  1.00  0.00    -0.010 C 
BRANCH  18  19
HETATM   19  C4  UNL     1      -4.254   0.078  13.545  1.00  0.00     0.069 C 
BRANCH  19  20
HETATM   20  C3  UNL     1      -4.202   0.416  14.990  1.00  0.00     0.183 C 
BRANCH  20  21
HETATM   21  O2  UNL     1      -5.499   0.564  15.525  1.00  0.00    -0.325 OA
BRANCH  21  22
HETATM   22  C2  UNL     1      -5.890   1.625  16.278  1.00  0.00     0.236 C 
HETATM   23  S1  UNL     1      -6.317   3.094  15.676  1.00  0.00    -0.031 SA
BRANCH  22  24
HETATM   24  N1  UNL     1      -5.935   1.470  17.700  1.00  0.00    -0.234 N 
HETATM   25  C1  UNL     1      -6.466   2.508  18.535  1.00  0.00     0.188 C 
BRANCH  24  26
HETATM   26  O1  UNL     1      -5.468   0.345  18.244  1.00  0.00    -0.285 OA
ATOM     27  H1  UNL     1      -5.775  -0.499  17.933  1.00  0.00     0.245 HD
ENDBRANCH  24  26
ENDBRANCH  22  24
ENDBRANCH  21  22
ENDBRANCH  20  21
ENDBRANCH  19  20
ENDBRANCH  18  19
BRANCH  18  28
HETATM   28  C22 UNL     1      -5.001   1.292  11.460  1.00  0.00     0.169 C 
HETATM   29  O6  UNL     1      -5.884   2.155  11.120  1.00  0.00    -0.291 OA
BRANCH  28  30
HETATM   30  C23 UNL     1      -4.803   0.262  10.420  1.00  0.00     0.198 C 
HETATM   31 CL1  UNL     1      -3.140  -0.224  10.162  1.00  0.00    -0.122 Cl
ENDBRANCH  28  30
ENDBRANCH  18  28
ENDBRANCH   1  17
BRANCH   1  32
HETATM   32  O3  UNL     1      -4.410   4.385  12.689  1.00  0.00    -0.383 OA
ATOM     33  H3  UNL     1      -4.241   5.236  12.303  1.00  0.00     0.211 HD
ENDBRANCH   1  32
BRANCH   2  34
HETATM   34  O4  UNL     1      -3.265   4.675  14.796  1.00  0.00    -0.392 OA
ATOM     35  H4  UNL     1      -2.769   5.247  15.369  1.00  0.00     0.210 HD
ENDBRANCH   2  34
TORSDOF 11
ENDMDL
MODEL 2
REMARK VINA RESULT: -7.726915062      0.969      1.181
REMARK  11 active torsions:
REMARK  status: ('A' for Active; 'I' for Inactive)
REMARK    1  A    between atoms: N1_2  and  O1_3 
REMARK    2  A    between atoms: N1_2  and  C2_5 
REMARK    3  A    between atoms: C2_5  and  O2_7 
REMARK    4  A    between atoms: O2_7  and  C3_8 
REMARK    5  A    between atoms: C3_8  and  C4_9 
REMARK    6  A    between atoms: C4_9  and  C5_10 
REMARK    7  A    between atoms: C5_10  and  C22_32 
REMARK    8  A    between atoms: C6_11  and  C7_12 
REMARK    9  A    between atoms: C7_12  and  O3_13 
REMARK   10  A    between atoms: C8_15  and  O4_16 
REMARK   11  A    between atoms: C22_32  and  C23_34 
ROOT
HETATM    1  C7  UNL     1      -3.386   3.694  12.660  1.00  0.00     0.106 C 
HETATM    2  C8  UNL     1      -2.649   4.501  13.743  1.00  0.00     0.157 C 
HETATM    3  C9  UNL     1      -1.965   5.711  13.251  1.00  0.00     0.036 C 
HETATM    4  C10 UNL     1      -2.332   6.179  11.891  1.00  0.00     0.012 C 
HETATM    5  C11 UNL     1      -2.429   5.094  10.856  1.00  0.00    -0.032 C 
HETATM    6  C12 UNL     1      -3.726   5.356  10.086  1.00  0.00     0.016 C 
HETATM    7  C13 UNL     1      -1.339   5.239   9.814  1.00  0.00     0.010 C 
HETATM    8  C14 UNL     1      -1.802   4.566   8.514  1.00  0.00     0.014 C 
HETATM    9  C15 UNL     1      -0.570   3.949   7.894  1.00  0.00     0.079 C 
HETATM   10  C16 UNL     1       0.536   4.427   8.732  1.00  0.00     0.135 C 
HETATM   11  O5  UNL     1       1.665   4.636   8.346  1.00  0.00    -0.297 OA
HETATM   12  C17 UNL     1      -0.054   4.586  10.116  1.00  0.00     0.021 C 
HETATM   13  C18 UNL     1       0.939   5.451  10.863  1.00  0.00     0.024 C 
HETATM   14  C19 UNL     1      -0.158   3.217  10.692  1.00  0.00     0.018 C 
HETATM   15  C20 UNL     1      -1.200   3.082  11.755  1.00  0.00     0.010 C 
HETATM   16  C21 UNL     1      -2.523   3.723  11.424  1.00  0.00     0.035 C 
ENDROOT
BRANCH   1  17
HETATM   17  C6  UNL     1      -3.627   2.365  13.188  1.00  0.00     0.024 C 
HETATM   18  C5  UNL     1      -4.318   1.329  12.743  1.00  0.00    -0.010 C 
BRANCH  18  19
HETATM   19  C4  UNL     1      -4.274   0.136  13.654  1.00  0.00     0.069 C 
BRANCH  19  20
HETATM   20  C3  UNL     1      -4.347   0.537  15.081  1.00  0.00     0.183 C 
BRANCH  20  21
HETATM   21  O2  UNL     1      -5.679   0.788  15.473  1.00  0.00    -0.325 OA
BRANCH  21  22
HETATM   22  C2  UNL     1      -6.039   1.765  16.345  1.00  0.00     0.236 C 
HETATM   23  S1  UNL     1      -6.054   1.601  17.981  1.00  0.00    -0.031 SA
BRANCH  22  24
HETATM   24  N1  UNL     1      -6.442   3.033  15.818  1.00  0.00    -0.234 N 
HETATM   25  C1  UNL     1      -6.866   4.088  16.691  1.00  0.00     0.188 C 
BRANCH  24  26
HETATM   26  O1  UNL     1      -6.424   3.220  14.498  1.00  0.00    -0.285 OA
ATOM     27  H1  UNL     1      -5.945   2.622  13.936  1.00  0.00     0.245 HD
ENDBRANCH  24  26
ENDBRANCH  22  24
ENDBRANCH  21  22
ENDBRANCH  20  21
ENDBRANCH  19  20
ENDBRANCH  18  19
BRANCH  18  28
HETATM   28  C22 UNL     1      -5.016   1.221  11.497  1.00  0.00     0.169 C 
HETATM   29  O6  UNL     1      -5.901   2.048  11.080  1.00  0.00    -0.291 OA
BRANCH  28  30
HETATM   30  C23 UNL     1      -4.778   0.130  10.530  1.00  0.00     0.198 C 
HETATM   31 CL1  UNL     1      -3.096  -0.159  10.135  1.00  0.00    -0.122 Cl
ENDBRANCH  28  30
ENDBRANCH  18  28
ENDBRANCH   1  17
BRANCH   1  32
HETATM   32  O3  UNL     1      -4.597   4.362  12.524  1.00  0.00    -0.383 OA
ATOM     33  H3  UNL     1      -4.435   5.295  12.448  1.00  0.00     0.211 HD
ENDBRANCH   1  32
BRANCH   2  34
HETATM   34  O4  UNL     1      -3.644   4.839  14.692  1.00  0.00    -0.392 OA
ATOM     35  H4  UNL     1      -3.538   5.771  14.839  1.00  0.00     0.210 HD
ENDBRANCH   2  34
TORSDOF 11
ENDMDL
MODEL 3
REMARK VINA RESULT: -7.633882859      1.015      1.064
REMARK  11 active torsions:
REMARK  status: ('A' for Active; 'I' for Inactive)
REMARK    1  A    between atoms: N1_2  and  O1_3 
REMARK    2  A    between atoms: N1_2  and  C2_5 
REMARK    3  A    between atoms: C2_5  and  O2_7 
REMARK    4  A    between atoms: O2_7  and  C3_8 
REMARK    5  A    between atoms: C3_8  and  C4_9 
REMARK    6  A    between atoms: C4_9  and  C5_10 
REMARK    7  A    between atoms: C5_10  and  C22_32 
REMARK    8  A    between atoms: C6_11  and  C7_12 
REMARK    9  A    between atoms: C7_12  and  O3_13 
REMARK   10  A    between atoms: C8_15  and  O4_16 
REMARK   11  A    between atoms: C22_32  and  C23_34 
ROOT
HETATM    1  C7  UNL     1      -3.573   4.362  12.471  1.00  0.00     0.106 C 
HETATM    2  C8  UNL     1      -3.053   5.478  13.394  1.00  0.00     0.157 C 
HETATM    3  C9  UNL     1      -2.436   6.619  12.693  1.00  0.00     0.036 C 
HETATM    4  C10 UNL     1      -2.679   6.717  11.232  1.00  0.00     0.012 C 
HETATM    5  C11 UNL     1      -2.544   5.422  10.484  1.00  0.00    -0.032 C 
HETATM    6  C12 UNL     1      -3.758   5.341   9.553  1.00  0.00     0.016 C 
HETATM    7  C13 UNL     1      -1.355   5.458   9.545  1.00  0.00     0.010 C 
HETATM    8  C14 UNL     1      -1.590   4.456   8.406  1.00  0.00     0.014 C 
HETATM    9  C15 UNL     1      -0.238   3.870   8.071  1.00  0.00     0.079 C 
HETATM   10  C16 UNL     1       0.707   4.658   8.872  1.00  0.00     0.135 C 
HETATM   11  O5  UNL     1       1.849   4.910   8.557  1.00  0.00    -0.297 OA
HETATM   12  C17 UNL     1      -0.059   5.054  10.115  1.00  0.00     0.021 C 
HETATM   13  C18 UNL     1       0.747   6.181  10.724  1.00  0.00     0.024 C 
HETATM   14  C19 UNL     1      -0.099   3.849  10.990  1.00  0.00     0.018 C 
HETATM   15  C20 UNL     1      -1.244   3.833  11.950  1.00  0.00     0.010 C 
HETATM   16  C21 UNL     1      -2.573   4.215  11.351  1.00  0.00     0.035 C 
ENDROOT
BRANCH   1  17
HETATM   17  C6  UNL     1      -3.746   3.168  13.276  1.00  0.00     0.024 C 
HETATM   18  C5  UNL     1      -4.275   1.982  13.029  1.00  0.00    -0.010 C 
BRANCH  18  19
HETATM   19  C4  UNL     1      -4.226   1.042  14.199  1.00  0.00     0.069 C 
BRANCH  19  20
HETATM   20  C3  UNL     1      -3.476   1.628  15.338  1.00  0.00     0.183 C 
BRANCH  20  21
HETATM   21  O2  UNL     1      -4.268   1.663  16.505  1.00  0.00    -0.325 OA
BRANCH  21  22
HETATM   22  C2  UNL     1      -5.606   1.901  16.504  1.00  0.00     0.236 C 
HETATM   23  S1  UNL     1      -6.303   3.324  16.068  1.00  0.00    -0.031 SA
BRANCH  22  24
HETATM   24  N1  UNL     1      -6.485   0.849  16.915  1.00  0.00    -0.234 N 
HETATM   25  C1  UNL     1      -7.904   1.048  16.942  1.00  0.00     0.188 C 
BRANCH  24  26
HETATM   26  O1  UNL     1      -5.964  -0.324  17.280  1.00  0.00    -0.285 OA
ATOM     27  H1  UNL     1      -5.510  -0.407  18.110  1.00  0.00     0.245 HD
ENDBRANCH  24  26
ENDBRANCH  22  24
ENDBRANCH  21  22
ENDBRANCH  20  21
ENDBRANCH  19  20
ENDBRANCH  18  19
BRANCH  18  28
HETATM   28  C22 UNL     1      -4.804   1.509  11.785  1.00  0.00     0.169 C 
HETATM   29  O6  UNL     1      -5.837   1.990  11.200  1.00  0.00    -0.291 OA
BRANCH  28  30
HETATM   30  C23 UNL     1      -4.197   0.403  11.017  1.00  0.00     0.198 C 
HETATM   31 CL1  UNL     1      -2.519   0.638  10.574  1.00  0.00    -0.122 Cl
ENDBRANCH  28  30
ENDBRANCH  18  28
ENDBRANCH   1  17
BRANCH   1  32
HETATM   32  O3  UNL     1      -4.817   4.828  12.064  1.00  0.00    -0.383 OA
ATOM     33  H3  UNL     1      -4.929   4.658  11.137  1.00  0.00     0.211 HD
ENDBRANCH   1  32
BRANCH   2  34
HETATM   34  O4  UNL     1      -4.184   5.898  14.135  1.00  0.00    -0.392 OA
ATOM     35  H4  UNL     1      -3.925   5.820  15.045  1.00  0.00     0.210 HD
ENDBRANCH   2  34
TORSDOF 11
ENDMDL
MODEL 4
REMARK VINA RESULT: -7.451197056      1.913      2.731
REMARK  11 active torsions:
REMARK  status: ('A' for Active; 'I' for Inactive)
REMARK    1  A    between atoms: N1_2  and  O1_3 
REMARK    2  A    between atoms: N1_2  and  C2_5 
REMARK    3  A    between atoms: C2_5  and  O2_7 
REMARK    4  A    between atoms: O2_7  and  C3_8 
REMARK    5  A    between atoms: C3_8  and  C4_9 
REMARK    6  A    between atoms: C4_9  and  C5_10 
REMARK    7  A    between atoms: C5_10  and  C22_32 
REMARK    8  A    between atoms: C6_11  and  C7_12 
REMARK    9  A    between atoms: C7_12  and  O3_13 
REMARK   10  A    between atoms: C8_15  and  O4_16 
REMARK   11  A    between atoms: C22_32  and  C23_34 
ROOT
HETATM    1  C7  UNL     1      -3.445   4.111  10.659  1.00  0.00     0.106 C 
HETATM    2  C8  UNL     1      -4.106   5.477  10.906  1.00  0.00     0.157 C 
HETATM    3  C9  UNL     1      -3.336   6.633  10.409  1.00  0.00     0.036 C 
HETATM    4  C10 UNL     1      -2.227   6.341   9.467  1.00  0.00     0.012 C 
HETATM    5  C11 UNL     1      -1.359   5.179   9.857  1.00  0.00    -0.032 C 
HETATM    6  C12 UNL     1      -1.172   4.343   8.587  1.00  0.00     0.016 C 
HETATM    7  C13 UNL     1       0.040   5.639  10.210  1.00  0.00     0.010 C 
HETATM    8  C14 UNL     1       1.016   4.473   9.998  1.00  0.00     0.014 C 
HETATM    9  C15 UNL     1       2.061   4.592  11.084  1.00  0.00     0.079 C 
HETATM   10  C16 UNL     1       1.760   5.871  11.738  1.00  0.00     0.135 C 
HETATM   11  O5  UNL     1       2.578   6.600  12.255  1.00  0.00    -0.297 OA
HETATM   12  C17 UNL     1       0.263   6.041  11.609  1.00  0.00     0.021 C 
HETATM   13  C18 UNL     1       0.013   7.506  11.898  1.00  0.00     0.024 C 
HETATM   14  C19 UNL     1      -0.354   5.150  12.631  1.00  0.00     0.018 C 
HETATM   15  C20 UNL     1      -1.752   4.732  12.309  1.00  0.00     0.010 C 
HETATM   16  C21 UNL     1      -1.964   4.290  10.884  1.00  0.00     0.035 C 
ENDROOT
BRANCH   1  17
HETATM   17  C6  UNL     1      -4.071   3.150  11.547  1.00  0.00     0.024 C 
HETATM   18  C5  UNL     1      -3.871   1.862  11.767  1.00  0.00    -0.010 C 
BRANCH  18  19
HETATM   19  C4  UNL     1      -4.784   1.278  12.807  1.00  0.00     0.069 C 
BRANCH  19  20
HETATM   20  C3  UNL     1      -4.131   0.167  13.544  1.00  0.00     0.183 C 
BRANCH  20  21
HETATM   21  O2  UNL     1      -4.771  -0.072  14.778  1.00  0.00    -0.325 OA
BRANCH  21  22
HETATM   22  C2  UNL     1      -4.848   0.842  15.780  1.00  0.00     0.236 C 
HETATM   23  S1  UNL     1      -3.825   2.114  15.967  1.00  0.00    -0.031 SA
BRANCH  22  24
HETATM   24  N1  UNL     1      -5.887   0.698  16.753  1.00  0.00    -0.234 N 
HETATM   25  C1  UNL     1      -6.785   1.780  17.032  1.00  0.00     0.188 C 
BRANCH  24  26
HETATM   26  O1  UNL     1      -6.008  -0.459  17.406  1.00  0.00    -0.285 OA
ATOM     27  H1  UNL     1      -6.132  -1.269  16.924  1.00  0.00     0.245 HD
ENDBRANCH  24  26
ENDBRANCH  22  24
ENDBRANCH  21  22
ENDBRANCH  20  21
ENDBRANCH  19  20
ENDBRANCH  18  19
BRANCH  18  28
HETATM   28  C22 UNL     1      -2.866   1.026  11.184  1.00  0.00     0.169 C 
HETATM   29  O6  UNL     1      -1.608   1.143  11.390  1.00  0.00    -0.291 OA
BRANCH  28  30
HETATM   30  C23 UNL     1      -3.177  -0.095  10.273  1.00  0.00     0.198 C 
HETATM   31 CL1  UNL     1      -3.038  -1.690  10.983  1.00  0.00    -0.122 Cl
ENDBRANCH  28  30
ENDBRANCH  18  28
ENDBRANCH   1  17
BRANCH   1  32
HETATM   32  O3  UNL     1      -3.788   3.816   9.345  1.00  0.00    -0.383 OA
ATOM     33  H3  UNL     1      -3.803   4.617   8.836  1.00  0.00     0.211 HD
ENDBRANCH   1  32
BRANCH   2  34
HETATM   34  O4  UNL     1      -5.364   5.399  10.262  1.00  0.00    -0.392 OA
ATOM     35  H4  UNL     1      -5.433   6.201   9.758  1.00  0.00     0.210 HD
ENDBRANCH   2  34
TORSDOF 11
ENDMDL
MODEL 5
REMARK VINA RESULT: -7.210705514      3.658      7.170
REMARK  11 active torsions:
REMARK  status: ('A' for Active; 'I' for Inactive)
REMARK    1  A    between atoms: N1_2  and  O1_3 
REMARK    2  A    between atoms: N1_2  and  C2_5 
REMARK    3  A    between atoms: C2_5  and  O2_7 
REMARK    4  A    between atoms: O2_7  and  C3_8 
REMARK    5  A    between atoms: C3_8  and  C4_9 
REMARK    6  A    between atoms: C4_9  and  C5_10 
REMARK    7  A    between atoms: C5_10  and  C22_32 
REMARK    8  A    between atoms: C6_11  and  C7_12 
REMARK    9  A    between atoms: C7_12  and  O3_13 
REMARK   10  A    between atoms: C8_15  and  O4_16 
REMARK   11  A    between atoms: C22_32  and  C23_34 
ROOT
HETATM    1  C7  UNL     1      -1.969   5.244  12.025  1.00  0.00     0.106 C 
HETATM    2  C8  UNL     1      -2.715   6.585  11.922  1.00  0.00     0.157 C 
HETATM    3  C9  UNL     1      -3.360   7.029  13.171  1.00  0.00     0.036 C 
HETATM    4  C10 UNL     1      -2.949   6.337  14.418  1.00  0.00     0.012 C 
HETATM    5  C11 UNL     1      -2.850   4.842  14.304  1.00  0.00    -0.032 C 
HETATM    6  C12 UNL     1      -1.528   4.452  14.972  1.00  0.00     0.016 C 
HETATM    7  C13 UNL     1      -3.909   4.162  15.147  1.00  0.00     0.010 C 
HETATM    8  C14 UNL     1      -3.429   2.748  15.504  1.00  0.00     0.014 C 
HETATM    9  C15 UNL     1      -4.659   1.870  15.504  1.00  0.00     0.079 C 
HETATM   10  C16 UNL     1      -5.775   2.808  15.333  1.00  0.00     0.135 C 
HETATM   11  O5  UNL     1      -6.889   2.657  15.783  1.00  0.00    -0.297 OA
HETATM   12  C17 UNL     1      -5.216   3.943  14.503  1.00  0.00     0.021 C 
HETATM   13  C18 UNL     1      -6.208   5.073  14.675  1.00  0.00     0.024 C 
HETATM   14  C19 UNL     1      -5.156   3.452  13.098  1.00  0.00     0.018 C 
HETATM   15  C20 UNL     1      -4.144   4.154  12.251  1.00  0.00     0.010 C 
HETATM   16  C21 UNL     1      -2.800   4.343  12.905  1.00  0.00     0.035 C 
ENDROOT
BRANCH   1  17
HETATM   17  C6  UNL     1      -1.770   4.745  10.678  1.00  0.00     0.024 C 
HETATM   18  C5  UNL     1      -1.363   3.582  10.198  1.00  0.00    -0.010 C 
BRANCH  18  19
HETATM   19  C4  UNL     1      -1.317   3.529   8.698  1.00  0.00     0.069 C 
BRANCH  19  20
HETATM   20  C3  UNL     1      -0.045   4.085   8.172  1.00  0.00     0.183 C 
BRANCH  20  21
HETATM   21  O2  UNL     1       1.070   3.436   8.743  1.00  0.00    -0.325 OA
BRANCH  21  22
HETATM   22  C2  UNL     1       2.170   4.086   9.202  1.00  0.00     0.236 C 
HETATM   23  S1  UNL     1       3.654   4.028   8.497  1.00  0.00    -0.031 SA
BRANCH  22  24
HETATM   24  N1  UNL     1       2.047   4.879  10.387  1.00  0.00    -0.234 N 
HETATM   25  C1  UNL     1       2.091   6.310  10.320  1.00  0.00     0.188 C 
BRANCH  24  26
HETATM   26  O1  UNL     1       1.897   4.267  11.563  1.00  0.00    -0.285 OA
ATOM     27  H1  UNL     1       1.290   3.540  11.650  1.00  0.00     0.245 HD
ENDBRANCH  24  26
ENDBRANCH  22  24
ENDBRANCH  21  22
ENDBRANCH  20  21
ENDBRANCH  19  20
ENDBRANCH  18  19
BRANCH  18  28
HETATM   28  C22 UNL     1      -1.042   2.400  10.940  1.00  0.00     0.169 C 
HETATM   29  O6  UNL     1      -0.165   2.337  11.872  1.00  0.00    -0.291 OA
BRANCH  28  30
HETATM   30  C23 UNL     1      -1.711   1.101  10.720  1.00  0.00     0.198 C 
HETATM   31 CL1  UNL     1      -3.026   0.745  11.820  1.00  0.00    -0.122 Cl
ENDBRANCH  28  30
ENDBRANCH  18  28
ENDBRANCH   1  17
BRANCH   1  32
HETATM   32  O3  UNL     1      -0.741   5.597  12.572  1.00  0.00    -0.383 OA
ATOM     33  H3  UNL     1      -0.851   6.357  13.130  1.00  0.00     0.211 HD
ENDBRANCH   1  32
BRANCH   2  34
HETATM   34  O4  UNL     1      -1.738   7.519  11.503  1.00  0.00    -0.392 OA
ATOM     35  H4  UNL     1      -1.864   7.605  10.566  1.00  0.00     0.210 HD
ENDBRANCH   2  34
TORSDOF 11
ENDMDL
