MODEL 1
REMARK VINA RESULT: -8.932639441      0.000      0.000
REMARK  9 active torsions:
REMARK  status: ('A' for Active; 'I' for Inactive)
REMARK    1  A    between atoms: C2_2  and  C3_3 
REMARK    2  A    between atoms: C3_3  and  O1_4 
REMARK    3  A    between atoms: C6_8  and  N1_9 
REMARK    4  A    between atoms: N1_9  and  C7_11 
REMARK    5  A    between atoms: C10_16  and  N3_17 
REMARK    6  A    between atoms: C15_23  and  O2_24 
REMARK    7  A    between atoms: O2_24  and  C16_25 
REMARK    8  A    between atoms: N5_35  and  C23_36 
REMARK    9  A    between atoms: C26_39  and  O3_40 
ROOT
HETATM    1  C7  UNL     1      -2.021   3.752  12.458  1.00  0.00     0.120 A 
HETATM    2  C8  UNL     1      -1.606   4.950  13.004  1.00  0.00     0.137 A 
HETATM    3  N2  UNL     1      -0.597   5.614  12.462  1.00  0.00    -0.359 N 
ATOM      4  H2  UNL     1      -0.294   6.500  12.867  1.00  0.00     0.165 HD
HETATM    5  C9  UNL     1       0.028   5.121  11.376  1.00  0.00     0.089 A 
HETATM    6  C10 UNL     1       1.087   5.819  10.819  1.00  0.00     0.101 A 
HETATM    7  C14 UNL     1       1.738   5.324   9.712  1.00  0.00     0.178 A 
HETATM    8  F1  UNL     1       2.776   6.007   9.170  1.00  0.00    -0.201 F 
HETATM    9  C15 UNL     1       1.365   4.137   9.135  1.00  0.00     0.112 A 
HETATM   10  C21 UNL     1       0.288   3.464   9.727  1.00  0.00     0.072 A 
HETATM   11  C22 UNL     1      -0.400   3.916  10.835  1.00  0.00     0.068 A 
HETATM   12  N5  UNL     1      -1.423   3.181  11.329  1.00  0.00    -0.325 N 
ENDROOT
BRANCH   1  13
HETATM   13  N1  UNL     1      -2.965   3.152  12.996  1.00  0.00    -0.368 N 
ATOM     14  H1  UNL     1      -3.720   3.293  12.325  1.00  0.00     0.161 HD
BRANCH  13  15
HETATM   15  C6  UNL     1      -3.564   2.430  13.944  1.00  0.00     0.112 C 
HETATM   16  C5  UNL     1      -3.310   2.833  15.407  1.00  0.00     0.030 C 
HETATM   17  C4  UNL     1      -3.774   1.689  16.284  1.00  0.00     0.040 C 
HETATM   18  C3  UNL     1      -5.079   1.096  15.870  1.00  0.00     0.060 C 
HETATM   19  C27 UNL     1      -5.821   2.111  15.038  1.00  0.00     0.071 C 
HETATM   20  C26 UNL     1      -5.097   2.547  13.807  1.00  0.00     0.143 C 
BRANCH  18  21
HETATM   21  C2  UNL     1      -5.991   0.755  17.060  1.00  0.00     0.033 C 
HETATM   22  C1  UNL     1      -7.377   1.318  16.866  1.00  0.00     0.008 C 
ENDBRANCH  18  21
BRANCH  18  23
HETATM   23  O1  UNL     1      -4.900  -0.101  15.175  1.00  0.00    -0.390 OA
ATOM     24  H1  UNL     1      -3.989  -0.110  14.906  1.00  0.00     0.210 HD
ENDBRANCH  18  23
BRANCH  20  25
HETATM   25  O3  UNL     1      -5.335   3.938  13.666  1.00  0.00    -0.393 OA
ATOM     26  H3  UNL     1      -5.430   4.068  12.730  1.00  0.00     0.210 HD
ENDBRANCH  20  25
ENDBRANCH  13  15
ENDBRANCH   1  13
BRANCH  12  27
HETATM   27  C23 UNL     1      -1.881   1.980  10.797  1.00  0.00     0.092 A 
HETATM   28  C24 UNL     1      -3.181   1.344  10.664  1.00  0.00     0.028 A 
HETATM   29  C25 UNL     1      -1.887   0.587  11.126  1.00  0.00     0.028 A 
ENDBRANCH  12  27
BRANCH   6  30
HETATM   30  N3  UNL     1       1.448   7.046  11.436  1.00  0.00    -0.376 N 
HETATM   31  C11 UNL     1       0.921   8.398  11.290  1.00  0.00     0.125 C 
HETATM   32  C12 UNL     1       1.365   8.631  12.735  1.00  0.00     0.040 C 
HETATM   33  C13 UNL     1       2.386   7.562  12.397  1.00  0.00     0.125 C 
ENDBRANCH   6  30
BRANCH   9  34
HETATM   34  O2  UNL     1       1.967   3.600   8.055  1.00  0.00    -0.343 OA
BRANCH  34  35
HETATM   35  C16 UNL     1       2.096   4.047   6.753  1.00  0.00     0.132 C 
HETATM   36  C17 UNL     1       0.644   4.206   6.234  1.00  0.00     0.060 C 
HETATM   37  C18 UNL     1       0.577   4.387   4.757  1.00  0.00     0.235 C 
HETATM   38  N4  UNL     1       1.330   3.436   3.995  1.00  0.00    -0.075 N 
HETATM   39  C19 UNL     1       2.685   3.255   4.455  1.00  0.00     0.235 C 
ATOM     40  H42 UNL     1       0.843   2.542   3.958  1.00  0.00     0.277 HD
ATOM     41  H41 UNL     1       1.318   3.681   3.005  1.00  0.00     0.277 HD
HETATM   42  C20 UNL     1       2.718   2.928   5.933  1.00  0.00     0.060 C 
ENDBRANCH  34  35
ENDBRANCH   9  34
TORSDOF 9
ENDMDL
MODEL 2
REMARK VINA RESULT: -8.305324553      1.087      1.439
REMARK  9 active torsions:
REMARK  status: ('A' for Active; 'I' for Inactive)
REMARK    1  A    between atoms: C2_2  and  C3_3 
REMARK    2  A    between atoms: C3_3  and  O1_4 
REMARK    3  A    between atoms: C6_8  and  N1_9 
REMARK    4  A    between atoms: N1_9  and  C7_11 
REMARK    5  A    between atoms: C10_16  and  N3_17 
REMARK    6  A    between atoms: C15_23  and  O2_24 
REMARK    7  A    between atoms: O2_24  and  C16_25 
REMARK    8  A    between atoms: N5_35  and  C23_36 
REMARK    9  A    between atoms: C26_39  and  O3_40 
ROOT
HETATM    1  C7  UNL     1      -2.281   4.097  12.547  1.00  0.00     0.120 A 
HETATM    2  C8  UNL     1      -1.993   5.262  13.231  1.00  0.00     0.137 A 
HETATM    3  N2  UNL     1      -1.090   6.105  12.756  1.00  0.00    -0.359 N 
ATOM      4  H2  UNL     1      -0.880   6.965  13.263  1.00  0.00     0.165 HD
HETATM    5  C9  UNL     1      -0.449   5.829  11.604  1.00  0.00     0.089 A 
HETATM    6  C10 UNL     1       0.500   6.714  11.119  1.00  0.00     0.101 A 
HETATM    7  C14 UNL     1       1.166   6.442   9.946  1.00  0.00     0.178 A 
HETATM    8  F1  UNL     1       2.096   7.308   9.474  1.00  0.00    -0.201 F 
HETATM    9  C15 UNL     1       0.917   5.298   9.232  1.00  0.00     0.112 A 
HETATM   10  C21 UNL     1      -0.051   4.431   9.756  1.00  0.00     0.072 A 
HETATM   11  C22 UNL     1      -0.749   4.656  10.925  1.00  0.00     0.068 A 
HETATM   12  N5  UNL     1      -1.658   3.746  11.343  1.00  0.00    -0.325 N 
ENDROOT
BRANCH   1  13
HETATM   13  N1  UNL     1      -3.128   3.325  13.024  1.00  0.00    -0.368 N 
ATOM     14  H1  UNL     1      -3.769   3.198  12.240  1.00  0.00     0.161 HD
BRANCH  13  15
HETATM   15  C6  UNL     1      -3.684   2.566  13.967  1.00  0.00     0.112 C 
HETATM   16  C5  UNL     1      -3.324   2.877  15.430  1.00  0.00     0.030 C 
HETATM   17  C4  UNL     1      -3.763   1.696  16.271  1.00  0.00     0.040 C 
HETATM   18  C3  UNL     1      -5.110   1.162  15.912  1.00  0.00     0.060 C 
HETATM   19  C27 UNL     1      -5.874   2.242  15.190  1.00  0.00     0.071 C 
HETATM   20  C26 UNL     1      -5.219   2.729  13.940  1.00  0.00     0.143 C 
BRANCH  18  21
HETATM   21  C2  UNL     1      -5.952   0.777  17.140  1.00  0.00     0.033 C 
HETATM   22  C1  UNL     1      -7.411   1.092  16.924  1.00  0.00     0.008 C 
ENDBRANCH  18  21
BRANCH  18  23
HETATM   23  O1  UNL     1      -5.012   0.003  15.141  1.00  0.00    -0.390 OA
ATOM     24  H1  UNL     1      -5.903  -0.221  14.896  1.00  0.00     0.210 HD
ENDBRANCH  18  23
BRANCH  20  25
HETATM   25  O3  UNL     1      -5.424   4.132  13.893  1.00  0.00    -0.393 OA
ATOM     26  H3  UNL     1      -4.850   4.432  13.198  1.00  0.00     0.210 HD
ENDBRANCH  20  25
ENDBRANCH  13  15
ENDBRANCH   1  13
BRANCH  12  27
HETATM   27  C23 UNL     1      -1.989   2.573  10.673  1.00  0.00     0.092 A 
HETATM   28  C24 UNL     1      -3.166   1.723  10.607  1.00  0.00     0.028 A 
HETATM   29  C25 UNL     1      -1.704   1.171  10.748  1.00  0.00     0.028 A 
ENDBRANCH  12  27
BRANCH   6  30
HETATM   30  N3  UNL     1       0.733   7.891  11.878  1.00  0.00    -0.376 N 
HETATM   31  C11 UNL     1       0.014   9.158  11.952  1.00  0.00     0.125 C 
HETATM   32  C12 UNL     1       0.531   9.267  13.386  1.00  0.00     0.040 C 
HETATM   33  C13 UNL     1       1.662   8.413  12.845  1.00  0.00     0.125 C 
ENDBRANCH   6  30
BRANCH   9  34
HETATM   34  O2  UNL     1       1.541   4.975   8.081  1.00  0.00    -0.343 OA
BRANCH  34  35
HETATM   35  C16 UNL     1       2.204   3.830   7.680  1.00  0.00     0.132 C 
HETATM   36  C17 UNL     1       3.700   4.105   7.980  1.00  0.00     0.060 C 
HETATM   37  C18 UNL     1       4.608   3.112   7.340  1.00  0.00     0.235 C 
HETATM   38  N4  UNL     1       4.362   2.877   5.949  1.00  0.00    -0.075 N 
HETATM   39  C19 UNL     1       2.978   2.626   5.630  1.00  0.00     0.235 C 
ATOM     40  H42 UNL     1       4.725   3.646   5.386  1.00  0.00     0.277 HD
ATOM     41  H41 UNL     1       4.952   2.118   5.605  1.00  0.00     0.277 HD
HETATM   42  C20 UNL     1       2.089   3.727   6.169  1.00  0.00     0.060 C 
ENDBRANCH  34  35
ENDBRANCH   9  34
TORSDOF 9
ENDMDL
MODEL 3
REMARK VINA RESULT: -8.254919031      2.649      8.755
REMARK  9 active torsions:
REMARK  status: ('A' for Active; 'I' for Inactive)
REMARK    1  A    between atoms: C2_2  and  C3_3 
REMARK    2  A    between atoms: C3_3  and  O1_4 
REMARK    3  A    between atoms: C6_8  and  N1_9 
REMARK    4  A    between atoms: N1_9  and  C7_11 
REMARK    5  A    between atoms: C10_16  and  N3_17 
REMARK    6  A    between atoms: C15_23  and  O2_24 
REMARK    7  A    between atoms: O2_24  and  C16_25 
REMARK    8  A    between atoms: N5_35  and  C23_36 
REMARK    9  A    between atoms: C26_39  and  O3_40 
ROOT
HETATM    1  C7  UNL     1      -0.276   5.683  10.831  1.00  0.00     0.120 A 
HETATM    2  C8  UNL     1       0.064   6.936  11.302  1.00  0.00     0.137 A 
HETATM    3  N2  UNL     1      -0.582   7.456  12.334  1.00  0.00    -0.359 N 
ATOM      4  H2  UNL     1      -0.328   8.382  12.680  1.00  0.00     0.165 HD
HETATM    5  C9  UNL     1      -1.574   6.765  12.926  1.00  0.00     0.089 A 
HETATM    6  C10 UNL     1      -2.250   7.320  14.000  1.00  0.00     0.101 A 
HETATM    7  C14 UNL     1      -3.269   6.627  14.612  1.00  0.00     0.178 A 
HETATM    8  F1  UNL     1      -3.931   7.174  15.661  1.00  0.00    -0.201 F 
HETATM    9  C15 UNL     1      -3.646   5.382  14.180  1.00  0.00     0.112 A 
HETATM   10  C21 UNL     1      -2.936   4.855  13.093  1.00  0.00     0.072 A 
HETATM   11  C22 UNL     1      -1.906   5.506  12.445  1.00  0.00     0.068 A 
HETATM   12  N5  UNL     1      -1.293   4.906  11.399  1.00  0.00    -0.325 N 
ENDROOT
BRANCH   1  13
HETATM   13  N1  UNL     1       0.345   5.228   9.858  1.00  0.00    -0.368 N 
ATOM     14  H1  UNL     1      -0.402   4.812   9.301  1.00  0.00     0.161 HD
BRANCH  13  15
HETATM   15  C6  UNL     1       1.424   4.968   9.119  1.00  0.00     0.112 C 
HETATM   16  C5  UNL     1       2.247   3.720   9.483  1.00  0.00     0.030 C 
HETATM   17  C4  UNL     1       3.581   3.829   8.774  1.00  0.00     0.040 C 
HETATM   18  C3  UNL     1       3.481   4.293   7.358  1.00  0.00     0.060 C 
HETATM   19  C27 UNL     1       2.081   4.024   6.867  1.00  0.00     0.071 C 
HETATM   20  C26 UNL     1       1.010   4.703   7.656  1.00  0.00     0.143 C 
BRANCH  18  21
HETATM   21  C2  UNL     1       4.429   3.541   6.410  1.00  0.00     0.033 C 
HETATM   22  C1  UNL     1       5.095   2.382   7.107  1.00  0.00     0.008 C 
ENDBRANCH  18  21
BRANCH  18  23
HETATM   23  O1  UNL     1       3.814   5.643   7.238  1.00  0.00    -0.390 OA
ATOM     24  H1  UNL     1       4.239   5.729   6.392  1.00  0.00     0.210 HD
ENDBRANCH  18  23
BRANCH  20  25
HETATM   25  O3  UNL     1      -0.067   3.785   7.753  1.00  0.00    -0.393 OA
ATOM     26  H3  UNL     1      -0.259   3.550   6.853  1.00  0.00     0.210 HD
ENDBRANCH  20  25
ENDBRANCH  13  15
ENDBRANCH   1  13
BRANCH  12  27
HETATM   27  C23 UNL     1      -1.594   3.639  10.908  1.00  0.00     0.092 A 
HETATM   28  C24 UNL     1      -2.624   2.650  11.180  1.00  0.00     0.028 A 
HETATM   29  C25 UNL     1      -1.104   2.298  11.011  1.00  0.00     0.028 A 
ENDBRANCH  12  27
BRANCH   6  30
HETATM   30  N3  UNL     1      -1.835   8.610  14.427  1.00  0.00    -0.376 N 
HETATM   31  C11 UNL     1      -0.981   9.040  15.528  1.00  0.00     0.125 C 
HETATM   32  C12 UNL     1      -0.626  10.250  14.663  1.00  0.00     0.040 C 
HETATM   33  C13 UNL     1      -2.000   9.994  14.072  1.00  0.00     0.125 C 
ENDBRANCH   6  30
BRANCH   9  34
HETATM   34  O2  UNL     1      -4.638   4.658  14.735  1.00  0.00    -0.343 OA
BRANCH  34  35
HETATM   35  C16 UNL     1      -4.867   3.295  14.792  1.00  0.00     0.132 C 
HETATM   36  C17 UNL     1      -6.096   3.131  15.722  1.00  0.00     0.060 C 
HETATM   37  C18 UNL     1      -6.311   1.720  16.149  1.00  0.00     0.235 C 
HETATM   38  N4  UNL     1      -5.147   1.057  16.656  1.00  0.00    -0.075 N 
HETATM   39  C19 UNL     1      -3.980   1.196  15.820  1.00  0.00     0.235 C 
ATOM     40  H42 UNL     1      -4.945   1.367  17.606  1.00  0.00     0.277 HD
ATOM     41  H41 UNL     1      -5.345   0.073  16.834  1.00  0.00     0.277 HD
HETATM   42  C20 UNL     1      -3.698   2.653  15.519  1.00  0.00     0.060 C 
ENDBRANCH  34  35
ENDBRANCH   9  34
TORSDOF 9
ENDMDL
MODEL 4
REMARK VINA RESULT: -8.232617572      3.045      3.791
REMARK  9 active torsions:
REMARK  status: ('A' for Active; 'I' for Inactive)
REMARK    1  A    between atoms: C2_2  and  C3_3 
REMARK    2  A    between atoms: C3_3  and  O1_4 
REMARK    3  A    between atoms: C6_8  and  N1_9 
REMARK    4  A    between atoms: N1_9  and  C7_11 
REMARK    5  A    between atoms: C10_16  and  N3_17 
REMARK    6  A    between atoms: C15_23  and  O2_24 
REMARK    7  A    between atoms: O2_24  and  C16_25 
REMARK    8  A    between atoms: N5_35  and  C23_36 
REMARK    9  A    between atoms: C26_39  and  O3_40 
ROOT
HETATM    1  C7  UNL     1      -3.634   4.439  11.478  1.00  0.00     0.120 A 
HETATM    2  C8  UNL     1      -4.565   5.283  10.904  1.00  0.00     0.137 A 
HETATM    3  N2  UNL     1      -4.399   5.711   9.663  1.00  0.00    -0.359 N 
ATOM      4  H2  UNL     1      -5.089   6.333   9.242  1.00  0.00     0.165 HD
HETATM    5  C9  UNL     1      -3.321   5.324   8.955  1.00  0.00     0.089 A 
HETATM    6  C10 UNL     1      -3.152   5.782   7.659  1.00  0.00     0.101 A 
HETATM    7  C14 UNL     1      -2.052   5.399   6.926  1.00  0.00     0.178 A 
HETATM    8  F1  UNL     1      -1.886   5.851   5.659  1.00  0.00    -0.201 F 
HETATM    9  C15 UNL     1      -1.099   4.566   7.451  1.00  0.00     0.112 A 
HETATM   10  C21 UNL     1      -1.308   4.123   8.764  1.00  0.00     0.072 A 
HETATM   11  C22 UNL     1      -2.393   4.474   9.541  1.00  0.00     0.068 A 
HETATM   12  N5  UNL     1      -2.492   3.993  10.802  1.00  0.00    -0.325 N 
ENDROOT
BRANCH   1  13
HETATM   13  N1  UNL     1      -3.817   4.063  12.646  1.00  0.00    -0.368 N 
ATOM     14  H1  UNL     1      -3.635   4.914  13.177  1.00  0.00     0.161 HD
BRANCH  13  15
HETATM   15  C6  UNL     1      -4.113   3.189  13.609  1.00  0.00     0.112 C 
HETATM   16  C5  UNL     1      -3.443   3.392  14.979  1.00  0.00     0.030 C 
HETATM   17  C4  UNL     1      -3.631   2.117  15.774  1.00  0.00     0.040 C 
HETATM   18  C3  UNL     1      -5.001   1.533  15.671  1.00  0.00     0.060 C 
HETATM   19  C27 UNL     1      -5.952   2.622  15.249  1.00  0.00     0.071 C 
HETATM   20  C26 UNL     1      -5.619   3.258  13.939  1.00  0.00     0.143 C 
BRANCH  18  21
HETATM   21  C2  UNL     1      -5.525   0.989  17.010  1.00  0.00     0.033 C 
HETATM   22  C1  UNL     1      -7.031   1.050  17.073  1.00  0.00     0.008 C 
ENDBRANCH  18  21
BRANCH  18  23
HETATM   23  O1  UNL     1      -5.032   0.454  14.785  1.00  0.00    -0.390 OA
ATOM     24  H1  UNL     1      -5.432  -0.262  15.265  1.00  0.00     0.210 HD
ENDBRANCH  18  23
BRANCH  20  25
HETATM   25  O3  UNL     1      -5.888   4.644  14.079  1.00  0.00    -0.393 OA
ATOM     26  H3  UNL     1      -5.945   4.779  15.018  1.00  0.00     0.210 HD
ENDBRANCH  20  25
ENDBRANCH  13  15
ENDBRANCH   1  13
BRANCH  12  27
HETATM   27  C23 UNL     1      -1.586   3.127  11.406  1.00  0.00     0.092 A 
HETATM   28  C24 UNL     1      -0.136   3.035  11.467  1.00  0.00     0.028 A 
HETATM   29  C25 UNL     1      -1.076   1.802  11.226  1.00  0.00     0.028 A 
ENDBRANCH  12  27
BRANCH   6  30
HETATM   30  N3  UNL     1      -4.157   6.642   7.141  1.00  0.00    -0.376 N 
HETATM   31  C11 UNL     1      -4.216   8.092   7.001  1.00  0.00     0.125 C 
HETATM   32  C12 UNL     1      -5.138   7.850   5.806  1.00  0.00     0.040 C 
HETATM   33  C13 UNL     1      -5.470   6.576   6.559  1.00  0.00     0.125 C 
ENDBRANCH   6  30
BRANCH   9  34
HETATM   34  O2  UNL     1       0.001   4.160   6.785  1.00  0.00    -0.343 OA
BRANCH  34  35
HETATM   35  C16 UNL     1       1.316   4.003   7.182  1.00  0.00     0.132 C 
HETATM   36  C17 UNL     1       1.820   5.437   7.488  1.00  0.00     0.060 C 
HETATM   37  C18 UNL     1       3.300   5.508   7.639  1.00  0.00     0.235 C 
HETATM   38  N4  UNL     1       4.046   4.876   6.592  1.00  0.00    -0.075 N 
HETATM   39  C19 UNL     1       3.600   3.542   6.273  1.00  0.00     0.235 C 
ATOM     40  H42 UNL     1       4.053   5.460   5.756  1.00  0.00     0.277 HD
ATOM     41  H41 UNL     1       5.042   4.877   6.811  1.00  0.00     0.277 HD
HETATM   42  C20 UNL     1       2.114   3.522   5.981  1.00  0.00     0.060 C 
ENDBRANCH  34  35
ENDBRANCH   9  34
TORSDOF 9
ENDMDL
MODEL 5
REMARK VINA RESULT: -8.224034817      1.271      1.708
REMARK  9 active torsions:
REMARK  status: ('A' for Active; 'I' for Inactive)
REMARK    1  A    between atoms: C2_2  and  C3_3 
REMARK    2  A    between atoms: C3_3  and  O1_4 
REMARK    3  A    between atoms: C6_8  and  N1_9 
REMARK    4  A    between atoms: N1_9  and  C7_11 
REMARK    5  A    between atoms: C10_16  and  N3_17 
REMARK    6  A    between atoms: C15_23  and  O2_24 
REMARK    7  A    between atoms: O2_24  and  C16_25 
REMARK    8  A    between atoms: N5_35  and  C23_36 
REMARK    9  A    between atoms: C26_39  and  O3_40 
ROOT
HETATM    1  C7  UNL     1      -1.168   4.115  12.131  1.00  0.00     0.120 A 
HETATM    2  C8  UNL     1      -0.746   5.357  12.563  1.00  0.00     0.137 A 
HETATM    3  N2  UNL     1       0.263   5.964  11.959  1.00  0.00    -0.359 N 
ATOM      4  H2  UNL     1       0.572   6.882  12.280  1.00  0.00     0.165 HD
HETATM    5  C9  UNL     1       0.882   5.370  10.920  1.00  0.00     0.089 A 
HETATM    6  C10 UNL     1       1.942   6.009  10.298  1.00  0.00     0.101 A 
HETATM    7  C14 UNL     1       2.586   5.412   9.239  1.00  0.00     0.178 A 
HETATM    8  F1  UNL     1       3.625   6.038   8.633  1.00  0.00    -0.201 F 
HETATM    9  C15 UNL     1       2.207   4.180   8.775  1.00  0.00     0.112 A 
HETATM   10  C21 UNL     1       1.129   3.568   9.430  1.00  0.00     0.072 A 
HETATM   11  C22 UNL     1       0.448   4.123  10.494  1.00  0.00     0.068 A 
HETATM   12  N5  UNL     1      -0.576   3.440  11.057  1.00  0.00    -0.325 N 
ENDROOT
BRANCH   1  13
HETATM   13  N1  UNL     1      -2.112   3.572  12.725  1.00  0.00    -0.368 N 
ATOM     14  H1  UNL     1      -1.793   2.605  12.798  1.00  0.00     0.161 HD
BRANCH  13  15
HETATM   15  C6  UNL     1      -3.302   3.520  13.323  1.00  0.00     0.112 C 
HETATM   16  C5  UNL     1      -3.944   2.133  13.504  1.00  0.00     0.030 C 
HETATM   17  C4  UNL     1      -5.402   2.345  13.856  1.00  0.00     0.040 C 
HETATM   18  C3  UNL     1      -5.634   3.431  14.854  1.00  0.00     0.060 C 
HETATM   19  C27 UNL     1      -4.355   3.656  15.619  1.00  0.00     0.071 C 
HETATM   20  C26 UNL     1      -3.190   4.047  14.770  1.00  0.00     0.143 C 
BRANCH  18  21
HETATM   21  C2  UNL     1      -6.708   3.073  15.894  1.00  0.00     0.033 C 
HETATM   22  C1  UNL     1      -6.319   1.848  16.683  1.00  0.00     0.008 C 
ENDBRANCH  18  21
BRANCH  18  23
HETATM   23  O1  UNL     1      -6.076   4.604  14.240  1.00  0.00    -0.390 OA
ATOM     24  H1  UNL     1      -6.529   4.328  13.452  1.00  0.00     0.210 HD
ENDBRANCH  18  23
BRANCH  20  25
HETATM   25  O3  UNL     1      -2.057   3.380  15.302  1.00  0.00    -0.393 OA
ATOM     26  H3  UNL     1      -2.336   2.477  15.396  1.00  0.00     0.210 HD
ENDBRANCH  20  25
ENDBRANCH  13  15
ENDBRANCH   1  13
BRANCH  12  27
HETATM   27  C23 UNL     1      -1.041   2.198  10.638  1.00  0.00     0.092 A 
HETATM   28  C24 UNL     1      -2.325   1.675  10.199  1.00  0.00     0.028 A 
HETATM   29  C25 UNL     1      -1.379   0.927  11.204  1.00  0.00     0.028 A 
ENDBRANCH  12  27
BRANCH   6  30
HETATM   30  N3  UNL     1       2.310   7.286  10.799  1.00  0.00    -0.376 N 
HETATM   31  C11 UNL     1       2.240   8.618  10.208  1.00  0.00     0.125 C 
HETATM   32  C12 UNL     1       2.099   9.147  11.636  1.00  0.00     0.040 C 
HETATM   33  C13 UNL     1       2.871   7.887  11.979  1.00  0.00     0.125 C 
ENDBRANCH   6  30
BRANCH   9  34
HETATM   34  O2  UNL     1       2.802   3.543   7.746  1.00  0.00    -0.343 OA
BRANCH  34  35
HETATM   35  C16 UNL     1       2.863   3.828   6.394  1.00  0.00     0.132 C 
HETATM   36  C17 UNL     1       1.400   4.129   5.979  1.00  0.00     0.060 C 
HETATM   37  C18 UNL     1       1.215   4.162   4.501  1.00  0.00     0.235 C 
HETATM   38  N4  UNL     1       1.765   3.041   3.798  1.00  0.00    -0.075 N 
HETATM   39  C19 UNL     1       3.123   2.726   4.165  1.00  0.00     0.235 C 
ATOM     40  H42 UNL     1       1.166   2.223   3.905  1.00  0.00     0.277 HD
ATOM     41  H41 UNL     1       1.690   3.180   2.790  1.00  0.00     0.277 HD
HETATM   42  C20 UNL     1       3.255   2.554   5.664  1.00  0.00     0.060 C 
ENDBRANCH  34  35
ENDBRANCH   9  34
TORSDOF 9
ENDMDL
