MODEL 1
REMARK VINA RESULT: -8.314626913      0.000      0.000
REMARK  7 active torsions:
REMARK  status: ('A' for Active; 'I' for Inactive)
REMARK    1  A    between atoms: C4_5  and  N1_6 
REMARK    2  A    between atoms: N1_6  and  C6_8 
REMARK    3  A    between atoms: C6_8  and  O2_9 
REMARK    4  A    between atoms: C6_8  and  C7_11 
REMARK    5  A    between atoms: C7_11  and  C10_14 
REMARK    6  A    between atoms: N4_27  and  C18_28 
REMARK    7  A    between atoms: C18_28  and  C19_29 
ROOT
HETATM    1  C6  UNL     1      -3.640   4.964  12.309  1.00  0.00     0.230 C 
ENDROOT
BRANCH   1   2
HETATM    2  N1  UNL     1      -3.516   6.117  11.553  1.00  0.00    -0.361 N 
HETATM    3  C5  UNL     1      -2.316   6.528  10.960  1.00  0.00     0.148 C 
BRANCH   2   4
HETATM    4  C4  UNL     1      -4.635   6.891  11.183  1.00  0.00     0.260 C 
HETATM    5  O1  UNL     1      -4.416   8.164  10.708  1.00  0.00    -0.360 OA
HETATM    6  C3  UNL     1      -5.563   8.912  10.939  1.00  0.00     0.196 C 
HETATM    7  C2  UNL     1      -6.833   8.215  10.516  1.00  0.00     0.108 C 
HETATM    8  C1  UNL     1      -7.668   7.920  11.735  1.00  0.00     0.035 C 
HETATM    9  N4  UNL     1      -6.606   7.016   9.791  1.00  0.00    -0.359 N 
HETATM   10  C17 UNL     1      -5.527   6.195  10.167  1.00  0.00     0.117 C 
BRANCH   9  11
HETATM   11  C18 UNL     1      -6.830   7.025   8.400  1.00  0.00     0.105 C 
BRANCH  11  12
HETATM   12  C19 UNL     1      -7.712   8.042   7.841  1.00  0.00     0.015 A 
HETATM   13  C20 UNL     1      -9.045   8.262   8.009  1.00  0.00     0.032 A 
HETATM   14  C21 UNL     1      -9.416   9.325   7.207  1.00  0.00     0.090 A 
HETATM   15  N5  UNL     1      -8.313   9.731   6.569  1.00  0.00    -0.359 N 
HETATM   16  C22 UNL     1      -7.262   8.988   6.920  1.00  0.00     0.091 A 
ATOM     17  H5  UNL     1      -8.279  10.505   5.906  1.00  0.00     0.166 HD
HETATM   18 BR1  UNL     1      -5.450   9.167   6.298  1.00  0.00    -0.030 Br
ENDBRANCH  11  12
ENDBRANCH   9  11
ENDBRANCH   2   4
ENDBRANCH   1   2
BRANCH   1  19
HETATM   19  O2  UNL     1      -2.917   3.924  11.667  1.00  0.00    -0.376 OA
ATOM     20  H2  UNL     1      -3.166   3.095  12.060  1.00  0.00     0.212 HD
ENDBRANCH   1  19
BRANCH   1  21
HETATM   21  C7  UNL     1      -3.192   5.076  13.732  1.00  0.00     0.025 C 
HETATM   22  C8  UNL     1      -3.732   6.358  14.342  1.00  0.00     0.025 C 
HETATM   23  C9  UNL     1      -1.689   4.958  13.883  1.00  0.00     0.025 C 
BRANCH  21  24
HETATM   24  C10 UNL     1      -3.760   3.987  14.606  1.00  0.00    -0.028 A 
HETATM   25  C11 UNL     1      -2.836   3.103  15.117  1.00  0.00     0.098 A 
HETATM   26  N2  UNL     1      -3.188   2.065  15.918  1.00  0.00    -0.344 N 
HETATM   27  C12 UNL     1      -4.475   1.886  16.226  1.00  0.00     0.169 A 
ATOM     28  H2  UNL     1      -2.477   1.429  16.280  1.00  0.00     0.167 HD
HETATM   29  C13 UNL     1      -5.429   2.749  15.734  1.00  0.00     0.080 A 
HETATM   30  O3  UNL     1      -4.814   0.808  17.053  1.00  0.00    -0.332 OA
HETATM   31  C14 UNL     1      -5.063   3.820  14.909  1.00  0.00     0.043 A 
HETATM   32  N3  UNL     1      -6.777   2.507  16.101  1.00  0.00    -0.384 N 
HETATM   33  C15 UNL     1      -7.119   1.227  16.700  1.00  0.00     0.146 C 
ATOM     34  H3  UNL     1      -7.492   3.218  15.949  1.00  0.00     0.159 HD
HETATM   35  C16 UNL     1      -6.067   0.926  17.750  1.00  0.00     0.197 C 
ENDBRANCH  21  24
ENDBRANCH   1  21
TORSDOF 7
ENDMDL
MODEL 2
REMARK VINA RESULT: -8.297788006      4.438      5.540
REMARK  7 active torsions:
REMARK  status: ('A' for Active; 'I' for Inactive)
REMARK    1  A    between atoms: C4_5  and  N1_6 
REMARK    2  A    between atoms: N1_6  and  C6_8 
REMARK    3  A    between atoms: C6_8  and  O2_9 
REMARK    4  A    between atoms: C6_8  and  C7_11 
REMARK    5  A    between atoms: C7_11  and  C10_14 
REMARK    6  A    between atoms: N4_27  and  C18_28 
REMARK    7  A    between atoms: C18_28  and  C19_29 
ROOT
HETATM    1  C6  UNL     1      -3.997   2.898  11.201  1.00  0.00     0.230 C 
ENDROOT
BRANCH   1   2
HETATM    2  N1  UNL     1      -2.807   3.602  11.277  1.00  0.00    -0.361 N 
HETATM    3  C5  UNL     1      -1.862   3.637  10.244  1.00  0.00     0.148 C 
BRANCH   2   4
HETATM    4  C4  UNL     1      -2.525   4.477  12.345  1.00  0.00     0.260 C 
HETATM    5  O1  UNL     1      -1.509   4.139  13.211  1.00  0.00    -0.360 OA
HETATM    6  C3  UNL     1      -1.754   4.764  14.427  1.00  0.00     0.196 C 
HETATM    7  C2  UNL     1      -2.104   6.226  14.294  1.00  0.00     0.108 C 
HETATM    8  C1  UNL     1      -3.529   6.438  14.734  1.00  0.00     0.035 C 
HETATM    9  N4  UNL     1      -1.931   6.731  12.978  1.00  0.00    -0.359 N 
HETATM   10  C17 UNL     1      -2.251   5.902  11.889  1.00  0.00     0.117 C 
BRANCH   9  11
HETATM   11  C18 UNL     1      -0.824   7.566  12.726  1.00  0.00     0.105 C 
BRANCH  11  12
HETATM   12  C19 UNL     1      -0.802   8.896  13.321  1.00  0.00     0.015 A 
HETATM   13  C20 UNL     1      -0.104   9.392  14.380  1.00  0.00     0.032 A 
HETATM   14  C21 UNL     1      -0.487  10.706  14.577  1.00  0.00     0.090 A 
HETATM   15  N5  UNL     1      -1.404  10.985  13.646  1.00  0.00    -0.359 N 
HETATM   16  C22 UNL     1      -1.626   9.926  12.866  1.00  0.00     0.091 A 
ATOM     17  H5  UNL     1      -1.870  11.887  13.544  1.00  0.00     0.166 HD
HETATM   18 BR1  UNL     1      -2.841   9.809  11.379  1.00  0.00    -0.030 Br
ENDBRANCH  11  12
ENDBRANCH   9  11
ENDBRANCH   2   4
ENDBRANCH   1   2
BRANCH   1  19
HETATM   19  O2  UNL     1      -4.439   2.903   9.851  1.00  0.00    -0.376 OA
ATOM     20  H2  UNL     1      -4.326   2.030   9.493  1.00  0.00     0.212 HD
ENDBRANCH   1  19
BRANCH   1  21
HETATM   21  C7  UNL     1      -3.943   1.488  11.701  1.00  0.00     0.025 C 
HETATM   22  C8  UNL     1      -2.504   1.002  11.714  1.00  0.00     0.025 C 
HETATM   23  C9  UNL     1      -4.856   0.558  10.929  1.00  0.00     0.025 C 
BRANCH  21  24
HETATM   24  C10 UNL     1      -4.384   1.367  13.137  1.00  0.00    -0.028 A 
HETATM   25  C11 UNL     1      -4.015   0.198  13.767  1.00  0.00     0.098 A 
HETATM   26  N2  UNL     1      -4.338  -0.065  15.059  1.00  0.00    -0.344 N 
HETATM   27  C12 UNL     1      -5.041   0.835  15.752  1.00  0.00     0.169 A 
ATOM     28  H2  UNL     1      -4.048  -0.940  15.495  1.00  0.00     0.167 HD
HETATM   29  C13 UNL     1      -5.429   2.016  15.156  1.00  0.00     0.080 A 
HETATM   30  O3  UNL     1      -5.364   0.541  17.082  1.00  0.00    -0.332 OA
HETATM   31  C14 UNL     1      -5.093   2.285  13.824  1.00  0.00     0.043 A 
HETATM   32  N3  UNL     1      -6.169   2.930  15.947  1.00  0.00    -0.384 N 
HETATM   33  C15 UNL     1      -6.736   2.469  17.205  1.00  0.00     0.146 C 
ATOM     34  H3  UNL     1      -6.301   3.894  15.640  1.00  0.00     0.159 HD
HETATM   35  C16 UNL     1      -5.660   1.675  17.918  1.00  0.00     0.197 C 
ENDBRANCH  21  24
ENDBRANCH   1  21
TORSDOF 7
ENDMDL
MODEL 3
REMARK VINA RESULT: -8.252990330      4.047      5.619
REMARK  7 active torsions:
REMARK  status: ('A' for Active; 'I' for Inactive)
REMARK    1  A    between atoms: C4_5  and  N1_6 
REMARK    2  A    between atoms: N1_6  and  C6_8 
REMARK    3  A    between atoms: C6_8  and  O2_9 
REMARK    4  A    between atoms: C6_8  and  C7_11 
REMARK    5  A    between atoms: C7_11  and  C10_14 
REMARK    6  A    between atoms: N4_27  and  C18_28 
REMARK    7  A    between atoms: C18_28  and  C19_29 
ROOT
HETATM    1  C6  UNL     1      -3.778   5.192  12.548  1.00  0.00     0.230 C 
ENDROOT
BRANCH   1   2
HETATM    2  N1  UNL     1      -3.414   4.056  11.845  1.00  0.00    -0.361 N 
HETATM    3  C5  UNL     1      -4.326   3.075  11.436  1.00  0.00     0.148 C 
BRANCH   2   4
HETATM    4  C4  UNL     1      -2.111   3.876  11.339  1.00  0.00     0.260 C 
HETATM    5  O1  UNL     1      -1.538   2.630  11.451  1.00  0.00    -0.360 OA
HETATM    6  C3  UNL     1      -0.157   2.789  11.437  1.00  0.00     0.196 C 
HETATM    7  C2  UNL     1       0.335   3.691  10.332  1.00  0.00     0.108 C 
HETATM    8  C1  UNL     1       0.935   4.934  10.935  1.00  0.00     0.035 C 
HETATM    9  N4  UNL     1      -0.677   4.051   9.403  1.00  0.00    -0.359 N 
HETATM   10  C17 UNL     1      -1.978   4.287   9.881  1.00  0.00     0.117 C 
BRANCH   9  11
HETATM   11  C18 UNL     1      -0.661   3.445   8.131  1.00  0.00     0.105 C 
BRANCH  11  12
HETATM   12  C19 UNL     1       0.216   3.996   7.106  1.00  0.00     0.015 A 
HETATM   13  C20 UNL     1       1.528   3.761   6.828  1.00  0.00     0.032 A 
HETATM   14  C21 UNL     1       1.907   4.587   5.786  1.00  0.00     0.090 A 
HETATM   15  N5  UNL     1       0.830   5.304   5.450  1.00  0.00    -0.359 N 
HETATM   16  C22 UNL     1      -0.212   4.983   6.218  1.00  0.00     0.091 A 
ATOM     17  H5  UNL     1       0.809   6.003   4.707  1.00  0.00     0.166 HD
HETATM   18 BR1  UNL     1      -1.989   5.717   6.135  1.00  0.00    -0.030 Br
ENDBRANCH  11  12
ENDBRANCH   9  11
ENDBRANCH   2   4
ENDBRANCH   1   2
BRANCH   1  19
HETATM   19  O2  UNL     1      -5.186   5.351  12.454  1.00  0.00    -0.376 OA
ATOM     20  H2  UNL     1      -5.385   6.280  12.439  1.00  0.00     0.212 HD
ENDBRANCH   1  19
BRANCH   1  21
HETATM   21  C7  UNL     1      -3.370   5.215  13.988  1.00  0.00     0.025 C 
HETATM   22  C8  UNL     1      -4.006   6.407  14.683  1.00  0.00     0.025 C 
HETATM   23  C9  UNL     1      -1.867   5.179  14.170  1.00  0.00     0.025 C 
BRANCH  21  24
HETATM   24  C10 UNL     1      -3.887   4.025  14.755  1.00  0.00    -0.028 A 
HETATM   25  C11 UNL     1      -2.947   3.059  15.040  1.00  0.00     0.098 A 
HETATM   26  N2  UNL     1      -3.255   1.925  15.720  1.00  0.00    -0.344 N 
HETATM   27  C12 UNL     1      -4.511   1.730  16.131  1.00  0.00     0.169 A 
ATOM     28  H2  UNL     1      -2.534   1.229  15.915  1.00  0.00     0.167 HD
HETATM   29  C13 UNL     1      -5.478   2.674  15.864  1.00  0.00     0.080 A 
HETATM   30  O3  UNL     1      -4.804   0.553  16.830  1.00  0.00    -0.332 OA
HETATM   31  C14 UNL     1      -5.159   3.843  15.164  1.00  0.00     0.043 A 
HETATM   32  N3  UNL     1      -6.790   2.409  16.331  1.00  0.00    -0.384 N 
HETATM   33  C15 UNL     1      -7.116   1.064  16.777  1.00  0.00     0.146 C 
ATOM     34  H3  UNL     1      -7.493   3.148  16.354  1.00  0.00     0.159 HD
HETATM   35  C16 UNL     1      -5.977   0.595  17.661  1.00  0.00     0.197 C 
ENDBRANCH  21  24
ENDBRANCH   1  21
TORSDOF 7
ENDMDL
MODEL 4
REMARK VINA RESULT: -8.211097827      4.515      5.779
REMARK  7 active torsions:
REMARK  status: ('A' for Active; 'I' for Inactive)
REMARK    1  A    between atoms: C4_5  and  N1_6 
REMARK    2  A    between atoms: N1_6  and  C6_8 
REMARK    3  A    between atoms: C6_8  and  O2_9 
REMARK    4  A    between atoms: C6_8  and  C7_11 
REMARK    5  A    between atoms: C7_11  and  C10_14 
REMARK    6  A    between atoms: N4_27  and  C18_28 
REMARK    7  A    between atoms: C18_28  and  C19_29 
ROOT
HETATM    1  C6  UNL     1      -4.001   2.848  11.211  1.00  0.00     0.230 C 
ENDROOT
BRANCH   1   2
HETATM    2  N1  UNL     1      -2.803   3.542  11.214  1.00  0.00    -0.361 N 
HETATM    3  C5  UNL     1      -1.912   3.551  10.134  1.00  0.00     0.148 C 
BRANCH   2   4
HETATM    4  C4  UNL     1      -2.460   4.434  12.250  1.00  0.00     0.260 C 
HETATM    5  O1  UNL     1      -1.516   4.030  13.168  1.00  0.00    -0.360 OA
HETATM    6  C3  UNL     1      -1.729   4.739  14.344  1.00  0.00     0.196 C 
HETATM    7  C2  UNL     1      -1.909   6.221  14.130  1.00  0.00     0.108 C 
HETATM    8  C1  UNL     1      -3.315   6.611  14.506  1.00  0.00     0.035 C 
HETATM    9  N4  UNL     1      -1.639   6.638  12.800  1.00  0.00    -0.359 N 
HETATM   10  C17 UNL     1      -2.015   5.795  11.739  1.00  0.00     0.117 C 
BRANCH   9  11
HETATM   11  C18 UNL     1      -0.438   7.333  12.550  1.00  0.00     0.105 C 
BRANCH  11  12
HETATM   12  C19 UNL     1       0.524   6.753  11.622  1.00  0.00     0.015 A 
HETATM   13  C20 UNL     1       1.373   5.697  11.756  1.00  0.00     0.032 A 
HETATM   14  C21 UNL     1       2.123   5.592  10.600  1.00  0.00     0.090 A 
HETATM   15  N5  UNL     1       1.724   6.577   9.789  1.00  0.00    -0.359 N 
HETATM   16  C22 UNL     1       0.763   7.303  10.362  1.00  0.00     0.091 A 
ATOM     17  H5  UNL     1       2.103   6.751   8.858  1.00  0.00     0.166 HD
HETATM   18 BR1  UNL     1      -0.151   8.822   9.616  1.00  0.00    -0.030 Br
ENDBRANCH  11  12
ENDBRANCH   9  11
ENDBRANCH   2   4
ENDBRANCH   1   2
BRANCH   1  19
HETATM   19  O2  UNL     1      -4.516   2.839   9.888  1.00  0.00    -0.376 OA
ATOM     20  H2  UNL     1      -5.388   2.462   9.905  1.00  0.00     0.212 HD
ENDBRANCH   1  19
BRANCH   1  21
HETATM   21  C7  UNL     1      -3.932   1.445  11.728  1.00  0.00     0.025 C 
HETATM   22  C8  UNL     1      -2.487   0.977  11.754  1.00  0.00     0.025 C 
HETATM   23  C9  UNL     1      -4.829   0.495  10.961  1.00  0.00     0.025 C 
BRANCH  21  24
HETATM   24  C10 UNL     1      -4.379   1.333  13.163  1.00  0.00    -0.028 A 
HETATM   25  C11 UNL     1      -4.025   0.163  13.798  1.00  0.00     0.098 A 
HETATM   26  N2  UNL     1      -4.356  -0.092  15.089  1.00  0.00    -0.344 N 
HETATM   27  C12 UNL     1      -5.051   0.819  15.777  1.00  0.00     0.169 A 
ATOM     28  H2  UNL     1      -4.077  -0.969  15.530  1.00  0.00     0.167 HD
HETATM   29  C13 UNL     1      -5.423   2.001  15.176  1.00  0.00     0.080 A 
HETATM   30  O3  UNL     1      -5.381   0.533  17.107  1.00  0.00    -0.332 OA
HETATM   31  C14 UNL     1      -5.080   2.262  13.844  1.00  0.00     0.043 A 
HETATM   32  N3  UNL     1      -6.155   2.927  15.962  1.00  0.00    -0.384 N 
HETATM   33  C15 UNL     1      -6.731   2.476  17.219  1.00  0.00     0.146 C 
ATOM     34  H3  UNL     1      -6.275   3.891  15.651  1.00  0.00     0.159 HD
HETATM   35  C16 UNL     1      -5.666   1.672  17.939  1.00  0.00     0.197 C 
ENDBRANCH  21  24
ENDBRANCH   1  21
TORSDOF 7
ENDMDL
MODEL 5
REMARK VINA RESULT: -8.163959657      4.308      6.327
REMARK  7 active torsions:
REMARK  status: ('A' for Active; 'I' for Inactive)
REMARK    1  A    between atoms: C4_5  and  N1_6 
REMARK    2  A    between atoms: N1_6  and  C6_8 
REMARK    3  A    between atoms: C6_8  and  O2_9 
REMARK    4  A    between atoms: C6_8  and  C7_11 
REMARK    5  A    between atoms: C7_11  and  C10_14 
REMARK    6  A    between atoms: N4_27  and  C18_28 
REMARK    7  A    between atoms: C18_28  and  C19_29 
ROOT
HETATM    1  C6  UNL     1      -3.674   4.992  12.487  1.00  0.00     0.230 C 
ENDROOT
BRANCH   1   2
HETATM    2  N1  UNL     1      -2.984   4.078  11.708  1.00  0.00    -0.361 N 
HETATM    3  C5  UNL     1      -3.234   2.700  11.728  1.00  0.00     0.148 C 
BRANCH   2   4
HETATM    4  C4  UNL     1      -2.080   4.485  10.706  1.00  0.00     0.260 C 
HETATM    5  O1  UNL     1      -1.668   5.799  10.697  1.00  0.00    -0.360 OA
HETATM    6  C3  UNL     1      -1.283   6.119   9.402  1.00  0.00     0.196 C 
HETATM    7  C2  UNL     1      -0.371   5.095   8.773  1.00  0.00     0.108 C 
HETATM    8  C1  UNL     1      -1.079   4.443   7.614  1.00  0.00     0.035 C 
HETATM    9  N4  UNL     1       0.074   4.099   9.682  1.00  0.00    -0.359 N 
HETATM   10  C17 UNL     1      -0.820   3.634  10.663  1.00  0.00     0.117 C 
BRANCH   9  11
HETATM   11  C18 UNL     1       1.406   4.160  10.137  1.00  0.00     0.105 C 
BRANCH  11  12
HETATM   12  C19 UNL     1       2.466   4.399   9.167  1.00  0.00     0.015 A 
HETATM   13  C20 UNL     1       3.112   3.553   8.318  1.00  0.00     0.032 A 
HETATM   14  C21 UNL     1       4.084   4.268   7.644  1.00  0.00     0.090 A 
HETATM   15  N5  UNL     1       4.015   5.527   8.089  1.00  0.00    -0.359 N 
HETATM   16  C22 UNL     1       3.056   5.654   9.007  1.00  0.00     0.091 A 
ATOM     17  H5  UNL     1       4.615   6.287   7.769  1.00  0.00     0.166 HD
HETATM   18 BR1  UNL     1       2.548   7.254   9.946  1.00  0.00    -0.030 Br
ENDBRANCH  11  12
ENDBRANCH   9  11
ENDBRANCH   2   4
ENDBRANCH   1   2
BRANCH   1  19
HETATM   19  O2  UNL     1      -5.061   4.700  12.402  1.00  0.00    -0.376 OA
ATOM     20  H2  UNL     1      -5.449   5.265  11.744  1.00  0.00     0.212 HD
ENDBRANCH   1  19
BRANCH   1  21
HETATM   21  C7  UNL     1      -3.265   5.049  13.925  1.00  0.00     0.025 C 
HETATM   22  C8  UNL     1      -3.845   6.293  14.576  1.00  0.00     0.025 C 
HETATM   23  C9  UNL     1      -1.765   4.950  14.111  1.00  0.00     0.025 C 
BRANCH  21  24
HETATM   24  C10 UNL     1      -3.836   3.913  14.735  1.00  0.00    -0.028 A 
HETATM   25  C11 UNL     1      -2.928   2.945  15.107  1.00  0.00     0.098 A 
HETATM   26  N2  UNL     1      -3.285   1.856  15.835  1.00  0.00    -0.344 N 
HETATM   27  C12 UNL     1      -4.560   1.708  16.208  1.00  0.00     0.169 A 
ATOM     28  H2  UNL     1      -2.588   1.158  16.094  1.00  0.00     0.167 HD
HETATM   29  C13 UNL     1      -5.496   2.655  15.855  1.00  0.00     0.080 A 
HETATM   30  O3  UNL     1      -4.903   0.577  16.957  1.00  0.00    -0.332 OA
HETATM   31  C14 UNL     1      -5.125   3.779  15.105  1.00  0.00     0.043 A 
HETATM   32  N3  UNL     1      -6.829   2.443  16.285  1.00  0.00    -0.384 N 
HETATM   33  C15 UNL     1      -7.200   1.130  16.790  1.00  0.00     0.146 C 
ATOM     34  H3  UNL     1      -7.516   3.196  16.241  1.00  0.00     0.159 HD
HETATM   35  C16 UNL     1      -6.105   0.688  17.740  1.00  0.00     0.197 C 
ENDBRANCH  21  24
ENDBRANCH   1  21
TORSDOF 7
ENDMDL
