MODEL 1
REMARK VINA RESULT: -8.355112570      0.000      0.000
REMARK  12 active torsions:
REMARK  status: ('A' for Active; 'I' for Inactive)
REMARK    1  A    between atoms: C5_6  and  N2_7 
REMARK    2  A    between atoms: N2_7  and  C6_9 
REMARK    3  A    between atoms: C6_9  and  C7_10 
REMARK    4  A    between atoms: C7_10  and  N3_11 
REMARK    5  A    between atoms: N3_11  and  C8_13 
REMARK    6  A    between atoms: C8_13  and  C9_14 
REMARK    7  A    between atoms: C9_14  and  N4_15 
REMARK    8  A    between atoms: N4_15  and  C10_17 
REMARK    9  A    between atoms: C13_20  and  N5_21 
REMARK   10  A    between atoms: N5_21  and  C14_23 
REMARK   11  A    between atoms: C14_23  and  C15_24 
REMARK   12  A    between atoms: C21_31  and  O2_32 
ROOT
HETATM    1  N1  UNL     1      -6.379  79.232  27.921  1.00  0.00    -0.191 NA
HETATM    2  C1  UNL     1      -5.316  78.861  27.711  1.00  0.00     0.099 C 
HETATM    3  C2  UNL     1      -3.988  78.423  27.460  1.00  0.00     0.047 A 
HETATM    4  C3  UNL     1      -3.311  77.686  28.426  1.00  0.00     0.025 A 
HETATM    5  C4  UNL     1      -2.026  77.278  28.153  1.00  0.00     0.033 A 
HETATM    6  C5  UNL     1      -1.381  77.570  26.964  1.00  0.00     0.061 A 
HETATM    7  C21 UNL     1      -2.100  78.314  26.019  1.00  0.00     0.093 A 
HETATM    8  C22 UNL     1      -3.396  78.739  26.266  1.00  0.00     0.061 A 
ENDROOT
BRANCH   7   9
HETATM    9  O2  UNL     1      -1.538  78.645  24.817  1.00  0.00    -0.358 OA
ATOM     10  H2  UNL     1      -1.701  79.494  24.423  1.00  0.00     0.217 HD
ENDBRANCH   7   9
BRANCH   6  11
HETATM   11  N2  UNL     1      -0.054  77.143  26.710  1.00  0.00    -0.383 N 
ATOM     12  H2  UNL     1       0.286  77.023  25.756  1.00  0.00     0.160 HD
BRANCH  11  13
HETATM   13  C6  UNL     1       0.810  76.880  27.851  1.00  0.00     0.164 C 
BRANCH  13  14
HETATM   14  C7  UNL     1       1.439  78.187  28.333  1.00  0.00     0.079 C 
BRANCH  14  15
HETATM   15  N3  UNL     1       2.362  78.712  27.429  1.00  0.00    -0.379 N 
ATOM     16  H3  UNL     1       2.059  78.844  26.464  1.00  0.00     0.164 HD
BRANCH  15  17
HETATM   17  C8  UNL     1       3.664  79.067  27.750  1.00  0.00     0.079 C 
BRANCH  17  18
HETATM   18  C9  UNL     1       4.417  78.090  28.559  1.00  0.00     0.164 C 
BRANCH  18  19
HETATM   19  N4  UNL     1       4.885  76.894  27.935  1.00  0.00    -0.385 N 
ATOM     20  H4  UNL     1       5.443  76.921  27.082  1.00  0.00     0.160 HD
BRANCH  19  21
HETATM   21  C10 UNL     1       4.533  75.651  28.566  1.00  0.00     0.028 A 
HETATM   22  C11 UNL     1       3.681  75.641  29.648  1.00  0.00     0.031 A 
HETATM   23  C12 UNL     1       3.361  74.449  30.269  1.00  0.00     0.031 A 
HETATM   24  C13 UNL     1       3.888  73.262  29.816  1.00  0.00     0.028 A 
HETATM   25  C19 UNL     1       4.734  73.277  28.739  1.00  0.00     0.031 A 
HETATM   26  C20 UNL     1       5.064  74.481  28.102  1.00  0.00     0.031 A 
BRANCH  24  27
HETATM   27  N5  UNL     1       3.546  72.069  30.471  1.00  0.00    -0.384 N 
ATOM     28  H5  UNL     1       3.138  71.298  29.943  1.00  0.00     0.160 HD
BRANCH  27  29
HETATM   29  C14 UNL     1       3.770  71.932  31.889  1.00  0.00     0.184 C 
BRANCH  29  30
HETATM   30  C15 UNL     1       5.219  71.596  32.153  1.00  0.00     0.070 A 
HETATM   31  C16 UNL     1       6.076  70.885  31.346  1.00  0.00     0.036 A 
HETATM   32  C17 UNL     1       7.316  70.799  31.952  1.00  0.00     0.027 A 
HETATM   33  C18 UNL     1       7.147  71.493  33.150  1.00  0.00     0.142 A 
HETATM   34  O1  UNL     1       5.913  71.933  33.214  1.00  0.00    -0.325 OA
ENDBRANCH  29  30
ENDBRANCH  27  29
ENDBRANCH  24  27
ENDBRANCH  19  21
ENDBRANCH  18  19
ENDBRANCH  17  18
ENDBRANCH  15  17
ENDBRANCH  14  15
ENDBRANCH  13  14
ENDBRANCH  11  13
ENDBRANCH   6  11
TORSDOF 12
ENDMDL
MODEL 2
REMARK VINA RESULT: -8.343704659      2.448     10.234
REMARK  12 active torsions:
REMARK  status: ('A' for Active; 'I' for Inactive)
REMARK    1  A    between atoms: C5_6  and  N2_7 
REMARK    2  A    between atoms: N2_7  and  C6_9 
REMARK    3  A    between atoms: C6_9  and  C7_10 
REMARK    4  A    between atoms: C7_10  and  N3_11 
REMARK    5  A    between atoms: N3_11  and  C8_13 
REMARK    6  A    between atoms: C8_13  and  C9_14 
REMARK    7  A    between atoms: C9_14  and  N4_15 
REMARK    8  A    between atoms: N4_15  and  C10_17 
REMARK    9  A    between atoms: C13_20  and  N5_21 
REMARK   10  A    between atoms: N5_21  and  C14_23 
REMARK   11  A    between atoms: C14_23  and  C15_24 
REMARK   12  A    between atoms: C21_31  and  O2_32 
ROOT
HETATM    1  N1  UNL     1       4.874  70.619  29.287  1.00  0.00    -0.191 NA
HETATM    2  C1  UNL     1       4.935  71.737  29.042  1.00  0.00     0.099 C 
HETATM    3  C2  UNL     1       5.002  73.117  28.715  1.00  0.00     0.047 A 
HETATM    4  C3  UNL     1       3.929  73.950  29.017  1.00  0.00     0.025 A 
HETATM    5  C4  UNL     1       4.024  75.282  28.685  1.00  0.00     0.033 A 
HETATM    6  C5  UNL     1       5.137  75.825  28.067  1.00  0.00     0.061 A 
HETATM    7  C21 UNL     1       6.193  74.951  27.782  1.00  0.00     0.093 A 
HETATM    8  C22 UNL     1       6.127  73.605  28.104  1.00  0.00     0.061 A 
ENDROOT
BRANCH   7   9
HETATM    9  O2  UNL     1       7.331  75.405  27.173  1.00  0.00    -0.358 OA
ATOM     10  H2  UNL     1       7.282  76.036  26.464  1.00  0.00     0.217 HD
ENDBRANCH   7   9
BRANCH   6  11
HETATM   11  N2  UNL     1       5.206  77.200  27.731  1.00  0.00    -0.383 N 
ATOM     12  H2  UNL     1       5.813  77.526  26.978  1.00  0.00     0.160 HD
BRANCH  11  13
HETATM   13  C6  UNL     1       4.388  78.133  28.489  1.00  0.00     0.164 C 
BRANCH  13  14
HETATM   14  C7  UNL     1       3.619  79.042  27.530  1.00  0.00     0.079 C 
BRANCH  14  15
HETATM   15  N3  UNL     1       2.244  79.036  27.761  1.00  0.00    -0.379 N 
ATOM     16  H3  UNL     1       1.684  79.763  27.315  1.00  0.00     0.164 HD
BRANCH  15  17
HETATM   17  C8  UNL     1       1.582  78.110  28.555  1.00  0.00     0.079 C 
BRANCH  17  18
HETATM   18  C9  UNL     1       0.891  77.023  27.835  1.00  0.00     0.164 C 
BRANCH  18  19
HETATM   19  N4  UNL     1       0.188  77.333  26.632  1.00  0.00    -0.385 N 
ATOM     20  H4  UNL     1       0.662  77.364  25.729  1.00  0.00     0.160 HD
BRANCH  19  21
HETATM   21  C10 UNL     1      -1.220  77.600  26.752  1.00  0.00     0.028 A 
HETATM   22  C11 UNL     1      -1.923  78.103  25.680  1.00  0.00     0.031 A 
HETATM   23  C12 UNL     1      -3.271  78.382  25.802  1.00  0.00     0.031 A 
HETATM   24  C13 UNL     1      -3.925  78.161  26.993  1.00  0.00     0.028 A 
HETATM   25  C19 UNL     1      -3.221  77.659  28.056  1.00  0.00     0.031 A 
HETATM   26  C20 UNL     1      -1.854  77.373  27.940  1.00  0.00     0.031 A 
BRANCH  24  27
HETATM   27  N5  UNL     1      -5.293  78.458  27.085  1.00  0.00    -0.384 N 
ATOM     28  H5  UNL     1      -5.924  78.184  26.333  1.00  0.00     0.160 HD
BRANCH  27  29
HETATM   29  C14 UNL     1      -5.807  79.149  28.241  1.00  0.00     0.184 C 
BRANCH  29  30
HETATM   30  C15 UNL     1      -5.520  80.629  28.129  1.00  0.00     0.070 A 
HETATM   31  C16 UNL     1      -4.291  81.243  28.073  1.00  0.00     0.036 A 
HETATM   32  C17 UNL     1      -4.463  82.612  27.973  1.00  0.00     0.027 A 
HETATM   33  C18 UNL     1      -5.849  82.771  27.971  1.00  0.00     0.142 A 
HETATM   34  O1  UNL     1      -6.411  81.589  28.064  1.00  0.00    -0.325 OA
ENDBRANCH  29  30
ENDBRANCH  27  29
ENDBRANCH  24  27
ENDBRANCH  19  21
ENDBRANCH  18  19
ENDBRANCH  17  18
ENDBRANCH  15  17
ENDBRANCH  14  15
ENDBRANCH  13  14
ENDBRANCH  11  13
ENDBRANCH   6  11
TORSDOF 12
ENDMDL
MODEL 3
REMARK VINA RESULT: -7.960934441      2.296     10.503
REMARK  12 active torsions:
REMARK  status: ('A' for Active; 'I' for Inactive)
REMARK    1  A    between atoms: C5_6  and  N2_7 
REMARK    2  A    between atoms: N2_7  and  C6_9 
REMARK    3  A    between atoms: C6_9  and  C7_10 
REMARK    4  A    between atoms: C7_10  and  N3_11 
REMARK    5  A    between atoms: N3_11  and  C8_13 
REMARK    6  A    between atoms: C8_13  and  C9_14 
REMARK    7  A    between atoms: C9_14  and  N4_15 
REMARK    8  A    between atoms: N4_15  and  C10_17 
REMARK    9  A    between atoms: C13_20  and  N5_21 
REMARK   10  A    between atoms: N5_21  and  C14_23 
REMARK   11  A    between atoms: C14_23  and  C15_24 
REMARK   12  A    between atoms: C21_31  and  O2_32 
ROOT
HETATM    1  N1  UNL     1       5.670  69.863  33.072  1.00  0.00    -0.191 NA
HETATM    2  C1  UNL     1       5.287  70.643  32.326  1.00  0.00     0.099 C 
HETATM    3  C2  UNL     1       4.794  71.593  31.392  1.00  0.00     0.047 A 
HETATM    4  C3  UNL     1       3.785  72.471  31.770  1.00  0.00     0.025 A 
HETATM    5  C4  UNL     1       3.328  73.379  30.842  1.00  0.00     0.033 A 
HETATM    6  C5  UNL     1       3.829  73.453  29.554  1.00  0.00     0.061 A 
HETATM    7  C21 UNL     1       4.845  72.550  29.217  1.00  0.00     0.093 A 
HETATM    8  C22 UNL     1       5.325  71.625  30.130  1.00  0.00     0.061 A 
ENDROOT
BRANCH   7   9
HETATM    9  O2  UNL     1       5.396  72.555  27.964  1.00  0.00    -0.358 OA
ATOM     10  H2  UNL     1       6.339  72.544  27.850  1.00  0.00     0.217 HD
ENDBRANCH   7   9
BRANCH   6  11
HETATM   11  N2  UNL     1       3.336  74.393  28.615  1.00  0.00    -0.383 N 
ATOM     12  H2  UNL     1       2.493  74.201  28.073  1.00  0.00     0.160 HD
BRANCH  11  13
HETATM   13  C6  UNL     1       4.067  75.639  28.447  1.00  0.00     0.164 C 
BRANCH  13  14
HETATM   14  C7  UNL     1       3.399  76.744  29.266  1.00  0.00     0.079 C 
BRANCH  14  15
HETATM   15  N3  UNL     1       3.314  77.955  28.580  1.00  0.00    -0.379 N 
ATOM     16  H3  UNL     1       4.133  78.563  28.588  1.00  0.00     0.164 HD
BRANCH  15  17
HETATM   17  C8  UNL     1       2.195  78.390  27.886  1.00  0.00     0.079 C 
BRANCH  17  18
HETATM   18  C9  UNL     1       1.045  77.466  27.876  1.00  0.00     0.164 C 
BRANCH  18  19
HETATM   19  N4  UNL     1       0.274  77.340  26.680  1.00  0.00    -0.385 N 
ATOM     20  H4  UNL     1       0.700  77.055  25.798  1.00  0.00     0.160 HD
BRANCH  19  21
HETATM   21  C10 UNL     1      -1.130  77.633  26.778  1.00  0.00     0.028 A 
HETATM   22  C11 UNL     1      -1.783  77.497  27.984  1.00  0.00     0.031 A 
HETATM   23  C12 UNL     1      -3.137  77.756  28.074  1.00  0.00     0.031 A 
HETATM   24  C13 UNL     1      -3.848  78.152  26.964  1.00  0.00     0.028 A 
HETATM   25  C19 UNL     1      -3.194  78.287  25.768  1.00  0.00     0.031 A 
HETATM   26  C20 UNL     1      -1.820  78.027  25.668  1.00  0.00     0.031 A 
BRANCH  24  27
HETATM   27  N5  UNL     1      -5.222  78.404  27.088  1.00  0.00    -0.384 N 
ATOM     28  H5  UNL     1      -5.863  78.100  26.356  1.00  0.00     0.160 HD
BRANCH  27  29
HETATM   29  C14 UNL     1      -5.731  79.090  28.251  1.00  0.00     0.184 C 
BRANCH  29  30
HETATM   30  C15 UNL     1      -5.497  80.577  28.115  1.00  0.00     0.070 A 
HETATM   31  C16 UNL     1      -4.292  81.234  28.044  1.00  0.00     0.036 A 
HETATM   32  C17 UNL     1      -4.514  82.595  27.925  1.00  0.00     0.027 A 
HETATM   33  C18 UNL     1      -5.904  82.703  27.929  1.00  0.00     0.142 A 
HETATM   34  O1  UNL     1      -6.423  81.503  28.042  1.00  0.00    -0.325 OA
ENDBRANCH  29  30
ENDBRANCH  27  29
ENDBRANCH  24  27
ENDBRANCH  19  21
ENDBRANCH  18  19
ENDBRANCH  17  18
ENDBRANCH  15  17
ENDBRANCH  14  15
ENDBRANCH  13  14
ENDBRANCH  11  13
ENDBRANCH   6  11
TORSDOF 12
ENDMDL
MODEL 4
REMARK VINA RESULT: -7.868267040      1.601      2.054
REMARK  12 active torsions:
REMARK  status: ('A' for Active; 'I' for Inactive)
REMARK    1  A    between atoms: C5_6  and  N2_7 
REMARK    2  A    between atoms: N2_7  and  C6_9 
REMARK    3  A    between atoms: C6_9  and  C7_10 
REMARK    4  A    between atoms: C7_10  and  N3_11 
REMARK    5  A    between atoms: N3_11  and  C8_13 
REMARK    6  A    between atoms: C8_13  and  C9_14 
REMARK    7  A    between atoms: C9_14  and  N4_15 
REMARK    8  A    between atoms: N4_15  and  C10_17 
REMARK    9  A    between atoms: C13_20  and  N5_21 
REMARK   10  A    between atoms: N5_21  and  C14_23 
REMARK   11  A    between atoms: C14_23  and  C15_24 
REMARK   12  A    between atoms: C21_31  and  O2_32 
ROOT
HETATM    1  N1  UNL     1      -5.269  82.442  28.060  1.00  0.00    -0.191 NA
HETATM    2  C1  UNL     1      -4.737  81.473  27.759  1.00  0.00     0.099 C 
HETATM    3  C2  UNL     1      -4.099  80.264  27.374  1.00  0.00     0.047 A 
HETATM    4  C3  UNL     1      -3.350  80.223  26.204  1.00  0.00     0.025 A 
HETATM    5  C4  UNL     1      -2.745  79.036  25.857  1.00  0.00     0.033 A 
HETATM    6  C5  UNL     1      -2.853  77.887  26.620  1.00  0.00     0.061 A 
HETATM    7  C21 UNL     1      -3.617  77.974  27.791  1.00  0.00     0.093 A 
HETATM    8  C22 UNL     1      -4.237  79.155  28.166  1.00  0.00     0.061 A 
ENDROOT
BRANCH   7   9
HETATM    9  O2  UNL     1      -3.774  76.885  28.604  1.00  0.00    -0.358 OA
ATOM     10  H2  UNL     1      -4.499  76.837  29.216  1.00  0.00     0.217 HD
ENDBRANCH   7   9
BRANCH   6  11
HETATM   11  N2  UNL     1      -2.226  76.676  26.237  1.00  0.00    -0.383 N 
ATOM     12  H2  UNL     1      -2.754  75.804  26.187  1.00  0.00     0.160 HD
BRANCH  11  13
HETATM   13  C6  UNL     1      -0.807  76.710  25.919  1.00  0.00     0.164 C 
BRANCH  13  14
HETATM   14  C7  UNL     1       0.007  76.863  27.204  1.00  0.00     0.079 C 
BRANCH  14  15
HETATM   15  N3  UNL     1       0.800  78.010  27.212  1.00  0.00    -0.379 N 
ATOM     16  H3  UNL     1       0.576  78.747  26.544  1.00  0.00     0.164 HD
BRANCH  15  17
HETATM   17  C8  UNL     1       1.874  78.218  28.065  1.00  0.00     0.079 C 
BRANCH  17  18
HETATM   18  C9  UNL     1       2.171  77.121  29.006  1.00  0.00     0.164 C 
BRANCH  18  19
HETATM   19  N4  UNL     1       3.496  76.592  29.050  1.00  0.00    -0.385 N 
ATOM     20  H4  UNL     1       4.314  77.189  28.931  1.00  0.00     0.160 HD
BRANCH  19  21
HETATM   21  C10 UNL     1       3.623  75.176  29.269  1.00  0.00     0.028 A 
HETATM   22  C11 UNL     1       2.895  74.562  30.264  1.00  0.00     0.031 A 
HETATM   23  C12 UNL     1       3.035  73.206  30.490  1.00  0.00     0.031 A 
HETATM   24  C13 UNL     1       3.899  72.456  29.727  1.00  0.00     0.028 A 
HETATM   25  C19 UNL     1       4.620  73.071  28.737  1.00  0.00     0.031 A 
HETATM   26  C20 UNL     1       4.485  74.446  28.501  1.00  0.00     0.031 A 
BRANCH  24  27
HETATM   27  N5  UNL     1       4.020  71.082  29.984  1.00  0.00    -0.384 N 
ATOM     28  H5  UNL     1       4.014  70.417  29.211  1.00  0.00     0.160 HD
BRANCH  27  29
HETATM   29  C14 UNL     1       4.152  70.608  31.340  1.00  0.00     0.184 C 
BRANCH  29  30
HETATM   30  C15 UNL     1       5.521  70.957  31.878  1.00  0.00     0.070 A 
HETATM   31  C16 UNL     1       6.723  70.894  31.216  1.00  0.00     0.036 A 
HETATM   32  C17 UNL     1       7.739  71.300  32.064  1.00  0.00     0.027 A 
HETATM   33  C18 UNL     1       7.075  71.604  33.252  1.00  0.00     0.142 A 
HETATM   34  O1  UNL     1       5.791  71.387  33.087  1.00  0.00    -0.325 OA
ENDBRANCH  29  30
ENDBRANCH  27  29
ENDBRANCH  24  27
ENDBRANCH  19  21
ENDBRANCH  18  19
ENDBRANCH  17  18
ENDBRANCH  15  17
ENDBRANCH  14  15
ENDBRANCH  13  14
ENDBRANCH  11  13
ENDBRANCH   6  11
TORSDOF 12
ENDMDL
MODEL 5
REMARK VINA RESULT: -7.858956486      1.791      2.316
REMARK  12 active torsions:
REMARK  status: ('A' for Active; 'I' for Inactive)
REMARK    1  A    between atoms: C5_6  and  N2_7 
REMARK    2  A    between atoms: N2_7  and  C6_9 
REMARK    3  A    between atoms: C6_9  and  C7_10 
REMARK    4  A    between atoms: C7_10  and  N3_11 
REMARK    5  A    between atoms: N3_11  and  C8_13 
REMARK    6  A    between atoms: C8_13  and  C9_14 
REMARK    7  A    between atoms: C9_14  and  N4_15 
REMARK    8  A    between atoms: N4_15  and  C10_17 
REMARK    9  A    between atoms: C13_20  and  N5_21 
REMARK   10  A    between atoms: N5_21  and  C14_23 
REMARK   11  A    between atoms: C14_23  and  C15_24 
REMARK   12  A    between atoms: C21_31  and  O2_32 
ROOT
HETATM    1  N1  UNL     1      -6.019  82.844  27.872  1.00  0.00    -0.191 NA
HETATM    2  C1  UNL     1      -5.427  81.869  27.764  1.00  0.00     0.099 C 
HETATM    3  C2  UNL     1      -4.705  80.656  27.606  1.00  0.00     0.047 A 
HETATM    4  C3  UNL     1      -3.442  80.677  27.025  1.00  0.00     0.025 A 
HETATM    5  C4  UNL     1      -2.768  79.486  26.885  1.00  0.00     0.033 A 
HETATM    6  C5  UNL     1      -3.293  78.273  27.296  1.00  0.00     0.061 A 
HETATM    7  C21 UNL     1      -4.569  78.298  27.875  1.00  0.00     0.093 A 
HETATM    8  C22 UNL     1      -5.271  79.483  28.029  1.00  0.00     0.061 A 
ENDROOT
BRANCH   7   9
HETATM    9  O2  UNL     1      -5.161  77.144  28.309  1.00  0.00    -0.358 OA
ATOM     10  H2  UNL     1      -5.296  76.987  29.236  1.00  0.00     0.217 HD
ENDBRANCH   7   9
BRANCH   6  11
HETATM   11  N2  UNL     1      -2.582  77.058  27.134  1.00  0.00    -0.383 N 
ATOM     12  H2  UNL     1      -2.872  76.210  27.621  1.00  0.00     0.160 HD
BRANCH  11  13
HETATM   13  C6  UNL     1      -1.424  77.056  26.253  1.00  0.00     0.164 C 
BRANCH  13  14
HETATM   14  C7  UNL     1      -0.154  76.815  27.071  1.00  0.00     0.079 C 
BRANCH  14  15
HETATM   15  N3  UNL     1       0.671  77.937  27.137  1.00  0.00    -0.379 N 
ATOM     16  H3  UNL     1       0.640  78.596  26.359  1.00  0.00     0.164 HD
BRANCH  15  17
HETATM   17  C8  UNL     1       1.532  78.221  28.187  1.00  0.00     0.079 C 
BRANCH  17  18
HETATM   18  C9  UNL     1       2.972  78.114  27.884  1.00  0.00     0.164 C 
BRANCH  18  19
HETATM   19  N4  UNL     1       3.846  77.573  28.876  1.00  0.00    -0.385 N 
ATOM     20  H4  UNL     1       4.317  78.171  29.555  1.00  0.00     0.160 HD
BRANCH  19  21
HETATM   21  C10 UNL     1       4.029  76.147  28.873  1.00  0.00     0.028 A 
HETATM   22  C11 UNL     1       3.211  75.343  29.636  1.00  0.00     0.031 A 
HETATM   23  C12 UNL     1       3.402  73.975  29.651  1.00  0.00     0.031 A 
HETATM   24  C13 UNL     1       4.407  73.401  28.908  1.00  0.00     0.028 A 
HETATM   25  C19 UNL     1       5.217  74.205  28.151  1.00  0.00     0.031 A 
HETATM   26  C20 UNL     1       5.031  75.594  28.128  1.00  0.00     0.031 A 
BRANCH  24  27
HETATM   27  N5  UNL     1       4.576  72.008  28.949  1.00  0.00    -0.384 N 
ATOM     28  H5  UNL     1       4.884  71.509  28.115  1.00  0.00     0.160 HD
BRANCH  27  29
HETATM   29  C14 UNL     1       4.316  71.282  30.168  1.00  0.00     0.184 C 
BRANCH  29  30
HETATM   30  C15 UNL     1       5.532  71.322  31.063  1.00  0.00     0.070 A 
HETATM   31  C16 UNL     1       5.569  71.539  32.420  1.00  0.00     0.036 A 
HETATM   32  C17 UNL     1       6.880  71.497  32.860  1.00  0.00     0.027 A 
HETATM   33  C18 UNL     1       7.609  71.246  31.697  1.00  0.00     0.142 A 
HETATM   34  O1  UNL     1       6.777  71.154  30.687  1.00  0.00    -0.325 OA
ENDBRANCH  29  30
ENDBRANCH  27  29
ENDBRANCH  24  27
ENDBRANCH  19  21
ENDBRANCH  18  19
ENDBRANCH  17  18
ENDBRANCH  15  17
ENDBRANCH  14  15
ENDBRANCH  13  14
ENDBRANCH  11  13
ENDBRANCH   6  11
TORSDOF 12
ENDMDL
