MODEL 1
REMARK VINA RESULT: -7.791996084      0.000      0.000
REMARK  13 active torsions:
REMARK  status: ('A' for Active; 'I' for Inactive)
REMARK    1  A    between atoms: N1_1  and  C1_4 
REMARK    2  A    between atoms: C4_7  and  N2_8 
REMARK    3  A    between atoms: N2_8  and  C5_10 
REMARK    4  A    between atoms: C5_10  and  C6_11 
REMARK    5  A    between atoms: C6_11  and  C7_12 
REMARK    6  A    between atoms: C7_12  and  C8_13 
REMARK    7  A    between atoms: C8_13  and  C9_14 
REMARK    8  A    between atoms: C9_14  and  C10_15 
REMARK    9  A    between atoms: C10_15  and  C11_16 
REMARK   10  A    between atoms: C11_16  and  C12_17 
REMARK   11  A    between atoms: C12_17  and  N3_18 
REMARK   12  A    between atoms: C13_22  and  N4_23 
REMARK   13  A    between atoms: C15_25  and  C16_26 
ROOT
HETATM    1  C1  UNL     1       5.028  78.206  28.615  1.00  0.00     0.100 A 
HETATM    2  C2  UNL     1       5.663  76.986  28.548  1.00  0.00     0.050 A 
HETATM    3  C3  UNL     1       4.837  75.856  28.515  1.00  0.00     0.037 A 
HETATM    4  C4  UNL     1       3.473  75.963  28.549  1.00  0.00     0.074 A 
HETATM    5  C13 UNL     1       2.905  77.211  28.616  1.00  0.00     0.156 A 
HETATM    6  N7  UNL     1       3.682  78.322  28.648  1.00  0.00    -0.326 N 
ATOM      7  H7  UNL     1       3.250  79.245  28.698  1.00  0.00     0.169 HD
ENDROOT
BRANCH   4   8
HETATM    8  N2  UNL     1       2.654  74.822  28.516  1.00  0.00    -0.387 N 
ATOM      9  H2  UNL     1       1.719  74.866  28.110  1.00  0.00     0.159 HD
BRANCH   8  10
HETATM   10  C5  UNL     1       3.159  73.584  29.068  1.00  0.00     0.120 C 
BRANCH  10  11
HETATM   11  C6  UNL     1       2.965  73.510  30.562  1.00  0.00     0.020 C 
BRANCH  11  12
HETATM   12  C7  UNL     1       3.301  72.174  31.128  1.00  0.00     0.002 C 
BRANCH  12  13
HETATM   13  C8  UNL     1       4.262  72.257  32.294  1.00  0.00     0.000 C 
BRANCH  13  14
HETATM   14  C9  UNL     1       5.505  71.464  31.997  1.00  0.00     0.000 C 
BRANCH  14  15
HETATM   15  C10 UNL     1       6.572  71.641  33.027  1.00  0.00     0.002 C 
BRANCH  15  16
HETATM   16  C11 UNL     1       7.335  70.415  33.308  1.00  0.00     0.027 C 
BRANCH  16  17
HETATM   17  C12 UNL     1       7.896  69.628  32.203  1.00  0.00     0.229 C 
BRANCH  17  18
HETATM   18  N3  UNL     1       9.133  68.974  32.348  1.00  0.00    -0.079 N 
ATOM     19  H33 UNL     1       9.504  69.194  33.273  1.00  0.00     0.274 HD
ATOM     20  H32 UNL     1       8.957  67.972  32.428  1.00  0.00     0.274 HD
ATOM     21  H31 UNL     1       9.876  69.114  31.665  1.00  0.00     0.274 HD
ENDBRANCH  17  18
ENDBRANCH  16  17
ENDBRANCH  15  16
ENDBRANCH  14  15
ENDBRANCH  13  14
ENDBRANCH  12  13
ENDBRANCH  11  12
ENDBRANCH  10  11
ENDBRANCH   8  10
ENDBRANCH   4   8
BRANCH   5  22
HETATM   22  N4  UNL     1       1.476  77.324  28.650  1.00  0.00    -0.232 N 
HETATM   23  C14 UNL     1       0.643  77.529  27.619  1.00  0.00     0.151 A 
HETATM   24  C15 UNL     1      -0.655  77.576  28.081  1.00  0.00     0.077 A 
HETATM   25  N5  UNL     1      -0.546  77.390  29.430  1.00  0.00    -0.284 N 
HETATM   26  N6  UNL     1       0.723  77.245  29.730  1.00  0.00    -0.234 N 
ATOM     27  H5  UNL     1      -1.321  77.367  30.093  1.00  0.00     0.188 HD
ATOM     28  H6  UNL     1       1.080  77.091  30.674  1.00  0.00     0.209 HD
BRANCH  24  29
HETATM   29  C16 UNL     1      -1.884  77.778  27.324  1.00  0.00    -0.007 A 
HETATM   30  C17 UNL     1      -1.834  77.703  25.955  1.00  0.00     0.014 A 
HETATM   31  C18 UNL     1      -2.969  77.885  25.169  1.00  0.00     0.001 A 
HETATM   32  C19 UNL     1      -4.141  78.144  25.829  1.00  0.00     0.000 A 
HETATM   33  C20 UNL     1      -4.200  78.220  27.213  1.00  0.00     0.001 A 
HETATM   34  C21 UNL     1      -3.058  78.037  27.989  1.00  0.00     0.014 A 
ENDBRANCH  24  29
ENDBRANCH   5  22
BRANCH   1  35
HETATM   35  N1  UNL     1       5.793  79.253  28.645  1.00  0.00    -0.385 N 
ATOM     36  H12 UNL     1       6.584  79.348  28.007  1.00  0.00     0.157 HD
ATOM     37  H11 UNL     1       5.560  79.965  29.337  1.00  0.00     0.157 HD
ENDBRANCH   1  35
TORSDOF 13
ENDMDL
MODEL 2
REMARK VINA RESULT: -7.563767728      0.945      1.050
REMARK  13 active torsions:
REMARK  status: ('A' for Active; 'I' for Inactive)
REMARK    1  A    between atoms: N1_1  and  C1_4 
REMARK    2  A    between atoms: C4_7  and  N2_8 
REMARK    3  A    between atoms: N2_8  and  C5_10 
REMARK    4  A    between atoms: C5_10  and  C6_11 
REMARK    5  A    between atoms: C6_11  and  C7_12 
REMARK    6  A    between atoms: C7_12  and  C8_13 
REMARK    7  A    between atoms: C8_13  and  C9_14 
REMARK    8  A    between atoms: C9_14  and  C10_15 
REMARK    9  A    between atoms: C10_15  and  C11_16 
REMARK   10  A    between atoms: C11_16  and  C12_17 
REMARK   11  A    between atoms: C12_17  and  N3_18 
REMARK   12  A    between atoms: C13_22  and  N4_23 
REMARK   13  A    between atoms: C15_25  and  C16_26 
ROOT
HETATM    1  C1  UNL     1       4.983  78.249  28.588  1.00  0.00     0.100 A 
HETATM    2  C2  UNL     1       5.627  77.033  28.535  1.00  0.00     0.050 A 
HETATM    3  C3  UNL     1       4.809  75.897  28.514  1.00  0.00     0.037 A 
HETATM    4  C4  UNL     1       3.445  75.993  28.547  1.00  0.00     0.074 A 
HETATM    5  C13 UNL     1       2.868  77.237  28.600  1.00  0.00     0.156 A 
HETATM    6  N7  UNL     1       3.636  78.355  28.620  1.00  0.00    -0.326 N 
ATOM      7  H7  UNL     1       3.197  79.275  28.659  1.00  0.00     0.169 HD
ENDROOT
BRANCH   4   8
HETATM    8  N2  UNL     1       2.635  74.846  28.526  1.00  0.00    -0.387 N 
ATOM      9  H2  UNL     1       1.657  74.906  28.243  1.00  0.00     0.159 HD
BRANCH   8  10
HETATM   10  C5  UNL     1       3.212  73.578  28.915  1.00  0.00     0.120 C 
BRANCH  10  11
HETATM   11  C6  UNL     1       3.013  73.292  30.382  1.00  0.00     0.020 C 
BRANCH  11  12
HETATM   12  C7  UNL     1       4.132  72.510  30.981  1.00  0.00     0.002 C 
BRANCH  12  13
HETATM   13  C8  UNL     1       3.732  71.801  32.257  1.00  0.00     0.000 C 
BRANCH  13  14
HETATM   14  C9  UNL     1       3.964  70.321  32.119  1.00  0.00     0.000 C 
BRANCH  14  15
HETATM   15  C10 UNL     1       5.345  69.986  31.660  1.00  0.00     0.002 C 
BRANCH  15  16
HETATM   16  C11 UNL     1       6.319  69.851  32.754  1.00  0.00     0.027 C 
BRANCH  16  17
HETATM   17  C12 UNL     1       7.350  70.877  32.952  1.00  0.00     0.229 C 
BRANCH  17  18
HETATM   18  N3  UNL     1       7.059  72.054  33.666  1.00  0.00    -0.079 N 
ATOM     19  H33 UNL     1       6.176  71.918  34.158  1.00  0.00     0.274 HD
ATOM     20  H32 UNL     1       7.718  72.129  34.440  1.00  0.00     0.274 HD
ATOM     21  H31 UNL     1       7.023  72.954  33.188  1.00  0.00     0.274 HD
ENDBRANCH  17  18
ENDBRANCH  16  17
ENDBRANCH  15  16
ENDBRANCH  14  15
ENDBRANCH  13  14
ENDBRANCH  12  13
ENDBRANCH  11  12
ENDBRANCH  10  11
ENDBRANCH   8  10
ENDBRANCH   4   8
BRANCH   5  22
HETATM   22  N4  UNL     1       1.437  77.341  28.632  1.00  0.00    -0.232 N 
HETATM   23  C14 UNL     1       0.607  77.565  27.604  1.00  0.00     0.151 A 
HETATM   24  C15 UNL     1      -0.694  77.591  28.063  1.00  0.00     0.077 A 
HETATM   25  N5  UNL     1      -0.587  77.373  29.408  1.00  0.00    -0.284 N 
HETATM   26  N6  UNL     1       0.683  77.230  29.708  1.00  0.00    -0.234 N 
ATOM     27  H5  UNL     1      -1.363  77.329  30.068  1.00  0.00     0.188 HD
ATOM     28  H6  UNL     1       1.038  77.056  30.649  1.00  0.00     0.209 HD
BRANCH  24  29
HETATM   29  C16 UNL     1      -1.921  77.803  27.308  1.00  0.00    -0.007 A 
HETATM   30  C17 UNL     1      -1.870  77.746  25.938  1.00  0.00     0.014 A 
HETATM   31  C18 UNL     1      -3.005  77.939  25.154  1.00  0.00     0.001 A 
HETATM   32  C19 UNL     1      -4.178  78.189  25.816  1.00  0.00     0.000 A 
HETATM   33  C20 UNL     1      -4.237  78.247  27.201  1.00  0.00     0.001 A 
HETATM   34  C21 UNL     1      -3.097  78.054  27.975  1.00  0.00     0.014 A 
ENDBRANCH  24  29
ENDBRANCH   5  22
BRANCH   1  35
HETATM   35  N1  UNL     1       5.740  79.302  28.606  1.00  0.00    -0.385 N 
ATOM     36  H12 UNL     1       5.684  80.007  27.870  1.00  0.00     0.157 HD
ATOM     37  H11 UNL     1       6.388  79.380  29.391  1.00  0.00     0.157 HD
ENDBRANCH   1  35
TORSDOF 13
ENDMDL
MODEL 3
REMARK VINA RESULT: -7.471195663      1.703      2.210
REMARK  13 active torsions:
REMARK  status: ('A' for Active; 'I' for Inactive)
REMARK    1  A    between atoms: N1_1  and  C1_4 
REMARK    2  A    between atoms: C4_7  and  N2_8 
REMARK    3  A    between atoms: N2_8  and  C5_10 
REMARK    4  A    between atoms: C5_10  and  C6_11 
REMARK    5  A    between atoms: C6_11  and  C7_12 
REMARK    6  A    between atoms: C7_12  and  C8_13 
REMARK    7  A    between atoms: C8_13  and  C9_14 
REMARK    8  A    between atoms: C9_14  and  C10_15 
REMARK    9  A    between atoms: C10_15  and  C11_16 
REMARK   10  A    between atoms: C11_16  and  C12_17 
REMARK   11  A    between atoms: C12_17  and  N3_18 
REMARK   12  A    between atoms: C13_22  and  N4_23 
REMARK   13  A    between atoms: C15_25  and  C16_26 
ROOT
HETATM    1  C1  UNL     1       4.989  78.228  28.609  1.00  0.00     0.100 A 
HETATM    2  C2  UNL     1       5.621  77.006  28.557  1.00  0.00     0.050 A 
HETATM    3  C3  UNL     1       4.793  75.878  28.525  1.00  0.00     0.037 A 
HETATM    4  C4  UNL     1       3.429  75.989  28.545  1.00  0.00     0.074 A 
HETATM    5  C13 UNL     1       2.864  77.238  28.597  1.00  0.00     0.156 A 
HETATM    6  N7  UNL     1       3.643  78.348  28.628  1.00  0.00    -0.326 N 
ATOM      7  H7  UNL     1       3.213  79.272  28.667  1.00  0.00     0.169 HD
ENDROOT
BRANCH   4   8
HETATM    8  N2  UNL     1       2.608  74.850  28.513  1.00  0.00    -0.387 N 
ATOM      9  H2  UNL     1       1.655  74.907  28.154  1.00  0.00     0.159 HD
BRANCH   8  10
HETATM   10  C5  UNL     1       3.136  73.594  28.998  1.00  0.00     0.120 C 
BRANCH  10  11
HETATM   11  C6  UNL     1       2.966  73.447  30.489  1.00  0.00     0.020 C 
BRANCH  11  12
HETATM   12  C7  UNL     1       3.320  72.087  30.986  1.00  0.00     0.002 C 
BRANCH  12  13
HETATM   13  C8  UNL     1       4.212  72.125  32.207  1.00  0.00     0.000 C 
BRANCH  13  14
HETATM   14  C9  UNL     1       5.089  70.903  32.245  1.00  0.00     0.000 C 
BRANCH  14  15
HETATM   15  C10 UNL     1       4.354  69.645  31.916  1.00  0.00     0.002 C 
BRANCH  15  16
HETATM   16  C11 UNL     1       3.947  68.869  33.098  1.00  0.00     0.027 C 
BRANCH  16  17
HETATM   17  C12 UNL     1       2.524  68.719  33.424  1.00  0.00     0.229 C 
BRANCH  17  18
HETATM   18  N3  UNL     1       1.630  69.787  33.231  1.00  0.00    -0.079 N 
ATOM     19  H33 UNL     1       1.540  69.951  32.228  1.00  0.00     0.274 HD
ATOM     20  H32 UNL     1       0.692  69.467  33.474  1.00  0.00     0.274 HD
ATOM     21  H31 UNL     1       1.789  70.684  33.688  1.00  0.00     0.274 HD
ENDBRANCH  17  18
ENDBRANCH  16  17
ENDBRANCH  15  16
ENDBRANCH  14  15
ENDBRANCH  13  14
ENDBRANCH  12  13
ENDBRANCH  11  12
ENDBRANCH  10  11
ENDBRANCH   8  10
ENDBRANCH   4   8
BRANCH   5  22
HETATM   22  N4  UNL     1       1.435  77.356  28.616  1.00  0.00    -0.232 N 
HETATM   23  C14 UNL     1       0.612  77.545  27.575  1.00  0.00     0.151 A 
HETATM   24  C15 UNL     1      -0.691  77.602  28.024  1.00  0.00     0.077 A 
HETATM   25  N5  UNL     1      -0.594  77.439  29.377  1.00  0.00    -0.284 N 
HETATM   26  N6  UNL     1       0.673  77.296  29.691  1.00  0.00    -0.234 N 
ATOM     27  H5  UNL     1      -1.375  77.430  30.033  1.00  0.00     0.188 HD
ATOM     28  H6  UNL     1       1.020  77.158  30.640  1.00  0.00     0.209 HD
BRANCH  24  29
HETATM   29  C16 UNL     1      -1.912  77.794  27.253  1.00  0.00    -0.007 A 
HETATM   30  C17 UNL     1      -3.068  78.114  27.920  1.00  0.00     0.014 A 
HETATM   31  C18 UNL     1      -4.271  78.312  27.246  1.00  0.00     0.001 A 
HETATM   32  C19 UNL     1      -4.247  78.170  25.884  1.00  0.00     0.000 A 
HETATM   33  C20 UNL     1      -3.082  77.847  25.203  1.00  0.00     0.001 A 
HETATM   34  C21 UNL     1      -1.884  77.652  25.886  1.00  0.00     0.014 A 
ENDBRANCH  24  29
ENDBRANCH   5  22
BRANCH   1  35
HETATM   35  N1  UNL     1       5.757  79.273  28.638  1.00  0.00    -0.385 N 
ATOM     36  H12 UNL     1       6.760  79.188  28.804  1.00  0.00     0.157 HD
ATOM     37  H11 UNL     1       5.302  80.174  28.488  1.00  0.00     0.157 HD
ENDBRANCH   1  35
TORSDOF 13
ENDMDL
MODEL 4
REMARK VINA RESULT: -7.313442789      1.277      1.742
REMARK  13 active torsions:
REMARK  status: ('A' for Active; 'I' for Inactive)
REMARK    1  A    between atoms: N1_1  and  C1_4 
REMARK    2  A    between atoms: C4_7  and  N2_8 
REMARK    3  A    between atoms: N2_8  and  C5_10 
REMARK    4  A    between atoms: C5_10  and  C6_11 
REMARK    5  A    between atoms: C6_11  and  C7_12 
REMARK    6  A    between atoms: C7_12  and  C8_13 
REMARK    7  A    between atoms: C8_13  and  C9_14 
REMARK    8  A    between atoms: C9_14  and  C10_15 
REMARK    9  A    between atoms: C10_15  and  C11_16 
REMARK   10  A    between atoms: C11_16  and  C12_17 
REMARK   11  A    between atoms: C12_17  and  N3_18 
REMARK   12  A    between atoms: C13_22  and  N4_23 
REMARK   13  A    between atoms: C15_25  and  C16_26 
ROOT
HETATM    1  C1  UNL     1       4.970  78.260  28.593  1.00  0.00     0.100 A 
HETATM    2  C2  UNL     1       5.615  77.044  28.553  1.00  0.00     0.050 A 
HETATM    3  C3  UNL     1       4.798  75.907  28.535  1.00  0.00     0.037 A 
HETATM    4  C4  UNL     1       3.434  76.004  28.557  1.00  0.00     0.074 A 
HETATM    5  C13 UNL     1       2.856  77.248  28.596  1.00  0.00     0.156 A 
HETATM    6  N7  UNL     1       3.623  78.365  28.614  1.00  0.00    -0.326 N 
ATOM      7  H7  UNL     1       3.184  79.286  28.643  1.00  0.00     0.169 HD
ENDROOT
BRANCH   4   8
HETATM    8  N2  UNL     1       2.624  74.856  28.540  1.00  0.00    -0.387 N 
ATOM      9  H2  UNL     1       1.672  74.898  28.176  1.00  0.00     0.159 HD
BRANCH   8  10
HETATM   10  C5  UNL     1       3.164  73.613  29.047  1.00  0.00     0.120 C 
BRANCH  10  11
HETATM   11  C6  UNL     1       3.012  73.499  30.542  1.00  0.00     0.020 C 
BRANCH  11  12
HETATM   12  C7  UNL     1       3.273  72.123  31.051  1.00  0.00     0.002 C 
BRANCH  12  13
HETATM   13  C8  UNL     1       4.248  72.103  32.209  1.00  0.00     0.000 C 
BRANCH  13  14
HETATM   14  C9  UNL     1       5.156  70.909  32.099  1.00  0.00     0.000 C 
BRANCH  14  15
HETATM   15  C10 UNL     1       6.490  71.240  31.515  1.00  0.00     0.002 C 
BRANCH  15  16
HETATM   16  C11 UNL     1       6.733  70.624  30.201  1.00  0.00     0.027 C 
BRANCH  16  17
HETATM   17  C12 UNL     1       6.218  71.261  28.984  1.00  0.00     0.229 C 
BRANCH  17  18
HETATM   18  N3  UNL     1       6.636  72.555  28.624  1.00  0.00    -0.079 N 
ATOM     19  H33 UNL     1       7.261  72.477  27.821  1.00  0.00     0.274 HD
ATOM     20  H32 UNL     1       5.839  73.047  28.219  1.00  0.00     0.274 HD
ATOM     21  H31 UNL     1       7.073  73.168  29.311  1.00  0.00     0.274 HD
ENDBRANCH  17  18
ENDBRANCH  16  17
ENDBRANCH  15  16
ENDBRANCH  14  15
ENDBRANCH  13  14
ENDBRANCH  12  13
ENDBRANCH  11  12
ENDBRANCH  10  11
ENDBRANCH   8  10
ENDBRANCH   4   8
BRANCH   5  22
HETATM   22  N4  UNL     1       1.425  77.351  28.618  1.00  0.00    -0.232 N 
HETATM   23  C14 UNL     1       0.602  77.565  27.582  1.00  0.00     0.151 A 
HETATM   24  C15 UNL     1      -0.702  77.595  28.031  1.00  0.00     0.077 A 
HETATM   25  N5  UNL     1      -0.605  77.390  29.378  1.00  0.00    -0.284 N 
HETATM   26  N6  UNL     1       0.663  77.250  29.689  1.00  0.00    -0.234 N 
ATOM     27  H5  UNL     1      -1.386  77.352  30.033  1.00  0.00     0.188 HD
ATOM     28  H6  UNL     1       1.011  77.085  30.634  1.00  0.00     0.209 HD
BRANCH  24  29
HETATM   29  C16 UNL     1      -1.924  77.799  27.265  1.00  0.00    -0.007 A 
HETATM   30  C17 UNL     1      -3.073  78.138  27.936  1.00  0.00     0.014 A 
HETATM   31  C18 UNL     1      -4.276  78.348  27.267  1.00  0.00     0.001 A 
HETATM   32  C19 UNL     1      -4.261  78.199  25.906  1.00  0.00     0.000 A 
HETATM   33  C20 UNL     1      -3.103  77.857  25.221  1.00  0.00     0.001 A 
HETATM   34  C21 UNL     1      -1.905  77.649  25.899  1.00  0.00     0.014 A 
ENDBRANCH  24  29
ENDBRANCH   5  22
BRANCH   1  35
HETATM   35  N1  UNL     1       5.727  79.313  28.608  1.00  0.00    -0.385 N 
ATOM     36  H12 UNL     1       6.690  79.278  28.271  1.00  0.00     0.157 HD
ATOM     37  H11 UNL     1       5.307  80.168  28.974  1.00  0.00     0.157 HD
ENDBRANCH   1  35
TORSDOF 13
ENDMDL
MODEL 5
REMARK VINA RESULT: -7.225731430      2.761      9.173
REMARK  13 active torsions:
REMARK  status: ('A' for Active; 'I' for Inactive)
REMARK    1  A    between atoms: N1_1  and  C1_4 
REMARK    2  A    between atoms: C4_7  and  N2_8 
REMARK    3  A    between atoms: N2_8  and  C5_10 
REMARK    4  A    between atoms: C5_10  and  C6_11 
REMARK    5  A    between atoms: C6_11  and  C7_12 
REMARK    6  A    between atoms: C7_12  and  C8_13 
REMARK    7  A    between atoms: C8_13  and  C9_14 
REMARK    8  A    between atoms: C9_14  and  C10_15 
REMARK    9  A    between atoms: C10_15  and  C11_16 
REMARK   10  A    between atoms: C11_16  and  C12_17 
REMARK   11  A    between atoms: C12_17  and  N3_18 
REMARK   12  A    between atoms: C13_22  and  N4_23 
REMARK   13  A    between atoms: C15_25  and  C16_26 
ROOT
HETATM    1  C1  UNL     1       4.483  78.534  28.501  1.00  0.00     0.100 A 
HETATM    2  C2  UNL     1       3.419  79.209  27.945  1.00  0.00     0.050 A 
HETATM    3  C3  UNL     1       2.217  78.499  27.844  1.00  0.00     0.037 A 
HETATM    4  C4  UNL     1       2.109  77.205  28.274  1.00  0.00     0.074 A 
HETATM    5  C13 UNL     1       3.209  76.592  28.819  1.00  0.00     0.156 A 
HETATM    6  N7  UNL     1       4.386  77.256  28.930  1.00  0.00    -0.326 N 
ATOM      7  H7  UNL     1       5.198  76.792  29.336  1.00  0.00     0.169 HD
ENDROOT
BRANCH   4   8
HETATM    8  N2  UNL     1       0.897  76.503  28.167  1.00  0.00    -0.387 N 
ATOM      9  H2  UNL     1       0.862  75.499  28.345  1.00  0.00     0.159 HD
BRANCH   8  10
HETATM   10  C5  UNL     1      -0.299  77.227  27.799  1.00  0.00     0.120 C 
BRANCH  10  11
HETATM   11  C6  UNL     1      -1.079  76.520  26.719  1.00  0.00     0.020 C 
BRANCH  11  12
HETATM   12  C7  UNL     1      -0.976  77.189  25.392  1.00  0.00     0.002 C 
BRANCH  12  13
HETATM   13  C8  UNL     1      -2.022  78.265  25.196  1.00  0.00     0.000 C 
BRANCH  13  14
HETATM   14  C9  UNL     1      -3.393  77.707  25.458  1.00  0.00     0.000 C 
BRANCH  14  15
HETATM   15  C10 UNL     1      -4.208  78.561  26.374  1.00  0.00     0.002 C 
BRANCH  15  16
HETATM   16  C11 UNL     1      -3.436  79.623  27.038  1.00  0.00     0.027 C 
BRANCH  16  17
HETATM   17  C12 UNL     1      -4.109  80.844  27.496  1.00  0.00     0.229 C 
BRANCH  17  18
HETATM   18  N3  UNL     1      -3.860  82.076  26.864  1.00  0.00    -0.079 N 
ATOM     19  H33 UNL     1      -2.934  82.036  26.439  1.00  0.00     0.274 HD
ATOM     20  H32 UNL     1      -4.462  82.142  26.043  1.00  0.00     0.274 HD
ATOM     21  H31 UNL     1      -3.935  82.949  27.385  1.00  0.00     0.274 HD
ENDBRANCH  17  18
ENDBRANCH  16  17
ENDBRANCH  15  16
ENDBRANCH  14  15
ENDBRANCH  13  14
ENDBRANCH  12  13
ENDBRANCH  11  12
ENDBRANCH  10  11
ENDBRANCH   8  10
ENDBRANCH   4   8
BRANCH   5  22
HETATM   22  N4  UNL     1       3.098  75.236  29.272  1.00  0.00    -0.232 N 
HETATM   23  C14 UNL     1       3.429  74.119  28.609  1.00  0.00     0.151 A 
HETATM   24  C15 UNL     1       3.165  73.020  29.400  1.00  0.00     0.077 A 
HETATM   25  N5  UNL     1       2.663  73.545  30.558  1.00  0.00    -0.284 N 
HETATM   26  N6  UNL     1       2.637  74.852  30.447  1.00  0.00    -0.234 N 
ATOM     27  H5  UNL     1       2.359  73.010  31.371  1.00  0.00     0.188 HD
ATOM     28  H6  UNL     1       2.306  75.487  31.174  1.00  0.00     0.209 HD
BRANCH  24  29
HETATM   29  C16 UNL     1       3.366  71.610  29.096  1.00  0.00    -0.007 A 
HETATM   30  C17 UNL     1       2.764  70.672  29.897  1.00  0.00     0.014 A 
HETATM   31  C18 UNL     1       2.913  69.306  29.664  1.00  0.00     0.001 A 
HETATM   32  C19 UNL     1       3.690  68.943  28.596  1.00  0.00     0.000 A 
HETATM   33  C20 UNL     1       4.301  69.886  27.781  1.00  0.00     0.001 A 
HETATM   34  C21 UNL     1       4.146  71.248  28.023  1.00  0.00     0.014 A 
ENDBRANCH  24  29
ENDBRANCH   5  22
BRANCH   1  35
HETATM   35  N1  UNL     1       5.597  79.192  28.596  1.00  0.00    -0.385 N 
ATOM     36  H12 UNL     1       5.691  80.131  28.205  1.00  0.00     0.157 HD
ATOM     37  H11 UNL     1       6.362  78.720  29.077  1.00  0.00     0.157 HD
ENDBRANCH   1  35
TORSDOF 13
ENDMDL
