MODEL 1
REMARK VINA RESULT: -8.897647714      0.000      0.000
REMARK  17 active torsions:
REMARK  status: ('A' for Active; 'I' for Inactive)
REMARK    1  A    between atoms: C2_2  and  C3_3 
REMARK    2  A    between atoms: C4_4  and  C5_5 
REMARK    3  A    between atoms: C5_5  and  C6_6 
REMARK    4  A    between atoms: C6_6  and  C7_7 
REMARK    5  A    between atoms: C6_6  and  C12_12 
REMARK    6  A    between atoms: C7_7  and  C8_8 
REMARK       I    between atoms: C12_12  and  N1_14 
REMARK    7  A    between atoms: N1_14  and  C13_16 
REMARK    8  A    between atoms: C13_16  and  C14_17 
REMARK    9  A    between atoms: C16_19  and  C17_20 
REMARK   10  A    between atoms: C17_20  and  N2_21 
REMARK       I    between atoms: N2_21  and  C18_22 
REMARK   11  A    between atoms: C18_22  and  C19_24 
REMARK   12  A    between atoms: C20_27  and  C21_28 
REMARK   13  A    between atoms: C21_28  and  O3_30 
REMARK   14  A    between atoms: C31_42  and  O4_43 
REMARK   15  A    between atoms: O4_43  and  C32_44 
REMARK       I    between atoms: C32_44  and  N5_46 
REMARK   16  A    between atoms: N5_46  and  C33_47 
REMARK   17  A    between atoms: N5_46  and  C35_49 
ROOT
HETATM    1  C12 UNL     1      18.561  25.308  14.382  1.00  0.00     0.255 C 
HETATM    2  O1  UNL     1      19.120  25.179  13.265  1.00  0.00    -0.267 OA
HETATM    3  N1  UNL     1      18.759  26.536  15.063  1.00  0.00    -0.352 N 
ATOM      4  H1  UNL     1      18.320  26.668  15.974  1.00  0.00     0.163 HD
ENDROOT
BRANCH   1   5
HETATM    5  C6  UNL     1      17.730  24.226  14.942  1.00  0.00     0.055 C 
BRANCH   5   6
HETATM    6  C5  UNL     1      18.132  24.065  16.480  1.00  0.00     0.091 C 
BRANCH   6   7
HETATM    7  C4  UNL     1      17.606  22.910  17.126  1.00  0.00    -0.044 A 
HETATM    8  C3  UNL     1      16.318  22.844  17.644  1.00  0.00    -0.018 A 
HETATM    9  C31 UNL     1      15.779  21.692  18.185  1.00  0.00     0.087 A 
HETATM   10  C30 UNL     1      16.553  20.573  18.218  1.00  0.00     0.038 A 
HETATM   11  C29 UNL     1      17.855  20.573  17.716  1.00  0.00     0.003 A 
HETATM   12  C28 UNL     1      18.384  21.756  17.170  1.00  0.00     0.008 A 
BRANCH   8  13
HETATM   13  C2  UNL     1      15.526  24.061  17.798  1.00  0.00     0.037 C 
HETATM   14  C1  UNL     1      16.443  25.058  18.552  1.00  0.00     0.010 C 
ENDBRANCH   8  13
BRANCH   9  15
HETATM   15  O4  UNL     1      14.440  21.676  18.676  1.00  0.00    -0.261 OA
BRANCH  15  16
HETATM   16  C32 UNL     1      13.665  20.653  18.039  1.00  0.00     0.368 C 
HETATM   17  O5  UNL     1      13.459  20.816  16.781  1.00  0.00    -0.238 OA
HETATM   18  N5  UNL     1      13.133  19.503  18.632  1.00  0.00    -0.328 N 
BRANCH  18  19
HETATM   19  C33 UNL     1      12.383  18.492  17.884  1.00  0.00     0.123 C 
HETATM   20  C34 UNL     1      10.898  18.860  17.796  1.00  0.00     0.026 C 
ENDBRANCH  18  19
BRANCH  18  21
HETATM   21  C35 UNL     1      13.336  19.296  20.071  1.00  0.00     0.123 C 
HETATM   22  C36 UNL     1      13.357  17.849  20.385  1.00  0.00     0.026 C 
ENDBRANCH  18  21
ENDBRANCH  15  16
ENDBRANCH   9  15
ENDBRANCH   6   7
ENDBRANCH   5   6
BRANCH   5  23
HETATM   23  C7  UNL     1      16.864  23.506  14.428  1.00  0.00    -0.134 C 
BRANCH  23  24
HETATM   24  C8  UNL     1      15.640  22.937  13.918  1.00  0.00     0.005 C 
HETATM   25  C9  UNL     1      15.703  21.414  14.288  1.00  0.00     0.027 C 
HETATM   26  C10 UNL     1      14.379  23.458  14.499  1.00  0.00     0.027 C 
HETATM   27  C11 UNL     1      15.506  22.891  12.387  1.00  0.00     0.027 C 
ENDBRANCH  23  24
ENDBRANCH   5  23
ENDBRANCH   1   5
BRANCH   3  28
HETATM   28  C13 UNL     1      19.573  27.626  14.506  1.00  0.00     0.169 C 
BRANCH  28  29
HETATM   29  C14 UNL     1      20.870  27.638  15.231  1.00  0.00     0.001 A 
HETATM   30  C15 UNL     1      21.011  27.357  16.600  1.00  0.00     0.026 A 
HETATM   31  C16 UNL     1      22.286  27.432  17.125  1.00  0.00    -0.021 A 
HETATM   32  C27 UNL     1      23.250  27.779  16.233  1.00  0.00     0.060 A 
HETATM   33  S1  UNL     1      22.458  27.999  14.776  1.00  0.00    -0.104 SA
BRANCH  31  34
HETATM   34  C17 UNL     1      22.501  27.111  18.543  1.00  0.00     0.261 C 
BRANCH  34  35
HETATM   35  N2  UNL     1      21.589  25.952  19.031  1.00  0.00    -0.407 NA
HETATM   36  C18 UNL     1      20.888  25.071  19.402  1.00  0.00     0.340 C 
HETATM   37  O2  UNL     1      19.657  24.844  19.407  1.00  0.00    -0.253 OA
BRANCH  36  38
HETATM   38  C19 UNL     1      21.610  23.813  20.029  1.00  0.00     0.430 C 
HETATM   39  N3  UNL     1      22.887  23.683  19.540  1.00  0.00    -0.351 N 
HETATM   40  C20 UNL     1      23.792  23.978  20.386  1.00  0.00     0.070 C 
ATOM     41  H3  UNL     1      23.092  23.377  18.589  1.00  0.00     0.162 HD
HETATM   42  C23 UNL     1      23.149  24.373  21.632  1.00  0.00     0.278 C 
HETATM   43  C24 UNL     1      23.354  25.866  21.901  1.00  0.00     0.044 C 
HETATM   44  N4  UNL     1      21.764  24.109  21.441  1.00  0.00     0.132 N 
HETATM   45  C25 UNL     1      22.008  26.341  22.280  1.00  0.00     0.033 C 
HETATM   46  C26 UNL     1      21.035  25.229  21.931  1.00  0.00     0.277 C 
BRANCH  40  47
HETATM   47  C21 UNL     1      25.243  23.913  20.109  1.00  0.00     0.064 C 
HETATM   48  C22 UNL     1      26.327  23.727  21.061  1.00  0.00     0.078 C 
BRANCH  47  49
HETATM   49  O3  UNL     1      25.570  24.037  18.845  1.00  0.00    -0.363 OA
ATOM     50  H3  UNL     1      26.312  24.606  18.679  1.00  0.00     0.217 HD
ENDBRANCH  47  49
ENDBRANCH  40  47
ENDBRANCH  36  38
ENDBRANCH  34  35
ENDBRANCH  31  34
ENDBRANCH  28  29
ENDBRANCH   3  28
TORSDOF 17
ENDMDL
MODEL 2
REMARK VINA RESULT: -8.850748325      1.253      2.100
REMARK  17 active torsions:
REMARK  status: ('A' for Active; 'I' for Inactive)
REMARK    1  A    between atoms: C2_2  and  C3_3 
REMARK    2  A    between atoms: C4_4  and  C5_5 
REMARK    3  A    between atoms: C5_5  and  C6_6 
REMARK    4  A    between atoms: C6_6  and  C7_7 
REMARK    5  A    between atoms: C6_6  and  C12_12 
REMARK    6  A    between atoms: C7_7  and  C8_8 
REMARK       I    between atoms: C12_12  and  N1_14 
REMARK    7  A    between atoms: N1_14  and  C13_16 
REMARK    8  A    between atoms: C13_16  and  C14_17 
REMARK    9  A    between atoms: C16_19  and  C17_20 
REMARK   10  A    between atoms: C17_20  and  N2_21 
REMARK       I    between atoms: N2_21  and  C18_22 
REMARK   11  A    between atoms: C18_22  and  C19_24 
REMARK   12  A    between atoms: C20_27  and  C21_28 
REMARK   13  A    between atoms: C21_28  and  O3_30 
REMARK   14  A    between atoms: C31_42  and  O4_43 
REMARK   15  A    between atoms: O4_43  and  C32_44 
REMARK       I    between atoms: C32_44  and  N5_46 
REMARK   16  A    between atoms: N5_46  and  C33_47 
REMARK   17  A    between atoms: N5_46  and  C35_49 
ROOT
HETATM    1  C12 UNL     1      18.496  25.304  14.260  1.00  0.00     0.255 C 
HETATM    2  O1  UNL     1      19.054  25.195  13.141  1.00  0.00    -0.267 OA
HETATM    3  N1  UNL     1      18.707  26.514  14.970  1.00  0.00    -0.352 N 
ATOM      4  H1  UNL     1      18.270  26.629  15.884  1.00  0.00     0.163 HD
ENDROOT
BRANCH   1   5
HETATM    5  C6  UNL     1      17.655  24.217  14.796  1.00  0.00     0.055 C 
BRANCH   5   6
HETATM    6  C5  UNL     1      18.060  24.013  16.328  1.00  0.00     0.091 C 
BRANCH   6   7
HETATM    7  C4  UNL     1      17.519  22.850  16.948  1.00  0.00    -0.044 A 
HETATM    8  C3  UNL     1      16.255  22.809  17.524  1.00  0.00    -0.018 A 
HETATM    9  C31 UNL     1      15.696  21.655  18.039  1.00  0.00     0.087 A 
HETATM   10  C30 UNL     1      16.426  20.508  17.987  1.00  0.00     0.038 A 
HETATM   11  C29 UNL     1      17.702  20.481  17.424  1.00  0.00     0.003 A 
HETATM   12  C28 UNL     1      18.252  21.667  16.905  1.00  0.00     0.008 A 
BRANCH   8  13
HETATM   13  C2  UNL     1      15.520  24.047  17.767  1.00  0.00     0.037 C 
HETATM   14  C1  UNL     1      16.495  24.959  18.555  1.00  0.00     0.010 C 
ENDBRANCH   8  13
BRANCH   9  15
HETATM   15  O4  UNL     1      14.382  21.667  18.592  1.00  0.00    -0.261 OA
BRANCH  15  16
HETATM   16  C32 UNL     1      13.547  20.681  17.972  1.00  0.00     0.368 C 
HETATM   17  O5  UNL     1      13.312  20.860  16.722  1.00  0.00    -0.238 OA
HETATM   18  N5  UNL     1      12.988  19.549  18.574  1.00  0.00    -0.328 N 
BRANCH  18  19
HETATM   19  C33 UNL     1      12.176  18.573  17.842  1.00  0.00     0.123 C 
HETATM   20  C34 UNL     1      10.939  18.169  18.651  1.00  0.00     0.026 C 
ENDBRANCH  18  19
BRANCH  18  21
HETATM   21  C35 UNL     1      13.225  19.323  20.005  1.00  0.00     0.123 C 
HETATM   22  C36 UNL     1      14.220  18.244  20.198  1.00  0.00     0.026 C 
ENDBRANCH  18  21
ENDBRANCH  15  16
ENDBRANCH   9  15
ENDBRANCH   6   7
ENDBRANCH   5   6
BRANCH   5  23
HETATM   23  C7  UNL     1      16.779  23.520  14.268  1.00  0.00    -0.134 C 
BRANCH  23  24
HETATM   24  C8  UNL     1      15.539  22.932  13.823  1.00  0.00     0.005 C 
HETATM   25  C9  UNL     1      15.636  21.415  14.211  1.00  0.00     0.027 C 
HETATM   26  C10 UNL     1      14.301  23.448  14.453  1.00  0.00     0.027 C 
HETATM   27  C11 UNL     1      15.336  22.862  12.301  1.00  0.00     0.027 C 
ENDBRANCH  23  24
ENDBRANCH   5  23
ENDBRANCH   1   5
BRANCH   3  28
HETATM   28  C13 UNL     1      19.531  27.609  14.438  1.00  0.00     0.169 C 
BRANCH  28  29
HETATM   29  C14 UNL     1      20.808  27.623  15.198  1.00  0.00     0.001 A 
HETATM   30  C15 UNL     1      21.069  26.815  16.317  1.00  0.00     0.026 A 
HETATM   31  C16 UNL     1      22.300  26.967  16.924  1.00  0.00    -0.021 A 
HETATM   32  C27 UNL     1      23.106  27.899  16.351  1.00  0.00     0.060 A 
HETATM   33  S1  UNL     1      22.229  28.532  15.075  1.00  0.00    -0.104 SA
BRANCH  31  34
HETATM   34  C17 UNL     1      22.645  26.120  18.074  1.00  0.00     0.261 C 
BRANCH  34  35
HETATM   35  N2  UNL     1      22.229  26.761  19.426  1.00  0.00    -0.407 NA
HETATM   36  C18 UNL     1      21.915  27.254  20.457  1.00  0.00     0.340 C 
HETATM   37  O2  UNL     1      22.166  28.326  21.053  1.00  0.00    -0.253 OA
BRANCH  36  38
HETATM   38  C19 UNL     1      20.899  26.437  21.349  1.00  0.00     0.430 C 
HETATM   39  N3  UNL     1      20.158  25.569  20.584  1.00  0.00    -0.351 N 
HETATM   40  C20 UNL     1      20.478  24.347  20.738  1.00  0.00     0.070 C 
ATOM     41  H3  UNL     1      19.419  25.876  19.951  1.00  0.00     0.162 HD
HETATM   42  C23 UNL     1      21.565  24.273  21.707  1.00  0.00     0.278 C 
HETATM   43  C24 UNL     1      22.866  23.831  21.032  1.00  0.00     0.044 C 
HETATM   44  N4  UNL     1      21.714  25.596  22.207  1.00  0.00     0.132 N 
HETATM   45  C25 UNL     1      23.870  24.779  21.553  1.00  0.00     0.033 C 
HETATM   46  C26 UNL     1      23.106  25.896  22.241  1.00  0.00     0.277 C 
BRANCH  40  47
HETATM   47  C21 UNL     1      19.827  23.221  20.036  1.00  0.00     0.064 C 
HETATM   48  C22 UNL     1      18.733  22.386  20.507  1.00  0.00     0.078 C 
BRANCH  47  49
HETATM   49  O3  UNL     1      20.308  22.962  18.844  1.00  0.00    -0.363 OA
ATOM     50  H3  UNL     1      20.056  22.119  18.486  1.00  0.00     0.217 HD
ENDBRANCH  47  49
ENDBRANCH  40  47
ENDBRANCH  36  38
ENDBRANCH  34  35
ENDBRANCH  31  34
ENDBRANCH  28  29
ENDBRANCH   3  28
TORSDOF 17
ENDMDL
MODEL 3
REMARK VINA RESULT: -8.529733309      2.831     10.507
REMARK  17 active torsions:
REMARK  status: ('A' for Active; 'I' for Inactive)
REMARK    1  A    between atoms: C2_2  and  C3_3 
REMARK    2  A    between atoms: C4_4  and  C5_5 
REMARK    3  A    between atoms: C5_5  and  C6_6 
REMARK    4  A    between atoms: C6_6  and  C7_7 
REMARK    5  A    between atoms: C6_6  and  C12_12 
REMARK    6  A    between atoms: C7_7  and  C8_8 
REMARK       I    between atoms: C12_12  and  N1_14 
REMARK    7  A    between atoms: N1_14  and  C13_16 
REMARK    8  A    between atoms: C13_16  and  C14_17 
REMARK    9  A    between atoms: C16_19  and  C17_20 
REMARK   10  A    between atoms: C17_20  and  N2_21 
REMARK       I    between atoms: N2_21  and  C18_22 
REMARK   11  A    between atoms: C18_22  and  C19_24 
REMARK   12  A    between atoms: C20_27  and  C21_28 
REMARK   13  A    between atoms: C21_28  and  O3_30 
REMARK   14  A    between atoms: C31_42  and  O4_43 
REMARK   15  A    between atoms: O4_43  and  C32_44 
REMARK       I    between atoms: C32_44  and  N5_46 
REMARK   16  A    between atoms: N5_46  and  C33_47 
REMARK   17  A    between atoms: N5_46  and  C35_49 
ROOT
HETATM    1  C12 UNL     1      19.768  24.852  18.251  1.00  0.00     0.255 C 
HETATM    2  O1  UNL     1      20.434  23.802  18.420  1.00  0.00    -0.267 OA
HETATM    3  N1  UNL     1      18.535  24.951  18.944  1.00  0.00    -0.352 N 
ATOM      4  H1  UNL     1      17.970  25.792  18.822  1.00  0.00     0.163 HD
ENDROOT
BRANCH   1   5
HETATM    5  C6  UNL     1      20.264  25.930  17.374  1.00  0.00     0.055 C 
BRANCH   5   6
HETATM    6  C5  UNL     1      21.061  26.963  18.296  1.00  0.00     0.091 C 
BRANCH   6   7
HETATM    7  C4  UNL     1      22.472  26.775  18.337  1.00  0.00    -0.044 A 
HETATM    8  C3  UNL     1      23.122  26.089  19.357  1.00  0.00    -0.018 A 
HETATM    9  C31 UNL     1      24.479  25.826  19.346  1.00  0.00     0.087 A 
HETATM   10  C30 UNL     1      25.211  26.271  18.288  1.00  0.00     0.038 A 
HETATM   11  C29 UNL     1      24.621  26.966  17.233  1.00  0.00     0.003 A 
HETATM   12  C28 UNL     1      23.238  27.223  17.265  1.00  0.00     0.008 A 
BRANCH   8  13
HETATM   13  C2  UNL     1      22.411  25.762  20.589  1.00  0.00     0.037 C 
HETATM   14  C1  UNL     1      22.515  27.029  21.476  1.00  0.00     0.010 C 
ENDBRANCH   8  13
BRANCH   9  15
HETATM   15  O4  UNL     1      25.086  25.091  20.405  1.00  0.00    -0.261 OA
BRANCH  15  16
HETATM   16  C32 UNL     1      25.358  23.740  20.014  1.00  0.00     0.368 C 
HETATM   17  O5  UNL     1      24.325  23.015  19.772  1.00  0.00    -0.238 OA
HETATM   18  N5  UNL     1      26.613  23.144  19.851  1.00  0.00    -0.328 N 
BRANCH  18  19
HETATM   19  C33 UNL     1      26.788  21.760  19.407  1.00  0.00     0.123 C 
HETATM   20  C34 UNL     1      27.797  21.021  20.292  1.00  0.00     0.026 C 
ENDBRANCH  18  19
BRANCH  18  21
HETATM   21  C35 UNL     1      27.813  23.941  20.134  1.00  0.00     0.123 C 
HETATM   22  C36 UNL     1      28.385  24.475  18.877  1.00  0.00     0.026 C 
ENDBRANCH  18  21
ENDBRANCH  15  16
ENDBRANCH   9  15
ENDBRANCH   6   7
ENDBRANCH   5   6
BRANCH   5  23
HETATM   23  C7  UNL     1      20.150  26.116  16.156  1.00  0.00    -0.134 C 
BRANCH  23  24
HETATM   24  C8  UNL     1      20.318  26.141  14.723  1.00  0.00     0.005 C 
HETATM   25  C9  UNL     1      21.411  25.059  14.413  1.00  0.00     0.027 C 
HETATM   26  C10 UNL     1      19.130  25.782  13.913  1.00  0.00     0.027 C 
HETATM   27  C11 UNL     1      20.955  27.415  14.144  1.00  0.00     0.027 C 
ENDBRANCH  23  24
ENDBRANCH   5  23
ENDBRANCH   1   5
BRANCH   3  28
HETATM   28  C13 UNL     1      18.039  23.890  19.831  1.00  0.00     0.169 C 
BRANCH  28  29
HETATM   29  C14 UNL     1      17.159  23.003  19.027  1.00  0.00     0.001 A 
HETATM   30  C15 UNL     1      16.369  23.441  17.951  1.00  0.00     0.026 A 
HETATM   31  C16 UNL     1      15.589  22.491  17.322  1.00  0.00    -0.021 A 
HETATM   32  C27 UNL     1      15.687  21.238  17.839  1.00  0.00     0.060 A 
HETATM   33  S1  UNL     1      16.767  21.360  19.112  1.00  0.00    -0.104 SA
BRANCH  31  34
HETATM   34  C17 UNL     1      14.772  22.882  16.165  1.00  0.00     0.261 C 
BRANCH  34  35
HETATM   35  N2  UNL     1      15.008  21.964  14.935  1.00  0.00    -0.407 NA
HETATM   36  C18 UNL     1      15.192  21.266  13.995  1.00  0.00     0.340 C 
HETATM   37  O2  UNL     1      15.968  21.269  13.013  1.00  0.00    -0.253 OA
BRANCH  36  38
HETATM   38  C19 UNL     1      14.302  19.964  13.899  1.00  0.00     0.430 C 
HETATM   39  N3  UNL     1      13.768  19.640  15.122  1.00  0.00    -0.351 N 
HETATM   40  C20 UNL     1      12.518  19.864  15.212  1.00  0.00     0.070 C 
ATOM     41  H3  UNL     1      14.321  19.254  15.888  1.00  0.00     0.162 HD
HETATM   42  C23 UNL     1      12.055  20.412  13.943  1.00  0.00     0.278 C 
HETATM   43  C24 UNL     1      11.647  21.880  14.102  1.00  0.00     0.044 C 
HETATM   44  N4  UNL     1      13.169  20.320  13.064  1.00  0.00     0.132 N 
HETATM   45  C25 UNL     1      12.290  22.547  12.953  1.00  0.00     0.033 C 
HETATM   46  C26 UNL     1      13.273  21.553  12.359  1.00  0.00     0.277 C 
BRANCH  40  47
HETATM   47  C21 UNL     1      11.708  19.595  16.419  1.00  0.00     0.064 C 
HETATM   48  C22 UNL     1      12.092  19.771  17.811  1.00  0.00     0.078 C 
BRANCH  47  49
HETATM   49  O3  UNL     1      10.499  19.146  16.183  1.00  0.00    -0.363 OA
ATOM     50  H3  UNL     1       9.948  19.730  15.677  1.00  0.00     0.217 HD
ENDBRANCH  47  49
ENDBRANCH  40  47
ENDBRANCH  36  38
ENDBRANCH  34  35
ENDBRANCH  31  34
ENDBRANCH  28  29
ENDBRANCH   3  28
TORSDOF 17
ENDMDL
MODEL 4
REMARK VINA RESULT: -8.512873618      3.004      5.265
REMARK  17 active torsions:
REMARK  status: ('A' for Active; 'I' for Inactive)
REMARK    1  A    between atoms: C2_2  and  C3_3 
REMARK    2  A    between atoms: C4_4  and  C5_5 
REMARK    3  A    between atoms: C5_5  and  C6_6 
REMARK    4  A    between atoms: C6_6  and  C7_7 
REMARK    5  A    between atoms: C6_6  and  C12_12 
REMARK    6  A    between atoms: C7_7  and  C8_8 
REMARK       I    between atoms: C12_12  and  N1_14 
REMARK    7  A    between atoms: N1_14  and  C13_16 
REMARK    8  A    between atoms: C13_16  and  C14_17 
REMARK    9  A    between atoms: C16_19  and  C17_20 
REMARK   10  A    between atoms: C17_20  and  N2_21 
REMARK       I    between atoms: N2_21  and  C18_22 
REMARK   11  A    between atoms: C18_22  and  C19_24 
REMARK   12  A    between atoms: C20_27  and  C21_28 
REMARK   13  A    between atoms: C21_28  and  O3_30 
REMARK   14  A    between atoms: C31_42  and  O4_43 
REMARK   15  A    between atoms: O4_43  and  C32_44 
REMARK       I    between atoms: C32_44  and  N5_46 
REMARK   16  A    between atoms: N5_46  and  C33_47 
REMARK   17  A    between atoms: N5_46  and  C35_49 
ROOT
HETATM    1  C12 UNL     1      17.154  23.113  16.401  1.00  0.00     0.255 C 
HETATM    2  O1  UNL     1      18.171  23.393  15.721  1.00  0.00    -0.267 OA
HETATM    3  N1  UNL     1      16.922  23.892  17.563  1.00  0.00    -0.352 N 
ATOM      4  H1  UNL     1      16.105  23.685  18.138  1.00  0.00     0.163 HD
ENDROOT
BRANCH   1   5
HETATM    5  C6  UNL     1      16.244  22.026  15.990  1.00  0.00     0.055 C 
BRANCH   5   6
HETATM    6  C5  UNL     1      16.143  22.068  14.396  1.00  0.00     0.091 C 
BRANCH   6   7
HETATM    7  C4  UNL     1      14.821  22.159  13.875  1.00  0.00    -0.044 A 
HETATM    8  C3  UNL     1      14.186  21.113  13.215  1.00  0.00    -0.018 A 
HETATM    9  C31 UNL     1      12.871  21.172  12.795  1.00  0.00     0.087 A 
HETATM   10  C30 UNL     1      12.170  22.315  13.033  1.00  0.00     0.038 A 
HETATM   11  C29 UNL     1      12.748  23.401  13.690  1.00  0.00     0.003 A 
HETATM   12  C28 UNL     1      14.089  23.320  14.109  1.00  0.00     0.008 A 
BRANCH   8  13
HETATM   13  C2  UNL     1      14.952  19.951  12.776  1.00  0.00     0.037 C 
HETATM   14  C1  UNL     1      15.702  20.407  11.499  1.00  0.00     0.010 C 
ENDBRANCH   8  13
BRANCH   9  15
HETATM   15  O4  UNL     1      12.263  20.057  12.148  1.00  0.00    -0.261 OA
BRANCH  15  16
HETATM   16  C32 UNL     1      11.594  19.209  13.090  1.00  0.00     0.368 C 
HETATM   17  O5  UNL     1      10.814  19.807  13.917  1.00  0.00    -0.238 OA
HETATM   18  N5  UNL     1      11.687  17.817  13.186  1.00  0.00    -0.328 N 
BRANCH  18  19
HETATM   19  C33 UNL     1      10.929  17.031  14.163  1.00  0.00     0.123 C 
HETATM   20  C34 UNL     1      11.427  15.583  14.211  1.00  0.00     0.026 C 
ENDBRANCH  18  19
BRANCH  18  21
HETATM   21  C35 UNL     1      12.582  17.105  12.266  1.00  0.00     0.123 C 
HETATM   22  C36 UNL     1      11.889  16.826  10.987  1.00  0.00     0.026 C 
ENDBRANCH  18  21
ENDBRANCH  15  16
ENDBRANCH   9  15
ENDBRANCH   6   7
ENDBRANCH   5   6
BRANCH   5  23
HETATM   23  C7  UNL     1      15.618  21.187  16.649  1.00  0.00    -0.134 C 
BRANCH  23  24
HETATM   24  C8  UNL     1      14.661  20.481  17.466  1.00  0.00     0.005 C 
HETATM   25  C9  UNL     1      14.295  21.470  18.627  1.00  0.00     0.027 C 
HETATM   26  C10 UNL     1      13.382  20.111  16.813  1.00  0.00     0.027 C 
HETATM   27  C11 UNL     1      15.201  19.266  18.237  1.00  0.00     0.027 C 
ENDBRANCH  23  24
ENDBRANCH   5  23
ENDBRANCH   1   5
BRANCH   3  28
HETATM   28  C13 UNL     1      17.814  24.987  17.972  1.00  0.00     0.169 C 
BRANCH  28  29
HETATM   29  C14 UNL     1      18.640  24.497  19.106  1.00  0.00     0.001 A 
HETATM   30  C15 UNL     1      19.853  23.806  18.957  1.00  0.00     0.026 A 
HETATM   31  C16 UNL     1      20.487  23.400  20.116  1.00  0.00    -0.021 A 
HETATM   32  C27 UNL     1      19.837  23.724  21.264  1.00  0.00     0.060 A 
HETATM   33  S1  UNL     1      18.446  24.521  20.786  1.00  0.00    -0.104 SA
BRANCH  31  34
HETATM   34  C17 UNL     1      21.779  22.707  20.023  1.00  0.00     0.261 C 
BRANCH  34  35
HETATM   35  N2  UNL     1      22.961  23.593  20.505  1.00  0.00    -0.407 NA
HETATM   36  C18 UNL     1      23.863  24.265  20.876  1.00  0.00     0.340 C 
HETATM   37  O2  UNL     1      24.706  24.207  21.800  1.00  0.00    -0.253 OA
BRANCH  36  38
HETATM   38  C19 UNL     1      24.173  25.561  20.027  1.00  0.00     0.430 C 
HETATM   39  N3  UNL     1      23.344  25.646  18.935  1.00  0.00    -0.351 N 
HETATM   40  C20 UNL     1      22.453  26.549  19.035  1.00  0.00     0.070 C 
ATOM     41  H3  UNL     1      23.434  25.040  18.119  1.00  0.00     0.162 HD
HETATM   42  C23 UNL     1      22.613  27.215  20.321  1.00  0.00     0.278 C 
HETATM   43  C24 UNL     1      21.437  26.897  21.249  1.00  0.00     0.044 C 
HETATM   44  N4  UNL     1      23.812  26.684  20.874  1.00  0.00     0.132 N 
HETATM   45  C25 UNL     1      22.084  26.556  22.530  1.00  0.00     0.033 C 
HETATM   46  C26 UNL     1      23.565  26.383  22.244  1.00  0.00     0.277 C 
BRANCH  40  47
HETATM   47  C21 UNL     1      21.447  26.845  17.994  1.00  0.00     0.064 C 
HETATM   48  C22 UNL     1      21.237  26.153  16.731  1.00  0.00     0.078 C 
BRANCH  47  49
HETATM   49  O3  UNL     1      20.655  27.855  18.262  1.00  0.00    -0.363 OA
ATOM     50  H3  UNL     1      19.822  27.841  17.807  1.00  0.00     0.217 HD
ENDBRANCH  47  49
ENDBRANCH  40  47
ENDBRANCH  36  38
ENDBRANCH  34  35
ENDBRANCH  31  34
ENDBRANCH  28  29
ENDBRANCH   3  28
TORSDOF 17
ENDMDL
MODEL 5
REMARK VINA RESULT: -8.501772294      2.433      4.440
REMARK  17 active torsions:
REMARK  status: ('A' for Active; 'I' for Inactive)
REMARK    1  A    between atoms: C2_2  and  C3_3 
REMARK    2  A    between atoms: C4_4  and  C5_5 
REMARK    3  A    between atoms: C5_5  and  C6_6 
REMARK    4  A    between atoms: C6_6  and  C7_7 
REMARK    5  A    between atoms: C6_6  and  C12_12 
REMARK    6  A    between atoms: C7_7  and  C8_8 
REMARK       I    between atoms: C12_12  and  N1_14 
REMARK    7  A    between atoms: N1_14  and  C13_16 
REMARK    8  A    between atoms: C13_16  and  C14_17 
REMARK    9  A    between atoms: C16_19  and  C17_20 
REMARK   10  A    between atoms: C17_20  and  N2_21 
REMARK       I    between atoms: N2_21  and  C18_22 
REMARK   11  A    between atoms: C18_22  and  C19_24 
REMARK   12  A    between atoms: C20_27  and  C21_28 
REMARK   13  A    between atoms: C21_28  and  O3_30 
REMARK   14  A    between atoms: C31_42  and  O4_43 
REMARK   15  A    between atoms: O4_43  and  C32_44 
REMARK       I    between atoms: C32_44  and  N5_46 
REMARK   16  A    between atoms: N5_46  and  C33_47 
REMARK   17  A    between atoms: N5_46  and  C35_49 
ROOT
HETATM    1  C12 UNL     1      17.006  23.121  14.880  1.00  0.00     0.255 C 
HETATM    2  O1  UNL     1      17.446  24.227  14.481  1.00  0.00    -0.267 OA
HETATM    3  N1  UNL     1      17.721  22.484  15.927  1.00  0.00    -0.352 N 
ATOM      4  H1  UNL     1      17.389  21.582  16.268  1.00  0.00     0.163 HD
ENDROOT
BRANCH   1   5
HETATM    5  C6  UNL     1      15.795  22.528  14.283  1.00  0.00     0.055 C 
BRANCH   5   6
HETATM    6  C5  UNL     1      14.569  22.882  15.245  1.00  0.00     0.091 C 
BRANCH   6   7
HETATM    7  C4  UNL     1      13.439  22.022  15.128  1.00  0.00    -0.044 A 
HETATM    8  C3  UNL     1      13.350  20.788  15.762  1.00  0.00    -0.018 A 
HETATM    9  C31 UNL     1      12.215  19.999  15.725  1.00  0.00     0.087 A 
HETATM   10  C30 UNL     1      11.140  20.453  15.024  1.00  0.00     0.038 A 
HETATM   11  C29 UNL     1      11.165  21.682  14.365  1.00  0.00     0.003 A 
HETATM   12  C28 UNL     1      12.330  22.468  14.416  1.00  0.00     0.008 A 
BRANCH   8  13
HETATM   13  C2  UNL     1      14.536  20.184  16.362  1.00  0.00     0.037 C 
HETATM   14  C1  UNL     1      14.654  20.816  17.772  1.00  0.00     0.010 C 
ENDBRANCH   8  13
BRANCH   9  15
HETATM   15  O4  UNL     1      12.170  18.755  16.418  1.00  0.00    -0.261 OA
BRANCH  15  16
HETATM   16  C32 UNL     1      11.819  18.938  17.795  1.00  0.00     0.368 C 
HETATM   17  O5  UNL     1      11.041  19.930  18.042  1.00  0.00    -0.238 OA
HETATM   18  N5  UNL     1      12.215  18.148  18.880  1.00  0.00    -0.328 N 
BRANCH  18  19
HETATM   19  C33 UNL     1      11.769  18.395  20.253  1.00  0.00     0.123 C 
HETATM   20  C34 UNL     1      12.934  18.850  21.137  1.00  0.00     0.026 C 
ENDBRANCH  18  19
BRANCH  18  21
HETATM   21  C35 UNL     1      13.117  17.016  18.634  1.00  0.00     0.123 C 
HETATM   22  C36 UNL     1      14.528  17.442  18.777  1.00  0.00     0.026 C 
ENDBRANCH  18  21
ENDBRANCH  15  16
ENDBRANCH   9  15
ENDBRANCH   6   7
ENDBRANCH   5   6
BRANCH   5  23
HETATM   23  C7  UNL     1      15.628  21.863  13.253  1.00  0.00    -0.134 C 
BRANCH  23  24
HETATM   24  C8  UNL     1      15.211  20.901  12.261  1.00  0.00     0.005 C 
HETATM   25  C9  UNL     1      13.982  21.555  11.539  1.00  0.00     0.027 C 
HETATM   26  C10 UNL     1      16.196  20.576  11.202  1.00  0.00     0.027 C 
HETATM   27  C11 UNL     1      14.607  19.595  12.803  1.00  0.00     0.027 C 
ENDBRANCH  23  24
ENDBRANCH   5  23
ENDBRANCH   1   5
BRANCH   3  28
HETATM   28  C13 UNL     1      18.920  23.074  16.539  1.00  0.00     0.169 C 
BRANCH  28  29
HETATM   29  C14 UNL     1      18.855  22.816  18.001  1.00  0.00     0.001 A 
HETATM   30  C15 UNL     1      19.486  23.613  18.971  1.00  0.00     0.026 A 
HETATM   31  C16 UNL     1      19.344  23.223  20.288  1.00  0.00    -0.021 A 
HETATM   32  C27 UNL     1      18.606  22.098  20.473  1.00  0.00     0.060 A 
HETATM   33  S1  UNL     1      18.148  21.602  18.942  1.00  0.00    -0.104 SA
BRANCH  31  34
HETATM   34  C17 UNL     1      19.949  24.040  21.349  1.00  0.00     0.261 C 
BRANCH  34  35
HETATM   35  N2  UNL     1      21.501  24.017  21.302  1.00  0.00    -0.407 NA
HETATM   36  C18 UNL     1      22.685  23.996  21.270  1.00  0.00     0.340 C 
HETATM   37  O2  UNL     1      23.590  23.388  21.887  1.00  0.00    -0.253 OA
BRANCH  36  38
HETATM   38  C19 UNL     1      23.378  24.906  20.180  1.00  0.00     0.430 C 
HETATM   39  N3  UNL     1      22.528  25.151  19.129  1.00  0.00    -0.351 N 
HETATM   40  C20 UNL     1      22.081  26.342  19.096  1.00  0.00     0.070 C 
ATOM     41  H3  UNL     1      22.278  24.443  18.438  1.00  0.00     0.162 HD
HETATM   42  C23 UNL     1      22.636  27.075  20.226  1.00  0.00     0.278 C 
HETATM   43  C24 UNL     1      21.545  27.410  21.247  1.00  0.00     0.044 C 
HETATM   44  N4  UNL     1      23.586  26.195  20.816  1.00  0.00     0.132 N 
HETATM   45  C25 UNL     1      22.150  27.037  22.541  1.00  0.00     0.033 C 
HETATM   46  C26 UNL     1      23.401  26.235  22.227  1.00  0.00     0.277 C 
BRANCH  40  47
HETATM   47  C21 UNL     1      21.157  26.857  18.063  1.00  0.00     0.064 C 
HETATM   48  C22 UNL     1      20.801  26.239  16.795  1.00  0.00     0.078 C 
BRANCH  47  49
HETATM   49  O3  UNL     1      20.600  28.009  18.345  1.00  0.00    -0.363 OA
ATOM     50  H3  UNL     1      21.181  28.648  18.741  1.00  0.00     0.217 HD
ENDBRANCH  47  49
ENDBRANCH  40  47
ENDBRANCH  36  38
ENDBRANCH  34  35
ENDBRANCH  31  34
ENDBRANCH  28  29
ENDBRANCH   3  28
TORSDOF 17
ENDMDL
