MODEL 1
REMARK VINA RESULT: -9.008065771      0.000      0.000
REMARK  15 active torsions:
REMARK  status: ('A' for Active; 'I' for Inactive)
REMARK    1  A    between atoms: C3_3  and  C4_4 
REMARK    2  A    between atoms: C6_6  and  N1_7 
REMARK    3  A    between atoms: N1_7  and  C7_9 
REMARK    4  A    between atoms: C10_14  and  N3_15 
REMARK    5  A    between atoms: N3_15  and  C11_17 
REMARK    6  A    between atoms: C15_21  and  O1_22 
REMARK    7  A    between atoms: O1_22  and  C16_23 
REMARK    8  A    between atoms: C16_23  and  C17_24 
REMARK    9  A    between atoms: C17_24  and  C18_25 
REMARK   10  A    between atoms: C18_25  and  N4_26 
REMARK   11  A    between atoms: C30_40  and  O2_41 
REMARK   12  A    between atoms: O2_41  and  C31_42 
REMARK   13  A    between atoms: C31_42  and  C32_43 
REMARK   14  A    between atoms: C32_43  and  C33_44 
REMARK   15  A    between atoms: C33_44  and  N6_45 
ROOT
HETATM    1  C1  UNL     1      14.504  19.509  12.420  1.00  0.00     0.112 C 
HETATM    2  C2  UNL     1      14.937  20.404  13.496  1.00  0.00    -0.105 C 
HETATM    3  C3  UNL     1      15.316  21.150  14.382  1.00  0.00    -0.065 C 
ENDROOT
BRANCH   3   4
HETATM    4  C4  UNL     1      15.790  22.022  15.427  1.00  0.00     0.047 A 
HETATM    5  C5  UNL     1      16.255  23.282  15.191  1.00  0.00     0.053 A 
HETATM    6  C6  UNL     1      16.719  24.126  16.208  1.00  0.00     0.051 A 
HETATM    7  C26 UNL     1      16.713  23.684  17.505  1.00  0.00     0.043 A 
HETATM    8  C27 UNL     1      16.244  22.410  17.764  1.00  0.00    -0.006 A 
HETATM    9  C28 UNL     1      16.214  21.918  19.049  1.00  0.00     0.018 A 
HETATM   10  C39 UNL     1      15.787  21.583  16.747  1.00  0.00     0.063 A 
HETATM   11  C29 UNL     1      15.733  20.630  19.287  1.00  0.00     0.057 A 
HETATM   12  C30 UNL     1      15.295  19.857  18.260  1.00  0.00     0.142 A 
HETATM   13  N8  UNL     1      15.335  20.364  17.000  1.00  0.00    -0.335 N 
ATOM     14  H8  UNL     1      15.007  19.788  16.225  1.00  0.00     0.168 HD
BRANCH   6  15
HETATM   15  N1  UNL     1      17.181  25.426  15.893  1.00  0.00    -0.192 N 
ATOM     16  H1  UNL     1      16.550  26.219  16.009  1.00  0.00     0.184 HD
BRANCH  15  17
HETATM   17  C7  UNL     1      18.375  25.631  15.463  1.00  0.00     0.684 A 
HETATM   18  N2  UNL     1      18.876  25.017  14.352  1.00  0.00    -0.202 N 
HETATM   19  C8  UNL     1      20.117  25.277  13.927  1.00  0.00     0.110 A 
ATOM     20  H2  UNL     1      18.296  24.352  13.840  1.00  0.00     0.183 HD
HETATM   21  C9  UNL     1      20.857  26.175  14.644  1.00  0.00     0.066 A 
HETATM   22  C10 UNL     1      20.368  26.826  15.793  1.00  0.00     0.122 A 
HETATM   23  N5  UNL     1      19.125  26.528  16.173  1.00  0.00    -0.176 N 
ATOM     24  H5  UNL     1      18.728  26.974  17.000  1.00  0.00     0.186 HD
BRANCH  22  25
HETATM   25  N3  UNL     1      21.114  27.653  16.392  1.00  0.00    -0.342 N 
ATOM     26  H3  UNL     1      21.197  28.587  15.990  1.00  0.00     0.167 HD
BRANCH  25  27
HETATM   27  C11 UNL     1      21.833  27.390  17.559  1.00  0.00     0.034 A 
HETATM   28  C12 UNL     1      21.266  27.629  18.817  1.00  0.00     0.039 A 
HETATM   29  C13 UNL     1      21.961  27.351  19.986  1.00  0.00    -0.026 A 
HETATM   30  C14 UNL     1      21.398  27.586  21.337  1.00  0.00     0.051 C 
HETATM   31  C15 UNL     1      23.230  26.833  19.885  1.00  0.00     0.080 A 
HETATM   32  C23 UNL     1      23.843  26.578  18.678  1.00  0.00    -0.026 A 
HETATM   33  C24 UNL     1      25.213  26.024  18.667  1.00  0.00     0.051 C 
HETATM   34  C25 UNL     1      23.108  26.871  17.548  1.00  0.00     0.039 A 
BRANCH  31  35
HETATM   35  O1  UNL     1      23.940  26.547  21.067  1.00  0.00    -0.350 OA
BRANCH  35  36
HETATM   36  C16 UNL     1      23.287  25.526  21.872  1.00  0.00     0.177 C 
BRANCH  36  37
HETATM   37  C17 UNL     1      23.143  24.268  21.109  1.00  0.00     0.057 C 
BRANCH  37  38
HETATM   38  C18 UNL     1      22.030  23.348  21.483  1.00  0.00     0.274 C 
BRANCH  38  39
HETATM   39  N4  UNL     1      20.992  23.125  20.558  1.00  0.00     0.088 N 
HETATM   40  C19 UNL     1      21.028  23.886  19.356  1.00  0.00     0.272 C 
HETATM   41  C20 UNL     1      19.638  24.492  19.188  1.00  0.00     0.032 C 
HETATM   42  C21 UNL     1      19.088  24.506  20.599  1.00  0.00     0.032 C 
HETATM   43  C22 UNL     1      19.687  23.236  21.158  1.00  0.00     0.272 C 
ENDBRANCH  38  39
ENDBRANCH  37  38
ENDBRANCH  36  37
ENDBRANCH  35  36
ENDBRANCH  31  35
ENDBRANCH  25  27
ENDBRANCH  22  25
ENDBRANCH  15  17
ENDBRANCH   6  15
BRANCH  12  44
HETATM   44  O2  UNL     1      14.799  18.567  18.393  1.00  0.00    -0.336 OA
BRANCH  44  45
HETATM   45  C31 UNL     1      13.921  18.196  19.419  1.00  0.00     0.179 C 
BRANCH  45  46
HETATM   46  C32 UNL     1      12.604  17.657  18.911  1.00  0.00     0.057 C 
BRANCH  46  47
HETATM   47  C33 UNL     1      11.692  18.816  18.624  1.00  0.00     0.274 C 
BRANCH  47  48
HETATM   48  N6  UNL     1      11.227  18.770  17.272  1.00  0.00     0.091 N 
HETATM   49  C34 UNL     1      12.010  19.638  16.439  1.00  0.00     0.302 C 
HETATM   50  C35 UNL     1      11.402  19.604  15.033  1.00  0.00     0.302 C 
HETATM   51  N7  UNL     1      11.605  18.265  14.524  1.00  0.00     0.087 N 
HETATM   52  C36 UNL     1      11.056  18.216  13.183  1.00  0.00     0.310 C 
HETATM   53  C37 UNL     1      10.928  17.277  15.347  1.00  0.00     0.302 C 
HETATM   54  C38 UNL     1      11.258  17.420  16.797  1.00  0.00     0.302 C 
ENDBRANCH  47  48
ENDBRANCH  46  47
ENDBRANCH  45  46
ENDBRANCH  44  45
ENDBRANCH  12  44
ENDBRANCH   3   4
TORSDOF 15
ENDMDL
MODEL 2
REMARK VINA RESULT: -8.806786735      3.063     10.066
REMARK  15 active torsions:
REMARK  status: ('A' for Active; 'I' for Inactive)
REMARK    1  A    between atoms: C3_3  and  C4_4 
REMARK    2  A    between atoms: C6_6  and  N1_7 
REMARK    3  A    between atoms: N1_7  and  C7_9 
REMARK    4  A    between atoms: C10_14  and  N3_15 
REMARK    5  A    between atoms: N3_15  and  C11_17 
REMARK    6  A    between atoms: C15_21  and  O1_22 
REMARK    7  A    between atoms: O1_22  and  C16_23 
REMARK    8  A    between atoms: C16_23  and  C17_24 
REMARK    9  A    between atoms: C17_24  and  C18_25 
REMARK   10  A    between atoms: C18_25  and  N4_26 
REMARK   11  A    between atoms: C30_40  and  O2_41 
REMARK   12  A    between atoms: O2_41  and  C31_42 
REMARK   13  A    between atoms: C31_42  and  C32_43 
REMARK   14  A    between atoms: C32_43  and  C33_44 
REMARK   15  A    between atoms: C33_44  and  N6_45 
ROOT
HETATM    1  C1  UNL     1      16.468  16.052   9.928  1.00  0.00     0.112 C 
HETATM    2  C2  UNL     1      15.309  16.354  10.773  1.00  0.00    -0.105 C 
HETATM    3  C3  UNL     1      14.333  16.608  11.457  1.00  0.00    -0.065 C 
ENDROOT
BRANCH   3   4
HETATM    4  C4  UNL     1      13.171  16.926  12.248  1.00  0.00     0.047 A 
HETATM    5  C5  UNL     1      12.323  15.977  12.738  1.00  0.00     0.053 A 
HETATM    6  C6  UNL     1      11.191  16.289  13.503  1.00  0.00     0.051 A 
HETATM    7  C26 UNL     1      10.907  17.601  13.781  1.00  0.00     0.043 A 
HETATM    8  C27 UNL     1      11.756  18.576  13.294  1.00  0.00    -0.006 A 
HETATM    9  C28 UNL     1      11.518  19.908  13.547  1.00  0.00     0.018 A 
HETATM   10  C39 UNL     1      12.875  18.254  12.537  1.00  0.00     0.063 A 
HETATM   11  C29 UNL     1      12.392  20.875  13.047  1.00  0.00     0.057 A 
HETATM   12  C30 UNL     1      13.474  20.512  12.312  1.00  0.00     0.142 A 
HETATM   13  N8  UNL     1      13.688  19.192  12.075  1.00  0.00    -0.335 N 
ATOM     14  H8  UNL     1      14.499  18.913  11.523  1.00  0.00     0.168 HD
BRANCH   6  15
HETATM   15  N1  UNL     1      10.357  15.254  13.987  1.00  0.00    -0.192 N 
ATOM     16  H1  UNL     1       9.827  14.690  13.322  1.00  0.00     0.184 HD
BRANCH  15  17
HETATM   17  C7  UNL     1      10.251  15.006  15.245  1.00  0.00     0.684 A 
HETATM   18  N2  UNL     1      10.214  13.739  15.747  1.00  0.00    -0.202 N 
HETATM   19  C8  UNL     1      10.126  13.527  17.065  1.00  0.00     0.110 A 
ATOM     20  H2  UNL     1      10.253  12.943  15.110  1.00  0.00     0.183 HD
HETATM   21  C9  UNL     1      10.077  14.623  17.880  1.00  0.00     0.066 A 
HETATM   22  C10 UNL     1      10.115  15.943  17.393  1.00  0.00     0.122 A 
HETATM   23  N5  UNL     1      10.201  16.095  16.070  1.00  0.00    -0.176 N 
ATOM     24  H5  UNL     1      10.231  17.034  15.671  1.00  0.00     0.186 HD
BRANCH  22  25
HETATM   25  N3  UNL     1      10.077  16.902  18.217  1.00  0.00    -0.342 N 
ATOM     26  H3  UNL     1       9.208  17.044  18.731  1.00  0.00     0.167 HD
BRANCH  25  27
HETATM   27  C11 UNL     1      11.129  17.781  18.477  1.00  0.00     0.034 A 
HETATM   28  C12 UNL     1      11.599  18.647  17.483  1.00  0.00     0.039 A 
HETATM   29  C13 UNL     1      12.630  19.542  17.735  1.00  0.00    -0.026 A 
HETATM   30  C14 UNL     1      13.156  20.478  16.712  1.00  0.00     0.051 C 
HETATM   31  C15 UNL     1      13.187  19.562  18.990  1.00  0.00     0.080 A 
HETATM   32  C23 UNL     1      12.771  18.733  20.010  1.00  0.00    -0.026 A 
HETATM   33  C24 UNL     1      13.433  18.822  21.328  1.00  0.00     0.051 C 
HETATM   34  C25 UNL     1      11.744  17.865  19.707  1.00  0.00     0.039 A 
BRANCH  31  35
HETATM   35  O1  UNL     1      14.232  20.468  19.253  1.00  0.00    -0.350 OA
BRANCH  35  36
HETATM   36  C16 UNL     1      15.536  19.927  18.899  1.00  0.00     0.177 C 
BRANCH  36  37
HETATM   37  C17 UNL     1      16.467  21.008  18.515  1.00  0.00     0.057 C 
BRANCH  37  38
HETATM   38  C18 UNL     1      17.005  21.883  19.598  1.00  0.00     0.274 C 
BRANCH  38  39
HETATM   39  N4  UNL     1      18.400  22.032  19.721  1.00  0.00     0.088 N 
HETATM   40  C19 UNL     1      19.034  21.304  20.767  1.00  0.00     0.272 C 
HETATM   41  C20 UNL     1      19.911  22.302  21.517  1.00  0.00     0.032 C 
HETATM   42  C21 UNL     1      19.266  23.637  21.207  1.00  0.00     0.032 C 
HETATM   43  C22 UNL     1      18.802  23.414  19.786  1.00  0.00     0.272 C 
ENDBRANCH  38  39
ENDBRANCH  37  38
ENDBRANCH  36  37
ENDBRANCH  35  36
ENDBRANCH  31  35
ENDBRANCH  25  27
ENDBRANCH  22  25
ENDBRANCH  15  17
ENDBRANCH   6  15
BRANCH  12  44
HETATM   44  O2  UNL     1      14.399  21.396  11.773  1.00  0.00    -0.336 OA
BRANCH  44  45
HETATM   45  C31 UNL     1      14.789  22.573  12.424  1.00  0.00     0.179 C 
BRANCH  45  46
HETATM   46  C32 UNL     1      15.745  22.333  13.570  1.00  0.00     0.057 C 
BRANCH  46  47
HETATM   47  C33 UNL     1      15.234  23.062  14.779  1.00  0.00     0.274 C 
BRANCH  47  48
HETATM   48  N6  UNL     1      16.162  24.071  15.191  1.00  0.00     0.091 N 
HETATM   49  C34 UNL     1      16.282  24.091  16.622  1.00  0.00     0.302 C 
HETATM   50  C35 UNL     1      17.218  25.246  16.991  1.00  0.00     0.302 C 
HETATM   51  N7  UNL     1      18.527  24.900  16.481  1.00  0.00     0.087 N 
HETATM   52  C36 UNL     1      19.436  25.971  16.840  1.00  0.00     0.310 C 
HETATM   53  C37 UNL     1      18.512  24.759  15.035  1.00  0.00     0.302 C 
HETATM   54  C38 UNL     1      17.428  23.847  14.563  1.00  0.00     0.302 C 
ENDBRANCH  47  48
ENDBRANCH  46  47
ENDBRANCH  45  46
ENDBRANCH  44  45
ENDBRANCH  12  44
ENDBRANCH   3   4
TORSDOF 15
ENDMDL
MODEL 3
REMARK VINA RESULT: -8.794685795      3.260     11.430
REMARK  15 active torsions:
REMARK  status: ('A' for Active; 'I' for Inactive)
REMARK    1  A    between atoms: C3_3  and  C4_4 
REMARK    2  A    between atoms: C6_6  and  N1_7 
REMARK    3  A    between atoms: N1_7  and  C7_9 
REMARK    4  A    between atoms: C10_14  and  N3_15 
REMARK    5  A    between atoms: N3_15  and  C11_17 
REMARK    6  A    between atoms: C15_21  and  O1_22 
REMARK    7  A    between atoms: O1_22  and  C16_23 
REMARK    8  A    between atoms: C16_23  and  C17_24 
REMARK    9  A    between atoms: C17_24  and  C18_25 
REMARK   10  A    between atoms: C18_25  and  N4_26 
REMARK   11  A    between atoms: C30_40  and  O2_41 
REMARK   12  A    between atoms: O2_41  and  C31_42 
REMARK   13  A    between atoms: C31_42  and  C32_43 
REMARK   14  A    between atoms: C32_43  and  C33_44 
REMARK   15  A    between atoms: C33_44  and  N6_45 
ROOT
HETATM    1  C1  UNL     1      11.441  21.999  14.089  1.00  0.00     0.112 C 
HETATM    2  C2  UNL     1      11.450  21.012  15.173  1.00  0.00    -0.105 C 
HETATM    3  C3  UNL     1      11.457  20.177  16.060  1.00  0.00    -0.065 C 
ENDROOT
BRANCH   3   4
HETATM    4  C4  UNL     1      11.449  19.173  17.093  1.00  0.00     0.047 A 
HETATM    5  C5  UNL     1      10.511  18.186  17.164  1.00  0.00     0.053 A 
HETATM    6  C6  UNL     1      10.503  17.213  18.173  1.00  0.00     0.051 A 
HETATM    7  C26 UNL     1      11.473  17.238  19.140  1.00  0.00     0.043 A 
HETATM    8  C27 UNL     1      12.433  18.231  19.084  1.00  0.00    -0.006 A 
HETATM    9  C28 UNL     1      13.431  18.299  20.030  1.00  0.00     0.018 A 
HETATM   10  C39 UNL     1      12.431  19.189  18.080  1.00  0.00     0.063 A 
HETATM   11  C29 UNL     1      14.392  19.309  19.951  1.00  0.00     0.057 A 
HETATM   12  C30 UNL     1      14.349  20.224  18.949  1.00  0.00     0.142 A 
HETATM   13  N8  UNL     1      13.354  20.137  18.028  1.00  0.00    -0.335 N 
ATOM     14  H8  UNL     1      13.318  20.821  17.273  1.00  0.00     0.168 HD
BRANCH   6  15
HETATM   15  N1  UNL     1       9.503  16.212  18.181  1.00  0.00    -0.192 N 
ATOM     16  H1  UNL     1       8.724  16.293  18.834  1.00  0.00     0.184 HD
BRANCH  15  17
HETATM   17  C7  UNL     1       9.554  15.202  17.386  1.00  0.00     0.684 A 
HETATM   18  N2  UNL     1       9.468  13.913  17.823  1.00  0.00    -0.202 N 
HETATM   19  C8  UNL     1       9.502  12.893  16.958  1.00  0.00     0.110 A 
ATOM     20  H2  UNL     1       9.375  13.725  18.821  1.00  0.00     0.183 HD
HETATM   21  C9  UNL     1       9.625  13.193  15.630  1.00  0.00     0.066 A 
HETATM   22  C10 UNL     1       9.716  14.513  15.148  1.00  0.00     0.122 A 
HETATM   23  N5  UNL     1       9.678  15.490  16.055  1.00  0.00    -0.176 N 
ATOM     24  H5  UNL     1       9.741  16.462  15.752  1.00  0.00     0.186 HD
BRANCH  22  25
HETATM   25  N3  UNL     1       9.817  14.704  13.902  1.00  0.00    -0.342 N 
ATOM     26  H3  UNL     1       9.205  14.161  13.293  1.00  0.00     0.167 HD
BRANCH  25  27
HETATM   27  C11 UNL     1      10.699  15.598  13.294  1.00  0.00     0.034 A 
HETATM   28  C12 UNL     1      11.982  15.187  12.912  1.00  0.00     0.039 A 
HETATM   29  C13 UNL     1      12.862  16.060  12.288  1.00  0.00    -0.026 A 
HETATM   30  C14 UNL     1      14.228  15.667  11.865  1.00  0.00     0.051 C 
HETATM   31  C15 UNL     1      12.447  17.348  12.048  1.00  0.00     0.080 A 
HETATM   32  C23 UNL     1      11.199  17.812  12.401  1.00  0.00    -0.026 A 
HETATM   33  C24 UNL     1      10.841  19.216  12.108  1.00  0.00     0.051 C 
HETATM   34  C25 UNL     1      10.364  16.905  13.018  1.00  0.00     0.039 A 
BRANCH  31  35
HETATM   35  O1  UNL     1      13.334  18.238  11.413  1.00  0.00    -0.350 OA
BRANCH  35  36
HETATM   36  C16 UNL     1      14.404  18.677  12.296  1.00  0.00     0.177 C 
BRANCH  36  37
HETATM   37  C17 UNL     1      14.220  20.093  12.680  1.00  0.00     0.057 C 
BRANCH  37  38
HETATM   38  C18 UNL     1      15.415  20.985  12.649  1.00  0.00     0.274 C 
BRANCH  38  39
HETATM   39  N4  UNL     1      15.826  21.614  13.841  1.00  0.00     0.088 N 
HETATM   40  C19 UNL     1      15.084  21.308  15.017  1.00  0.00     0.272 C 
HETATM   41  C20 UNL     1      14.731  22.645  15.662  1.00  0.00     0.032 C 
HETATM   42  C21 UNL     1      14.795  23.621  14.507  1.00  0.00     0.032 C 
HETATM   43  C22 UNL     1      15.936  23.043  13.700  1.00  0.00     0.272 C 
ENDBRANCH  38  39
ENDBRANCH  37  38
ENDBRANCH  36  37
ENDBRANCH  35  36
ENDBRANCH  31  35
ENDBRANCH  25  27
ENDBRANCH  22  25
ENDBRANCH  15  17
ENDBRANCH   6  15
BRANCH  12  44
HETATM   44  O2  UNL     1      15.256  21.262  18.784  1.00  0.00    -0.336 OA
BRANCH  44  45
HETATM   45  C31 UNL     1      16.586  21.051  18.401  1.00  0.00     0.179 C 
BRANCH  45  46
HETATM   46  C32 UNL     1      17.576  21.322  19.511  1.00  0.00     0.057 C 
BRANCH  46  47
HETATM   47  C33 UNL     1      17.738  22.808  19.654  1.00  0.00     0.274 C 
BRANCH  47  48
HETATM   48  N6  UNL     1      17.889  23.427  18.372  1.00  0.00     0.091 N 
HETATM   49  C34 UNL     1      17.217  24.695  18.343  1.00  0.00     0.302 C 
HETATM   50  C35 UNL     1      17.345  25.255  16.922  1.00  0.00     0.302 C 
HETATM   51  N7  UNL     1      18.749  25.535  16.712  1.00  0.00     0.087 N 
HETATM   52  C36 UNL     1      18.890  26.088  15.379  1.00  0.00     0.310 C 
HETATM   53  C37 UNL     1      19.552  24.328  16.810  1.00  0.00     0.302 C 
HETATM   54  C38 UNL     1      19.279  23.563  18.063  1.00  0.00     0.302 C 
ENDBRANCH  47  48
ENDBRANCH  46  47
ENDBRANCH  45  46
ENDBRANCH  44  45
ENDBRANCH  12  44
ENDBRANCH   3   4
TORSDOF 15
ENDMDL
MODEL 4
REMARK VINA RESULT: -8.777417020      2.890      7.864
REMARK  15 active torsions:
REMARK  status: ('A' for Active; 'I' for Inactive)
REMARK    1  A    between atoms: C3_3  and  C4_4 
REMARK    2  A    between atoms: C6_6  and  N1_7 
REMARK    3  A    between atoms: N1_7  and  C7_9 
REMARK    4  A    between atoms: C10_14  and  N3_15 
REMARK    5  A    between atoms: N3_15  and  C11_17 
REMARK    6  A    between atoms: C15_21  and  O1_22 
REMARK    7  A    between atoms: O1_22  and  C16_23 
REMARK    8  A    between atoms: C16_23  and  C17_24 
REMARK    9  A    between atoms: C17_24  and  C18_25 
REMARK   10  A    between atoms: C18_25  and  N4_26 
REMARK   11  A    between atoms: C30_40  and  O2_41 
REMARK   12  A    between atoms: O2_41  and  C31_42 
REMARK   13  A    between atoms: C31_42  and  C32_43 
REMARK   14  A    between atoms: C32_43  and  C33_44 
REMARK   15  A    between atoms: C33_44  and  N6_45 
ROOT
HETATM    1  C1  UNL     1      26.247  20.263  18.692  1.00  0.00     0.112 C 
HETATM    2  C2  UNL     1      25.892  21.654  18.990  1.00  0.00    -0.105 C 
HETATM    3  C3  UNL     1      25.576  22.806  19.232  1.00  0.00    -0.065 C 
ENDROOT
BRANCH   3   4
HETATM    4  C4  UNL     1      25.186  24.168  19.496  1.00  0.00     0.047 A 
HETATM    5  C5  UNL     1      25.900  25.244  19.060  1.00  0.00     0.053 A 
HETATM    6  C6  UNL     1      25.520  26.567  19.321  1.00  0.00     0.051 A 
HETATM    7  C26 UNL     1      24.383  26.810  20.046  1.00  0.00     0.043 A 
HETATM    8  C27 UNL     1      23.645  25.732  20.495  1.00  0.00    -0.006 A 
HETATM    9  C28 UNL     1      22.493  25.921  21.225  1.00  0.00     0.018 A 
HETATM   10  C39 UNL     1      24.031  24.425  20.230  1.00  0.00     0.063 A 
HETATM   11  C29 UNL     1      21.763  24.817  21.665  1.00  0.00     0.057 A 
HETATM   12  C30 UNL     1      22.180  23.556  21.380  1.00  0.00     0.142 A 
HETATM   13  N8  UNL     1      23.320  23.394  20.659  1.00  0.00    -0.335 N 
ATOM     14  H8  UNL     1      23.638  22.450  20.442  1.00  0.00     0.168 HD
BRANCH   6  15
HETATM   15  N1  UNL     1      26.305  27.637  18.832  1.00  0.00    -0.192 N 
ATOM     16  H1  UNL     1      26.962  28.101  19.460  1.00  0.00     0.184 HD
BRANCH  15  17
HETATM   17  C7  UNL     1      26.210  28.040  17.614  1.00  0.00     0.684 A 
HETATM   18  N2  UNL     1      27.286  28.134  16.781  1.00  0.00    -0.202 N 
HETATM   19  C8  UNL     1      27.140  28.536  15.514  1.00  0.00     0.110 A 
ATOM     20  H2  UNL     1      28.215  27.894  17.130  1.00  0.00     0.183 HD
HETATM   21  C9  UNL     1      25.877  28.845  15.091  1.00  0.00     0.066 A 
HETATM   22  C10 UNL     1      24.746  28.757  15.925  1.00  0.00     0.122 A 
HETATM   23  N5  UNL     1      24.952  28.352  17.179  1.00  0.00    -0.176 N 
ATOM     24  H5  UNL     1      24.162  28.274  17.821  1.00  0.00     0.186 HD
BRANCH  22  25
HETATM   25  N3  UNL     1      23.611  29.050  15.451  1.00  0.00    -0.342 N 
ATOM     26  H3  UNL     1      23.544  29.893  14.881  1.00  0.00     0.167 HD
BRANCH  25  27
HETATM   27  C11 UNL     1      22.443  28.313  15.646  1.00  0.00     0.034 A 
HETATM   28  C12 UNL     1      21.423  28.323  14.686  1.00  0.00     0.039 A 
HETATM   29  C13 UNL     1      20.264  27.577  14.858  1.00  0.00    -0.026 A 
HETATM   30  C14 UNL     1      19.162  27.556  13.866  1.00  0.00     0.051 C 
HETATM   31  C15 UNL     1      20.135  26.821  15.998  1.00  0.00     0.080 A 
HETATM   32  C23 UNL     1      21.101  26.772  16.979  1.00  0.00    -0.026 A 
HETATM   33  C24 UNL     1      20.873  25.934  18.175  1.00  0.00     0.051 C 
HETATM   34  C25 UNL     1      22.231  27.530  16.759  1.00  0.00     0.039 A 
BRANCH  31  35
HETATM   35  O1  UNL     1      18.964  26.061  16.177  1.00  0.00    -0.350 OA
BRANCH  35  36
HETATM   36  C16 UNL     1      19.149  24.665  15.812  1.00  0.00     0.177 C 
BRANCH  36  37
HETATM   37  C17 UNL     1      18.179  24.259  14.774  1.00  0.00     0.057 C 
BRANCH  37  38
HETATM   38  C18 UNL     1      16.948  23.539  15.212  1.00  0.00     0.274 C 
BRANCH  38  39
HETATM   39  N4  UNL     1      15.860  23.450  14.323  1.00  0.00     0.088 N 
HETATM   40  C19 UNL     1      14.558  23.457  14.897  1.00  0.00     0.272 C 
HETATM   41  C20 UNL     1      13.810  22.277  14.285  1.00  0.00     0.032 C 
HETATM   42  C21 UNL     1      14.921  21.345  13.848  1.00  0.00     0.032 C 
HETATM   43  C22 UNL     1      15.979  22.336  13.417  1.00  0.00     0.272 C 
ENDBRANCH  38  39
ENDBRANCH  37  38
ENDBRANCH  36  37
ENDBRANCH  35  36
ENDBRANCH  31  35
ENDBRANCH  25  27
ENDBRANCH  22  25
ENDBRANCH  15  17
ENDBRANCH   6  15
BRANCH  12  44
HETATM   44  O2  UNL     1      21.524  22.396  21.771  1.00  0.00    -0.336 OA
BRANCH  44  45
HETATM   45  C31 UNL     1      20.150  22.203  21.582  1.00  0.00     0.179 C 
BRANCH  45  46
HETATM   46  C32 UNL     1      19.751  22.147  20.125  1.00  0.00     0.057 C 
BRANCH  46  47
HETATM   47  C33 UNL     1      18.598  23.085  19.909  1.00  0.00     0.274 C 
BRANCH  47  48
HETATM   48  N6  UNL     1      17.416  22.360  19.557  1.00  0.00     0.091 N 
HETATM   49  C34 UNL     1      16.589  23.140  18.679  1.00  0.00     0.302 C 
HETATM   50  C35 UNL     1      15.309  22.340  18.417  1.00  0.00     0.302 C 
HETATM   51  N7  UNL     1      15.699  21.165  17.667  1.00  0.00     0.087 N 
HETATM   52  C36 UNL     1      14.497  20.404  17.388  1.00  0.00     0.310 C 
HETATM   53  C37 UNL     1      16.619  20.334  18.425  1.00  0.00     0.302 C 
HETATM   54  C38 UNL     1      17.776  21.109  18.962  1.00  0.00     0.302 C 
ENDBRANCH  47  48
ENDBRANCH  46  47
ENDBRANCH  45  46
ENDBRANCH  44  45
ENDBRANCH  12  44
ENDBRANCH   3   4
TORSDOF 15
ENDMDL
MODEL 5
REMARK VINA RESULT: -8.773892827      0.981      1.460
REMARK  15 active torsions:
REMARK  status: ('A' for Active; 'I' for Inactive)
REMARK    1  A    between atoms: C3_3  and  C4_4 
REMARK    2  A    between atoms: C6_6  and  N1_7 
REMARK    3  A    between atoms: N1_7  and  C7_9 
REMARK    4  A    between atoms: C10_14  and  N3_15 
REMARK    5  A    between atoms: N3_15  and  C11_17 
REMARK    6  A    between atoms: C15_21  and  O1_22 
REMARK    7  A    between atoms: O1_22  and  C16_23 
REMARK    8  A    between atoms: C16_23  and  C17_24 
REMARK    9  A    between atoms: C17_24  and  C18_25 
REMARK   10  A    between atoms: C18_25  and  N4_26 
REMARK   11  A    between atoms: C30_40  and  O2_41 
REMARK   12  A    between atoms: O2_41  and  C31_42 
REMARK   13  A    between atoms: C31_42  and  C32_43 
REMARK   14  A    between atoms: C32_43  and  C33_44 
REMARK   15  A    between atoms: C33_44  and  N6_45 
ROOT
HETATM    1  C1  UNL     1      14.595  19.488  12.252  1.00  0.00     0.112 C 
HETATM    2  C2  UNL     1      14.988  20.413  13.318  1.00  0.00    -0.105 C 
HETATM    3  C3  UNL     1      15.311  21.167  14.220  1.00  0.00    -0.065 C 
ENDROOT
BRANCH   3   4
HETATM    4  C4  UNL     1      15.674  22.048  15.302  1.00  0.00     0.047 A 
HETATM    5  C5  UNL     1      16.227  23.278  15.106  1.00  0.00     0.053 A 
HETATM    6  C6  UNL     1      16.582  24.130  16.160  1.00  0.00     0.051 A 
HETATM    7  C26 UNL     1      16.371  23.727  17.452  1.00  0.00     0.043 A 
HETATM    8  C27 UNL     1      15.810  22.483  17.670  1.00  0.00    -0.006 A 
HETATM    9  C28 UNL     1      15.575  22.031  18.949  1.00  0.00     0.018 A 
HETATM   10  C39 UNL     1      15.462  21.648  16.618  1.00  0.00     0.063 A 
HETATM   11  C29 UNL     1      15.004  20.772  19.145  1.00  0.00     0.057 A 
HETATM   12  C30 UNL     1      14.679  19.990  18.083  1.00  0.00     0.142 A 
HETATM   13  N8  UNL     1      14.921  20.457  16.831  1.00  0.00    -0.335 N 
ATOM     14  H8  UNL     1      14.679  19.874  16.030  1.00  0.00     0.168 HD
BRANCH   6  15
HETATM   15  N1  UNL     1      17.146  25.398  15.884  1.00  0.00    -0.192 N 
ATOM     16  H1  UNL     1      16.568  26.233  15.989  1.00  0.00     0.184 HD
BRANCH  15  17
HETATM   17  C7  UNL     1      18.368  25.525  15.504  1.00  0.00     0.684 A 
HETATM   18  N2  UNL     1      18.901  24.800  14.479  1.00  0.00    -0.202 N 
HETATM   19  C8  UNL     1      20.172  24.980  14.102  1.00  0.00     0.110 A 
ATOM     20  H2  UNL     1      18.323  24.114  13.994  1.00  0.00     0.183 HD
HETATM   21  C9  UNL     1      20.907  25.912  14.779  1.00  0.00     0.066 A 
HETATM   22  C10 UNL     1      20.386  26.676  15.841  1.00  0.00     0.122 A 
HETATM   23  N5  UNL     1      19.113  26.454  16.176  1.00  0.00    -0.176 N 
ATOM     24  H5  UNL     1      18.693  26.983  16.939  1.00  0.00     0.186 HD
BRANCH  22  25
HETATM   25  N3  UNL     1      21.131  27.526  16.407  1.00  0.00    -0.342 N 
ATOM     26  H3  UNL     1      21.223  28.439  15.963  1.00  0.00     0.167 HD
BRANCH  25  27
HETATM   27  C11 UNL     1      21.837  27.314  17.592  1.00  0.00     0.034 A 
HETATM   28  C12 UNL     1      21.245  27.575  18.834  1.00  0.00     0.039 A 
HETATM   29  C13 UNL     1      21.928  27.348  20.020  1.00  0.00    -0.026 A 
HETATM   30  C14 UNL     1      21.338  27.608  21.356  1.00  0.00     0.051 C 
HETATM   31  C15 UNL     1      23.210  26.858  19.954  1.00  0.00     0.080 A 
HETATM   32  C23 UNL     1      23.848  26.583  18.764  1.00  0.00    -0.026 A 
HETATM   33  C24 UNL     1      25.231  26.062  18.790  1.00  0.00     0.051 C 
HETATM   34  C25 UNL     1      23.125  26.825  17.616  1.00  0.00     0.039 A 
BRANCH  31  35
HETATM   35  O1  UNL     1      23.908  26.623  21.154  1.00  0.00    -0.350 OA
BRANCH  35  36
HETATM   36  C16 UNL     1      23.293  25.577  21.957  1.00  0.00     0.177 C 
BRANCH  36  37
HETATM   37  C17 UNL     1      23.446  24.258  21.308  1.00  0.00     0.057 C 
BRANCH  37  38
HETATM   38  C18 UNL     1      22.216  23.445  21.080  1.00  0.00     0.274 C 
BRANCH  38  39
HETATM   39  N4  UNL     1      21.023  24.103  20.723  1.00  0.00     0.088 N 
HETATM   40  C19 UNL     1      19.906  23.920  21.586  1.00  0.00     0.272 C 
HETATM   41  C20 UNL     1      18.732  23.531  20.693  1.00  0.00     0.032 C 
HETATM   42  C21 UNL     1      19.401  22.955  19.462  1.00  0.00     0.032 C 
HETATM   43  C22 UNL     1      20.630  23.830  19.364  1.00  0.00     0.272 C 
ENDBRANCH  38  39
ENDBRANCH  37  38
ENDBRANCH  36  37
ENDBRANCH  35  36
ENDBRANCH  31  35
ENDBRANCH  25  27
ENDBRANCH  22  25
ENDBRANCH  15  17
ENDBRANCH   6  15
BRANCH  12  44
HETATM   44  O2  UNL     1      14.108  18.728  18.174  1.00  0.00    -0.336 OA
BRANCH  44  45
HETATM   45  C31 UNL     1      14.190  17.941  19.329  1.00  0.00     0.179 C 
BRANCH  45  46
HETATM   46  C32 UNL     1      12.852  17.407  19.784  1.00  0.00     0.057 C 
BRANCH  46  47
HETATM   47  C33 UNL     1      11.802  17.856  18.808  1.00  0.00     0.274 C 
BRANCH  47  48
HETATM   48  N6  UNL     1      11.637  16.891  17.763  1.00  0.00     0.091 N 
HETATM   49  C34 UNL     1      10.687  15.887  18.149  1.00  0.00     0.302 C 
HETATM   50  C35 UNL     1      10.629  14.848  17.025  1.00  0.00     0.302 C 
HETATM   51  N7  UNL     1      10.066  15.515  15.871  1.00  0.00     0.087 N 
HETATM   52  C36 UNL     1       9.980  14.542  14.800  1.00  0.00     0.310 C 
HETATM   53  C37 UNL     1      10.902  16.622  15.438  1.00  0.00     0.302 C 
HETATM   54  C38 UNL     1      11.241  17.551  16.557  1.00  0.00     0.302 C 
ENDBRANCH  47  48
ENDBRANCH  46  47
ENDBRANCH  45  46
ENDBRANCH  44  45
ENDBRANCH  12  44
ENDBRANCH   3   4
TORSDOF 15
ENDMDL
