MODEL 1
REMARK VINA RESULT: -8.237794796      0.000      0.000
REMARK  15 active torsions:
REMARK  status: ('A' for Active; 'I' for Inactive)
REMARK    1  A    between atoms: C2_2  and  C3_3 
REMARK    2  A    between atoms: C14_15  and  C15_16 
REMARK    3  A    between atoms: C15_16  and  O2_17 
REMARK    4  A    between atoms: C15_16  and  C16_19 
REMARK    5  A    between atoms: C16_19  and  C17_20 
REMARK    6  A    between atoms: C17_20  and  C18_21 
REMARK    7  A    between atoms: C18_21  and  C19_22 
REMARK    8  A    between atoms: C25_29  and  C26_30 
REMARK    9  A    between atoms: C26_30  and  C27_31 
REMARK   10  A    between atoms: C27_31  and  C28_32 
REMARK   11  A    between atoms: C29_33  and  C31_35 
REMARK   12  A    between atoms: C31_35  and  C32_36 
REMARK   13  A    between atoms: C32_36  and  O4_37 
REMARK   14  A    between atoms: O4_37  and  C33_38 
REMARK   15  A    between atoms: C40_48  and  O8_49 
ROOT
HETATM    1  C3  UNL     1      12.510  20.685  13.006  1.00  0.00     0.050 C 
HETATM    2  C4  UNL     1      13.591  20.615  11.908  1.00  0.00     0.019 C 
HETATM    3  C5  UNL     1      14.499  21.799  12.161  1.00  0.00     0.080 C 
HETATM    4  C6  UNL     1      15.211  21.405  13.439  1.00  0.00     0.144 C 
HETATM    5  O1  UNL     1      16.151  20.724  13.232  1.00  0.00    -0.296 OA
HETATM    6  C7  UNL     1      14.766  21.829  14.799  1.00  0.00     0.078 C 
HETATM    7  C8  UNL     1      14.357  23.251  14.684  1.00  0.00    -0.066 C 
HETATM    8  C9  UNL     1      13.041  23.881  14.788  1.00  0.00     0.044 C 
HETATM    9  C10 UNL     1      15.351  24.128  14.468  1.00  0.00    -0.017 C 
HETATM   10  C11 UNL     1      16.779  23.802  14.338  1.00  0.00     0.022 A 
HETATM   11  C12 UNL     1      17.152  22.540  15.095  1.00  0.00     0.006 A 
HETATM   12  C13 UNL     1      18.061  23.385  15.950  1.00  0.00     0.014 A 
HETATM   13  C14 UNL     1      17.674  23.576  17.373  1.00  0.00     0.089 C 
HETATM   14  C21 UNL     1      16.791  24.786  17.379  1.00  0.00     0.134 C 
HETATM   15  O3  UNL     1      15.973  25.076  18.204  1.00  0.00    -0.297 OA
HETATM   16  C22 UNL     1      17.115  25.592  16.147  1.00  0.00     0.089 C 
HETATM   17  C23 UNL     1      17.716  24.620  15.168  1.00  0.00    -0.025 A 
HETATM   18  C24 UNL     1      18.835  25.260  14.379  1.00  0.00     0.016 C 
HETATM   19  C25 UNL     1      16.008  21.887  15.724  1.00  0.00     0.026 C 
HETATM   20  C35 UNL     1      13.780  20.859  15.255  1.00  0.00     0.027 C 
HETATM   21  C36 UNL     1      12.949  21.269  16.414  1.00  0.00     0.188 C 
HETATM   22  O6  UNL     1      13.254  22.050  17.280  1.00  0.00    -0.290 OA
HETATM   23  C37 UNL     1      11.676  20.559  16.336  1.00  0.00     0.234 A 
HETATM   24  O7  UNL     1      10.789  20.755  15.287  1.00  0.00    -0.358 OA
HETATM   25  C38 UNL     1      11.719  19.752  15.127  1.00  0.00     0.127 A 
HETATM   26  C39 UNL     1      11.317  18.305  15.291  1.00  0.00     0.053 C 
HETATM   27  C40 UNL     1      12.927  20.129  14.284  1.00  0.00     0.127 C 
ENDROOT
BRANCH  19  28
HETATM   28  C26 UNL     1      16.355  20.586  16.328  1.00  0.00     0.091 C 
BRANCH  28  29
HETATM   29  C27 UNL     1      15.871  19.892  17.250  1.00  0.00    -0.155 C 
BRANCH  29  30
HETATM   30  C28 UNL     1      15.323  19.107  18.291  1.00  0.00     0.053 C 
HETATM   31  C29 UNL     1      14.691  19.379  19.383  1.00  0.00    -0.075 C 
HETATM   32  C30 UNL     1      14.341  20.693  19.886  1.00  0.00     0.044 C 
BRANCH  31  33
HETATM   33  C31 UNL     1      14.194  18.218  20.215  1.00  0.00     0.061 C 
BRANCH  33  34
HETATM   34  C32 UNL     1      12.982  18.598  21.030  1.00  0.00     0.183 C 
BRANCH  34  35
HETATM   35  O4  UNL     1      11.838  17.874  20.634  1.00  0.00    -0.321 OA
BRANCH  35  36
HETATM   36  C33 UNL     1      11.366  17.764  19.353  1.00  0.00     0.254 C 
HETATM   37  C34 UNL     1      11.461  16.547  18.514  1.00  0.00     0.126 C 
HETATM   38  O5  UNL     1      10.802  18.771  18.823  1.00  0.00    -0.266 OA
ENDBRANCH  35  36
ENDBRANCH  34  35
ENDBRANCH  33  34
ENDBRANCH  31  33
ENDBRANCH  29  30
ENDBRANCH  28  29
ENDBRANCH  19  28
BRANCH  27  39
HETATM   39  O8  UNL     1      13.475  18.853  13.922  1.00  0.00    -0.381 OA
ATOM     40  H8  UNL     1      14.315  18.845  14.366  1.00  0.00     0.211 HD
ENDBRANCH  27  39
BRANCH   1  41
HETATM   41  C2  UNL     1      11.443  19.768  12.426  1.00  0.00    -0.029 C 
HETATM   42  C1  UNL     1      11.735  18.989  11.401  1.00  0.00     0.007 C 
ENDBRANCH   1  41
BRANCH  13  43
HETATM   43  C15 UNL     1      18.833  23.780  18.311  1.00  0.00     0.130 C 
BRANCH  43  44
HETATM   44  O2  UNL     1      18.556  24.715  19.303  1.00  0.00    -0.395 OA
ATOM     45  H2  UNL     1      17.991  25.415  18.996  1.00  0.00     0.210 HD
ENDBRANCH  43  44
BRANCH  43  46
HETATM   46  C16 UNL     1      19.494  22.523  18.803  1.00  0.00     0.032 C 
BRANCH  46  47
HETATM   47  C17 UNL     1      18.423  21.585  19.345  1.00  0.00     0.002 C 
BRANCH  47  48
HETATM   48  C18 UNL     1      18.555  21.426  20.824  1.00  0.00    -0.000 C 
BRANCH  48  49
HETATM   49  C19 UNL     1      19.979  21.492  21.257  1.00  0.00    -0.005 C 
HETATM   50  C20 UNL     1      20.190  22.746  22.124  1.00  0.00     0.005 C 
ENDBRANCH  48  49
ENDBRANCH  47  48
ENDBRANCH  46  47
ENDBRANCH  43  46
ENDBRANCH  13  43
TORSDOF 15
ENDMDL
MODEL 2
REMARK VINA RESULT: -7.850983132      1.577      7.107
REMARK  15 active torsions:
REMARK  status: ('A' for Active; 'I' for Inactive)
REMARK    1  A    between atoms: C2_2  and  C3_3 
REMARK    2  A    between atoms: C14_15  and  C15_16 
REMARK    3  A    between atoms: C15_16  and  O2_17 
REMARK    4  A    between atoms: C15_16  and  C16_19 
REMARK    5  A    between atoms: C16_19  and  C17_20 
REMARK    6  A    between atoms: C17_20  and  C18_21 
REMARK    7  A    between atoms: C18_21  and  C19_22 
REMARK    8  A    between atoms: C25_29  and  C26_30 
REMARK    9  A    between atoms: C26_30  and  C27_31 
REMARK   10  A    between atoms: C27_31  and  C28_32 
REMARK   11  A    between atoms: C29_33  and  C31_35 
REMARK   12  A    between atoms: C31_35  and  C32_36 
REMARK   13  A    between atoms: C32_36  and  O4_37 
REMARK   14  A    between atoms: O4_37  and  C33_38 
REMARK   15  A    between atoms: C40_48  and  O8_49 
ROOT
HETATM    1  C3  UNL     1      19.363  24.419  19.100  1.00  0.00     0.050 C 
HETATM    2  C4  UNL     1      18.654  25.756  18.806  1.00  0.00     0.019 C 
HETATM    3  C5  UNL     1      17.997  25.574  17.454  1.00  0.00     0.080 C 
HETATM    4  C6  UNL     1      16.880  24.596  17.756  1.00  0.00     0.144 C 
HETATM    5  O1  UNL     1      15.912  25.136  18.158  1.00  0.00    -0.296 OA
HETATM    6  C7  UNL     1      16.999  23.120  17.570  1.00  0.00     0.078 C 
HETATM    7  C8  UNL     1      17.727  22.914  16.294  1.00  0.00    -0.066 C 
HETATM    8  C9  UNL     1      19.064  22.382  16.028  1.00  0.00     0.044 C 
HETATM    9  C10 UNL     1      17.057  23.248  15.179  1.00  0.00    -0.017 C 
HETATM   10  C11 UNL     1      15.690  23.789  15.121  1.00  0.00     0.022 A 
HETATM   11  C12 UNL     1      14.847  23.349  16.304  1.00  0.00     0.006 A 
HETATM   12  C13 UNL     1      13.942  22.643  15.328  1.00  0.00     0.014 A 
HETATM   13  C14 UNL     1      13.937  21.155  15.356  1.00  0.00     0.089 C 
HETATM   14  C21 UNL     1      15.026  20.743  14.414  1.00  0.00     0.134 C 
HETATM   15  O3  UNL     1      15.617  19.702  14.407  1.00  0.00    -0.297 OA
HETATM   16  C22 UNL     1      15.255  21.884  13.455  1.00  0.00     0.089 C 
HETATM   17  C23 UNL     1      14.761  23.118  14.162  1.00  0.00    -0.025 A 
HETATM   18  C24 UNL     1      14.084  24.066  13.198  1.00  0.00     0.016 C 
HETATM   19  C25 UNL     1      15.590  22.549  17.274  1.00  0.00     0.026 C 
HETATM   20  C35 UNL     1      17.574  22.573  18.791  1.00  0.00     0.027 C 
HETATM   21  C36 UNL     1      18.107  21.191  18.700  1.00  0.00     0.188 C 
HETATM   22  O6  UNL     1      17.747  20.329  17.939  1.00  0.00    -0.290 OA
HETATM   23  C37 UNL     1      19.159  21.042  19.701  1.00  0.00     0.234 A 
HETATM   24  O7  UNL     1      20.330  21.786  19.651  1.00  0.00    -0.358 OA
HETATM   25  C38 UNL     1      19.287  22.326  20.370  1.00  0.00     0.127 A 
HETATM   26  C39 UNL     1      19.296  22.279  21.880  1.00  0.00     0.053 C 
HETATM   27  C40 UNL     1      18.486  23.388  19.634  1.00  0.00     0.127 C 
ENDROOT
BRANCH  19  28
HETATM   28  C26 UNL     1      14.806  22.254  18.489  1.00  0.00     0.091 C 
BRANCH  28  29
HETATM   29  C27 UNL     1      14.323  21.213  18.989  1.00  0.00    -0.155 C 
BRANCH  29  30
HETATM   30  C28 UNL     1      13.778  20.037  19.555  1.00  0.00     0.053 C 
HETATM   31  C29 UNL     1      14.032  18.778  19.427  1.00  0.00    -0.075 C 
HETATM   32  C30 UNL     1      15.041  18.171  18.581  1.00  0.00     0.044 C 
BRANCH  31  33
HETATM   33  C31 UNL     1      13.248  17.813  20.288  1.00  0.00     0.061 C 
BRANCH  33  34
HETATM   34  C32 UNL     1      11.935  18.409  20.736  1.00  0.00     0.183 C 
BRANCH  34  35
HETATM   35  O4  UNL     1      10.862  17.970  19.933  1.00  0.00    -0.321 OA
BRANCH  35  36
HETATM   36  C33 UNL     1      10.828  17.991  18.564  1.00  0.00     0.254 C 
HETATM   37  C34 UNL     1      10.894  16.794  17.694  1.00  0.00     0.126 C 
HETATM   38  O5  UNL     1      10.736  19.112  17.974  1.00  0.00    -0.266 OA
ENDBRANCH  35  36
ENDBRANCH  34  35
ENDBRANCH  33  34
ENDBRANCH  31  33
ENDBRANCH  29  30
ENDBRANCH  28  29
ENDBRANCH  19  28
BRANCH  27  39
HETATM   39  O8  UNL     1      17.796  24.063  20.696  1.00  0.00    -0.381 OA
ATOM     40  H8  UNL     1      16.985  24.339  20.285  1.00  0.00     0.211 HD
ENDBRANCH  27  39
BRANCH   1  41
HETATM   41  C2  UNL     1      20.322  24.832  20.208  1.00  0.00    -0.029 C 
HETATM   42  C1  UNL     1      21.072  25.907  20.057  1.00  0.00     0.007 C 
ENDBRANCH   1  41
BRANCH  13  43
HETATM   43  C15 UNL     1      12.634  20.529  14.942  1.00  0.00     0.130 C 
BRANCH  43  44
HETATM   44  O2  UNL     1      12.318  19.406  15.699  1.00  0.00    -0.395 OA
ATOM     45  H2  UNL     1      11.382  19.309  15.833  1.00  0.00     0.210 HD
ENDBRANCH  43  44
BRANCH  43  46
HETATM   46  C16 UNL     1      11.493  21.487  14.738  1.00  0.00     0.032 C 
BRANCH  46  47
HETATM   47  C17 UNL     1      11.145  21.528  13.256  1.00  0.00     0.002 C 
BRANCH  47  48
HETATM   48  C18 UNL     1      11.948  20.526  12.493  1.00  0.00    -0.000 C 
BRANCH  48  49
HETATM   49  C19 UNL     1      11.110  19.378  12.046  1.00  0.00    -0.005 C 
HETATM   50  C20 UNL     1      11.929  18.080  12.146  1.00  0.00     0.005 C 
ENDBRANCH  48  49
ENDBRANCH  47  48
ENDBRANCH  46  47
ENDBRANCH  43  46
ENDBRANCH  13  43
TORSDOF 15
ENDMDL
MODEL 3
REMARK VINA RESULT: -7.727089581      1.926      7.090
REMARK  15 active torsions:
REMARK  status: ('A' for Active; 'I' for Inactive)
REMARK    1  A    between atoms: C2_2  and  C3_3 
REMARK    2  A    between atoms: C14_15  and  C15_16 
REMARK    3  A    between atoms: C15_16  and  O2_17 
REMARK    4  A    between atoms: C15_16  and  C16_19 
REMARK    5  A    between atoms: C16_19  and  C17_20 
REMARK    6  A    between atoms: C17_20  and  C18_21 
REMARK    7  A    between atoms: C18_21  and  C19_22 
REMARK    8  A    between atoms: C25_29  and  C26_30 
REMARK    9  A    between atoms: C26_30  and  C27_31 
REMARK   10  A    between atoms: C27_31  and  C28_32 
REMARK   11  A    between atoms: C29_33  and  C31_35 
REMARK   12  A    between atoms: C31_35  and  C32_36 
REMARK   13  A    between atoms: C32_36  and  O4_37 
REMARK   14  A    between atoms: O4_37  and  C33_38 
REMARK   15  A    between atoms: C40_48  and  O8_49 
ROOT
HETATM    1  C3  UNL     1      18.041  24.167  18.872  1.00  0.00     0.050 C 
HETATM    2  C4  UNL     1      17.015  25.318  18.863  1.00  0.00     0.019 C 
HETATM    3  C5  UNL     1      16.345  25.249  17.508  1.00  0.00     0.080 C 
HETATM    4  C6  UNL     1      15.516  23.986  17.610  1.00  0.00     0.144 C 
HETATM    5  O1  UNL     1      14.471  24.179  18.121  1.00  0.00    -0.296 OA
HETATM    6  C7  UNL     1      15.976  22.652  17.124  1.00  0.00     0.078 C 
HETATM    7  C8  UNL     1      16.658  22.889  15.827  1.00  0.00    -0.066 C 
HETATM    8  C9  UNL     1      18.066  22.768  15.449  1.00  0.00     0.044 C 
HETATM    9  C10 UNL     1      15.864  23.260  14.809  1.00  0.00    -0.017 C 
HETATM   10  C11 UNL     1      14.406  23.446  14.874  1.00  0.00     0.022 A 
HETATM   11  C12 UNL     1      13.763  22.586  15.946  1.00  0.00     0.006 A 
HETATM   12  C13 UNL     1      13.001  21.885  14.853  1.00  0.00     0.014 A 
HETATM   13  C14 UNL     1      13.356  20.467  14.575  1.00  0.00     0.089 C 
HETATM   14  C21 UNL     1      14.456  20.532  13.560  1.00  0.00     0.134 C 
HETATM   15  O3  UNL     1      15.279  19.692  13.335  1.00  0.00    -0.297 OA
HETATM   16  C22 UNL     1      14.348  21.861  12.855  1.00  0.00     0.089 C 
HETATM   17  C23 UNL     1      13.612  22.769  13.804  1.00  0.00    -0.025 A 
HETATM   18  C24 UNL     1      12.673  23.691  13.060  1.00  0.00     0.016 C 
HETATM   19  C25 UNL     1      14.731  21.820  16.726  1.00  0.00     0.026 C 
HETATM   20  C35 UNL     1      16.735  22.034  18.202  1.00  0.00     0.027 C 
HETATM   21  C36 UNL     1      17.580  20.874  17.826  1.00  0.00     0.188 C 
HETATM   22  O6  UNL     1      17.395  20.117  16.906  1.00  0.00    -0.290 OA
HETATM   23  C37 UNL     1      18.692  20.795  18.767  1.00  0.00     0.234 A 
HETATM   24  O7  UNL     1      19.644  21.800  18.863  1.00  0.00    -0.358 OA
HETATM   25  C38 UNL     1      18.545  21.913  19.685  1.00  0.00     0.127 A 
HETATM   26  C39 UNL     1      18.651  21.572  21.153  1.00  0.00     0.053 C 
HETATM   27  C40 UNL     1      17.471  22.867  19.188  1.00  0.00     0.127 C 
ENDROOT
BRANCH  19  28
HETATM   28  C26 UNL     1      14.113  21.106  17.860  1.00  0.00     0.091 C 
BRANCH  28  29
HETATM   29  C27 UNL     1      13.546  19.998  17.993  1.00  0.00    -0.155 C 
BRANCH  29  30
HETATM   30  C28 UNL     1      12.908  18.745  18.143  1.00  0.00     0.053 C 
HETATM   31  C29 UNL     1      12.823  17.890  19.107  1.00  0.00    -0.075 C 
HETATM   32  C30 UNL     1      13.421  17.994  20.423  1.00  0.00     0.044 C 
BRANCH  31  33
HETATM   33  C31 UNL     1      11.959  16.668  18.887  1.00  0.00     0.061 C 
BRANCH  33  34
HETATM   34  C32 UNL     1      11.074  16.825  17.675  1.00  0.00     0.183 C 
BRANCH  34  35
HETATM   35  O4  UNL     1      11.419  15.915  16.654  1.00  0.00    -0.321 OA
BRANCH  35  36
HETATM   36  C33 UNL     1      10.889  15.893  15.391  1.00  0.00     0.254 C 
HETATM   37  C34 UNL     1      11.097  14.811  14.401  1.00  0.00     0.126 C 
HETATM   38  O5  UNL     1      10.160  16.865  15.019  1.00  0.00    -0.266 OA
ENDBRANCH  35  36
ENDBRANCH  34  35
ENDBRANCH  33  34
ENDBRANCH  31  33
ENDBRANCH  29  30
ENDBRANCH  28  29
ENDBRANCH  19  28
BRANCH  27  39
HETATM   39  O8  UNL     1      16.701  23.126  20.371  1.00  0.00    -0.381 OA
ATOM     40  H8  UNL     1      17.362  23.185  21.050  1.00  0.00     0.211 HD
ENDBRANCH  27  39
BRANCH   1  41
HETATM   41  C2  UNL     1      18.934  24.577  20.034  1.00  0.00    -0.029 C 
HETATM   42  C1  UNL     1      20.088  25.172  19.795  1.00  0.00     0.007 C 
ENDBRANCH   1  41
BRANCH  13  43
HETATM   43  C15 UNL     1      12.220  19.633  14.049  1.00  0.00     0.130 C 
BRANCH  43  44
HETATM   44  O2  UNL     1      11.135  19.602  14.920  1.00  0.00    -0.395 OA
ATOM     45  H2  UNL     1      10.510  20.296  14.746  1.00  0.00     0.210 HD
ENDBRANCH  43  44
BRANCH  43  46
HETATM   46  C16 UNL     1      11.860  19.866  12.609  1.00  0.00     0.032 C 
BRANCH  46  47
HETATM   47  C17 UNL     1      11.631  18.519  11.936  1.00  0.00     0.002 C 
BRANCH  47  48
HETATM   48  C18 UNL     1      12.619  17.509  12.418  1.00  0.00    -0.000 C 
BRANCH  48  49
HETATM   49  C19 UNL     1      13.075  16.619  11.314  1.00  0.00    -0.005 C 
HETATM   50  C20 UNL     1      14.509  16.141  11.603  1.00  0.00     0.005 C 
ENDBRANCH  48  49
ENDBRANCH  47  48
ENDBRANCH  46  47
ENDBRANCH  43  46
ENDBRANCH  13  43
TORSDOF 15
ENDMDL
MODEL 4
REMARK VINA RESULT: -7.712080087      2.821      9.990
REMARK  15 active torsions:
REMARK  status: ('A' for Active; 'I' for Inactive)
REMARK    1  A    between atoms: C2_2  and  C3_3 
REMARK    2  A    between atoms: C14_15  and  C15_16 
REMARK    3  A    between atoms: C15_16  and  O2_17 
REMARK    4  A    between atoms: C15_16  and  C16_19 
REMARK    5  A    between atoms: C16_19  and  C17_20 
REMARK    6  A    between atoms: C17_20  and  C18_21 
REMARK    7  A    between atoms: C18_21  and  C19_22 
REMARK    8  A    between atoms: C25_29  and  C26_30 
REMARK    9  A    between atoms: C26_30  and  C27_31 
REMARK   10  A    between atoms: C27_31  and  C28_32 
REMARK   11  A    between atoms: C29_33  and  C31_35 
REMARK   12  A    between atoms: C31_35  and  C32_36 
REMARK   13  A    between atoms: C32_36  and  O4_37 
REMARK   14  A    between atoms: O4_37  and  C33_38 
REMARK   15  A    between atoms: C40_48  and  O8_49 
ROOT
HETATM    1  C3  UNL     1      21.598  24.377  21.296  1.00  0.00     0.050 C 
HETATM    2  C4  UNL     1      21.785  22.887  21.647  1.00  0.00     0.019 C 
HETATM    3  C5  UNL     1      20.403  22.275  21.555  1.00  0.00     0.080 C 
HETATM    4  C6  UNL     1      20.128  22.297  20.065  1.00  0.00     0.144 C 
HETATM    5  O1  UNL     1      20.584  21.359  19.515  1.00  0.00    -0.296 OA
HETATM    6  C7  UNL     1      19.373  23.385  19.379  1.00  0.00     0.078 C 
HETATM    7  C8  UNL     1      18.232  23.729  20.264  1.00  0.00    -0.066 C 
HETATM    8  C9  UNL     1      17.952  24.937  21.040  1.00  0.00     0.044 C 
HETATM    9  C10 UNL     1      17.273  22.794  20.370  1.00  0.00    -0.017 C 
HETATM   10  C11 UNL     1      17.262  21.488  19.695  1.00  0.00     0.022 A 
HETATM   11  C12 UNL     1      18.037  21.506  18.391  1.00  0.00     0.006 A 
HETATM   12  C13 UNL     1      16.748  21.187  17.681  1.00  0.00     0.014 A 
HETATM   13  C14 UNL     1      16.164  22.249  16.818  1.00  0.00     0.089 C 
HETATM   14  C21 UNL     1      15.289  23.055  17.728  1.00  0.00     0.134 C 
HETATM   15  O3  UNL     1      14.935  24.188  17.571  1.00  0.00    -0.297 OA
HETATM   16  C22 UNL     1      14.921  22.179  18.899  1.00  0.00     0.089 C 
HETATM   17  C23 UNL     1      15.998  21.131  18.981  1.00  0.00    -0.025 A 
HETATM   18  C24 UNL     1      15.426  19.789  19.378  1.00  0.00     0.016 C 
HETATM   19  C25 UNL     1      18.684  22.788  18.125  1.00  0.00     0.026 C 
HETATM   20  C35 UNL     1      20.327  24.432  19.041  1.00  0.00     0.027 C 
HETATM   21  C36 UNL     1      19.750  25.750  18.678  1.00  0.00     0.188 C 
HETATM   22  O6  UNL     1      18.662  25.953  18.200  1.00  0.00    -0.290 OA
HETATM   23  C37 UNL     1      20.732  26.781  18.999  1.00  0.00     0.234 A 
HETATM   24  O7  UNL     1      21.147  27.019  20.303  1.00  0.00    -0.358 OA
HETATM   25  C38 UNL     1      21.878  26.102  19.581  1.00  0.00     0.127 A 
HETATM   26  C39 UNL     1      23.223  26.481  19.008  1.00  0.00     0.053 C 
HETATM   27  C40 UNL     1      21.542  24.648  19.868  1.00  0.00     0.127 C 
ENDROOT
BRANCH  19  28
HETATM   28  C26 UNL     1      19.557  22.750  16.936  1.00  0.00     0.091 C 
BRANCH  28  29
HETATM   29  C27 UNL     1      19.957  23.606  16.116  1.00  0.00    -0.155 C 
BRANCH  29  30
HETATM   30  C28 UNL     1      20.412  24.573  15.190  1.00  0.00     0.053 C 
HETATM   31  C29 UNL     1      19.871  25.601  14.626  1.00  0.00    -0.075 C 
HETATM   32  C30 UNL     1      18.516  26.085  14.807  1.00  0.00     0.044 C 
BRANCH  31  33
HETATM   33  C31 UNL     1      20.740  26.446  13.723  1.00  0.00     0.061 C 
BRANCH  33  34
HETATM   34  C32 UNL     1      20.391  27.911  13.828  1.00  0.00     0.183 C 
BRANCH  34  35
HETATM   35  O4  UNL     1      21.496  28.684  14.243  1.00  0.00    -0.321 OA
BRANCH  35  36
HETATM   36  C33 UNL     1      22.220  28.490  15.389  1.00  0.00     0.254 C 
HETATM   37  C34 UNL     1      23.698  28.422  15.459  1.00  0.00     0.126 C 
HETATM   38  O5  UNL     1      21.597  28.353  16.488  1.00  0.00    -0.266 OA
ENDBRANCH  35  36
ENDBRANCH  34  35
ENDBRANCH  33  34
ENDBRANCH  31  33
ENDBRANCH  29  30
ENDBRANCH  28  29
ENDBRANCH  19  28
BRANCH  27  39
HETATM   39  O8  UNL     1      22.685  23.947  19.358  1.00  0.00    -0.381 OA
ATOM     40  H8  UNL     1      22.568  23.999  18.416  1.00  0.00     0.211 HD
ENDBRANCH  27  39
BRANCH   1  41
HETATM   41  C2  UNL     1      22.894  24.970  21.831  1.00  0.00    -0.029 C 
HETATM   42  C1  UNL     1      23.975  24.217  21.907  1.00  0.00     0.007 C 
ENDBRANCH   1  41
BRANCH  13  43
HETATM   43  C15 UNL     1      15.361  21.735  15.655  1.00  0.00     0.130 C 
BRANCH  43  44
HETATM   44  O2  UNL     1      14.055  22.214  15.657  1.00  0.00    -0.395 OA
ATOM     45  H2  UNL     1      13.673  22.230  14.787  1.00  0.00     0.210 HD
ENDBRANCH  43  44
BRANCH  43  46
HETATM   46  C16 UNL     1      16.048  21.796  14.319  1.00  0.00     0.032 C 
BRANCH  46  47
HETATM   47  C17 UNL     1      15.624  23.075  13.608  1.00  0.00     0.002 C 
BRANCH  47  48
HETATM   48  C18 UNL     1      15.150  22.782  12.223  1.00  0.00    -0.000 C 
BRANCH  48  49
HETATM   49  C19 UNL     1      13.665  22.854  12.127  1.00  0.00    -0.005 C 
HETATM   50  C20 UNL     1      13.084  21.429  12.112  1.00  0.00     0.005 C 
ENDBRANCH  48  49
ENDBRANCH  47  48
ENDBRANCH  46  47
ENDBRANCH  43  46
ENDBRANCH  13  43
TORSDOF 15
ENDMDL
MODEL 5
REMARK VINA RESULT: -7.576165441      1.058      1.859
REMARK  15 active torsions:
REMARK  status: ('A' for Active; 'I' for Inactive)
REMARK    1  A    between atoms: C2_2  and  C3_3 
REMARK    2  A    between atoms: C14_15  and  C15_16 
REMARK    3  A    between atoms: C15_16  and  O2_17 
REMARK    4  A    between atoms: C15_16  and  C16_19 
REMARK    5  A    between atoms: C16_19  and  C17_20 
REMARK    6  A    between atoms: C17_20  and  C18_21 
REMARK    7  A    between atoms: C18_21  and  C19_22 
REMARK    8  A    between atoms: C25_29  and  C26_30 
REMARK    9  A    between atoms: C26_30  and  C27_31 
REMARK   10  A    between atoms: C27_31  and  C28_32 
REMARK   11  A    between atoms: C29_33  and  C31_35 
REMARK   12  A    between atoms: C31_35  and  C32_36 
REMARK   13  A    between atoms: C32_36  and  O4_37 
REMARK   14  A    between atoms: O4_37  and  C33_38 
REMARK   15  A    between atoms: C40_48  and  O8_49 
ROOT
HETATM    1  C3  UNL     1      12.515  20.717  13.017  1.00  0.00     0.050 C 
HETATM    2  C4  UNL     1      13.600  20.645  11.922  1.00  0.00     0.019 C 
HETATM    3  C5  UNL     1      14.525  21.811  12.197  1.00  0.00     0.080 C 
HETATM    4  C6  UNL     1      15.226  21.388  13.471  1.00  0.00     0.144 C 
HETATM    5  O1  UNL     1      16.156  20.695  13.259  1.00  0.00    -0.296 OA
HETATM    6  C7  UNL     1      14.781  21.799  14.836  1.00  0.00     0.078 C 
HETATM    7  C8  UNL     1      14.396  23.229  14.740  1.00  0.00    -0.066 C 
HETATM    8  C9  UNL     1      13.089  23.878  14.848  1.00  0.00     0.044 C 
HETATM    9  C10 UNL     1      15.404  24.093  14.540  1.00  0.00    -0.017 C 
HETATM   10  C11 UNL     1      16.827  23.746  14.412  1.00  0.00     0.022 A 
HETATM   11  C12 UNL     1      17.177  22.468  15.152  1.00  0.00     0.006 A 
HETATM   12  C13 UNL     1      18.095  23.286  16.022  1.00  0.00     0.014 A 
HETATM   13  C14 UNL     1      17.706  23.463  17.447  1.00  0.00     0.089 C 
HETATM   14  C21 UNL     1      16.842  24.686  17.467  1.00  0.00     0.134 C 
HETATM   15  O3  UNL     1      16.025  24.978  18.292  1.00  0.00    -0.297 OA
HETATM   16  C22 UNL     1      17.184  25.505  16.248  1.00  0.00     0.089 C 
HETATM   17  C23 UNL     1      17.773  24.537  15.257  1.00  0.00    -0.025 A 
HETATM   18  C24 UNL     1      18.906  25.171  14.482  1.00  0.00     0.016 C 
HETATM   19  C25 UNL     1      16.020  21.824  15.767  1.00  0.00     0.026 C 
HETATM   20  C35 UNL     1      13.778  20.839  15.274  1.00  0.00     0.027 C 
HETATM   21  C36 UNL     1      12.948  21.244  16.436  1.00  0.00     0.188 C 
HETATM   22  O6  UNL     1      13.263  22.009  17.313  1.00  0.00    -0.290 OA
HETATM   23  C37 UNL     1      11.665  20.556  16.342  1.00  0.00     0.234 A 
HETATM   24  O7  UNL     1      10.786  20.782  15.292  1.00  0.00    -0.358 OA
HETATM   25  C38 UNL     1      11.700  19.766  15.121  1.00  0.00     0.127 A 
HETATM   26  C39 UNL     1      11.275  18.324  15.263  1.00  0.00     0.053 C 
HETATM   27  C40 UNL     1      12.918  20.136  14.289  1.00  0.00     0.127 C 
ENDROOT
BRANCH  19  28
HETATM   28  C26 UNL     1      16.344  20.509  16.353  1.00  0.00     0.091 C 
BRANCH  28  29
HETATM   29  C27 UNL     1      15.855  19.817  17.274  1.00  0.00    -0.155 C 
BRANCH  29  30
HETATM   30  C28 UNL     1      15.302  19.034  18.313  1.00  0.00     0.053 C 
HETATM   31  C29 UNL     1      14.638  19.306  19.386  1.00  0.00    -0.075 C 
HETATM   32  C30 UNL     1      14.247  20.618  19.863  1.00  0.00     0.044 C 
BRANCH  31  33
HETATM   33  C31 UNL     1      14.150  18.145  20.223  1.00  0.00     0.061 C 
BRANCH  33  34
HETATM   34  C32 UNL     1      12.969  18.535  21.078  1.00  0.00     0.183 C 
BRANCH  34  35
HETATM   35  O4  UNL     1      11.787  17.886  20.665  1.00  0.00    -0.321 OA
BRANCH  35  36
HETATM   36  C33 UNL     1      11.338  17.791  19.375  1.00  0.00     0.254 C 
HETATM   37  C34 UNL     1      11.388  16.565  18.545  1.00  0.00     0.126 C 
HETATM   38  O5  UNL     1      10.837  18.822  18.827  1.00  0.00    -0.266 OA
ENDBRANCH  35  36
ENDBRANCH  34  35
ENDBRANCH  33  34
ENDBRANCH  31  33
ENDBRANCH  29  30
ENDBRANCH  28  29
ENDBRANCH  19  28
BRANCH  27  39
HETATM   39  O8  UNL     1      13.447  18.857  13.910  1.00  0.00    -0.381 OA
ATOM     40  H8  UNL     1      13.890  18.565  14.699  1.00  0.00     0.211 HD
ENDBRANCH  27  39
BRANCH   1  41
HETATM   41  C2  UNL     1      11.436  19.825  12.420  1.00  0.00    -0.029 C 
HETATM   42  C1  UNL     1      11.695  19.121  11.334  1.00  0.00     0.007 C 
ENDBRANCH   1  41
BRANCH  13  43
HETATM   43  C15 UNL     1      18.863  23.635  18.392  1.00  0.00     0.130 C 
BRANCH  43  44
HETATM   44  O2  UNL     1      19.072  22.512  19.187  1.00  0.00    -0.395 OA
ATOM     45  H2  UNL     1      18.601  22.558  20.012  1.00  0.00     0.210 HD
ENDBRANCH  43  44
BRANCH  43  46
HETATM   46  C16 UNL     1      20.111  24.213  17.786  1.00  0.00     0.032 C 
BRANCH  46  47
HETATM   47  C17 UNL     1      20.907  24.916  18.878  1.00  0.00     0.002 C 
BRANCH  47  48
HETATM   48  C18 UNL     1      21.338  26.274  18.431  1.00  0.00    -0.000 C 
BRANCH  48  49
HETATM   49  C19 UNL     1      20.460  26.799  17.348  1.00  0.00    -0.005 C 
HETATM   50  C20 UNL     1      21.320  27.539  16.308  1.00  0.00     0.005 C 
ENDBRANCH  48  49
ENDBRANCH  47  48
ENDBRANCH  46  47
ENDBRANCH  43  46
ENDBRANCH  13  43
TORSDOF 15
ENDMDL
