MODEL 1
REMARK VINA RESULT: -10.416345526      0.000      0.000
REMARK  14 active torsions:
REMARK  status: ('A' for Active; 'I' for Inactive)
REMARK       I    between atoms: C2_2  and  N1_4 
REMARK    1  A    between atoms: C6_8  and  C7_9 
REMARK    2  A    between atoms: C7_9  and  N2_10 
REMARK    3  A    between atoms: C8_11  and  C9_12 
REMARK    4  A    between atoms: C9_12  and  C10_13 
REMARK    5  A    between atoms: C10_13  and  C11_14 
REMARK    6  A    between atoms: C11_14  and  C12_15 
REMARK    7  A    between atoms: C12_15  and  C13_16 
REMARK    8  A    between atoms: N5_22  and  C15_24 
REMARK    9  A    between atoms: C15_24  and  C17_27 
REMARK   10  A    between atoms: C17_27  and  O2_29 
REMARK   11  A    between atoms: O2_29  and  C19_30 
REMARK       I    between atoms: C19_30  and  N7_32 
REMARK   12  A    between atoms: C24_37  and  C25_38 
REMARK   13  A    between atoms: C29_45  and  C30_46 
REMARK   14  A    between atoms: C30_46  and  C31_47 
ROOT
HETATM    1  C15 UNL     1      14.421  20.825  13.963  1.00  0.00     0.221 C 
HETATM    2  C16 UNL     1      15.137  20.742  12.702  1.00  0.00     0.087 C 
HETATM    3  N6  UNL     1      15.723  20.680  11.708  1.00  0.00    -0.195 NA
ENDROOT
BRANCH   1   4
HETATM    4  N5  UNL     1      14.190  22.195  14.366  1.00  0.00    -0.335 N 
HETATM    5  C14 UNL     1      14.293  22.495  15.607  1.00  0.00     0.241 A 
HETATM    6  N4  UNL     1      14.115  23.709  16.163  1.00  0.00    -0.263 N 
HETATM    7  O6  UNL     1      14.595  21.688  16.593  1.00  0.00    -0.264 OA
HETATM    8  N3  UNL     1      14.309  23.610  17.466  1.00  0.00    -0.280 N 
ATOM      9  H4  UNL     1      13.870  24.563  15.661  1.00  0.00     0.190 HD
HETATM   10  C13 UNL     1      14.616  22.314  17.727  1.00  0.00     0.142 A 
ATOM     11  H3  UNL     1      14.241  24.366  18.148  1.00  0.00     0.189 HD
ATOM     12  H5  UNL     1      13.949  22.907  13.676  1.00  0.00     0.164 HD
BRANCH  10  13
HETATM   13  C12 UNL     1      14.918  21.741  19.084  1.00  0.00     0.086 C 
BRANCH  13  14
HETATM   14  C11 UNL     1      16.092  20.809  18.913  1.00  0.00     0.008 C 
BRANCH  14  15
HETATM   15  C10 UNL     1      17.343  21.388  19.462  1.00  0.00     0.006 C 
BRANCH  15  16
HETATM   16  C9  UNL     1      18.482  21.446  18.478  1.00  0.00     0.057 C 
BRANCH  16  17
HETATM   17  C8  UNL     1      18.384  22.553  17.504  1.00  0.00     0.012 A 
HETATM   18  N2  UNL     1      18.757  23.855  17.682  1.00  0.00    -0.350 N 
HETATM   19  C29 UNL     1      18.464  24.508  16.512  1.00  0.00     0.037 A 
HETATM   20  C27 UNL     1      17.919  23.634  15.619  1.00  0.00    -0.034 A 
HETATM   21  C26 UNL     1      17.870  22.402  16.245  1.00  0.00     0.034 A 
HETATM   22  C28 UNL     1      17.380  23.815  14.227  1.00  0.00     0.050 C 
BRANCH  18  23
HETATM   23  C7  UNL     1      19.260  24.351  18.909  1.00  0.00     0.135 C 
BRANCH  23  24
HETATM   24  C6  UNL     1      20.696  24.566  19.101  1.00  0.00     0.022 C 
HETATM   25  C5  UNL     1      21.239  23.388  19.952  1.00  0.00     0.009 C 
HETATM   26  C4  UNL     1      20.697  23.438  21.340  1.00  0.00     0.020 C 
HETATM   27  C3  UNL     1      20.825  24.784  21.992  1.00  0.00     0.125 C 
HETATM   28  N1  UNL     1      21.327  25.806  21.133  1.00  0.00    -0.352 N 
HETATM   29  C2  UNL     1      21.998  26.907  21.722  1.00  0.00     0.215 C 
HETATM   30  C34 UNL     1      21.203  25.807  19.691  1.00  0.00     0.132 C 
HETATM   31  C1  UNL     1      22.179  27.002  23.194  1.00  0.00     0.117 C 
HETATM   32  O1  UNL     1      22.465  27.845  21.009  1.00  0.00    -0.274 OA
ENDBRANCH  23  24
ENDBRANCH  18  23
BRANCH  19  33
HETATM   33  C30 UNL     1      18.647  25.933  16.272  1.00  0.00     0.007 C 
BRANCH  33  34
HETATM   34  C31 UNL     1      19.823  26.460  15.584  1.00  0.00     0.002 C 
HETATM   35  C32 UNL     1      20.980  25.569  15.309  1.00  0.00     0.013 C 
HETATM   36  C33 UNL     1      19.340  27.048  14.234  1.00  0.00     0.013 C 
ENDBRANCH  33  34
ENDBRANCH  19  33
ENDBRANCH  16  17
ENDBRANCH  15  16
ENDBRANCH  14  15
ENDBRANCH  13  14
ENDBRANCH  10  13
ENDBRANCH   1   4
BRANCH   1  37
HETATM   37  C17 UNL     1      13.047  20.191  13.803  1.00  0.00     0.166 C 
HETATM   38  C18 UNL     1      12.120  21.301  13.336  1.00  0.00     0.043 C 
BRANCH  37  39
HETATM   39  O2  UNL     1      12.585  19.591  14.988  1.00  0.00    -0.296 OA
BRANCH  39  40
HETATM   40  C19 UNL     1      11.587  18.616  14.917  1.00  0.00     0.364 C 
HETATM   41  O3  UNL     1      11.031  18.440  13.797  1.00  0.00    -0.238 OA
HETATM   42  N7  UNL     1      11.202  17.846  16.050  1.00  0.00    -0.313 N 
HETATM   43  C20 UNL     1      10.166  16.857  15.906  1.00  0.00     0.129 C 
HETATM   44  C24 UNL     1      11.834  18.048  17.326  1.00  0.00     0.190 C 
HETATM   45  C21 UNL     1      10.682  15.538  16.392  1.00  0.00     0.020 C 
HETATM   46  C22 UNL     1      11.136  15.694  17.828  1.00  0.00     0.004 C 
HETATM   47  C23 UNL     1      12.219  16.733  17.968  1.00  0.00     0.037 C 
BRANCH  44  48
HETATM   48  C25 UNL     1      10.983  18.848  18.225  1.00  0.00     0.197 C 
HETATM   49  O4  UNL     1      10.771  18.469  19.399  1.00  0.00    -0.646 OA
HETATM   50  O5  UNL     1      10.413  20.020  17.778  1.00  0.00    -0.646 OA
ENDBRANCH  44  48
ENDBRANCH  39  40
ENDBRANCH  37  39
ENDBRANCH   1  37
TORSDOF 14
ENDMDL
MODEL 2
REMARK VINA RESULT: -10.393839230      1.351      3.720
REMARK  14 active torsions:
REMARK  status: ('A' for Active; 'I' for Inactive)
REMARK       I    between atoms: C2_2  and  N1_4 
REMARK    1  A    between atoms: C6_8  and  C7_9 
REMARK    2  A    between atoms: C7_9  and  N2_10 
REMARK    3  A    between atoms: C8_11  and  C9_12 
REMARK    4  A    between atoms: C9_12  and  C10_13 
REMARK    5  A    between atoms: C10_13  and  C11_14 
REMARK    6  A    between atoms: C11_14  and  C12_15 
REMARK    7  A    between atoms: C12_15  and  C13_16 
REMARK    8  A    between atoms: N5_22  and  C15_24 
REMARK    9  A    between atoms: C15_24  and  C17_27 
REMARK   10  A    between atoms: C17_27  and  O2_29 
REMARK   11  A    between atoms: O2_29  and  C19_30 
REMARK       I    between atoms: C19_30  and  N7_32 
REMARK   12  A    between atoms: C24_37  and  C25_38 
REMARK   13  A    between atoms: C29_45  and  C30_46 
REMARK   14  A    between atoms: C30_46  and  C31_47 
ROOT
HETATM    1  C15 UNL     1      14.359  20.593  13.709  1.00  0.00     0.221 C 
HETATM    2  C16 UNL     1      15.126  20.462  12.483  1.00  0.00     0.087 C 
HETATM    3  N6  UNL     1      15.752  20.363  11.516  1.00  0.00    -0.195 NA
ENDROOT
BRANCH   1   4
HETATM    4  N5  UNL     1      14.008  21.970  13.983  1.00  0.00    -0.335 N 
HETATM    5  C14 UNL     1      14.188  22.425  15.167  1.00  0.00     0.241 A 
HETATM    6  N4  UNL     1      13.921  23.671  15.604  1.00  0.00    -0.263 N 
HETATM    7  O6  UNL     1      14.670  21.777  16.198  1.00  0.00    -0.264 OA
HETATM    8  N3  UNL     1      14.244  23.748  16.883  1.00  0.00    -0.280 N 
ATOM      9  H4  UNL     1      13.535  24.428  15.041  1.00  0.00     0.190 HD
HETATM   10  C13 UNL     1      14.722  22.532  17.249  1.00  0.00     0.142 A 
ATOM     11  H3  UNL     1      14.151  24.568  17.483  1.00  0.00     0.189 HD
ATOM     12  H5  UNL     1      13.625  22.565  13.249  1.00  0.00     0.164 HD
BRANCH  10  13
HETATM   13  C12 UNL     1      15.210  22.158  18.621  1.00  0.00     0.086 C 
BRANCH  13  14
HETATM   14  C11 UNL     1      15.483  20.675  18.599  1.00  0.00     0.008 C 
BRANCH  14  15
HETATM   15  C10 UNL     1      16.935  20.379  18.544  1.00  0.00     0.006 C 
BRANCH  15  16
HETATM   16  C9  UNL     1      17.761  21.452  17.884  1.00  0.00     0.057 C 
BRANCH  16  17
HETATM   17  C8  UNL     1      18.746  22.095  18.779  1.00  0.00     0.012 A 
HETATM   18  N2  UNL     1      19.532  23.179  18.511  1.00  0.00    -0.350 N 
HETATM   19  C29 UNL     1      20.291  23.398  19.633  1.00  0.00     0.037 A 
HETATM   20  C27 UNL     1      19.986  22.471  20.584  1.00  0.00    -0.034 A 
HETATM   21  C26 UNL     1      19.012  21.650  20.045  1.00  0.00     0.034 A 
HETATM   22  C28 UNL     1      20.536  22.216  21.960  1.00  0.00     0.050 C 
BRANCH  18  23
HETATM   23  C7  UNL     1      19.546  23.829  17.253  1.00  0.00     0.135 C 
BRANCH  23  24
HETATM   24  C6  UNL     1      18.990  25.174  17.094  1.00  0.00     0.022 C 
HETATM   25  C5  UNL     1      17.908  25.109  15.984  1.00  0.00     0.009 C 
HETATM   26  C4  UNL     1      18.522  24.833  14.654  1.00  0.00     0.020 C 
HETATM   27  C3  UNL     1      19.688  25.722  14.330  1.00  0.00     0.125 C 
HETATM   28  N1  UNL     1      20.080  26.586  15.396  1.00  0.00    -0.352 N 
HETATM   29  C2  UNL     1      20.741  27.796  15.068  1.00  0.00     0.215 C 
HETATM   30  C34 UNL     1      19.854  26.320  16.800  1.00  0.00     0.132 C 
HETATM   31  C1  UNL     1      21.021  28.163  13.656  1.00  0.00     0.117 C 
HETATM   32  O1  UNL     1      21.113  28.602  15.972  1.00  0.00    -0.274 OA
ENDBRANCH  23  24
ENDBRANCH  18  23
BRANCH  19  33
HETATM   33  C30 UNL     1      21.313  24.426  19.772  1.00  0.00     0.007 C 
BRANCH  33  34
HETATM   34  C31 UNL     1      21.086  25.647  20.542  1.00  0.00     0.002 C 
HETATM   35  C32 UNL     1      21.506  25.714  21.965  1.00  0.00     0.013 C 
HETATM   36  C33 UNL     1      21.782  26.805  19.783  1.00  0.00     0.013 C 
ENDBRANCH  33  34
ENDBRANCH  19  33
ENDBRANCH  16  17
ENDBRANCH  15  16
ENDBRANCH  14  15
ENDBRANCH  13  14
ENDBRANCH  10  13
ENDBRANCH   1   4
BRANCH   1  37
HETATM   37  C17 UNL     1      13.045  19.841  13.563  1.00  0.00     0.166 C 
HETATM   38  C18 UNL     1      12.151  20.712  12.697  1.00  0.00     0.043 C 
BRANCH  37  39
HETATM   39  O2  UNL     1      12.446  19.549  14.801  1.00  0.00    -0.296 OA
BRANCH  39  40
HETATM   40  C19 UNL     1      11.468  18.552  14.870  1.00  0.00     0.364 C 
HETATM   41  O3  UNL     1      10.840  18.286  13.808  1.00  0.00    -0.238 OA
HETATM   42  N7  UNL     1      11.183  17.860  16.080  1.00  0.00    -0.313 N 
HETATM   43  C20 UNL     1      10.162  16.844  16.081  1.00  0.00     0.129 C 
HETATM   44  C24 UNL     1      11.897  18.165  17.289  1.00  0.00     0.190 C 
HETATM   45  C21 UNL     1      10.743  15.572  16.621  1.00  0.00     0.020 C 
HETATM   46  C22 UNL     1      11.292  15.840  18.006  1.00  0.00     0.004 C 
HETATM   47  C23 UNL     1      12.357  16.908  17.994  1.00  0.00     0.037 C 
BRANCH  44  48
HETATM   48  C25 UNL     1      11.091  19.011  18.189  1.00  0.00     0.197 C 
HETATM   49  O4  UNL     1      10.410  19.954  17.728  1.00  0.00    -0.646 OA
HETATM   50  O5  UNL     1      11.084  18.769  19.545  1.00  0.00    -0.646 OA
ENDBRANCH  44  48
ENDBRANCH  39  40
ENDBRANCH  37  39
ENDBRANCH   1  37
TORSDOF 14
ENDMDL
MODEL 3
REMARK VINA RESULT: -10.269151606      2.450      9.971
REMARK  14 active torsions:
REMARK  status: ('A' for Active; 'I' for Inactive)
REMARK       I    between atoms: C2_2  and  N1_4 
REMARK    1  A    between atoms: C6_8  and  C7_9 
REMARK    2  A    between atoms: C7_9  and  N2_10 
REMARK    3  A    between atoms: C8_11  and  C9_12 
REMARK    4  A    between atoms: C9_12  and  C10_13 
REMARK    5  A    between atoms: C10_13  and  C11_14 
REMARK    6  A    between atoms: C11_14  and  C12_15 
REMARK    7  A    between atoms: C12_15  and  C13_16 
REMARK    8  A    between atoms: N5_22  and  C15_24 
REMARK    9  A    between atoms: C15_24  and  C17_27 
REMARK   10  A    between atoms: C17_27  and  O2_29 
REMARK   11  A    between atoms: O2_29  and  C19_30 
REMARK       I    between atoms: C19_30  and  N7_32 
REMARK   12  A    between atoms: C24_37  and  C25_38 
REMARK   13  A    between atoms: C29_45  and  C30_46 
REMARK   14  A    between atoms: C30_46  and  C31_47 
ROOT
HETATM    1  C15 UNL     1      22.521  23.950  20.288  1.00  0.00     0.221 C 
HETATM    2  C16 UNL     1      23.969  24.016  20.374  1.00  0.00     0.087 C 
HETATM    3  N6  UNL     1      25.123  24.051  20.436  1.00  0.00    -0.195 NA
ENDROOT
BRANCH   1   4
HETATM    4  N5  UNL     1      21.941  23.272  21.428  1.00  0.00    -0.335 N 
HETATM    5  C14 UNL     1      20.888  22.564  21.250  1.00  0.00     0.241 A 
HETATM    6  N4  UNL     1      20.215  21.867  22.186  1.00  0.00    -0.263 N 
HETATM    7  O6  UNL     1      20.248  22.368  20.124  1.00  0.00    -0.264 OA
HETATM    8  N3  UNL     1      19.187  21.270  21.610  1.00  0.00    -0.280 N 
ATOM      9  H4  UNL     1      20.458  21.811  23.174  1.00  0.00     0.190 HD
HETATM   10  C13 UNL     1      19.221  21.597  20.292  1.00  0.00     0.142 A 
ATOM     11  H3  UNL     1      18.497  20.674  22.068  1.00  0.00     0.189 HD
ATOM     12  H5  UNL     1      22.362  23.357  22.353  1.00  0.00     0.164 HD
BRANCH  10  13
HETATM   13  C12 UNL     1      18.240  21.139  19.250  1.00  0.00     0.086 C 
BRANCH  13  14
HETATM   14  C11 UNL     1      18.554  21.903  17.988  1.00  0.00     0.008 C 
BRANCH  14  15
HETATM   15  C10 UNL     1      17.781  21.399  16.827  1.00  0.00     0.006 C 
BRANCH  15  16
HETATM   16  C9  UNL     1      16.725  22.349  16.326  1.00  0.00     0.057 C 
BRANCH  16  17
HETATM   17  C8  UNL     1      15.947  21.838  15.179  1.00  0.00     0.012 A 
HETATM   18  N2  UNL     1      14.987  20.865  15.189  1.00  0.00    -0.350 N 
HETATM   19  C29 UNL     1      14.560  20.725  13.893  1.00  0.00     0.037 A 
HETATM   20  C27 UNL     1      15.236  21.591  13.088  1.00  0.00    -0.034 A 
HETATM   21  C26 UNL     1      16.110  22.294  13.899  1.00  0.00     0.034 A 
HETATM   22  C28 UNL     1      15.204  21.827  11.603  1.00  0.00     0.050 C 
BRANCH  18  23
HETATM   23  C7  UNL     1      14.636  20.142  16.355  1.00  0.00     0.135 C 
BRANCH  23  24
HETATM   24  C6  UNL     1      13.543  20.592  17.219  1.00  0.00     0.022 C 
HETATM   25  C5  UNL     1      14.168  21.385  18.396  1.00  0.00     0.009 C 
HETATM   26  C4  UNL     1      14.960  20.487  19.285  1.00  0.00     0.020 C 
HETATM   27  C3  UNL     1      14.226  19.243  19.697  1.00  0.00     0.125 C 
HETATM   28  N1  UNL     1      12.955  19.079  19.071  1.00  0.00    -0.352 N 
HETATM   29  C2  UNL     1      11.970  18.312  19.744  1.00  0.00     0.215 C 
HETATM   30  C34 UNL     1      12.587  19.639  17.788  1.00  0.00     0.132 C 
HETATM   31  C1  UNL     1      12.247  17.694  21.066  1.00  0.00     0.117 C 
HETATM   32  O1  UNL     1      10.824  18.132  19.237  1.00  0.00    -0.274 OA
ENDBRANCH  23  24
ENDBRANCH  18  23
BRANCH  19  33
HETATM   33  C30 UNL     1      13.576  19.757  13.430  1.00  0.00     0.007 C 
BRANCH  33  34
HETATM   34  C31 UNL     1      12.141  20.032  13.460  1.00  0.00     0.002 C 
HETATM   35  C32 UNL     1      11.659  21.422  13.662  1.00  0.00     0.013 C 
HETATM   36  C33 UNL     1      11.545  19.507  12.130  1.00  0.00     0.013 C 
ENDBRANCH  33  34
ENDBRANCH  19  33
ENDBRANCH  16  17
ENDBRANCH  15  16
ENDBRANCH  14  15
ENDBRANCH  13  14
ENDBRANCH  10  13
ENDBRANCH   1   4
BRANCH   1  37
HETATM   37  C17 UNL     1      21.951  25.360  20.297  1.00  0.00     0.166 C 
HETATM   38  C18 UNL     1      21.475  25.616  21.718  1.00  0.00     0.043 C 
BRANCH  37  39
HETATM   39  O2  UNL     1      20.916  25.534  19.362  1.00  0.00    -0.296 OA
BRANCH  39  40
HETATM   40  C19 UNL     1      21.082  26.451  18.320  1.00  0.00     0.364 C 
HETATM   41  O3  UNL     1      21.797  27.465  18.552  1.00  0.00    -0.238 OA
HETATM   42  N7  UNL     1      20.476  26.262  17.047  1.00  0.00    -0.313 N 
HETATM   43  C20 UNL     1      20.689  27.246  16.017  1.00  0.00     0.129 C 
HETATM   44  C24 UNL     1      19.661  25.108  16.783  1.00  0.00     0.190 C 
HETATM   45  C21 UNL     1      21.217  26.562  14.793  1.00  0.00     0.020 C 
HETATM   46  C22 UNL     1      20.234  25.490  14.374  1.00  0.00     0.004 C 
HETATM   47  C23 UNL     1      20.017  24.467  15.460  1.00  0.00     0.037 C 
BRANCH  44  48
HETATM   48  C25 UNL     1      18.226  25.440  16.842  1.00  0.00     0.197 C 
HETATM   49  O4  UNL     1      17.621  25.445  17.937  1.00  0.00    -0.646 OA
HETATM   50  O5  UNL     1      17.539  25.749  15.688  1.00  0.00    -0.646 OA
ENDBRANCH  44  48
ENDBRANCH  39  40
ENDBRANCH  37  39
ENDBRANCH   1  37
TORSDOF 14
ENDMDL
MODEL 4
REMARK VINA RESULT: -10.231102910      3.395     10.868
REMARK  14 active torsions:
REMARK  status: ('A' for Active; 'I' for Inactive)
REMARK       I    between atoms: C2_2  and  N1_4 
REMARK    1  A    between atoms: C6_8  and  C7_9 
REMARK    2  A    between atoms: C7_9  and  N2_10 
REMARK    3  A    between atoms: C8_11  and  C9_12 
REMARK    4  A    between atoms: C9_12  and  C10_13 
REMARK    5  A    between atoms: C10_13  and  C11_14 
REMARK    6  A    between atoms: C11_14  and  C12_15 
REMARK    7  A    between atoms: C12_15  and  C13_16 
REMARK    8  A    between atoms: N5_22  and  C15_24 
REMARK    9  A    between atoms: C15_24  and  C17_27 
REMARK   10  A    between atoms: C17_27  and  O2_29 
REMARK   11  A    between atoms: O2_29  and  C19_30 
REMARK       I    between atoms: C19_30  and  N7_32 
REMARK   12  A    between atoms: C24_37  and  C25_38 
REMARK   13  A    between atoms: C29_45  and  C30_46 
REMARK   14  A    between atoms: C30_46  and  C31_47 
ROOT
HETATM    1  C15 UNL     1      21.263  25.227  21.324  1.00  0.00     0.221 C 
HETATM    2  C16 UNL     1      21.814  26.236  22.212  1.00  0.00     0.087 C 
HETATM    3  N6  UNL     1      22.240  27.033  22.932  1.00  0.00    -0.195 NA
ENDROOT
BRANCH   1   4
HETATM    4  N5  UNL     1      20.019  25.656  20.723  1.00  0.00    -0.335 N 
HETATM    5  C14 UNL     1      19.179  24.764  20.348  1.00  0.00     0.241 A 
HETATM    6  N4  UNL     1      17.979  24.973  19.774  1.00  0.00    -0.263 N 
HETATM    7  O6  UNL     1      19.311  23.464  20.445  1.00  0.00    -0.264 OA
HETATM    8  N3  UNL     1      17.414  23.802  19.536  1.00  0.00    -0.280 N 
ATOM      9  H4  UNL     1      17.573  25.884  19.559  1.00  0.00     0.190 HD
HETATM   10  C13 UNL     1      18.275  22.847  19.971  1.00  0.00     0.142 A 
ATOM     11  H3  UNL     1      16.502  23.645  19.106  1.00  0.00     0.189 HD
ATOM     12  H5  UNL     1      19.814  26.648  20.601  1.00  0.00     0.164 HD
BRANCH  10  13
HETATM   13  C12 UNL     1      18.046  21.363  19.901  1.00  0.00     0.086 C 
BRANCH  13  14
HETATM   14  C11 UNL     1      17.070  21.124  18.777  1.00  0.00     0.008 C 
BRANCH  14  15
HETATM   15  C10 UNL     1      15.814  20.496  19.257  1.00  0.00     0.006 C 
BRANCH  15  16
HETATM   16  C9  UNL     1      14.565  21.256  18.895  1.00  0.00     0.057 C 
BRANCH  16  17
HETATM   17  C8  UNL     1      13.693  20.560  17.926  1.00  0.00     0.012 A 
HETATM   18  N2  UNL     1      13.772  20.591  16.562  1.00  0.00    -0.350 N 
HETATM   19  C29 UNL     1      12.747  19.807  16.094  1.00  0.00     0.037 A 
HETATM   20  C27 UNL     1      12.042  19.297  17.142  1.00  0.00    -0.034 A 
HETATM   21  C26 UNL     1      12.639  19.771  18.296  1.00  0.00     0.034 A 
HETATM   22  C28 UNL     1      10.815  18.429  17.208  1.00  0.00     0.050 C 
BRANCH  18  23
HETATM   23  C7  UNL     1      14.716  21.380  15.863  1.00  0.00     0.135 C 
BRANCH  23  24
HETATM   24  C6  UNL     1      14.547  22.830  15.747  1.00  0.00     0.022 C 
HETATM   25  C5  UNL     1      14.483  23.178  14.236  1.00  0.00     0.009 C 
HETATM   26  C4  UNL     1      15.797  22.933  13.576  1.00  0.00     0.020 C 
HETATM   27  C3  UNL     1      16.963  23.541  14.303  1.00  0.00     0.125 C 
HETATM   28  N1  UNL     1      16.626  24.136  15.554  1.00  0.00    -0.352 N 
HETATM   29  C2  UNL     1      17.453  25.177  16.045  1.00  0.00     0.215 C 
HETATM   30  C34 UNL     1      15.495  23.755  16.373  1.00  0.00     0.132 C 
HETATM   31  C1  UNL     1      18.640  25.643  15.281  1.00  0.00     0.117 C 
HETATM   32  O1  UNL     1      17.204  25.744  17.151  1.00  0.00    -0.274 OA
ENDBRANCH  23  24
ENDBRANCH  18  23
BRANCH  19  33
HETATM   33  C30 UNL     1      12.419  19.597  14.691  1.00  0.00     0.007 C 
BRANCH  33  34
HETATM   34  C31 UNL     1      11.471  20.450  13.979  1.00  0.00     0.002 C 
HETATM   35  C32 UNL     1      10.958  21.686  14.625  1.00  0.00     0.013 C 
HETATM   36  C33 UNL     1      12.132  20.851  12.637  1.00  0.00     0.013 C 
ENDBRANCH  33  34
ENDBRANCH  19  33
ENDBRANCH  16  17
ENDBRANCH  15  16
ENDBRANCH  14  15
ENDBRANCH  13  14
ENDBRANCH  10  13
ENDBRANCH   1   4
BRANCH   1  37
HETATM   37  C17 UNL     1      22.230  24.988  20.174  1.00  0.00     0.166 C 
HETATM   38  C18 UNL     1      23.350  24.127  20.733  1.00  0.00     0.043 C 
BRANCH  37  39
HETATM   39  O2  UNL     1      22.720  26.184  19.619  1.00  0.00    -0.296 OA
BRANCH  39  40
HETATM   40  C19 UNL     1      22.482  26.461  18.271  1.00  0.00     0.364 C 
HETATM   41  O3  UNL     1      21.292  26.356  17.862  1.00  0.00    -0.238 OA
HETATM   42  N7  UNL     1      23.526  26.847  17.384  1.00  0.00    -0.313 N 
HETATM   43  C20 UNL     1      23.210  27.118  16.006  1.00  0.00     0.129 C 
HETATM   44  C24 UNL     1      24.881  26.965  17.850  1.00  0.00     0.190 C 
HETATM   45  C21 UNL     1      23.715  28.483  15.651  1.00  0.00     0.020 C 
HETATM   46  C22 UNL     1      25.203  28.536  15.924  1.00  0.00     0.004 C 
HETATM   47  C23 UNL     1      25.523  28.247  17.369  1.00  0.00     0.037 C 
BRANCH  44  48
HETATM   48  C25 UNL     1      25.685  25.792  17.462  1.00  0.00     0.197 C 
HETATM   49  O4  UNL     1      26.213  25.733  16.329  1.00  0.00    -0.646 OA
HETATM   50  O5  UNL     1      25.861  24.750  18.347  1.00  0.00    -0.646 OA
ENDBRANCH  44  48
ENDBRANCH  39  40
ENDBRANCH  37  39
ENDBRANCH   1  37
TORSDOF 14
ENDMDL
MODEL 5
REMARK VINA RESULT: -10.108391634      2.261     10.007
REMARK  14 active torsions:
REMARK  status: ('A' for Active; 'I' for Inactive)
REMARK       I    between atoms: C2_2  and  N1_4 
REMARK    1  A    between atoms: C6_8  and  C7_9 
REMARK    2  A    between atoms: C7_9  and  N2_10 
REMARK    3  A    between atoms: C8_11  and  C9_12 
REMARK    4  A    between atoms: C9_12  and  C10_13 
REMARK    5  A    between atoms: C10_13  and  C11_14 
REMARK    6  A    between atoms: C11_14  and  C12_15 
REMARK    7  A    between atoms: C12_15  and  C13_16 
REMARK    8  A    between atoms: N5_22  and  C15_24 
REMARK    9  A    between atoms: C15_24  and  C17_27 
REMARK   10  A    between atoms: C17_27  and  O2_29 
REMARK   11  A    between atoms: O2_29  and  C19_30 
REMARK       I    between atoms: C19_30  and  N7_32 
REMARK   12  A    between atoms: C24_37  and  C25_38 
REMARK   13  A    between atoms: C29_45  and  C30_46 
REMARK   14  A    between atoms: C30_46  and  C31_47 
ROOT
HETATM    1  C15 UNL     1      21.603  25.658  20.416  1.00  0.00     0.221 C 
HETATM    2  C16 UNL     1      22.405  26.501  21.284  1.00  0.00     0.087 C 
HETATM    3  N6  UNL     1      23.042  27.160  21.990  1.00  0.00    -0.195 NA
ENDROOT
BRANCH   1   4
HETATM    4  N5  UNL     1      20.186  25.822  20.661  1.00  0.00    -0.335 N 
HETATM    5  C14 UNL     1      19.425  24.796  20.566  1.00  0.00     0.241 A 
HETATM    6  N4  UNL     1      18.092  24.757  20.758  1.00  0.00    -0.263 N 
HETATM    7  O6  UNL     1      19.781  23.572  20.267  1.00  0.00    -0.264 OA
HETATM    8  N3  UNL     1      17.673  23.518  20.569  1.00  0.00    -0.280 N 
ATOM      9  H4  UNL     1      17.504  25.552  21.007  1.00  0.00     0.190 HD
HETATM   10  C13 UNL     1      18.763  22.771  20.257  1.00  0.00     0.142 A 
ATOM     11  H3  UNL     1      16.712  23.185  20.643  1.00  0.00     0.189 HD
ATOM     12  H5  UNL     1      19.802  26.735  20.903  1.00  0.00     0.164 HD
BRANCH  10  13
HETATM   13  C12 UNL     1      18.760  21.297  19.959  1.00  0.00     0.086 C 
BRANCH  13  14
HETATM   14  C11 UNL     1      17.497  21.011  19.185  1.00  0.00     0.008 C 
BRANCH  14  15
HETATM   15  C10 UNL     1      17.696  21.165  17.724  1.00  0.00     0.006 C 
BRANCH  15  16
HETATM   16  C9  UNL     1      16.879  22.267  17.101  1.00  0.00     0.057 C 
BRANCH  16  17
HETATM   17  C8  UNL     1      16.156  21.866  15.876  1.00  0.00     0.012 A 
HETATM   18  N2  UNL     1      15.208  20.890  15.750  1.00  0.00    -0.350 N 
HETATM   19  C29 UNL     1      14.838  20.874  14.429  1.00  0.00     0.037 A 
HETATM   20  C27 UNL     1      15.538  21.821  13.742  1.00  0.00    -0.034 A 
HETATM   21  C26 UNL     1      16.368  22.446  14.655  1.00  0.00     0.034 A 
HETATM   22  C28 UNL     1      15.566  22.201  12.288  1.00  0.00     0.050 C 
BRANCH  18  23
HETATM   23  C7  UNL     1      14.816  20.053  16.823  1.00  0.00     0.135 C 
BRANCH  23  24
HETATM   24  C6  UNL     1      13.504  20.205  17.455  1.00  0.00     0.022 C 
HETATM   25  C5  UNL     1      13.696  20.041  18.986  1.00  0.00     0.009 C 
HETATM   26  C4  UNL     1      14.083  18.643  19.329  1.00  0.00     0.020 C 
HETATM   27  C3  UNL     1      13.202  17.601  18.701  1.00  0.00     0.125 C 
HETATM   28  N1  UNL     1      12.234  18.122  17.792  1.00  0.00    -0.352 N 
HETATM   29  C2  UNL     1      11.046  17.379  17.581  1.00  0.00     0.215 C 
HETATM   30  C34 UNL     1      12.372  19.363  17.061  1.00  0.00     0.132 C 
HETATM   31  C1  UNL     1      10.807  16.092  18.283  1.00  0.00     0.117 C 
HETATM   32  O1  UNL     1      10.150  17.792  16.785  1.00  0.00    -0.274 OA
ENDBRANCH  23  24
ENDBRANCH  18  23
BRANCH  19  33
HETATM   33  C30 UNL     1      13.886  19.949  13.831  1.00  0.00     0.007 C 
BRANCH  33  34
HETATM   34  C31 UNL     1      12.506  20.334  13.540  1.00  0.00     0.002 C 
HETATM   35  C32 UNL     1      11.972  21.619  14.060  1.00  0.00     0.013 C 
HETATM   36  C33 UNL     1      12.346  20.338  11.999  1.00  0.00     0.013 C 
ENDBRANCH  33  34
ENDBRANCH  19  33
ENDBRANCH  16  17
ENDBRANCH  15  16
ENDBRANCH  14  15
ENDBRANCH  13  14
ENDBRANCH  10  13
ENDBRANCH   1   4
BRANCH   1  37
HETATM   37  C17 UNL     1      21.833  26.064  18.968  1.00  0.00     0.166 C 
HETATM   38  C18 UNL     1      23.289  26.491  18.874  1.00  0.00     0.043 C 
BRANCH  37  39
HETATM   39  O2  UNL     1      20.963  27.085  18.546  1.00  0.00    -0.296 OA
BRANCH  39  40
HETATM   40  C19 UNL     1      20.836  27.355  17.180  1.00  0.00     0.364 C 
HETATM   41  O3  UNL     1      21.421  28.382  16.738  1.00  0.00    -0.238 OA
HETATM   42  N7  UNL     1      20.084  26.514  16.313  1.00  0.00    -0.313 N 
HETATM   43  C20 UNL     1      19.994  26.850  14.916  1.00  0.00     0.129 C 
HETATM   44  C24 UNL     1      19.417  25.345  16.817  1.00  0.00     0.190 C 
HETATM   45  C21 UNL     1      20.431  25.670  14.103  1.00  0.00     0.020 C 
HETATM   46  C22 UNL     1      19.565  24.483  14.469  1.00  0.00     0.004 C 
HETATM   47  C23 UNL     1      19.664  24.142  15.934  1.00  0.00     0.037 C 
BRANCH  44  48
HETATM   48  C25 UNL     1      17.973  25.585  16.994  1.00  0.00     0.197 C 
HETATM   49  O4  UNL     1      17.445  25.463  18.122  1.00  0.00    -0.646 OA
HETATM   50  O5  UNL     1      17.194  25.946  15.917  1.00  0.00    -0.646 OA
ENDBRANCH  44  48
ENDBRANCH  39  40
ENDBRANCH  37  39
ENDBRANCH   1  37
TORSDOF 14
ENDMDL
