MODEL 1
REMARK VINA RESULT: -8.549208107      0.000      0.000
REMARK  14 active torsions:
REMARK  status: ('A' for Active; 'I' for Inactive)
REMARK    1  A    between atoms: O1_2  and  C2_3 
REMARK    2  A    between atoms: C2_3  and  C3_4 
REMARK    3  A    between atoms: C2_3  and  C23_31 
REMARK    4  A    between atoms: C3_4  and  C4_5 
REMARK    5  A    between atoms: C5_7  and  C6_8 
REMARK    6  A    between atoms: C20_26  and  O4_27 
REMARK    7  A    between atoms: C23_31  and  C24_33 
REMARK    8  A    between atoms: C24_33  and  C25_34 
REMARK    9  A    between atoms: C24_33  and  N3_38 
REMARK   10  A    between atoms: C25_34  and  C26_35 
REMARK       I    between atoms: N3_38  and  C29_40 
REMARK   11  A    between atoms: C29_40  and  C30_42 
REMARK   12  A    between atoms: C30_42  and  C31_43 
REMARK   13  A    between atoms: C30_42  and  N4_47 
REMARK   14  A    between atoms: C31_43  and  C32_44 
REMARK       I    between atoms: N4_47  and  C35_49 
ROOT
HETATM    1  C4  UNL     1      12.616  19.973  14.231  1.00  0.00     0.088 C 
HETATM    2  O2  UNL     1      12.968  20.896  13.284  1.00  0.00    -0.313 OA
HETATM    3  C5  UNL     1      14.133  21.442  12.838  1.00  0.00     0.069 C 
HETATM    4  C10 UNL     1      15.159  20.771  12.235  1.00  0.00     0.098 C 
HETATM    5  C11 UNL     1      15.093  19.409  12.003  1.00  0.00    -0.069 C 
HETATM    6  C12 UNL     1      14.884  18.384  11.826  1.00  0.00    -0.041 C 
HETATM    7  C13 UNL     1      14.335  17.110  11.652  1.00  0.00     0.118 A 
HETATM    8  N1  UNL     1      12.956  17.264  11.699  1.00  0.00    -0.329 N 
ATOM      9  H1  UNL     1      12.484  18.163  11.800  1.00  0.00     0.168 HD
HETATM   10  C14 UNL     1      12.352  16.148  11.601  1.00  0.00     0.147 A 
HETATM   11  O3  UNL     1      13.231  15.241  11.484  1.00  0.00    -0.297 OA
HETATM   12  C15 UNL     1      14.475  15.793  11.510  1.00  0.00     0.086 A 
HETATM   13  C16 UNL     1      15.792  15.096  11.404  1.00  0.00     0.080 C 
HETATM   14  C17 UNL     1      10.863  16.190  11.656  1.00  0.00     0.157 C 
HETATM   15  C18 UNL     1      10.447  15.183  12.671  1.00  0.00     0.041 C 
HETATM   16  N2  UNL     1      10.407  17.565  12.031  1.00  0.00    -0.354 N 
HETATM   17  C19 UNL     1       9.032  17.756  11.488  1.00  0.00     0.152 C 
HETATM   18  C20 UNL     1      11.013  18.596  12.716  1.00  0.00     0.147 C 
HETATM   19  C21 UNL     1      11.528  18.992  14.012  1.00  0.00     0.023 C 
HETATM   20  C22 UNL     1      11.584  17.781  14.945  1.00  0.00     0.056 C 
ENDROOT
BRANCH   1  21
HETATM   21  C3  UNL     1      12.548  20.523  15.636  1.00  0.00     0.079 C 
BRANCH  21  22
HETATM   22  C2  UNL     1      13.701  20.680  16.514  1.00  0.00     0.122 C 
BRANCH  22  23
HETATM   23  O1  UNL     1      14.611  21.661  16.333  1.00  0.00    -0.352 OA
HETATM   24  C1  UNL     1      14.199  22.923  16.762  1.00  0.00     0.210 C 
ENDBRANCH  22  23
BRANCH  22  25
HETATM   25  C23 UNL     1      13.555  20.277  17.936  1.00  0.00     0.227 C 
HETATM   26  O5  UNL     1      12.336  20.217  18.323  1.00  0.00    -0.283 OA
BRANCH  25  27
HETATM   27  C24 UNL     1      14.465  19.919  18.996  1.00  0.00     0.065 C 
BRANCH  27  28
HETATM   28  C25 UNL     1      13.987  19.339  20.246  1.00  0.00     0.065 C 
BRANCH  28  29
HETATM   29  C26 UNL     1      13.906  17.844  20.358  1.00  0.00    -0.017 C 
HETATM   30  C27 UNL     1      12.480  17.326  20.420  1.00  0.00     0.010 C 
HETATM   31  C28 UNL     1      14.427  17.331  18.990  1.00  0.00     0.010 C 
ENDBRANCH  28  29
ENDBRANCH  27  28
BRANCH  27  32
HETATM   32  N3  UNL     1      15.486  20.927  19.161  1.00  0.00    -0.325 N 
HETATM   33  C29 UNL     1      16.781  20.913  18.689  1.00  0.00     0.244 C 
HETATM   34  O6  UNL     1      17.295  19.995  18.038  1.00  0.00    -0.271 OA
ATOM     35  H3  UNL     1      15.215  21.753  19.694  1.00  0.00     0.168 HD
BRANCH  33  36
HETATM   36  C30 UNL     1      17.718  22.093  18.957  1.00  0.00     0.177 C 
BRANCH  36  37
HETATM   37  C31 UNL     1      18.187  22.061  20.360  1.00  0.00     0.038 C 
BRANCH  37  38
HETATM   38  C32 UNL     1      19.465  22.763  20.686  1.00  0.00    -0.020 C 
HETATM   39  C33 UNL     1      20.037  21.989  21.909  1.00  0.00     0.009 C 
HETATM   40  C34 UNL     1      19.299  24.172  21.190  1.00  0.00     0.009 C 
ENDBRANCH  37  38
ENDBRANCH  36  37
BRANCH  36  41
HETATM   41  N4  UNL     1      17.114  23.325  18.540  1.00  0.00    -0.348 N 
HETATM   42  C35 UNL     1      17.777  24.166  17.570  1.00  0.00     0.214 C 
HETATM   43  C36 UNL     1      17.202  25.439  17.106  1.00  0.00     0.117 C 
HETATM   44  O7  UNL     1      18.874  23.780  17.126  1.00  0.00    -0.274 OA
ATOM     45  H4  UNL     1      16.215  23.607  18.928  1.00  0.00     0.163 HD
ENDBRANCH  36  41
ENDBRANCH  33  36
ENDBRANCH  27  32
ENDBRANCH  25  27
ENDBRANCH  22  25
ENDBRANCH  21  22
ENDBRANCH   1  21
BRANCH   3  46
HETATM   46  C6  UNL     1      14.408  22.900  12.961  1.00  0.00    -0.001 C 
HETATM   47  C7  UNL     1      14.478  23.544  11.541  1.00  0.00     0.021 C 
HETATM   48  C8  UNL     1      15.733  23.240  13.550  1.00  0.00     0.021 C 
HETATM   49  C9  UNL     1      13.239  23.641  13.581  1.00  0.00     0.021 C 
ENDBRANCH   3  46
BRANCH  18  50
HETATM   50  O4  UNL     1      11.212  19.647  11.911  1.00  0.00    -0.346 OA
ATOM     51  H4  UNL     1      12.137  19.861  11.860  1.00  0.00     0.219 HD
ENDBRANCH  18  50
TORSDOF 14
ENDMDL
MODEL 2
REMARK VINA RESULT: -8.345833911      1.182      2.421
REMARK  14 active torsions:
REMARK  status: ('A' for Active; 'I' for Inactive)
REMARK    1  A    between atoms: O1_2  and  C2_3 
REMARK    2  A    between atoms: C2_3  and  C3_4 
REMARK    3  A    between atoms: C2_3  and  C23_31 
REMARK    4  A    between atoms: C3_4  and  C4_5 
REMARK    5  A    between atoms: C5_7  and  C6_8 
REMARK    6  A    between atoms: C20_26  and  O4_27 
REMARK    7  A    between atoms: C23_31  and  C24_33 
REMARK    8  A    between atoms: C24_33  and  C25_34 
REMARK    9  A    between atoms: C24_33  and  N3_38 
REMARK   10  A    between atoms: C25_34  and  C26_35 
REMARK       I    between atoms: N3_38  and  C29_40 
REMARK   11  A    between atoms: C29_40  and  C30_42 
REMARK   12  A    between atoms: C30_42  and  C31_43 
REMARK   13  A    between atoms: C30_42  and  N4_47 
REMARK   14  A    between atoms: C31_43  and  C32_44 
REMARK       I    between atoms: N4_47  and  C35_49 
ROOT
HETATM    1  C4  UNL     1      12.083  19.715  13.950  1.00  0.00     0.088 C 
HETATM    2  O2  UNL     1      12.554  20.702  13.128  1.00  0.00    -0.313 OA
HETATM    3  C5  UNL     1      13.751  21.320  12.928  1.00  0.00     0.069 C 
HETATM    4  C10 UNL     1      14.902  20.725  12.494  1.00  0.00     0.098 C 
HETATM    5  C11 UNL     1      14.949  19.377  12.192  1.00  0.00    -0.069 C 
HETATM    6  C12 UNL     1      14.828  18.355  11.933  1.00  0.00    -0.041 C 
HETATM    7  C13 UNL     1      14.386  17.070  11.602  1.00  0.00     0.118 A 
HETATM    8  N1  UNL     1      13.015  17.165  11.402  1.00  0.00    -0.329 N 
ATOM      9  H1  UNL     1      12.487  18.036  11.456  1.00  0.00     0.168 HD
HETATM   10  C14 UNL     1      12.496  16.031  11.144  1.00  0.00     0.147 A 
HETATM   11  O3  UNL     1      13.426  15.169  11.150  1.00  0.00    -0.297 OA
HETATM   12  C15 UNL     1      14.615  15.770  11.428  1.00  0.00     0.086 A 
HETATM   13  C16 UNL     1      15.964  15.135  11.535  1.00  0.00     0.080 C 
HETATM   14  C17 UNL     1      11.022  16.008  10.926  1.00  0.00     0.157 C 
HETATM   15  C18 UNL     1      10.480  14.931  11.799  1.00  0.00     0.041 C 
HETATM   16  N2  UNL     1      10.436  17.340  11.273  1.00  0.00    -0.354 N 
HETATM   17  C19 UNL     1       9.174  17.503  10.496  1.00  0.00     0.152 C 
HETATM   18  C20 UNL     1      10.854  18.357  12.104  1.00  0.00     0.147 C 
HETATM   19  C21 UNL     1      11.104  18.703  13.489  1.00  0.00     0.023 C 
HETATM   20  C22 UNL     1      11.052  17.447  14.361  1.00  0.00     0.056 C 
ENDROOT
BRANCH   1  21
HETATM   21  C3  UNL     1      11.733  20.185  15.342  1.00  0.00     0.079 C 
BRANCH  21  22
HETATM   22  C2  UNL     1      12.317  19.644  16.563  1.00  0.00     0.122 C 
BRANCH  22  23
HETATM   23  O1  UNL     1      11.986  18.423  17.036  1.00  0.00    -0.352 OA
HETATM   24  C1  UNL     1      10.845  18.399  17.838  1.00  0.00     0.210 C 
ENDBRANCH  22  23
BRANCH  22  25
HETATM   25  C23 UNL     1      13.704  20.046  16.911  1.00  0.00     0.227 C 
HETATM   26  O5  UNL     1      14.382  20.446  15.901  1.00  0.00    -0.283 OA
BRANCH  25  27
HETATM   27  C24 UNL     1      14.477  20.107  18.126  1.00  0.00     0.065 C 
BRANCH  27  28
HETATM   28  C25 UNL     1      13.855  19.929  19.434  1.00  0.00     0.065 C 
BRANCH  28  29
HETATM   29  C26 UNL     1      14.132  18.664  20.193  1.00  0.00    -0.017 C 
HETATM   30  C27 UNL     1      12.887  18.059  20.819  1.00  0.00     0.010 C 
HETATM   31  C28 UNL     1      14.527  17.641  19.096  1.00  0.00     0.010 C 
ENDBRANCH  28  29
ENDBRANCH  27  28
BRANCH  27  32
HETATM   32  N3  UNL     1      15.443  21.178  18.069  1.00  0.00    -0.325 N 
HETATM   33  C29 UNL     1      16.815  21.085  17.979  1.00  0.00     0.244 C 
HETATM   34  O6  UNL     1      17.459  20.029  17.948  1.00  0.00    -0.271 OA
ATOM     35  H3  UNL     1      15.062  22.124  18.099  1.00  0.00     0.168 HD
BRANCH  33  36
HETATM   36  C30 UNL     1      17.678  22.347  17.916  1.00  0.00     0.177 C 
BRANCH  36  37
HETATM   37  C31 UNL     1      17.804  22.807  16.516  1.00  0.00     0.038 C 
BRANCH  37  38
HETATM   38  C32 UNL     1      18.497  24.107  16.266  1.00  0.00    -0.020 C 
HETATM   39  C33 UNL     1      17.599  25.170  16.962  1.00  0.00     0.009 C 
HETATM   40  C34 UNL     1      18.527  24.539  14.824  1.00  0.00     0.009 C 
ENDBRANCH  37  38
ENDBRANCH  36  37
BRANCH  36  41
HETATM   41  N4  UNL     1      18.917  22.148  18.611  1.00  0.00    -0.348 N 
HETATM   42  C35 UNL     1      19.039  22.525  20.000  1.00  0.00     0.214 C 
HETATM   43  C36 UNL     1      20.285  22.342  20.762  1.00  0.00     0.117 C 
HETATM   44  O7  UNL     1      18.039  23.022  20.552  1.00  0.00    -0.274 OA
ATOM     45  H4  UNL     1      19.714  21.740  18.123  1.00  0.00     0.163 HD
ENDBRANCH  36  41
ENDBRANCH  33  36
ENDBRANCH  27  32
ENDBRANCH  25  27
ENDBRANCH  22  25
ENDBRANCH  21  22
ENDBRANCH   1  21
BRANCH   3  46
HETATM   46  C6  UNL     1      13.925  22.779  13.167  1.00  0.00    -0.001 C 
HETATM   47  C7  UNL     1      15.385  23.064  13.640  1.00  0.00     0.021 C 
HETATM   48  C8  UNL     1      13.097  23.337  14.271  1.00  0.00     0.021 C 
HETATM   49  C9  UNL     1      13.859  23.570  11.874  1.00  0.00     0.021 C 
ENDBRANCH   3  46
BRANCH  18  50
HETATM   50  O4  UNL     1      11.143  19.457  11.399  1.00  0.00    -0.346 OA
ATOM     51  H4  UNL     1      12.069  19.660  11.456  1.00  0.00     0.219 HD
ENDBRANCH  18  50
TORSDOF 14
ENDMDL
MODEL 3
REMARK VINA RESULT: -8.321373424      5.994     12.819
REMARK  14 active torsions:
REMARK  status: ('A' for Active; 'I' for Inactive)
REMARK    1  A    between atoms: O1_2  and  C2_3 
REMARK    2  A    between atoms: C2_3  and  C3_4 
REMARK    3  A    between atoms: C2_3  and  C23_31 
REMARK    4  A    between atoms: C3_4  and  C4_5 
REMARK    5  A    between atoms: C5_7  and  C6_8 
REMARK    6  A    between atoms: C20_26  and  O4_27 
REMARK    7  A    between atoms: C23_31  and  C24_33 
REMARK    8  A    between atoms: C24_33  and  C25_34 
REMARK    9  A    between atoms: C24_33  and  N3_38 
REMARK   10  A    between atoms: C25_34  and  C26_35 
REMARK       I    between atoms: N3_38  and  C29_40 
REMARK   11  A    between atoms: C29_40  and  C30_42 
REMARK   12  A    between atoms: C30_42  and  C31_43 
REMARK   13  A    between atoms: C30_42  and  N4_47 
REMARK   14  A    between atoms: C31_43  and  C32_44 
REMARK       I    between atoms: N4_47  and  C35_49 
ROOT
HETATM    1  C4  UNL     1      23.216  26.871  18.069  1.00  0.00     0.088 C 
HETATM    2  O2  UNL     1      23.099  26.700  16.717  1.00  0.00    -0.313 OA
HETATM    3  C5  UNL     1      22.765  27.488  15.658  1.00  0.00     0.069 C 
HETATM    4  C10 UNL     1      23.447  28.592  15.229  1.00  0.00     0.098 C 
HETATM    5  C11 UNL     1      24.602  29.018  15.859  1.00  0.00    -0.069 C 
HETATM    6  C12 UNL     1      25.504  29.192  16.390  1.00  0.00    -0.041 C 
HETATM    7  C13 UNL     1      26.653  29.153  17.186  1.00  0.00     0.118 A 
HETATM    8  N1  UNL     1      26.782  27.843  17.626  1.00  0.00    -0.329 N 
ATOM      9  H1  UNL     1      26.157  27.083  17.356  1.00  0.00     0.168 HD
HETATM   10  C14 UNL     1      27.777  27.703  18.408  1.00  0.00     0.147 A 
HETATM   11  O3  UNL     1      28.339  28.834  18.526  1.00  0.00    -0.297 OA
HETATM   12  C15 UNL     1      27.676  29.762  17.783  1.00  0.00     0.086 A 
HETATM   13  C16 UNL     1      27.991  31.215  17.632  1.00  0.00     0.080 C 
HETATM   14  C17 UNL     1      28.005  26.337  18.958  1.00  0.00     0.157 C 
HETATM   15  C18 UNL     1      28.151  26.491  20.432  1.00  0.00     0.041 C 
HETATM   16  N2  UNL     1      26.850  25.451  18.613  1.00  0.00    -0.354 N 
HETATM   17  C19 UNL     1      27.341  24.043  18.595  1.00  0.00     0.152 C 
HETATM   18  C20 UNL     1      25.530  25.711  18.312  1.00  0.00     0.147 C 
HETATM   19  C21 UNL     1      24.288  26.220  18.858  1.00  0.00     0.023 C 
HETATM   20  C22 UNL     1      24.542  26.871  20.219  1.00  0.00     0.056 C 
ENDROOT
BRANCH   1  21
HETATM   21  C3  UNL     1      21.904  26.805  18.817  1.00  0.00     0.079 C 
BRANCH  21  22
HETATM   22  C2  UNL     1      21.405  25.615  19.495  1.00  0.00     0.122 C 
BRANCH  22  23
HETATM   23  O1  UNL     1      21.395  25.508  20.841  1.00  0.00    -0.352 OA
HETATM   24  C1  UNL     1      21.298  26.722  21.521  1.00  0.00     0.210 C 
ENDBRANCH  22  23
BRANCH  22  25
HETATM   25  C23 UNL     1      20.314  24.846  18.843  1.00  0.00     0.227 C 
HETATM   26  O5  UNL     1      20.458  24.741  17.575  1.00  0.00    -0.283 OA
BRANCH  25  27
HETATM   27  C24 UNL     1      19.124  24.171  19.299  1.00  0.00     0.065 C 
BRANCH  27  28
HETATM   28  C25 UNL     1      19.066  23.533  20.609  1.00  0.00     0.065 C 
BRANCH  28  29
HETATM   29  C26 UNL     1      19.859  22.278  20.831  1.00  0.00    -0.017 C 
HETATM   30  C27 UNL     1      20.773  22.355  22.041  1.00  0.00     0.010 C 
HETATM   31  C28 UNL     1      18.797  21.223  21.237  1.00  0.00     0.010 C 
ENDBRANCH  28  29
ENDBRANCH  27  28
BRANCH  27  32
HETATM   32  N3  UNL     1      18.530  23.398  18.234  1.00  0.00    -0.325 N 
HETATM   33  C29 UNL     1      17.256  23.494  17.719  1.00  0.00     0.244 C 
HETATM   34  O6  UNL     1      16.383  24.278  18.112  1.00  0.00    -0.271 OA
ATOM     35  H3  UNL     1      19.130  22.690  17.809  1.00  0.00     0.168 HD
BRANCH  33  36
HETATM   36  C30 UNL     1      16.811  22.587  16.569  1.00  0.00     0.177 C 
BRANCH  36  37
HETATM   37  C31 UNL     1      16.275  23.401  15.457  1.00  0.00     0.038 C 
BRANCH  37  38
HETATM   38  C32 UNL     1      15.124  22.851  14.679  1.00  0.00    -0.020 C 
HETATM   39  C33 UNL     1      15.597  22.891  13.197  1.00  0.00     0.009 C 
HETATM   40  C34 UNL     1      13.887  23.709  14.692  1.00  0.00     0.009 C 
ENDBRANCH  37  38
ENDBRANCH  36  37
BRANCH  36  41
HETATM   41  N4  UNL     1      15.939  21.554  17.049  1.00  0.00    -0.348 N 
HETATM   42  C35 UNL     1      16.479  20.430  17.780  1.00  0.00     0.214 C 
HETATM   43  C36 UNL     1      15.632  19.343  18.296  1.00  0.00     0.117 C 
HETATM   44  O7  UNL     1      17.710  20.403  17.967  1.00  0.00    -0.274 OA
ATOM     45  H4  UNL     1      14.937  21.612  16.874  1.00  0.00     0.163 HD
ENDBRANCH  36  41
ENDBRANCH  33  36
ENDBRANCH  27  32
ENDBRANCH  25  27
ENDBRANCH  22  25
ENDBRANCH  21  22
ENDBRANCH   1  21
BRANCH   3  46
HETATM   46  C6  UNL     1      21.571  27.201  14.817  1.00  0.00    -0.001 C 
HETATM   47  C7  UNL     1      20.274  27.572  15.602  1.00  0.00     0.021 C 
HETATM   48  C8  UNL     1      21.367  25.763  14.488  1.00  0.00     0.021 C 
HETATM   49  C9  UNL     1      21.488  28.134  13.624  1.00  0.00     0.021 C 
ENDBRANCH   3  46
BRANCH  18  50
HETATM   50  O4  UNL     1      25.257  25.373  17.046  1.00  0.00    -0.346 OA
ATOM     51  H4  UNL     1      24.372  25.036  16.971  1.00  0.00     0.219 HD
ENDBRANCH  18  50
TORSDOF 14
ENDMDL
MODEL 4
REMARK VINA RESULT: -8.302240260      5.861     12.691
REMARK  14 active torsions:
REMARK  status: ('A' for Active; 'I' for Inactive)
REMARK    1  A    between atoms: O1_2  and  C2_3 
REMARK    2  A    between atoms: C2_3  and  C3_4 
REMARK    3  A    between atoms: C2_3  and  C23_31 
REMARK    4  A    between atoms: C3_4  and  C4_5 
REMARK    5  A    between atoms: C5_7  and  C6_8 
REMARK    6  A    between atoms: C20_26  and  O4_27 
REMARK    7  A    between atoms: C23_31  and  C24_33 
REMARK    8  A    between atoms: C24_33  and  C25_34 
REMARK    9  A    between atoms: C24_33  and  N3_38 
REMARK   10  A    between atoms: C25_34  and  C26_35 
REMARK       I    between atoms: N3_38  and  C29_40 
REMARK   11  A    between atoms: C29_40  and  C30_42 
REMARK   12  A    between atoms: C30_42  and  C31_43 
REMARK   13  A    between atoms: C30_42  and  N4_47 
REMARK   14  A    between atoms: C31_43  and  C32_44 
REMARK       I    between atoms: N4_47  and  C35_49 
ROOT
HETATM    1  C4  UNL     1      22.940  26.906  17.996  1.00  0.00     0.088 C 
HETATM    2  O2  UNL     1      22.943  26.790  16.633  1.00  0.00    -0.313 OA
HETATM    3  C5  UNL     1      22.701  27.620  15.581  1.00  0.00     0.069 C 
HETATM    4  C10 UNL     1      23.412  28.742  15.260  1.00  0.00     0.098 C 
HETATM    5  C11 UNL     1      24.504  29.144  16.006  1.00  0.00    -0.069 C 
HETATM    6  C12 UNL     1      25.356  29.297  16.621  1.00  0.00    -0.041 C 
HETATM    7  C13 UNL     1      26.430  29.227  17.513  1.00  0.00     0.118 A 
HETATM    8  N1  UNL     1      26.527  27.900  17.910  1.00  0.00    -0.329 N 
ATOM      9  H1  UNL     1      25.931  27.152  17.555  1.00  0.00     0.168 HD
HETATM   10  C14 UNL     1      27.449  27.730  18.770  1.00  0.00     0.147 A 
HETATM   11  O3  UNL     1      27.993  28.856  18.983  1.00  0.00    -0.297 OA
HETATM   12  C15 UNL     1      27.393  29.813  18.223  1.00  0.00     0.086 A 
HETATM   13  C16 UNL     1      27.713  31.271  18.159  1.00  0.00     0.080 C 
HETATM   14  C17 UNL     1      27.635  26.343  19.282  1.00  0.00     0.157 C 
HETATM   15  C18 UNL     1      27.650  26.436  20.768  1.00  0.00     0.041 C 
HETATM   16  N2  UNL     1      26.519  25.470  18.801  1.00  0.00    -0.354 N 
HETATM   17  C19 UNL     1      27.017  24.065  18.769  1.00  0.00     0.152 C 
HETATM   18  C20 UNL     1      25.230  25.740  18.395  1.00  0.00     0.147 C 
HETATM   19  C21 UNL     1      23.942  26.225  18.850  1.00  0.00     0.023 C 
HETATM   20  C22 UNL     1      24.071  26.820  20.253  1.00  0.00     0.056 C 
ENDROOT
BRANCH   1  21
HETATM   21  C3  UNL     1      21.568  26.807  18.622  1.00  0.00     0.079 C 
BRANCH  21  22
HETATM   22  C2  UNL     1      20.882  25.552  18.902  1.00  0.00     0.122 C 
BRANCH  22  23
HETATM   23  O1  UNL     1      20.268  25.319  20.083  1.00  0.00    -0.352 OA
HETATM   24  C1  UNL     1      21.016  25.670  21.207  1.00  0.00     0.210 C 
ENDBRANCH  22  23
BRANCH  22  25
HETATM   25  C23 UNL     1      20.250  24.833  17.767  1.00  0.00     0.227 C 
HETATM   26  O5  UNL     1      21.091  24.446  16.883  1.00  0.00    -0.283 OA
BRANCH  25  27
HETATM   27  C24 UNL     1      18.904  24.450  17.421  1.00  0.00     0.065 C 
BRANCH  27  28
HETATM   28  C25 UNL     1      17.920  25.436  16.984  1.00  0.00     0.065 C 
BRANCH  28  29
HETATM   29  C26 UNL     1      17.280  25.262  15.637  1.00  0.00    -0.017 C 
HETATM   30  C27 UNL     1      18.185  24.573  14.631  1.00  0.00     0.010 C 
HETATM   31  C28 UNL     1      16.149  24.230  15.883  1.00  0.00     0.010 C 
ENDBRANCH  28  29
ENDBRANCH  27  28
BRANCH  27  32
HETATM   32  N3  UNL     1      18.391  23.471  18.350  1.00  0.00    -0.325 N 
HETATM   33  C29 UNL     1      18.279  22.109  18.176  1.00  0.00     0.244 C 
HETATM   34  O6  UNL     1      18.598  21.489  17.154  1.00  0.00    -0.271 OA
ATOM     35  H3  UNL     1      18.072  23.833  19.248  1.00  0.00     0.168 HD
BRANCH  33  36
HETATM   36  C30 UNL     1      17.718  21.226  19.294  1.00  0.00     0.177 C 
BRANCH  36  37
HETATM   37  C31 UNL     1      16.259  21.054  19.122  1.00  0.00     0.038 C 
BRANCH  37  38
HETATM   38  C32 UNL     1      15.782  19.892  18.315  1.00  0.00    -0.020 C 
HETATM   39  C33 UNL     1      15.055  20.531  17.096  1.00  0.00     0.009 C 
HETATM   40  C34 UNL     1      14.719  19.057  18.979  1.00  0.00     0.009 C 
ENDBRANCH  37  38
ENDBRANCH  36  37
BRANCH  36  41
HETATM   41  N4  UNL     1      18.133  21.711  20.578  1.00  0.00    -0.348 N 
HETATM   42  C35 UNL     1      19.532  21.708  20.938  1.00  0.00     0.214 C 
HETATM   43  C36 UNL     1      20.013  22.196  22.241  1.00  0.00     0.117 C 
HETATM   44  O7  UNL     1      20.342  21.272  20.099  1.00  0.00    -0.274 OA
ATOM     45  H4  UNL     1      17.438  22.059  21.239  1.00  0.00     0.163 HD
ENDBRANCH  36  41
ENDBRANCH  33  36
ENDBRANCH  27  32
ENDBRANCH  25  27
ENDBRANCH  22  25
ENDBRANCH  21  22
ENDBRANCH   1  21
BRANCH   3  46
HETATM   46  C6  UNL     1      21.587  27.366  14.627  1.00  0.00    -0.001 C 
HETATM   47  C7  UNL     1      20.228  27.757  15.289  1.00  0.00     0.021 C 
HETATM   48  C8  UNL     1      21.386  25.936  14.264  1.00  0.00     0.021 C 
HETATM   49  C9  UNL     1      21.637  28.312  13.442  1.00  0.00     0.021 C 
ENDBRANCH   3  46
BRANCH  18  50
HETATM   50  O4  UNL     1      25.072  25.454  17.097  1.00  0.00    -0.346 OA
ATOM     51  H4  UNL     1      24.646  26.173  16.644  1.00  0.00     0.219 HD
ENDBRANCH  18  50
TORSDOF 14
ENDMDL
MODEL 5
REMARK VINA RESULT: -8.216996639      3.098      6.621
REMARK  14 active torsions:
REMARK  status: ('A' for Active; 'I' for Inactive)
REMARK    1  A    between atoms: O1_2  and  C2_3 
REMARK    2  A    between atoms: C2_3  and  C3_4 
REMARK    3  A    between atoms: C2_3  and  C23_31 
REMARK    4  A    between atoms: C3_4  and  C4_5 
REMARK    5  A    between atoms: C5_7  and  C6_8 
REMARK    6  A    between atoms: C20_26  and  O4_27 
REMARK    7  A    between atoms: C23_31  and  C24_33 
REMARK    8  A    between atoms: C24_33  and  C25_34 
REMARK    9  A    between atoms: C24_33  and  N3_38 
REMARK   10  A    between atoms: C25_34  and  C26_35 
REMARK       I    between atoms: N3_38  and  C29_40 
REMARK   11  A    between atoms: C29_40  and  C30_42 
REMARK   12  A    between atoms: C30_42  and  C31_43 
REMARK   13  A    between atoms: C30_42  and  N4_47 
REMARK   14  A    between atoms: C31_43  and  C32_44 
REMARK       I    between atoms: N4_47  and  C35_49 
ROOT
HETATM    1  C4  UNL     1      11.931  19.484  13.635  1.00  0.00     0.088 C 
HETATM    2  O2  UNL     1      12.444  20.509  12.887  1.00  0.00    -0.313 OA
HETATM    3  C5  UNL     1      13.632  21.170  12.820  1.00  0.00     0.069 C 
HETATM    4  C10 UNL     1      14.839  20.625  12.484  1.00  0.00     0.098 C 
HETATM    5  C11 UNL     1      14.961  19.288  12.154  1.00  0.00    -0.069 C 
HETATM    6  C12 UNL     1      14.901  18.270  11.859  1.00  0.00    -0.041 C 
HETATM    7  C13 UNL     1      14.537  16.982  11.455  1.00  0.00     0.118 A 
HETATM    8  N1  UNL     1      13.189  17.038  11.126  1.00  0.00    -0.329 N 
ATOM      9  H1  UNL     1      12.629  17.891  11.150  1.00  0.00     0.168 HD
HETATM   10  C14 UNL     1      12.737  15.897  10.790  1.00  0.00     0.147 A 
HETATM   11  O3  UNL     1      13.692  15.065  10.864  1.00  0.00    -0.297 OA
HETATM   12  C15 UNL     1      14.827  15.695  11.271  1.00  0.00     0.086 A 
HETATM   13  C16 UNL     1      16.180  15.101  11.492  1.00  0.00     0.080 C 
HETATM   14  C17 UNL     1      11.292  15.832  10.430  1.00  0.00     0.157 C 
HETATM   15  C18 UNL     1      10.707  14.714  11.220  1.00  0.00     0.041 C 
HETATM   16  N2  UNL     1      10.630  17.135  10.753  1.00  0.00    -0.354 N 
HETATM   17  C19 UNL     1       9.444  17.279   9.861  1.00  0.00     0.152 C 
HETATM   18  C20 UNL     1      10.931  18.140  11.646  1.00  0.00     0.147 C 
HETATM   19  C21 UNL     1      11.036  18.454  13.057  1.00  0.00     0.023 C 
HETATM   20  C22 UNL     1      10.943  17.173  13.887  1.00  0.00     0.056 C 
ENDROOT
BRANCH   1  21
HETATM   21  C3  UNL     1      11.432  19.903  14.999  1.00  0.00     0.079 C 
BRANCH  21  22
HETATM   22  C2  UNL     1      12.219  19.818  16.222  1.00  0.00     0.122 C 
BRANCH  22  23
HETATM   23  O1  UNL     1      13.249  20.656  16.472  1.00  0.00    -0.352 OA
HETATM   24  C1  UNL     1      14.509  20.130  16.188  1.00  0.00     0.210 C 
ENDBRANCH  22  23
BRANCH  22  25
HETATM   25  C23 UNL     1      11.542  19.346  17.457  1.00  0.00     0.227 C 
HETATM   26  O5  UNL     1      10.578  20.103  17.825  1.00  0.00    -0.283 OA
BRANCH  25  27
HETATM   27  C24 UNL     1      11.701  18.221  18.344  1.00  0.00     0.065 C 
BRANCH  27  28
HETATM   28  C25 UNL     1      13.003  17.595  18.555  1.00  0.00     0.065 C 
BRANCH  28  29
HETATM   29  C26 UNL     1      13.776  17.950  19.792  1.00  0.00    -0.017 C 
HETATM   30  C27 UNL     1      14.314  19.370  19.773  1.00  0.00     0.010 C 
HETATM   31  C28 UNL     1      12.708  17.974  20.916  1.00  0.00     0.010 C 
ENDBRANCH  28  29
ENDBRANCH  27  28
BRANCH  27  32
HETATM   32  N3  UNL     1      10.611  17.287  18.193  1.00  0.00    -0.325 N 
HETATM   33  C29 UNL     1      10.616  16.067  17.553  1.00  0.00     0.244 C 
HETATM   34  O6  UNL     1      11.588  15.568  16.972  1.00  0.00    -0.271 OA
ATOM     35  H3  UNL     1       9.724  17.565  18.614  1.00  0.00     0.168 HD
BRANCH  33  36
HETATM   36  C30 UNL     1       9.352  15.205  17.510  1.00  0.00     0.177 C 
BRANCH  36  37
HETATM   37  C31 UNL     1       9.045  14.821  16.115  1.00  0.00     0.038 C 
BRANCH  37  38
HETATM   38  C32 UNL     1       9.101  13.371  15.761  1.00  0.00    -0.020 C 
HETATM   39  C33 UNL     1      10.156  13.284  14.621  1.00  0.00     0.009 C 
HETATM   40  C34 UNL     1       7.843  12.825  15.138  1.00  0.00     0.009 C 
ENDBRANCH  37  38
ENDBRANCH  36  37
BRANCH  36  41
HETATM   41  N4  UNL     1       8.281  15.842  18.221  1.00  0.00    -0.348 N 
HETATM   42  C35 UNL     1       7.186  15.057  18.740  1.00  0.00     0.214 C 
HETATM   43  C36 UNL     1       6.063  15.658  19.477  1.00  0.00     0.117 C 
HETATM   44  O7  UNL     1       7.215  13.827  18.544  1.00  0.00    -0.274 OA
ATOM     45  H4  UNL     1       8.293  16.852  18.360  1.00  0.00     0.163 HD
ENDBRANCH  36  41
ENDBRANCH  33  36
ENDBRANCH  27  32
ENDBRANCH  25  27
ENDBRANCH  22  25
ENDBRANCH  21  22
ENDBRANCH   1  21
BRANCH   3  46
HETATM   46  C6  UNL     1      13.732  22.626  13.111  1.00  0.00    -0.001 C 
HETATM   47  C7  UNL     1      15.084  22.928  13.830  1.00  0.00     0.021 C 
HETATM   48  C8  UNL     1      12.717  23.146  14.069  1.00  0.00     0.021 C 
HETATM   49  C9  UNL     1      13.868  23.444  11.841  1.00  0.00     0.021 C 
ENDBRANCH   3  46
BRANCH  18  50
HETATM   50  O4  UNL     1      11.248  19.269  11.000  1.00  0.00    -0.346 OA
ATOM     51  H4  UNL     1      11.284  20.003  11.602  1.00  0.00     0.219 HD
ENDBRANCH  18  50
TORSDOF 14
ENDMDL
