MODEL 1
REMARK VINA RESULT: -10.776254915      0.000      0.000
REMARK  12 active torsions:
REMARK  status: ('A' for Active; 'I' for Inactive)
REMARK    1  A    between atoms: C1_2  and  C2_3 
REMARK       I    between atoms: C1_2  and  N2_16 
REMARK    2  A    between atoms: C2_3  and  O2_4 
REMARK    3  A    between atoms: O2_4  and  C3_5 
REMARK    4  A    between atoms: N2_16  and  C12_18 
REMARK    5  A    between atoms: C15_21  and  C16_22 
REMARK    6  A    between atoms: C16_22  and  C17_23 
REMARK       I    between atoms: C17_23  and  N3_25 
REMARK    7  A    between atoms: N3_25  and  C18_26 
REMARK    8  A    between atoms: N3_25  and  C28_41 
REMARK    9  A    between atoms: C18_26  and  C19_27 
REMARK   10  A    between atoms: C19_27  and  C20_28 
REMARK   11  A    between atoms: C20_28  and  N4_29 
REMARK   12  A    between atoms: C33_46  and  C34_47 
ROOT
HETATM    1  C17 UNL     1      15.355  22.839  14.542  1.00  0.00     0.228 C 
HETATM    2  O3  UNL     1      16.029  22.851  13.462  1.00  0.00    -0.273 OA
HETATM    3  N3  UNL     1      14.293  21.911  14.691  1.00  0.00    -0.317 N 
ENDROOT
BRANCH   1   4
HETATM    4  C16 UNL     1      15.721  23.805  15.591  1.00  0.00     0.141 C 
BRANCH   4   5
HETATM    5  C15 UNL     1      16.988  24.525  15.249  1.00  0.00    -0.049 A 
HETATM    6  C14 UNL     1      18.226  24.066  15.607  1.00  0.00     0.010 A 
HETATM    7  C13 UNL     1      19.393  24.722  15.280  1.00  0.00     0.030 A 
HETATM    8  C12 UNL     1      19.344  25.924  14.544  1.00  0.00     0.034 A 
HETATM    9  C36 UNL     1      18.102  26.387  14.183  1.00  0.00     0.030 A 
HETATM   10  C35 UNL     1      16.939  25.693  14.534  1.00  0.00     0.010 A 
BRANCH   8  11
HETATM   11  N2  UNL     1      20.541  26.583  14.252  1.00  0.00    -0.325 N 
HETATM   12  C1  UNL     1      20.808  27.923  14.541  1.00  0.00     0.246 C 
HETATM   13  O1  UNL     1      19.885  28.615  15.097  1.00  0.00    -0.271 OA
ATOM     14  H2  UNL     1      21.275  26.044  13.795  1.00  0.00     0.169 HD
BRANCH  12  15
HETATM   15  C2  UNL     1      22.097  28.624  14.247  1.00  0.00     0.278 C 
BRANCH  15  16
HETATM   16  O2  UNL     1      22.809  28.872  15.397  1.00  0.00    -0.341 OA
BRANCH  16  17
HETATM   17  C3  UNL     1      23.142  27.910  16.314  1.00  0.00     0.083 A 
HETATM   18  C4  UNL     1      22.275  27.431  17.272  1.00  0.00     0.054 A 
HETATM   19  C5  UNL     1      22.761  26.459  18.133  1.00  0.00     0.091 A 
HETATM   20  N1  UNL     1      24.005  25.973  18.079  1.00  0.00    -0.365 N 
HETATM   21  C6  UNL     1      24.860  26.438  17.143  1.00  0.00     0.045 A 
ATOM     22  H1  UNL     1      24.306  25.257  18.740  1.00  0.00     0.165 HD
HETATM   23  C7  UNL     1      26.158  25.948  17.070  1.00  0.00     0.030 A 
HETATM   24  C11 UNL     1      24.436  27.406  16.258  1.00  0.00     0.024 A 
HETATM   25  C8  UNL     1      27.026  26.414  16.127  1.00  0.00     0.002 A 
HETATM   26  C9  UNL     1      26.581  27.384  15.248  1.00  0.00     0.001 A 
HETATM   27  C10 UNL     1      25.304  27.875  15.311  1.00  0.00     0.016 A 
ENDBRANCH  16  17
ENDBRANCH  15  16
ENDBRANCH  12  15
ENDBRANCH   8  11
ENDBRANCH   4   5
ENDBRANCH   1   4
BRANCH   3  28
HETATM   28  C18 UNL     1      13.643  21.727  15.975  1.00  0.00     0.134 C 
BRANCH  28  29
HETATM   29  C19 UNL     1      13.613  20.376  16.548  1.00  0.00     0.041 C 
BRANCH  29  30
HETATM   30  C20 UNL     1      14.931  19.808  16.946  1.00  0.00     0.137 C 
BRANCH  30  31
HETATM   31  N4  UNL     1      15.794  20.660  17.685  1.00  0.00    -0.279 N 
HETATM   32  C21 UNL     1      17.181  20.934  17.394  1.00  0.00     0.263 A 
HETATM   33  O4  UNL     1      17.839  20.474  16.442  1.00  0.00    -0.267 OA
HETATM   34  C22 UNL     1      17.726  21.846  18.390  1.00  0.00     0.065 A 
HETATM   35  C23 UNL     1      18.952  22.434  18.611  1.00  0.00     0.021 A 
HETATM   36  C26 UNL     1      16.716  22.139  19.282  1.00  0.00     0.117 A 
HETATM   37  C24 UNL     1      19.171  23.280  19.674  1.00  0.00     0.018 A 
HETATM   38  C25 UNL     1      18.140  23.552  20.547  1.00  0.00     0.088 A 
HETATM   39  N5  UNL     1      16.949  22.974  20.323  1.00  0.00    -0.361 N 
ATOM     40  H5  UNL     1      16.184  23.172  20.967  1.00  0.00     0.165 HD
HETATM   41  C27 UNL     1      15.520  21.411  18.855  1.00  0.00     0.278 A 
HETATM   42  O5  UNL     1      14.432  21.487  19.486  1.00  0.00    -0.265 OA
ENDBRANCH  30  31
ENDBRANCH  29  30
ENDBRANCH  28  29
ENDBRANCH   3  28
BRANCH   3  43
HETATM   43  C28 UNL     1      13.888  21.060  13.627  1.00  0.00     0.054 A 
HETATM   44  C29 UNL     1      14.700  19.939  13.340  1.00  0.00     0.031 A 
HETATM   45  C30 UNL     1      14.394  19.061  12.335  1.00  0.00     0.002 A 
HETATM   46  C31 UNL     1      13.268  19.256  11.571  1.00  0.00     0.001 A 
HETATM   47  C32 UNL     1      12.471  20.334  11.833  1.00  0.00     0.021 A 
HETATM   48  C33 UNL     1      12.779  21.259  12.879  1.00  0.00     0.067 A 
BRANCH  48  49
HETATM   49  C34 UNL     1      11.864  22.352  13.050  1.00  0.00     0.211 C 
HETATM   50  O6  UNL     1      12.250  23.524  12.719  1.00  0.00    -0.644 OA
HETATM   51  O7  UNL     1      10.601  22.282  13.539  1.00  0.00    -0.644 OA
ENDBRANCH  48  49
ENDBRANCH   3  43
TORSDOF 12
ENDMDL
MODEL 2
REMARK VINA RESULT: -10.611639242      3.479      6.224
REMARK  12 active torsions:
REMARK  status: ('A' for Active; 'I' for Inactive)
REMARK    1  A    between atoms: C1_2  and  C2_3 
REMARK       I    between atoms: C1_2  and  N2_16 
REMARK    2  A    between atoms: C2_3  and  O2_4 
REMARK    3  A    between atoms: O2_4  and  C3_5 
REMARK    4  A    between atoms: N2_16  and  C12_18 
REMARK    5  A    between atoms: C15_21  and  C16_22 
REMARK    6  A    between atoms: C16_22  and  C17_23 
REMARK       I    between atoms: C17_23  and  N3_25 
REMARK    7  A    between atoms: N3_25  and  C18_26 
REMARK    8  A    between atoms: N3_25  and  C28_41 
REMARK    9  A    between atoms: C18_26  and  C19_27 
REMARK   10  A    between atoms: C19_27  and  C20_28 
REMARK   11  A    between atoms: C20_28  and  N4_29 
REMARK   12  A    between atoms: C33_46  and  C34_47 
ROOT
HETATM    1  C17 UNL     1      10.850  18.961  13.051  1.00  0.00     0.228 C 
HETATM    2  O3  UNL     1      10.790  19.330  11.833  1.00  0.00    -0.273 OA
HETATM    3  N3  UNL     1      10.865  17.577  13.361  1.00  0.00    -0.317 N 
ENDROOT
BRANCH   1   4
HETATM    4  C16 UNL     1      10.901  20.008  14.084  1.00  0.00     0.141 C 
BRANCH   4   5
HETATM    5  C15 UNL     1      12.231  20.695  14.097  1.00  0.00    -0.049 A 
HETATM    6  C14 UNL     1      13.385  20.078  14.499  1.00  0.00     0.010 A 
HETATM    7  C13 UNL     1      14.612  20.706  14.498  1.00  0.00     0.030 A 
HETATM    8  C12 UNL     1      14.717  22.045  14.069  1.00  0.00     0.034 A 
HETATM    9  C36 UNL     1      13.561  22.668  13.665  1.00  0.00     0.030 A 
HETATM   10  C35 UNL     1      12.334  21.997  13.680  1.00  0.00     0.010 A 
BRANCH   8  11
HETATM   11  N2  UNL     1      15.968  22.666  14.106  1.00  0.00    -0.325 N 
HETATM   12  C1  UNL     1      16.482  23.369  15.199  1.00  0.00     0.246 C 
HETATM   13  O1  UNL     1      15.749  23.475  16.244  1.00  0.00    -0.271 OA
ATOM     14  H2  UNL     1      16.551  22.601  13.272  1.00  0.00     0.169 HD
BRANCH  12  15
HETATM   15  C2  UNL     1      17.830  24.016  15.247  1.00  0.00     0.278 C 
BRANCH  15  16
HETATM   16  O2  UNL     1      18.639  23.425  16.188  1.00  0.00    -0.341 OA
BRANCH  16  17
HETATM   17  C3  UNL     1      19.181  24.089  17.257  1.00  0.00     0.083 A 
HETATM   18  C4  UNL     1      19.839  25.296  17.157  1.00  0.00     0.054 A 
HETATM   19  C5  UNL     1      20.336  25.842  18.330  1.00  0.00     0.091 A 
HETATM   20  N1  UNL     1      20.213  25.266  19.529  1.00  0.00    -0.365 N 
HETATM   21  C6  UNL     1      19.571  24.083  19.635  1.00  0.00     0.045 A 
ATOM     22  H1  UNL     1      20.601  25.716  20.359  1.00  0.00     0.165 HD
HETATM   23  C7  UNL     1      19.431  23.465  20.872  1.00  0.00     0.030 A 
HETATM   24  C11 UNL     1      19.053  23.489  18.505  1.00  0.00     0.024 A 
HETATM   25  C8  UNL     1      18.784  22.270  20.985  1.00  0.00     0.002 A 
HETATM   26  C9  UNL     1      18.271  21.691  19.839  1.00  0.00     0.001 A 
HETATM   27  C10 UNL     1      18.403  22.291  18.614  1.00  0.00     0.016 A 
ENDBRANCH  16  17
ENDBRANCH  15  16
ENDBRANCH  12  15
ENDBRANCH   8  11
ENDBRANCH   4   5
ENDBRANCH   1   4
BRANCH   3  28
HETATM   28  C18 UNL     1      11.143  17.122  14.710  1.00  0.00     0.134 C 
BRANCH  28  29
HETATM   29  C19 UNL     1      10.008  16.732  15.556  1.00  0.00     0.041 C 
BRANCH  29  30
HETATM   30  C20 UNL     1      10.144  17.035  17.008  1.00  0.00     0.137 C 
BRANCH  30  31
HETATM   31  N4  UNL     1      11.207  17.901  17.381  1.00  0.00    -0.279 N 
HETATM   32  C21 UNL     1      12.570  17.513  17.654  1.00  0.00     0.263 A 
HETATM   33  O4  UNL     1      13.033  16.358  17.597  1.00  0.00    -0.267 OA
HETATM   34  C22 UNL     1      13.355  18.684  18.016  1.00  0.00     0.065 A 
HETATM   35  C23 UNL     1      14.668  18.911  18.369  1.00  0.00     0.021 A 
HETATM   36  C26 UNL     1      12.517  19.777  17.973  1.00  0.00     0.117 A 
HETATM   37  C24 UNL     1      15.133  20.171  18.667  1.00  0.00     0.018 A 
HETATM   38  C25 UNL     1      14.268  21.242  18.614  1.00  0.00     0.088 A 
HETATM   39  N5  UNL     1      12.991  21.010  18.270  1.00  0.00    -0.361 N 
ATOM     40  H5  UNL     1      12.347  21.801  18.231  1.00  0.00     0.165 HD
HETATM   41  C27 UNL     1      11.188  19.303  17.582  1.00  0.00     0.278 A 
HETATM   42  O5  UNL     1      10.209  20.086  17.460  1.00  0.00    -0.265 OA
ENDBRANCH  30  31
ENDBRANCH  29  30
ENDBRANCH  28  29
ENDBRANCH   3  28
BRANCH   3  43
HETATM   43  C28 UNL     1      10.709  16.584  12.356  1.00  0.00     0.054 A 
HETATM   44  C29 UNL     1      11.880  15.975  11.850  1.00  0.00     0.031 A 
HETATM   45  C30 UNL     1      11.832  15.007  10.881  1.00  0.00     0.002 A 
HETATM   46  C31 UNL     1      10.621  14.602  10.373  1.00  0.00     0.001 A 
HETATM   47  C32 UNL     1       9.478  15.180  10.850  1.00  0.00     0.021 A 
HETATM   48  C33 UNL     1       9.514  16.191  11.860  1.00  0.00     0.067 A 
BRANCH  48  49
HETATM   49  C34 UNL     1       8.244  16.721  12.274  1.00  0.00     0.211 C 
HETATM   50  O6  UNL     1       7.797  17.758  11.677  1.00  0.00    -0.644 OA
HETATM   51  O7  UNL     1       7.443  16.233  13.253  1.00  0.00    -0.644 OA
ENDBRANCH  48  49
ENDBRANCH   3  43
TORSDOF 12
ENDMDL
MODEL 3
REMARK VINA RESULT: -10.580712322      3.165     10.989
REMARK  12 active torsions:
REMARK  status: ('A' for Active; 'I' for Inactive)
REMARK    1  A    between atoms: C1_2  and  C2_3 
REMARK       I    between atoms: C1_2  and  N2_16 
REMARK    2  A    between atoms: C2_3  and  O2_4 
REMARK    3  A    between atoms: O2_4  and  C3_5 
REMARK    4  A    between atoms: N2_16  and  C12_18 
REMARK    5  A    between atoms: C15_21  and  C16_22 
REMARK    6  A    between atoms: C16_22  and  C17_23 
REMARK       I    between atoms: C17_23  and  N3_25 
REMARK    7  A    between atoms: N3_25  and  C18_26 
REMARK    8  A    between atoms: N3_25  and  C28_41 
REMARK    9  A    between atoms: C18_26  and  C19_27 
REMARK   10  A    between atoms: C19_27  and  C20_28 
REMARK   11  A    between atoms: C20_28  and  N4_29 
REMARK   12  A    between atoms: C33_46  and  C34_47 
ROOT
HETATM    1  C17 UNL     1      15.204  23.490  16.109  1.00  0.00     0.228 C 
HETATM    2  O3  UNL     1      14.455  22.884  16.943  1.00  0.00    -0.273 OA
HETATM    3  N3  UNL     1      16.559  23.742  16.443  1.00  0.00    -0.317 N 
ENDROOT
BRANCH   1   4
HETATM    4  C16 UNL     1      14.611  23.900  14.826  1.00  0.00     0.141 C 
BRANCH   4   5
HETATM    5  C15 UNL     1      14.098  22.720  14.062  1.00  0.00    -0.049 A 
HETATM    6  C14 UNL     1      12.825  22.649  13.565  1.00  0.00     0.010 A 
HETATM    7  C13 UNL     1      12.358  21.568  12.849  1.00  0.00     0.030 A 
HETATM    8  C12 UNL     1      13.205  20.469  12.599  1.00  0.00     0.034 A 
HETATM    9  C36 UNL     1      14.484  20.537  13.096  1.00  0.00     0.030 A 
HETATM   10  C35 UNL     1      14.922  21.652  13.819  1.00  0.00     0.010 A 
BRANCH   8  11
HETATM   11  N2  UNL     1      12.695  19.375  11.895  1.00  0.00    -0.325 N 
HETATM   12  C1  UNL     1      11.892  18.373  12.445  1.00  0.00     0.246 C 
HETATM   13  O1  UNL     1      11.611  18.444  13.693  1.00  0.00    -0.271 OA
ATOM     14  H2  UNL     1      12.928  19.302  10.906  1.00  0.00     0.169 HD
BRANCH  12  15
HETATM   15  C2  UNL     1      11.329  17.211  11.688  1.00  0.00     0.278 C 
BRANCH  15  16
HETATM   16  O2  UNL     1      12.283  16.246  11.465  1.00  0.00    -0.341 OA
BRANCH  16  17
HETATM   17  C3  UNL     1      12.658  15.814  10.220  1.00  0.00     0.083 A 
HETATM   18  C4  UNL     1      11.816  15.795   9.129  1.00  0.00     0.054 A 
HETATM   19  C5  UNL     1      12.342  15.325   7.935  1.00  0.00     0.091 A 
HETATM   20  N1  UNL     1      13.599  14.895   7.795  1.00  0.00    -0.365 N 
HETATM   21  C6  UNL     1      14.429  14.909   8.859  1.00  0.00     0.045 A 
ATOM     22  H1  UNL     1      13.930  14.560   6.890  1.00  0.00     0.165 HD
HETATM   23  C7  UNL     1      15.741  14.467   8.737  1.00  0.00     0.030 A 
HETATM   24  C11 UNL     1      13.966  15.367  10.074  1.00  0.00     0.024 A 
HETATM   25  C8  UNL     1      16.584  14.479   9.809  1.00  0.00     0.002 A 
HETATM   26  C9  UNL     1      16.099  14.942  11.018  1.00  0.00     0.001 A 
HETATM   27  C10 UNL     1      14.808  15.380  11.152  1.00  0.00     0.016 A 
ENDBRANCH  16  17
ENDBRANCH  15  16
ENDBRANCH  12  15
ENDBRANCH   8  11
ENDBRANCH   4   5
ENDBRANCH   1   4
BRANCH   3  28
HETATM   28  C18 UNL     1      17.489  24.237  15.446  1.00  0.00     0.134 C 
BRANCH  28  29
HETATM   29  C19 UNL     1      17.487  25.675  15.150  1.00  0.00     0.041 C 
BRANCH  29  30
HETATM   30  C20 UNL     1      18.436  26.124  14.094  1.00  0.00     0.137 C 
BRANCH  30  31
HETATM   31  N4  UNL     1      19.729  26.524  14.528  1.00  0.00    -0.279 N 
HETATM   32  C21 UNL     1      20.168  27.877  14.772  1.00  0.00     0.263 A 
HETATM   33  O4  UNL     1      19.480  28.908  14.650  1.00  0.00    -0.267 OA
HETATM   34  C22 UNL     1      21.562  27.877  15.191  1.00  0.00     0.065 A 
HETATM   35  C23 UNL     1      22.477  28.844  15.546  1.00  0.00     0.021 A 
HETATM   36  C26 UNL     1      21.991  26.567  15.211  1.00  0.00     0.117 A 
HETATM   37  C24 UNL     1      23.767  28.527  15.907  1.00  0.00     0.018 A 
HETATM   38  C25 UNL     1      24.163  27.207  15.917  1.00  0.00     0.088 A 
HETATM   39  N5  UNL     1      23.264  26.272  15.569  1.00  0.00    -0.361 N 
ATOM     40  H5  UNL     1      23.553  25.294  15.574  1.00  0.00     0.165 HD
HETATM   41  C27 UNL     1      20.866  25.724  14.803  1.00  0.00     0.278 A 
HETATM   42  O5  UNL     1      20.963  24.470  14.727  1.00  0.00    -0.265 OA
ENDBRANCH  30  31
ENDBRANCH  29  30
ENDBRANCH  28  29
ENDBRANCH   3  28
BRANCH   3  43
HETATM   43  C28 UNL     1      17.083  23.431  17.727  1.00  0.00     0.054 A 
HETATM   44  C29 UNL     1      17.273  24.501  18.633  1.00  0.00     0.031 A 
HETATM   45  C30 UNL     1      17.772  24.302  19.893  1.00  0.00     0.002 A 
HETATM   46  C31 UNL     1      18.103  23.035  20.309  1.00  0.00     0.001 A 
HETATM   47  C32 UNL     1      17.927  21.989  19.448  1.00  0.00     0.021 A 
HETATM   48  C33 UNL     1      17.408  22.182  18.130  1.00  0.00     0.067 A 
BRANCH  48  49
HETATM   49  C34 UNL     1      17.273  21.003  17.321  1.00  0.00     0.211 C 
HETATM   50  O6  UNL     1      18.130  20.802  16.396  1.00  0.00    -0.644 OA
HETATM   51  O7  UNL     1      16.313  20.052  17.430  1.00  0.00    -0.644 OA
ENDBRANCH  48  49
ENDBRANCH   3  43
TORSDOF 12
ENDMDL
MODEL 4
REMARK VINA RESULT: -10.573071087      2.974     11.066
REMARK  12 active torsions:
REMARK  status: ('A' for Active; 'I' for Inactive)
REMARK    1  A    between atoms: C1_2  and  C2_3 
REMARK       I    between atoms: C1_2  and  N2_16 
REMARK    2  A    between atoms: C2_3  and  O2_4 
REMARK    3  A    between atoms: O2_4  and  C3_5 
REMARK    4  A    between atoms: N2_16  and  C12_18 
REMARK    5  A    between atoms: C15_21  and  C16_22 
REMARK    6  A    between atoms: C16_22  and  C17_23 
REMARK       I    between atoms: C17_23  and  N3_25 
REMARK    7  A    between atoms: N3_25  and  C18_26 
REMARK    8  A    between atoms: N3_25  and  C28_41 
REMARK    9  A    between atoms: C18_26  and  C19_27 
REMARK   10  A    between atoms: C19_27  and  C20_28 
REMARK   11  A    between atoms: C20_28  and  N4_29 
REMARK   12  A    between atoms: C33_46  and  C34_47 
ROOT
HETATM    1  C17 UNL     1      15.223  23.471  16.164  1.00  0.00     0.228 C 
HETATM    2  O3  UNL     1      14.351  23.177  17.045  1.00  0.00    -0.273 OA
HETATM    3  N3  UNL     1      16.600  23.405  16.496  1.00  0.00    -0.317 N 
ENDROOT
BRANCH   1   4
HETATM    4  C16 UNL     1      14.745  23.870  14.831  1.00  0.00     0.141 C 
BRANCH   4   5
HETATM    5  C15 UNL     1      14.043  22.740  14.145  1.00  0.00    -0.049 A 
HETATM    6  C14 UNL     1      12.906  22.908  13.402  1.00  0.00     0.010 A 
HETATM    7  C13 UNL     1      12.268  21.870  12.759  1.00  0.00     0.030 A 
HETATM    8  C12 UNL     1      12.784  20.561  12.851  1.00  0.00     0.034 A 
HETATM    9  C36 UNL     1      13.925  20.388  13.595  1.00  0.00     0.030 A 
HETATM   10  C35 UNL     1      14.545  21.467  14.234  1.00  0.00     0.010 A 
BRANCH   8  11
HETATM   11  N2  UNL     1      12.099  19.523  12.213  1.00  0.00    -0.325 N 
HETATM   12  C1  UNL     1      10.932  18.923  12.689  1.00  0.00     0.246 C 
HETATM   13  O1  UNL     1      10.454  19.334  13.804  1.00  0.00    -0.271 OA
ATOM     14  H2  UNL     1      12.482  19.178  11.333  1.00  0.00     0.169 HD
BRANCH  12  15
HETATM   15  C2  UNL     1      10.187  17.825  11.996  1.00  0.00     0.278 C 
BRANCH  15  16
HETATM   16  O2  UNL     1      11.008  16.758  11.716  1.00  0.00    -0.341 OA
BRANCH  16  17
HETATM   17  C3  UNL     1      11.331  16.352  10.448  1.00  0.00     0.083 A 
HETATM   18  C4  UNL     1      10.448  16.364   9.391  1.00  0.00     0.054 A 
HETATM   19  C5  UNL     1      10.923  15.919   8.167  1.00  0.00     0.091 A 
HETATM   20  N1  UNL     1      12.171  15.486   7.967  1.00  0.00    -0.365 N 
HETATM   21  C6  UNL     1      13.043  15.471   8.999  1.00  0.00     0.045 A 
ATOM     22  H1  UNL     1      12.464  15.170   7.042  1.00  0.00     0.165 HD
HETATM   23  C7  UNL     1      14.345  15.025   8.814  1.00  0.00     0.030 A 
HETATM   24  C11 UNL     1      12.630  15.902  10.241  1.00  0.00     0.024 A 
HETATM   25  C8  UNL     1      15.230  15.007   9.852  1.00  0.00     0.002 A 
HETATM   26  C9  UNL     1      14.796  15.444  11.090  1.00  0.00     0.001 A 
HETATM   27  C10 UNL     1      13.514  15.886  11.285  1.00  0.00     0.016 A 
ENDBRANCH  16  17
ENDBRANCH  15  16
ENDBRANCH  12  15
ENDBRANCH   8  11
ENDBRANCH   4   5
ENDBRANCH   1   4
BRANCH   3  28
HETATM   28  C18 UNL     1      17.618  23.528  15.470  1.00  0.00     0.134 C 
BRANCH  28  29
HETATM   29  C19 UNL     1      17.792  24.833  14.821  1.00  0.00     0.041 C 
BRANCH  29  30
HETATM   30  C20 UNL     1      18.005  25.991  15.733  1.00  0.00     0.137 C 
BRANCH  30  31
HETATM   31  N4  UNL     1      19.335  26.478  15.844  1.00  0.00    -0.279 N 
HETATM   32  C21 UNL     1      19.933  27.522  15.045  1.00  0.00     0.263 A 
HETATM   33  O4  UNL     1      19.374  28.167  14.139  1.00  0.00    -0.267 OA
HETATM   34  C22 UNL     1      21.316  27.725  15.452  1.00  0.00     0.065 A 
HETATM   35  C23 UNL     1      22.340  28.558  15.056  1.00  0.00     0.021 A 
HETATM   36  C26 UNL     1      21.584  26.840  16.474  1.00  0.00     0.117 A 
HETATM   37  C24 UNL     1      23.581  28.517  15.648  1.00  0.00     0.018 A 
HETATM   38  C25 UNL     1      23.816  27.620  16.667  1.00  0.00     0.088 A 
HETATM   39  N5  UNL     1      22.812  26.812  17.045  1.00  0.00    -0.361 N 
ATOM     40  H5  UNL     1      22.982  26.146  17.799  1.00  0.00     0.165 HD
HETATM   41  C27 UNL     1      20.368  26.065  16.722  1.00  0.00     0.278 A 
HETATM   42  O5  UNL     1      20.314  25.171  17.609  1.00  0.00    -0.265 OA
ENDBRANCH  30  31
ENDBRANCH  29  30
ENDBRANCH  28  29
ENDBRANCH   3  28
BRANCH   3  43
HETATM   43  C28 UNL     1      17.038  23.121  17.819  1.00  0.00     0.054 A 
HETATM   44  C29 UNL     1      17.295  24.217  18.674  1.00  0.00     0.031 A 
HETATM   45  C30 UNL     1      17.720  24.045  19.965  1.00  0.00     0.002 A 
HETATM   46  C31 UNL     1      17.906  22.779  20.463  1.00  0.00     0.001 A 
HETATM   47  C32 UNL     1      17.663  21.706  19.652  1.00  0.00     0.021 A 
HETATM   48  C33 UNL     1      17.220  21.872  18.303  1.00  0.00     0.067 A 
BRANCH  48  49
HETATM   49  C34 UNL     1      17.004  20.665  17.553  1.00  0.00     0.211 C 
HETATM   50  O6  UNL     1      17.888  20.315  16.701  1.00  0.00    -0.644 OA
HETATM   51  O7  UNL     1      15.938  19.834  17.649  1.00  0.00    -0.644 OA
ENDBRANCH  48  49
ENDBRANCH   3  43
TORSDOF 12
ENDMDL
MODEL 5
REMARK VINA RESULT: -10.515062282      2.801     10.886
REMARK  12 active torsions:
REMARK  status: ('A' for Active; 'I' for Inactive)
REMARK    1  A    between atoms: C1_2  and  C2_3 
REMARK       I    between atoms: C1_2  and  N2_16 
REMARK    2  A    between atoms: C2_3  and  O2_4 
REMARK    3  A    between atoms: O2_4  and  C3_5 
REMARK    4  A    between atoms: N2_16  and  C12_18 
REMARK    5  A    between atoms: C15_21  and  C16_22 
REMARK    6  A    between atoms: C16_22  and  C17_23 
REMARK       I    between atoms: C17_23  and  N3_25 
REMARK    7  A    between atoms: N3_25  and  C18_26 
REMARK    8  A    between atoms: N3_25  and  C28_41 
REMARK    9  A    between atoms: C18_26  and  C19_27 
REMARK   10  A    between atoms: C19_27  and  C20_28 
REMARK   11  A    between atoms: C20_28  and  N4_29 
REMARK   12  A    between atoms: C33_46  and  C34_47 
ROOT
HETATM    1  C17 UNL     1      18.674  23.673  18.685  1.00  0.00     0.228 C 
HETATM    2  O3  UNL     1      19.767  23.018  18.694  1.00  0.00    -0.273 OA
HETATM    3  N3  UNL     1      18.468  24.673  17.701  1.00  0.00    -0.317 N 
ENDROOT
BRANCH   1   4
HETATM    4  C16 UNL     1      17.670  23.349  19.711  1.00  0.00     0.141 C 
BRANCH   4   5
HETATM    5  C15 UNL     1      16.746  22.267  19.246  1.00  0.00    -0.049 A 
HETATM    6  C14 UNL     1      15.393  22.306  19.442  1.00  0.00     0.010 A 
HETATM    7  C13 UNL     1      14.541  21.317  19.001  1.00  0.00     0.030 A 
HETATM    8  C12 UNL     1      15.056  20.199  18.314  1.00  0.00     0.034 A 
HETATM    9  C36 UNL     1      16.415  20.155  18.115  1.00  0.00     0.030 A 
HETATM   10  C35 UNL     1      17.247  21.180  18.578  1.00  0.00     0.010 A 
BRANCH   8  11
HETATM   11  N2  UNL     1      14.172  19.196  17.904  1.00  0.00    -0.325 N 
HETATM   12  C1  UNL     1      13.626  18.220  18.740  1.00  0.00     0.246 C 
HETATM   13  O1  UNL     1      13.970  18.223  19.974  1.00  0.00    -0.271 OA
ATOM     14  H2  UNL     1      13.906  19.177  16.920  1.00  0.00     0.169 HD
BRANCH  12  15
HETATM   15  C2  UNL     1      12.664  17.159  18.306  1.00  0.00     0.278 C 
BRANCH  15  16
HETATM   16  O2  UNL     1      11.675  17.674  17.501  1.00  0.00    -0.341 OA
BRANCH  16  17
HETATM   17  C3  UNL     1      11.299  17.126  16.304  1.00  0.00     0.083 A 
HETATM   18  C4  UNL     1      11.051  15.783  16.120  1.00  0.00     0.054 A 
HETATM   19  C5  UNL     1      10.682  15.379  14.846  1.00  0.00     0.091 A 
HETATM   20  N1  UNL     1      10.559  16.212  13.808  1.00  0.00    -0.365 N 
HETATM   21  C6  UNL     1      10.801  17.529  13.981  1.00  0.00     0.045 A 
ATOM     22  H1  UNL     1      10.284  15.856  12.892  1.00  0.00     0.165 HD
HETATM   23  C7  UNL     1      10.680  18.413  12.916  1.00  0.00     0.030 A 
HETATM   24  C11 UNL     1      11.171  17.992  15.224  1.00  0.00     0.024 A 
HETATM   25  C8  UNL     1      10.924  19.744  13.084  1.00  0.00     0.002 A 
HETATM   26  C9  UNL     1      11.293  20.189  14.340  1.00  0.00     0.001 A 
HETATM   27  C10 UNL     1      11.417  19.327  15.398  1.00  0.00     0.016 A 
ENDBRANCH  16  17
ENDBRANCH  15  16
ENDBRANCH  12  15
ENDBRANCH   8  11
ENDBRANCH   4   5
ENDBRANCH   1   4
BRANCH   3  28
HETATM   28  C18 UNL     1      17.166  25.289  17.529  1.00  0.00     0.134 C 
BRANCH  28  29
HETATM   29  C19 UNL     1      16.398  24.957  16.323  1.00  0.00     0.041 C 
BRANCH  29  30
HETATM   30  C20 UNL     1      15.424  23.838  16.459  1.00  0.00     0.137 C 
BRANCH  30  31
HETATM   31  N4  UNL     1      15.056  23.166  15.263  1.00  0.00    -0.279 N 
HETATM   32  C21 UNL     1      14.037  23.580  14.328  1.00  0.00     0.263 A 
HETATM   33  O4  UNL     1      13.325  24.598  14.417  1.00  0.00    -0.267 OA
HETATM   34  C22 UNL     1      13.948  22.621  13.236  1.00  0.00     0.065 A 
HETATM   35  C23 UNL     1      13.181  22.504  12.097  1.00  0.00     0.021 A 
HETATM   36  C26 UNL     1      14.880  21.633  13.472  1.00  0.00     0.117 A 
HETATM   37  C24 UNL     1      13.331  21.449  11.225  1.00  0.00     0.018 A 
HETATM   38  C25 UNL     1      14.272  20.479  11.491  1.00  0.00     0.088 A 
HETATM   39  N5  UNL     1      15.014  20.602  12.604  1.00  0.00    -0.361 N 
ATOM     40  H5  UNL     1      15.712  19.886  12.804  1.00  0.00     0.165 HD
HETATM   41  C27 UNL     1      15.568  21.961  14.721  1.00  0.00     0.278 A 
HETATM   42  O5  UNL     1      16.480  21.230  15.193  1.00  0.00    -0.265 OA
ENDBRANCH  30  31
ENDBRANCH  29  30
ENDBRANCH  28  29
ENDBRANCH   3  28
BRANCH   3  43
HETATM   43  C28 UNL     1      19.491  25.043  16.786  1.00  0.00     0.054 A 
HETATM   44  C29 UNL     1      19.506  24.401  15.526  1.00  0.00     0.031 A 
HETATM   45  C30 UNL     1      20.451  24.689  14.577  1.00  0.00     0.002 A 
HETATM   46  C31 UNL     1      21.421  25.628  14.836  1.00  0.00     0.001 A 
HETATM   47  C32 UNL     1      21.422  26.259  16.048  1.00  0.00     0.021 A 
HETATM   48  C33 UNL     1      20.443  25.967  17.047  1.00  0.00     0.067 A 
BRANCH  48  49
HETATM   49  C34 UNL     1      20.556  26.697  18.280  1.00  0.00     0.211 C 
HETATM   50  O6  UNL     1      20.522  27.973  18.234  1.00  0.00    -0.644 OA
HETATM   51  O7  UNL     1      20.699  26.171  19.521  1.00  0.00    -0.644 OA
ENDBRANCH  48  49
ENDBRANCH   3  43
TORSDOF 12
ENDMDL
