MODEL 1
REMARK VINA RESULT: -9.990209310      0.000      0.000
REMARK  13 active torsions:
REMARK  status: ('A' for Active; 'I' for Inactive)
REMARK    1  A    between atoms: N1_1  and  C1_5 
REMARK    2  A    between atoms: C1_5  and  C2_6 
REMARK    3  A    between atoms: C2_6  and  C3_7 
REMARK    4  A    between atoms: C3_7  and  C4_8 
REMARK    5  A    between atoms: C4_8  and  C5_9 
REMARK    6  A    between atoms: C5_9  and  C6_10 
REMARK    7  A    between atoms: C6_10  and  C7_11 
REMARK    8  A    between atoms: C7_11  and  C8_12 
REMARK    9  A    between atoms: C10_14  and  C11_15 
REMARK   10  A    between atoms: C11_15  and  N2_16 
REMARK   11  A    between atoms: N4_19  and  C12_20 
REMARK   12  A    between atoms: C12_20  and  C13_21 
REMARK   13  A    between atoms: C20_35  and  C21_36 
ROOT
HETATM    1  N2  UNL     1      12.604  19.336  17.580  1.00  0.00    -0.254 N 
HETATM    2  N3  UNL     1      11.775  18.269  17.363  1.00  0.00    -0.225 N 
ATOM      3  H3  UNL     1      11.419  18.060  16.431  1.00  0.00     0.209 HD
HETATM    4  N4  UNL     1      11.441  17.492  18.439  1.00  0.00    -0.182 N 
HETATM    5  S1  UNL     1      12.162  17.912  19.916  1.00  0.00     0.341 S 
HETATM    6  O3  UNL     1      12.536  16.654  20.652  1.00  0.00    -0.181 OA
HETATM    7  O4  UNL     1      11.221  18.761  20.737  1.00  0.00    -0.181 OA
HETATM    8  N5  UNL     1      13.625  18.746  19.587  1.00  0.00    -0.249 N 
ATOM      9  H5  UNL     1      14.395  18.745  20.255  1.00  0.00     0.182 HD
HETATM   10  C20 UNL     1      13.716  19.376  18.463  1.00  0.00     0.144 C 
ENDROOT
BRANCH   1  11
HETATM   11  C11 UNL     1      12.314  20.564  16.817  1.00  0.00     0.211 C 
BRANCH  11  12
HETATM   12  C10 UNL     1      13.255  20.689  15.660  1.00  0.00     0.054 A 
HETATM   13  C9  UNL     1      13.953  21.789  15.220  1.00  0.00     0.063 A 
HETATM   14  C8  UNL     1      14.706  21.411  14.100  1.00  0.00     0.078 A 
HETATM   15  O5  UNL     1      14.428  20.153  13.934  1.00  0.00    -0.242 OA
HETATM   16  N6  UNL     1      13.604  19.697  14.802  1.00  0.00    -0.264 N 
ATOM     17  H6  UNL     1      13.263  18.736  14.843  1.00  0.00     0.194 HD
BRANCH  14  18
HETATM   18  C7  UNL     1      15.590  22.340  13.351  1.00  0.00     0.067 C 
BRANCH  18  19
HETATM   19  C6  UNL     1      16.532  23.078  14.240  1.00  0.00     0.007 C 
BRANCH  19  20
HETATM   20  C5  UNL     1      16.026  24.275  14.918  1.00  0.00     0.000 C 
BRANCH  20  21
HETATM   21  C4  UNL     1      16.897  25.310  15.469  1.00  0.00     0.000 C 
BRANCH  21  22
HETATM   22  C3  UNL     1      18.270  25.512  14.975  1.00  0.00     0.002 C 
BRANCH  22  23
HETATM   23  C2  UNL     1      19.249  25.969  15.989  1.00  0.00     0.027 C 
BRANCH  23  24
HETATM   24  C1  UNL     1      20.632  26.184  15.321  1.00  0.00     0.229 C 
BRANCH  24  25
HETATM   25  N1  UNL     1      21.033  24.926  14.766  1.00  0.00    -0.079 N 
ATOM     26  H13 UNL     1      22.026  24.888  14.536  1.00  0.00     0.274 HD
ATOM     27  H12 UNL     1      21.028  24.168  15.449  1.00  0.00     0.274 HD
ATOM     28  H11 UNL     1      20.430  24.745  13.964  1.00  0.00     0.274 HD
ENDBRANCH  24  25
ENDBRANCH  23  24
ENDBRANCH  22  23
ENDBRANCH  21  22
ENDBRANCH  20  21
ENDBRANCH  19  20
ENDBRANCH  18  19
ENDBRANCH  14  18
ENDBRANCH  11  12
ENDBRANCH   1  11
BRANCH  10  29
HETATM   29  C21 UNL     1      14.945  20.110  18.127  1.00  0.00     0.011 A 
HETATM   30  C22 UNL     1      15.985  19.562  17.424  1.00  0.00     0.016 A 
HETATM   31  C23 UNL     1      17.084  20.349  17.173  1.00  0.00     0.009 A 
HETATM   32  C24 UNL     1      17.179  21.656  17.596  1.00  0.00    -0.047 A 
HETATM   33  C25 UNL     1      16.141  22.223  18.304  1.00  0.00    -0.046 A 
HETATM   34  C34 UNL     1      18.369  22.507  17.323  1.00  0.00     0.078 C 
HETATM   35  C26 UNL     1      15.052  21.416  18.544  1.00  0.00     0.023 A 
HETATM   36  C27 UNL     1      16.210  23.646  18.782  1.00  0.00     0.078 C 
HETATM   37  C28 UNL     1      17.595  23.843  19.289  1.00  0.00    -0.047 A 
HETATM   38  C29 UNL     1      17.856  24.564  20.449  1.00  0.00     0.008 A 
HETATM   39  C33 UNL     1      18.633  23.287  18.574  1.00  0.00    -0.047 A 
HETATM   40  C30 UNL     1      19.148  24.742  20.911  1.00  0.00     0.001 A 
HETATM   41  C31 UNL     1      20.199  24.180  20.189  1.00  0.00     0.001 A 
HETATM   42  C32 UNL     1      19.908  23.466  19.036  1.00  0.00     0.008 A 
ENDBRANCH  10  29
BRANCH   4  43
HETATM   43  C12 UNL     1      10.089  17.065  18.501  1.00  0.00     0.203 C 
BRANCH  43  44
HETATM   44  C13 UNL     1       9.875  15.703  17.889  1.00  0.00    -0.035 A 
HETATM   45  C14 UNL     1       8.861  14.883  18.319  1.00  0.00     0.012 A 
HETATM   46  C15 UNL     1       8.697  13.648  17.736  1.00  0.00     0.040 A 
HETATM   47  C16 UNL     1       9.543  13.228  16.725  1.00  0.00     0.105 A 
HETATM   48  C17 UNL     1      10.550  14.062  16.308  1.00  0.00     0.105 A 
HETATM   49  O2  UNL     1       9.638  12.071  15.953  1.00  0.00    -0.323 OA
HETATM   50  C18 UNL     1      10.721  15.296  16.886  1.00  0.00     0.048 A 
HETATM   51  O1  UNL     1      11.249  13.401  15.287  1.00  0.00    -0.323 OA
HETATM   52  C19 UNL     1      10.489  12.268  14.862  1.00  0.00     0.352 C 
ENDBRANCH  43  44
ENDBRANCH   4  43
TORSDOF 13
ENDMDL
MODEL 2
REMARK VINA RESULT: -9.892617600      4.040     11.011
REMARK  13 active torsions:
REMARK  status: ('A' for Active; 'I' for Inactive)
REMARK    1  A    between atoms: N1_1  and  C1_5 
REMARK    2  A    between atoms: C1_5  and  C2_6 
REMARK    3  A    between atoms: C2_6  and  C3_7 
REMARK    4  A    between atoms: C3_7  and  C4_8 
REMARK    5  A    between atoms: C4_8  and  C5_9 
REMARK    6  A    between atoms: C5_9  and  C6_10 
REMARK    7  A    between atoms: C6_10  and  C7_11 
REMARK    8  A    between atoms: C7_11  and  C8_12 
REMARK    9  A    between atoms: C10_14  and  C11_15 
REMARK   10  A    between atoms: C11_15  and  N2_16 
REMARK   11  A    between atoms: N4_19  and  C12_20 
REMARK   12  A    between atoms: C12_20  and  C13_21 
REMARK   13  A    between atoms: C20_35  and  C21_36 
ROOT
HETATM    1  N2  UNL     1      16.734  21.904  16.084  1.00  0.00    -0.254 N 
HETATM    2  N3  UNL     1      17.999  22.419  16.167  1.00  0.00    -0.225 N 
ATOM      3  H3  UNL     1      18.818  21.834  16.006  1.00  0.00     0.209 HD
HETATM    4  N4  UNL     1      18.127  23.747  16.474  1.00  0.00    -0.182 N 
HETATM    5  S1  UNL     1      16.680  24.616  16.647  1.00  0.00     0.341 S 
HETATM    6  O3  UNL     1      16.854  25.980  16.035  1.00  0.00    -0.181 OA
HETATM    7  O4  UNL     1      16.300  24.720  18.105  1.00  0.00    -0.181 OA
HETATM    8  N5  UNL     1      15.459  23.820  15.742  1.00  0.00    -0.249 N 
ATOM      9  H5  UNL     1      14.656  24.330  15.375  1.00  0.00     0.182 HD
HETATM   10  C20 UNL     1      15.591  22.551  15.543  1.00  0.00     0.144 C 
ENDROOT
BRANCH   1  11
HETATM   11  C11 UNL     1      16.543  20.537  16.604  1.00  0.00     0.211 C 
BRANCH  11  12
HETATM   12  C10 UNL     1      15.610  20.554  17.775  1.00  0.00     0.054 A 
HETATM   13  C9  UNL     1      14.755  19.575  18.221  1.00  0.00     0.063 A 
HETATM   14  C8  UNL     1      14.090  20.058  19.357  1.00  0.00     0.078 A 
HETATM   15  O5  UNL     1      14.566  21.255  19.525  1.00  0.00    -0.242 OA
HETATM   16  N6  UNL     1      15.438  21.581  18.645  1.00  0.00    -0.264 N 
ATOM     17  H6  UNL     1      15.928  22.476  18.605  1.00  0.00     0.194 HD
BRANCH  14  18
HETATM   18  C7  UNL     1      13.082  19.275  20.117  1.00  0.00     0.067 C 
BRANCH  18  19
HETATM   19  C6  UNL     1      13.357  17.810  20.094  1.00  0.00     0.007 C 
BRANCH  19  20
HETATM   20  C5  UNL     1      12.208  16.906  19.993  1.00  0.00     0.000 C 
BRANCH  20  21
HETATM   21  C4  UNL     1      11.434  16.729  18.768  1.00  0.00     0.000 C 
BRANCH  21  22
HETATM   22  C3  UNL     1      12.055  16.838  17.436  1.00  0.00     0.002 C 
BRANCH  22  23
HETATM   23  C2  UNL     1      11.671  18.034  16.651  1.00  0.00     0.027 C 
BRANCH  23  24
HETATM   24  C1  UNL     1      10.427  18.703  17.292  1.00  0.00     0.229 C 
BRANCH  24  25
HETATM   25  N1  UNL     1      10.716  20.101  17.415  1.00  0.00    -0.079 N 
ATOM     26  H13 UNL     1       9.946  20.634  17.819  1.00  0.00     0.274 HD
ATOM     27  H12 UNL     1      11.408  20.304  18.136  1.00  0.00     0.274 HD
ATOM     28  H11 UNL     1      10.991  20.433  16.491  1.00  0.00     0.274 HD
ENDBRANCH  24  25
ENDBRANCH  23  24
ENDBRANCH  22  23
ENDBRANCH  21  22
ENDBRANCH  20  21
ENDBRANCH  19  20
ENDBRANCH  18  19
ENDBRANCH  14  18
ENDBRANCH  11  12
ENDBRANCH   1  11
BRANCH  10  29
HETATM   29  C21 UNL     1      14.575  21.815  14.776  1.00  0.00     0.011 A 
HETATM   30  C22 UNL     1      13.252  21.765  15.127  1.00  0.00     0.016 A 
HETATM   31  C23 UNL     1      12.397  21.042  14.330  1.00  0.00     0.009 A 
HETATM   32  C24 UNL     1      12.815  20.372  13.201  1.00  0.00    -0.047 A 
HETATM   33  C25 UNL     1      14.143  20.412  12.834  1.00  0.00    -0.046 A 
HETATM   34  C34 UNL     1      11.888  19.589  12.339  1.00  0.00     0.078 C 
HETATM   35  C26 UNL     1      14.980  21.143  13.647  1.00  0.00     0.023 A 
HETATM   36  C27 UNL     1      14.634  19.694  11.609  1.00  0.00     0.078 C 
HETATM   37  C28 UNL     1      13.945  18.375  11.601  1.00  0.00    -0.047 A 
HETATM   38  C29 UNL     1      14.606  17.203  11.249  1.00  0.00     0.008 A 
HETATM   39  C33 UNL     1      12.615  18.336  11.957  1.00  0.00    -0.047 A 
HETATM   40  C30 UNL     1      13.955  15.982  11.246  1.00  0.00     0.001 A 
HETATM   41  C31 UNL     1      12.609  15.942  11.605  1.00  0.00     0.001 A 
HETATM   42  C32 UNL     1      11.976  17.126  11.951  1.00  0.00     0.008 A 
ENDBRANCH  10  29
BRANCH   4  43
HETATM   43  C12 UNL     1      19.167  24.078  17.381  1.00  0.00     0.203 C 
BRANCH  43  44
HETATM   44  C13 UNL     1      19.848  25.381  17.042  1.00  0.00    -0.035 A 
HETATM   45  C14 UNL     1      20.277  26.234  18.028  1.00  0.00     0.012 A 
HETATM   46  C15 UNL     1      20.894  27.414  17.680  1.00  0.00     0.040 A 
HETATM   47  C16 UNL     1      21.083  27.745  16.350  1.00  0.00     0.105 A 
HETATM   48  C17 UNL     1      20.647  26.878  15.379  1.00  0.00     0.105 A 
HETATM   49  O2  UNL     1      21.655  28.830  15.689  1.00  0.00    -0.323 OA
HETATM   50  C18 UNL     1      20.030  25.700  15.718  1.00  0.00     0.048 A 
HETATM   51  O1  UNL     1      20.959  27.448  14.135  1.00  0.00    -0.323 OA
HETATM   52  C19 UNL     1      21.859  28.540  14.337  1.00  0.00     0.352 C 
ENDBRANCH  43  44
ENDBRANCH   4  43
TORSDOF 13
ENDMDL
MODEL 3
REMARK VINA RESULT: -9.884162830      3.925      6.924
REMARK  13 active torsions:
REMARK  status: ('A' for Active; 'I' for Inactive)
REMARK    1  A    between atoms: N1_1  and  C1_5 
REMARK    2  A    between atoms: C1_5  and  C2_6 
REMARK    3  A    between atoms: C2_6  and  C3_7 
REMARK    4  A    between atoms: C3_7  and  C4_8 
REMARK    5  A    between atoms: C4_8  and  C5_9 
REMARK    6  A    between atoms: C5_9  and  C6_10 
REMARK    7  A    between atoms: C6_10  and  C7_11 
REMARK    8  A    between atoms: C7_11  and  C8_12 
REMARK    9  A    between atoms: C10_14  and  C11_15 
REMARK   10  A    between atoms: C11_15  and  N2_16 
REMARK   11  A    between atoms: N4_19  and  C12_20 
REMARK   12  A    between atoms: C12_20  and  C13_21 
REMARK   13  A    between atoms: C20_35  and  C21_36 
ROOT
HETATM    1  N2  UNL     1      15.852  24.345  16.399  1.00  0.00    -0.254 N 
HETATM    2  N3  UNL     1      14.610  23.790  16.252  1.00  0.00    -0.225 N 
ATOM      3  H3  UNL     1      13.772  24.283  16.561  1.00  0.00     0.209 HD
HETATM    4  N4  UNL     1      14.529  22.551  15.676  1.00  0.00    -0.182 N 
HETATM    5  S1  UNL     1      15.993  21.878  15.146  1.00  0.00     0.341 S 
HETATM    6  O3  UNL     1      15.761  21.174  13.836  1.00  0.00    -0.181 OA
HETATM    7  O4  UNL     1      16.540  20.927  16.183  1.00  0.00    -0.181 OA
HETATM    8  N5  UNL     1      17.095  23.155  14.832  1.00  0.00    -0.249 N 
ATOM      9  H5  UNL     1      17.853  23.045  14.160  1.00  0.00     0.182 HD
HETATM   10  C20 UNL     1      16.929  24.261  15.478  1.00  0.00     0.144 C 
ENDROOT
BRANCH   1  11
HETATM   11  C11 UNL     1      16.091  25.108  17.638  1.00  0.00     0.211 C 
BRANCH  11  12
HETATM   12  C10 UNL     1      16.856  24.277  18.620  1.00  0.00     0.054 A 
HETATM   13  C9  UNL     1      18.038  24.556  19.263  1.00  0.00     0.063 A 
HETATM   14  C8  UNL     1      18.356  23.470  20.089  1.00  0.00     0.078 A 
HETATM   15  O5  UNL     1      17.382  22.629  19.905  1.00  0.00    -0.242 OA
HETATM   16  N6  UNL     1      16.502  23.048  19.074  1.00  0.00    -0.264 N 
ATOM     17  H6  UNL     1      15.663  22.537  18.797  1.00  0.00     0.194 HD
BRANCH  14  18
HETATM   18  C7  UNL     1      19.570  23.411  20.942  1.00  0.00     0.067 C 
BRANCH  18  19
HETATM   19  C6  UNL     1      20.394  24.650  20.854  1.00  0.00     0.007 C 
BRANCH  19  20
HETATM   20  C5  UNL     1      21.612  24.596  20.040  1.00  0.00     0.000 C 
BRANCH  20  21
HETATM   21  C4  UNL     1      22.936  24.925  20.559  1.00  0.00     0.000 C 
BRANCH  21  22
HETATM   22  C3  UNL     1      24.165  24.596  19.815  1.00  0.00     0.002 C 
BRANCH  22  23
HETATM   23  C2  UNL     1      25.300  25.525  20.021  1.00  0.00     0.027 C 
BRANCH  23  24
HETATM   24  C1  UNL     1      26.415  25.227  18.985  1.00  0.00     0.229 C 
BRANCH  24  25
HETATM   25  N1  UNL     1      25.874  24.297  18.038  1.00  0.00    -0.079 N 
ATOM     26  H13 UNL     1      26.539  23.575  17.762  1.00  0.00     0.274 HD
ATOM     27  H12 UNL     1      25.170  23.678  18.443  1.00  0.00     0.274 HD
ATOM     28  H11 UNL     1      25.523  24.841  17.250  1.00  0.00     0.274 HD
ENDBRANCH  24  25
ENDBRANCH  23  24
ENDBRANCH  22  23
ENDBRANCH  21  22
ENDBRANCH  20  21
ENDBRANCH  19  20
ENDBRANCH  18  19
ENDBRANCH  14  18
ENDBRANCH  11  12
ENDBRANCH   1  11
BRANCH  10  29
HETATM   29  C21 UNL     1      17.844  25.391  15.251  1.00  0.00     0.011 A 
HETATM   30  C22 UNL     1      17.895  26.099  14.080  1.00  0.00     0.016 A 
HETATM   31  C23 UNL     1      18.794  27.135  13.988  1.00  0.00     0.009 A 
HETATM   32  C24 UNL     1      19.638  27.486  15.019  1.00  0.00    -0.047 A 
HETATM   33  C25 UNL     1      19.598  26.783  16.205  1.00  0.00    -0.046 A 
HETATM   34  C34 UNL     1      20.611  28.607  14.918  1.00  0.00     0.078 C 
HETATM   35  C26 UNL     1      18.690  25.750  16.273  1.00  0.00     0.023 A 
HETATM   36  C27 UNL     1      20.504  27.138  17.349  1.00  0.00     0.078 C 
HETATM   37  C28 UNL     1      21.835  27.425  16.749  1.00  0.00    -0.047 A 
HETATM   38  C29 UNL     1      23.016  26.995  17.343  1.00  0.00     0.008 A 
HETATM   39  C33 UNL     1      21.874  28.137  15.571  1.00  0.00    -0.047 A 
HETATM   40  C30 UNL     1      24.248  27.268  16.775  1.00  0.00     0.001 A 
HETATM   41  C31 UNL     1      24.290  27.989  15.584  1.00  0.00     0.001 A 
HETATM   42  C32 UNL     1      23.095  28.404  15.014  1.00  0.00     0.008 A 
ENDBRANCH  10  29
BRANCH   4  43
HETATM   43  C12 UNL     1      13.604  21.651  16.265  1.00  0.00     0.203 C 
BRANCH  43  44
HETATM   44  C13 UNL     1      12.644  21.057  15.264  1.00  0.00    -0.035 A 
HETATM   45  C14 UNL     1      11.975  21.851  14.366  1.00  0.00     0.012 A 
HETATM   46  C15 UNL     1      11.107  21.273  13.468  1.00  0.00     0.040 A 
HETATM   47  C16 UNL     1      10.906  19.903  13.464  1.00  0.00     0.105 A 
HETATM   48  C17 UNL     1      11.585  19.127  14.369  1.00  0.00     0.105 A 
HETATM   49  O2  UNL     1      10.120  19.037  12.706  1.00  0.00    -0.323 OA
HETATM   50  C18 UNL     1      12.451  19.696  15.269  1.00  0.00     0.048 A 
HETATM   51  O1  UNL     1      11.202  17.795  14.152  1.00  0.00    -0.323 OA
HETATM   52  C19 UNL     1      10.503  17.709  12.908  1.00  0.00     0.352 C 
ENDBRANCH  43  44
ENDBRANCH   4  43
TORSDOF 13
ENDMDL
MODEL 4
REMARK VINA RESULT: -9.836442615      4.071     11.059
REMARK  13 active torsions:
REMARK  status: ('A' for Active; 'I' for Inactive)
REMARK    1  A    between atoms: N1_1  and  C1_5 
REMARK    2  A    between atoms: C1_5  and  C2_6 
REMARK    3  A    between atoms: C2_6  and  C3_7 
REMARK    4  A    between atoms: C3_7  and  C4_8 
REMARK    5  A    between atoms: C4_8  and  C5_9 
REMARK    6  A    between atoms: C5_9  and  C6_10 
REMARK    7  A    between atoms: C6_10  and  C7_11 
REMARK    8  A    between atoms: C7_11  and  C8_12 
REMARK    9  A    between atoms: C10_14  and  C11_15 
REMARK   10  A    between atoms: C11_15  and  N2_16 
REMARK   11  A    between atoms: N4_19  and  C12_20 
REMARK   12  A    between atoms: C12_20  and  C13_21 
REMARK   13  A    between atoms: C20_35  and  C21_36 
ROOT
HETATM    1  N2  UNL     1      16.456  21.678  15.854  1.00  0.00    -0.254 N 
HETATM    2  N3  UNL     1      17.704  22.236  15.907  1.00  0.00    -0.225 N 
ATOM      3  H3  UNL     1      18.542  21.664  15.803  1.00  0.00     0.209 HD
HETATM    4  N4  UNL     1      17.790  23.587  16.104  1.00  0.00    -0.182 N 
HETATM    5  S1  UNL     1      16.317  24.425  16.190  1.00  0.00     0.341 S 
HETATM    6  O3  UNL     1      16.459  25.738  15.469  1.00  0.00    -0.181 OA
HETATM    7  O4  UNL     1      15.917  24.638  17.630  1.00  0.00    -0.181 OA
HETATM    8  N5  UNL     1      15.130  23.521  15.343  1.00  0.00    -0.249 N 
ATOM      9  H5  UNL     1      14.318  23.976  14.926  1.00  0.00     0.182 HD
HETATM   10  C20 UNL     1      15.302  22.244  15.250  1.00  0.00     0.144 C 
ENDROOT
BRANCH   1  11
HETATM   11  C11 UNL     1      16.298  20.354  16.484  1.00  0.00     0.211 C 
BRANCH  11  12
HETATM   12  C10 UNL     1      15.417  20.456  17.690  1.00  0.00     0.054 A 
HETATM   13  C9  UNL     1      14.658  19.485  18.299  1.00  0.00     0.063 A 
HETATM   14  C8  UNL     1      14.007  20.061  19.398  1.00  0.00     0.078 A 
HETATM   15  O5  UNL     1      14.397  21.301  19.390  1.00  0.00    -0.242 OA
HETATM   16  N6  UNL     1      15.203  21.572  18.432  1.00  0.00    -0.264 N 
ATOM     17  H6  UNL     1      15.620  22.486  18.254  1.00  0.00     0.194 HD
BRANCH  14  18
HETATM   18  C7  UNL     1      13.095  19.313  20.301  1.00  0.00     0.067 C 
BRANCH  18  19
HETATM   19  C6  UNL     1      13.373  17.849  20.312  1.00  0.00     0.007 C 
BRANCH  19  20
HETATM   20  C5  UNL     1      12.227  16.941  20.207  1.00  0.00     0.000 C 
BRANCH  20  21
HETATM   21  C4  UNL     1      11.523  16.683  18.953  1.00  0.00     0.000 C 
BRANCH  21  22
HETATM   22  C3  UNL     1      12.197  16.800  17.648  1.00  0.00     0.002 C 
BRANCH  22  23
HETATM   23  C2  UNL     1      11.672  17.858  16.754  1.00  0.00     0.027 C 
BRANCH  23  24
HETATM   24  C1  UNL     1      10.491  18.589  17.446  1.00  0.00     0.229 C 
BRANCH  24  25
HETATM   25  N1  UNL     1      10.813  19.985  17.465  1.00  0.00    -0.079 N 
ATOM     26  H13 UNL     1      11.311  20.269  18.308  1.00  0.00     0.274 HD
ATOM     27  H12 UNL     1      11.537  20.238  16.793  1.00  0.00     0.274 HD
ATOM     28  H11 UNL     1       9.941  20.496  17.325  1.00  0.00     0.274 HD
ENDBRANCH  24  25
ENDBRANCH  23  24
ENDBRANCH  22  23
ENDBRANCH  21  22
ENDBRANCH  20  21
ENDBRANCH  19  20
ENDBRANCH  18  19
ENDBRANCH  14  18
ENDBRANCH  11  12
ENDBRANCH   1  11
BRANCH  10  29
HETATM   29  C21 UNL     1      14.316  21.418  14.537  1.00  0.00     0.011 A 
HETATM   30  C22 UNL     1      13.006  21.304  14.920  1.00  0.00     0.016 A 
HETATM   31  C23 UNL     1      12.180  20.498  14.172  1.00  0.00     0.009 A 
HETATM   32  C24 UNL     1      12.614  19.808  13.063  1.00  0.00    -0.047 A 
HETATM   33  C25 UNL     1      13.930  19.912  12.663  1.00  0.00    -0.046 A 
HETATM   34  C34 UNL     1      11.719  18.937  12.254  1.00  0.00     0.078 C 
HETATM   35  C26 UNL     1      14.738  20.724  13.427  1.00  0.00     0.023 A 
HETATM   36  C27 UNL     1      14.438  19.174  11.458  1.00  0.00     0.078 C 
HETATM   37  C28 UNL     1      13.830  17.817  11.519  1.00  0.00    -0.047 A 
HETATM   38  C29 UNL     1      14.554  16.673  11.200  1.00  0.00     0.008 A 
HETATM   39  C33 UNL     1      12.512  17.714  11.906  1.00  0.00    -0.047 A 
HETATM   40  C30 UNL     1      13.978  15.417  11.260  1.00  0.00     0.001 A 
HETATM   41  C31 UNL     1      12.645  15.311  11.651  1.00  0.00     0.001 A 
HETATM   42  C32 UNL     1      11.948  16.469  11.964  1.00  0.00     0.008 A 
ENDBRANCH  10  29
BRANCH   4  43
HETATM   43  C12 UNL     1      18.810  24.023  16.990  1.00  0.00     0.203 C 
BRANCH  43  44
HETATM   44  C13 UNL     1      19.801  24.951  16.333  1.00  0.00    -0.035 A 
HETATM   45  C14 UNL     1      20.389  24.629  15.135  1.00  0.00     0.012 A 
HETATM   46  C15 UNL     1      21.289  25.501  14.567  1.00  0.00     0.040 A 
HETATM   47  C16 UNL     1      21.604  26.694  15.192  1.00  0.00     0.105 A 
HETATM   48  C17 UNL     1      21.006  26.999  16.390  1.00  0.00     0.105 A 
HETATM   49  O2  UNL     1      22.449  27.760  14.887  1.00  0.00    -0.323 OA
HETATM   50  C18 UNL     1      20.108  26.133  16.963  1.00  0.00     0.048 A 
HETATM   51  O1  UNL     1      21.495  28.248  16.799  1.00  0.00    -0.323 OA
HETATM   52  C19 UNL     1      22.181  28.860  15.705  1.00  0.00     0.352 C 
ENDBRANCH  43  44
ENDBRANCH   4  43
TORSDOF 13
ENDMDL
MODEL 5
REMARK VINA RESULT: -9.818851911      3.653      7.667
REMARK  13 active torsions:
REMARK  status: ('A' for Active; 'I' for Inactive)
REMARK    1  A    between atoms: N1_1  and  C1_5 
REMARK    2  A    between atoms: C1_5  and  C2_6 
REMARK    3  A    between atoms: C2_6  and  C3_7 
REMARK    4  A    between atoms: C3_7  and  C4_8 
REMARK    5  A    between atoms: C4_8  and  C5_9 
REMARK    6  A    between atoms: C5_9  and  C6_10 
REMARK    7  A    between atoms: C6_10  and  C7_11 
REMARK    8  A    between atoms: C7_11  and  C8_12 
REMARK    9  A    between atoms: C10_14  and  C11_15 
REMARK   10  A    between atoms: C11_15  and  N2_16 
REMARK   11  A    between atoms: N4_19  and  C12_20 
REMARK   12  A    between atoms: C12_20  and  C13_21 
REMARK   13  A    between atoms: C20_35  and  C21_36 
ROOT
HETATM    1  N2  UNL     1      16.121  24.557  16.163  1.00  0.00    -0.254 N 
HETATM    2  N3  UNL     1      14.824  24.131  16.065  1.00  0.00    -0.225 N 
ATOM      3  H3  UNL     1      14.075  24.604  16.570  1.00  0.00     0.209 HD
HETATM    4  N4  UNL     1      14.567  23.050  15.267  1.00  0.00    -0.182 N 
HETATM    5  S1  UNL     1      15.896  22.405  14.432  1.00  0.00     0.341 S 
HETATM    6  O3  UNL     1      15.457  22.010  13.048  1.00  0.00    -0.181 OA
HETATM    7  O4  UNL     1      16.463  21.222  15.180  1.00  0.00    -0.181 OA
HETATM    8  N5  UNL     1      17.069  23.642  14.245  1.00  0.00    -0.249 N 
ATOM      9  H5  UNL     1      17.736  23.625  13.474  1.00  0.00     0.182 HD
HETATM   10  C20 UNL     1      17.078  24.597  15.115  1.00  0.00     0.144 C 
ENDROOT
BRANCH   1  11
HETATM   11  C11 UNL     1      16.564  25.025  17.489  1.00  0.00     0.211 C 
BRANCH  11  12
HETATM   12  C10 UNL     1      16.647  23.875  18.444  1.00  0.00     0.054 A 
HETATM   13  C9  UNL     1      16.080  22.626  18.354  1.00  0.00     0.063 A 
HETATM   14  C8  UNL     1      16.447  21.895  19.492  1.00  0.00     0.078 A 
HETATM   15  O5  UNL     1      17.186  22.715  20.178  1.00  0.00    -0.242 OA
HETATM   16  N6  UNL     1      17.328  23.858  19.617  1.00  0.00    -0.264 N 
ATOM     17  H6  UNL     1      17.871  24.635  19.995  1.00  0.00     0.194 HD
BRANCH  14  18
HETATM   18  C7  UNL     1      16.018  20.495  19.745  1.00  0.00     0.067 C 
BRANCH  18  19
HETATM   19  C6  UNL     1      14.790  20.125  18.986  1.00  0.00     0.007 C 
BRANCH  19  20
HETATM   20  C5  UNL     1      14.903  19.045  18.001  1.00  0.00     0.000 C 
BRANCH  20  21
HETATM   21  C4  UNL     1      14.517  17.665  18.280  1.00  0.00     0.000 C 
BRANCH  21  22
HETATM   22  C3  UNL     1      13.105  17.251  18.336  1.00  0.00     0.002 C 
BRANCH  22  23
HETATM   23  C2  UNL     1      12.562  17.029  19.697  1.00  0.00     0.027 C 
BRANCH  23  24
HETATM   24  C1  UNL     1      11.824  18.305  20.181  1.00  0.00     0.229 C 
BRANCH  24  25
HETATM   25  N1  UNL     1      12.486  18.750  21.371  1.00  0.00    -0.079 N 
ATOM     26  H13 UNL     1      12.285  18.165  22.182  1.00  0.00     0.274 HD
ATOM     27  H12 UNL     1      13.495  18.599  21.348  1.00  0.00     0.274 HD
ATOM     28  H11 UNL     1      12.231  19.727  21.510  1.00  0.00     0.274 HD
ENDBRANCH  24  25
ENDBRANCH  23  24
ENDBRANCH  22  23
ENDBRANCH  21  22
ENDBRANCH  20  21
ENDBRANCH  19  20
ENDBRANCH  18  19
ENDBRANCH  14  18
ENDBRANCH  11  12
ENDBRANCH   1  11
BRANCH  10  29
HETATM   29  C21 UNL     1      18.063  25.684  15.006  1.00  0.00     0.011 A 
HETATM   30  C22 UNL     1      18.224  26.449  13.881  1.00  0.00     0.016 A 
HETATM   31  C23 UNL     1      19.180  27.436  13.900  1.00  0.00     0.009 A 
HETATM   32  C24 UNL     1      19.975  27.685  14.997  1.00  0.00    -0.047 A 
HETATM   33  C25 UNL     1      19.826  26.924  16.137  1.00  0.00    -0.046 A 
HETATM   34  C34 UNL     1      21.010  28.754  15.016  1.00  0.00     0.078 C 
HETATM   35  C26 UNL     1      18.862  25.942  16.094  1.00  0.00     0.023 A 
HETATM   36  C27 UNL     1      20.676  27.168  17.351  1.00  0.00     0.078 C 
HETATM   37  C28 UNL     1      22.055  27.411  16.848  1.00  0.00    -0.047 A 
HETATM   38  C29 UNL     1      23.173  26.885  17.485  1.00  0.00     0.008 A 
HETATM   39  C33 UNL     1      22.204  28.181  15.715  1.00  0.00    -0.047 A 
HETATM   40  C30 UNL     1      24.450  27.119  17.008  1.00  0.00     0.001 A 
HETATM   41  C31 UNL     1      24.603  27.898  15.863  1.00  0.00     0.001 A 
HETATM   42  C32 UNL     1      23.470  28.408  15.248  1.00  0.00     0.008 A 
ENDBRANCH  10  29
BRANCH   4  43
HETATM   43  C12 UNL     1      13.632  22.110  15.776  1.00  0.00     0.203 C 
BRANCH  43  44
HETATM   44  C13 UNL     1      12.687  21.593  14.720  1.00  0.00    -0.035 A 
HETATM   45  C14 UNL     1      12.095  22.443  13.819  1.00  0.00     0.012 A 
HETATM   46  C15 UNL     1      11.238  21.934  12.871  1.00  0.00     0.040 A 
HETATM   47  C16 UNL     1      10.970  20.577  12.819  1.00  0.00     0.105 A 
HETATM   48  C17 UNL     1      11.572  19.743  13.728  1.00  0.00     0.105 A 
HETATM   49  O2  UNL     1      10.175  19.772  12.006  1.00  0.00    -0.323 OA
HETATM   50  C18 UNL     1      12.428  20.244  14.678  1.00  0.00     0.048 A 
HETATM   51  O1  UNL     1      11.134  18.438  13.457  1.00  0.00    -0.323 OA
HETATM   52  C19 UNL     1      10.484  18.422  12.184  1.00  0.00     0.352 C 
ENDBRANCH  43  44
ENDBRANCH   4  43
TORSDOF 13
ENDMDL
