MODEL 1
REMARK VINA RESULT: -10.353143229      0.000      0.000
REMARK  13 active torsions:
REMARK  status: ('A' for Active; 'I' for Inactive)
REMARK    1  A    between atoms: C5_6  and  N2_7 
REMARK    2  A    between atoms: N3_10  and  C8_11 
REMARK    3  A    between atoms: C8_11  and  C9_12 
REMARK    4  A    between atoms: C9_12  and  C10_13 
REMARK    5  A    between atoms: C10_13  and  C11_14 
REMARK    6  A    between atoms: C11_14  and  N4_15 
REMARK    7  A    between atoms: N4_15  and  C12_16 
REMARK    8  A    between atoms: C14_18  and  C15_19 
REMARK    9  A    between atoms: C15_19  and  N5_20 
REMARK   10  A    between atoms: N5_20  and  C16_22 
REMARK   11  A    between atoms: C16_22  and  C17_23 
REMARK   12  A    between atoms: N6_31  and  C25_32 
REMARK   13  A    between atoms: C25_32  and  C26_33 
ROOT
HETATM    1  C12 UNL     1      15.030  22.361  13.521  1.00  0.00     0.178 A 
HETATM    2  C13 UNL     1      13.691  22.332  13.926  1.00  0.00     0.072 A 
HETATM    3  C14 UNL     1      12.676  21.768  13.171  1.00  0.00    -0.035 A 
HETATM    4  C31 UNL     1      13.032  21.219  11.983  1.00  0.00     0.026 A 
HETATM    5  C32 UNL     1      14.338  21.242  11.575  1.00  0.00     0.091 A 
HETATM    6  N8  UNL     1      15.305  21.804  12.335  1.00  0.00    -0.341 N 
ATOM      7  H8  UNL     1      16.267  21.804  11.996  1.00  0.00     0.167 HD
ENDROOT
BRANCH   1   8
HETATM    8  N4  UNL     1      15.908  22.885  14.181  1.00  0.00    -0.404 NA
BRANCH   8   9
HETATM    9  C11 UNL     1      16.892  23.434  14.874  1.00  0.00     0.157 C 
BRANCH   9  10
HETATM   10  C10 UNL     1      16.947  24.959  15.063  1.00  0.00     0.061 C 
BRANCH  10  11
HETATM   11  C9  UNL     1      18.397  25.353  15.289  1.00  0.00     0.036 C 
BRANCH  11  12
HETATM   12  C8  UNL     1      18.721  26.631  14.589  1.00  0.00     0.273 C 
BRANCH  12  13
HETATM   13  N3  UNL     1      19.731  27.395  15.308  1.00  0.00     0.091 N 
HETATM   14  C7  UNL     1      20.000  26.764  16.601  1.00  0.00     0.292 C 
HETATM   15  C6  UNL     1      21.191  27.503  17.179  1.00  0.00     0.153 C 
HETATM   16  N2  UNL     1      22.342  27.006  16.443  1.00  0.00    -0.377 N 
HETATM   17  C34 UNL     1      22.001  26.407  15.155  1.00  0.00     0.153 C 
HETATM   18  C33 UNL     1      20.974  27.286  14.514  1.00  0.00     0.292 C 
BRANCH  16  19
HETATM   19  C5  UNL     1      23.675  27.013  16.885  1.00  0.00     0.046 C 
HETATM   20  C4  UNL     1      24.609  27.720  16.157  1.00  0.00     0.019 A 
HETATM   21  C3  UNL     1      24.361  28.927  15.532  1.00  0.00     0.033 A 
HETATM   22  C39 UNL     1      25.941  27.440  15.908  1.00  0.00     0.046 A 
HETATM   23  C2  UNL     1      25.532  29.325  14.937  1.00  0.00     0.092 A 
HETATM   24  N1  UNL     1      26.511  28.416  15.166  1.00  0.00    -0.360 N 
HETATM   25  C1  UNL     1      27.850  28.567  14.681  1.00  0.00     0.155 C 
HETATM   26  C38 UNL     1      26.648  26.347  16.345  1.00  0.00     0.034 C 
HETATM   27  C37 UNL     1      26.360  25.570  17.427  1.00  0.00     0.057 C 
HETATM   28  C36 UNL     1      25.218  25.624  18.257  1.00  0.00     0.174 C 
HETATM   29  C35 UNL     1      24.031  26.282  18.034  1.00  0.00     0.085 C 
HETATM   30  O1  UNL     1      25.318  24.992  19.315  1.00  0.00    -0.288 OA
ENDBRANCH  16  19
ENDBRANCH  12  13
ENDBRANCH  11  12
ENDBRANCH  10  11
ENDBRANCH   9  10
ENDBRANCH   8   9
ENDBRANCH   1   8
BRANCH   3  31
HETATM   31  C15 UNL     1      11.265  21.821  13.657  1.00  0.00     0.158 C 
BRANCH  31  32
HETATM   32  N5  UNL     1      11.241  21.597  15.139  1.00  0.00    -0.393 N 
ATOM     33  H5  UNL     1      11.072  22.286  15.871  1.00  0.00     0.159 HD
BRANCH  32  34
HETATM   34  C16 UNL     1      11.500  20.236  15.289  1.00  0.00     0.113 C 
BRANCH  34  35
HETATM   35  C17 UNL     1      11.798  19.541  16.535  1.00  0.00     0.051 A 
HETATM   36  C18 UNL     1      10.907  19.026  17.445  1.00  0.00     0.044 A 
HETATM   37  C19 UNL     1      11.615  18.638  18.581  1.00  0.00    -0.007 A 
HETATM   38  C20 UNL     1      11.299  18.098  19.810  1.00  0.00     0.014 A 
HETATM   39  C24 UNL     1      12.959  18.923  18.346  1.00  0.00     0.045 A 
HETATM   40  C21 UNL     1      12.228  17.841  20.799  1.00  0.00     0.001 A 
HETATM   41  C22 UNL     1      13.528  18.139  20.520  1.00  0.00     0.002 A 
HETATM   42  C23 UNL     1      13.910  18.673  19.319  1.00  0.00     0.030 A 
HETATM   43  N6  UNL     1      13.009  19.457  17.101  1.00  0.00    -0.341 N 
BRANCH  43  44
HETATM   44  C25 UNL     1      14.246  19.753  16.420  1.00  0.00     0.168 C 
BRANCH  44  45
HETATM   45  C26 UNL     1      14.833  20.943  17.164  1.00  0.00    -0.037 A 
HETATM   46  C27 UNL     1      16.083  20.920  17.727  1.00  0.00     0.026 A 
HETATM   47  C28 UNL     1      16.533  22.040  18.409  1.00  0.00     0.088 A 
HETATM   48  N7  UNL     1      15.779  23.122  18.521  1.00  0.00    -0.375 N 
HETATM   49  C29 UNL     1      14.543  23.198  17.982  1.00  0.00     0.088 A 
ATOM     50  H7  UNL     1      16.145  23.926  19.032  1.00  0.00     0.164 HD
HETATM   51  C30 UNL     1      14.095  22.087  17.307  1.00  0.00     0.026 A 
ENDBRANCH  44  45
ENDBRANCH  43  44
ENDBRANCH  34  35
ENDBRANCH  32  34
ENDBRANCH  31  32
ENDBRANCH   3  31
TORSDOF 13
ENDMDL
MODEL 2
REMARK VINA RESULT: -10.248033003      3.530     10.537
REMARK  13 active torsions:
REMARK  status: ('A' for Active; 'I' for Inactive)
REMARK    1  A    between atoms: C5_6  and  N2_7 
REMARK    2  A    between atoms: N3_10  and  C8_11 
REMARK    3  A    between atoms: C8_11  and  C9_12 
REMARK    4  A    between atoms: C9_12  and  C10_13 
REMARK    5  A    between atoms: C10_13  and  C11_14 
REMARK    6  A    between atoms: C11_14  and  N4_15 
REMARK    7  A    between atoms: N4_15  and  C12_16 
REMARK    8  A    between atoms: C14_18  and  C15_19 
REMARK    9  A    between atoms: C15_19  and  N5_20 
REMARK   10  A    between atoms: N5_20  and  C16_22 
REMARK   11  A    between atoms: C16_22  and  C17_23 
REMARK   12  A    between atoms: N6_31  and  C25_32 
REMARK   13  A    between atoms: C25_32  and  C26_33 
ROOT
HETATM    1  C12 UNL     1      14.182  19.900  19.070  1.00  0.00     0.178 A 
HETATM    2  C13 UNL     1      14.013  21.266  18.820  1.00  0.00     0.072 A 
HETATM    3  C14 UNL     1      14.868  22.007  18.021  1.00  0.00    -0.035 A 
HETATM    4  C31 UNL     1      15.911  21.345  17.463  1.00  0.00     0.026 A 
HETATM    5  C32 UNL     1      16.088  20.010  17.701  1.00  0.00     0.091 A 
HETATM    6  N8  UNL     1      15.237  19.314  18.489  1.00  0.00    -0.341 N 
ATOM      7  H8  UNL     1      15.403  18.320  18.645  1.00  0.00     0.167 HD
ENDROOT
BRANCH   1   8
HETATM    8  N4  UNL     1      13.440  19.265  19.797  1.00  0.00    -0.404 NA
BRANCH   8   9
HETATM    9  C11 UNL     1      12.603  18.577  20.556  1.00  0.00     0.157 C 
BRANCH   9  10
HETATM   10  C10 UNL     1      12.270  17.116  20.209  1.00  0.00     0.061 C 
BRANCH  10  11
HETATM   11  C9  UNL     1      11.867  17.060  18.745  1.00  0.00     0.036 C 
BRANCH  11  12
HETATM   12  C8  UNL     1      10.505  17.636  18.542  1.00  0.00     0.273 C 
BRANCH  12  13
HETATM   13  N3  UNL     1      10.376  18.261  17.233  1.00  0.00     0.091 N 
HETATM   14  C7  UNL     1      10.442  19.717  17.374  1.00  0.00     0.292 C 
HETATM   15  C6  UNL     1      10.502  20.264  15.962  1.00  0.00     0.153 C 
HETATM   16  N2  UNL     1      11.864  20.020  15.516  1.00  0.00    -0.377 N 
HETATM   17  C34 UNL     1      12.548  18.969  16.265  1.00  0.00     0.153 C 
HETATM   18  C33 UNL     1      11.570  17.855  16.460  1.00  0.00     0.292 C 
BRANCH  16  19
HETATM   19  C5  UNL     1      12.546  20.722  14.509  1.00  0.00     0.046 C 
HETATM   20  C4  UNL     1      13.137  20.007  13.488  1.00  0.00     0.019 A 
HETATM   21  C3  UNL     1      12.603  18.865  12.924  1.00  0.00     0.033 A 
HETATM   22  C39 UNL     1      14.313  20.247  12.799  1.00  0.00     0.046 A 
HETATM   23  C2  UNL     1      13.461  18.462  11.931  1.00  0.00     0.092 A 
HETATM   24  N1  UNL     1      14.515  19.309  11.846  1.00  0.00    -0.360 N 
HETATM   25  C1  UNL     1      15.572  19.153  10.891  1.00  0.00     0.155 C 
HETATM   26  C38 UNL     1      15.185  21.289  12.996  1.00  0.00     0.034 C 
HETATM   27  C37 UNL     1      14.897  22.497  13.556  1.00  0.00     0.057 C 
HETATM   28  C36 UNL     1      13.693  22.905  14.172  1.00  0.00     0.174 C 
HETATM   29  C35 UNL     1      12.634  22.126  14.576  1.00  0.00     0.085 C 
HETATM   30  O1  UNL     1      13.598  24.123  14.365  1.00  0.00    -0.288 OA
ENDBRANCH  16  19
ENDBRANCH  12  13
ENDBRANCH  11  12
ENDBRANCH  10  11
ENDBRANCH   9  10
ENDBRANCH   8   9
ENDBRANCH   1   8
BRANCH   3  31
HETATM   31  C15 UNL     1      14.639  23.473  17.843  1.00  0.00     0.158 C 
BRANCH  31  32
HETATM   32  N5  UNL     1      15.520  23.984  16.743  1.00  0.00    -0.393 N 
ATOM     33  H5  UNL     1      15.538  23.686  15.769  1.00  0.00     0.159 HD
BRANCH  32  34
HETATM   34  C16 UNL     1      16.307  24.959  17.353  1.00  0.00     0.113 C 
BRANCH  34  35
HETATM   35  C17 UNL     1      17.486  24.733  18.181  1.00  0.00     0.051 A 
HETATM   36  C18 UNL     1      17.593  24.863  19.544  1.00  0.00     0.044 A 
HETATM   37  C19 UNL     1      18.939  24.757  19.890  1.00  0.00    -0.007 A 
HETATM   38  C20 UNL     1      19.673  24.829  21.055  1.00  0.00     0.014 A 
HETATM   39  C24 UNL     1      19.653  24.555  18.709  1.00  0.00     0.045 A 
HETATM   40  C21 UNL     1      21.049  24.723  21.106  1.00  0.00     0.001 A 
HETATM   41  C22 UNL     1      21.699  24.527  19.925  1.00  0.00     0.002 A 
HETATM   42  C23 UNL     1      21.032  24.442  18.733  1.00  0.00     0.030 A 
HETATM   43  N6  UNL     1      18.728  24.544  17.718  1.00  0.00    -0.341 N 
BRANCH  43  44
HETATM   44  C25 UNL     1      19.044  24.212  16.350  1.00  0.00     0.168 C 
BRANCH  44  45
HETATM   45  C26 UNL     1      19.152  25.549  15.633  1.00  0.00    -0.037 A 
HETATM   46  C27 UNL     1      20.024  26.531  16.025  1.00  0.00     0.026 A 
HETATM   47  C28 UNL     1      20.042  27.730  15.331  1.00  0.00     0.088 A 
HETATM   48  N7  UNL     1      19.237  27.937  14.302  1.00  0.00    -0.375 N 
HETATM   49  C29 UNL     1      18.361  27.003  13.872  1.00  0.00     0.088 A 
ATOM     50  H7  UNL     1      19.278  28.834  13.817  1.00  0.00     0.164 HD
HETATM   51  C30 UNL     1      18.342  25.813  14.561  1.00  0.00     0.026 A 
ENDBRANCH  44  45
ENDBRANCH  43  44
ENDBRANCH  34  35
ENDBRANCH  32  34
ENDBRANCH  31  32
ENDBRANCH   3  31
TORSDOF 13
ENDMDL
MODEL 3
REMARK VINA RESULT: -10.150915301      3.662     10.589
REMARK  13 active torsions:
REMARK  status: ('A' for Active; 'I' for Inactive)
REMARK    1  A    between atoms: C5_6  and  N2_7 
REMARK    2  A    between atoms: N3_10  and  C8_11 
REMARK    3  A    between atoms: C8_11  and  C9_12 
REMARK    4  A    between atoms: C9_12  and  C10_13 
REMARK    5  A    between atoms: C10_13  and  C11_14 
REMARK    6  A    between atoms: C11_14  and  N4_15 
REMARK    7  A    between atoms: N4_15  and  C12_16 
REMARK    8  A    between atoms: C14_18  and  C15_19 
REMARK    9  A    between atoms: C15_19  and  N5_20 
REMARK   10  A    between atoms: N5_20  and  C16_22 
REMARK   11  A    between atoms: C16_22  and  C17_23 
REMARK   12  A    between atoms: N6_31  and  C25_32 
REMARK   13  A    between atoms: C25_32  and  C26_33 
ROOT
HETATM    1  C12 UNL     1      14.333  19.698  19.018  1.00  0.00     0.178 A 
HETATM    2  C13 UNL     1      13.978  21.043  18.872  1.00  0.00     0.072 A 
HETATM    3  C14 UNL     1      14.580  21.897  17.961  1.00  0.00    -0.035 A 
HETATM    4  C31 UNL     1      15.557  21.369  17.183  1.00  0.00     0.026 A 
HETATM    5  C32 UNL     1      15.913  20.055  17.317  1.00  0.00     0.091 A 
HETATM    6  N8  UNL     1      15.309  19.248  18.219  1.00  0.00    -0.341 N 
ATOM      7  H8  UNL     1      15.603  18.274  18.291  1.00  0.00     0.167 HD
ENDROOT
BRANCH   1   8
HETATM    8  N4  UNL     1      13.816  18.965  19.842  1.00  0.00    -0.404 NA
BRANCH   8   9
HETATM    9  C11 UNL     1      13.215  18.180  20.720  1.00  0.00     0.157 C 
BRANCH   9  10
HETATM   10  C10 UNL     1      11.964  17.382  20.314  1.00  0.00     0.061 C 
BRANCH  10  11
HETATM   11  C9  UNL     1      11.124  18.257  19.400  1.00  0.00     0.036 C 
BRANCH  11  12
HETATM   12  C8  UNL     1      10.443  17.440  18.353  1.00  0.00     0.273 C 
BRANCH  12  13
HETATM   13  N3  UNL     1      10.297  18.179  17.106  1.00  0.00     0.091 N 
HETATM   14  C7  UNL     1      10.451  19.612  17.361  1.00  0.00     0.292 C 
HETATM   15  C6  UNL     1      10.485  20.271  15.996  1.00  0.00     0.153 C 
HETATM   16  N2  UNL     1      11.812  19.992  15.472  1.00  0.00    -0.377 N 
HETATM   17  C34 UNL     1      12.465  18.848  16.102  1.00  0.00     0.153 C 
HETATM   18  C33 UNL     1      11.433  17.775  16.250  1.00  0.00     0.292 C 
BRANCH  16  19
HETATM   19  C5  UNL     1      12.491  20.738  14.495  1.00  0.00     0.046 C 
HETATM   20  C4  UNL     1      13.138  20.065  13.480  1.00  0.00     0.019 A 
HETATM   21  C3  UNL     1      12.666  18.913  12.883  1.00  0.00     0.033 A 
HETATM   22  C39 UNL     1      14.321  20.364  12.827  1.00  0.00     0.046 A 
HETATM   23  C2  UNL     1      13.567  18.561  11.908  1.00  0.00     0.092 A 
HETATM   24  N1  UNL     1      14.587  19.452  11.865  1.00  0.00    -0.360 N 
HETATM   25  C1  UNL     1      15.674  19.354  10.937  1.00  0.00     0.155 C 
HETATM   26  C38 UNL     1      15.145  21.436  13.065  1.00  0.00     0.034 C 
HETATM   27  C37 UNL     1      14.793  22.623  13.636  1.00  0.00     0.057 C 
HETATM   28  C36 UNL     1      13.557  22.971  14.225  1.00  0.00     0.174 C 
HETATM   29  C35 UNL     1      12.521  22.143  14.587  1.00  0.00     0.085 C 
HETATM   30  O1  UNL     1      13.407  24.180  14.435  1.00  0.00    -0.288 OA
ENDBRANCH  16  19
ENDBRANCH  12  13
ENDBRANCH  11  12
ENDBRANCH  10  11
ENDBRANCH   9  10
ENDBRANCH   8   9
ENDBRANCH   1   8
BRANCH   3  31
HETATM   31  C15 UNL     1      14.172  23.333  17.902  1.00  0.00     0.158 C 
BRANCH  31  32
HETATM   32  N5  UNL     1      15.391  24.200  17.982  1.00  0.00    -0.393 N 
ATOM     33  H5  UNL     1      15.715  24.749  18.778  1.00  0.00     0.159 HD
BRANCH  32  34
HETATM   34  C16 UNL     1      15.981  24.088  16.725  1.00  0.00     0.113 C 
BRANCH  34  35
HETATM   35  C17 UNL     1      17.154  24.810  16.247  1.00  0.00     0.051 A 
HETATM   36  C18 UNL     1      17.190  26.018  15.594  1.00  0.00     0.044 A 
HETATM   37  C19 UNL     1      18.490  26.231  15.138  1.00  0.00    -0.007 A 
HETATM   38  C20 UNL     1      19.140  27.208  14.414  1.00  0.00     0.014 A 
HETATM   39  C24 UNL     1      19.249  25.129  15.530  1.00  0.00     0.045 A 
HETATM   40  C21 UNL     1      20.472  27.144  14.057  1.00  0.00     0.001 A 
HETATM   41  C22 UNL     1      21.170  26.046  14.463  1.00  0.00     0.002 A 
HETATM   42  C23 UNL     1      20.588  25.042  15.188  1.00  0.00     0.030 A 
HETATM   43  N6  UNL     1      18.397  24.313  16.196  1.00  0.00    -0.341 N 
BRANCH  43  44
HETATM   44  C25 UNL     1      18.827  23.126  16.895  1.00  0.00     0.168 C 
BRANCH  44  45
HETATM   45  C26 UNL     1      18.957  23.549  18.350  1.00  0.00    -0.037 A 
HETATM   46  C27 UNL     1      19.712  24.623  18.744  1.00  0.00     0.026 A 
HETATM   47  C28 UNL     1      19.797  24.926  20.093  1.00  0.00     0.088 A 
HETATM   48  N7  UNL     1      19.164  24.198  20.999  1.00  0.00    -0.375 N 
HETATM   49  C29 UNL     1      18.405  23.131  20.665  1.00  0.00     0.088 A 
ATOM     50  H7  UNL     1      19.252  24.451  21.984  1.00  0.00     0.164 HD
HETATM   51  C30 UNL     1      18.321  22.830  19.326  1.00  0.00     0.026 A 
ENDBRANCH  44  45
ENDBRANCH  43  44
ENDBRANCH  34  35
ENDBRANCH  32  34
ENDBRANCH  31  32
ENDBRANCH   3  31
TORSDOF 13
ENDMDL
MODEL 4
REMARK VINA RESULT: -9.977181272      3.563     11.800
REMARK  13 active torsions:
REMARK  status: ('A' for Active; 'I' for Inactive)
REMARK    1  A    between atoms: C5_6  and  N2_7 
REMARK    2  A    between atoms: N3_10  and  C8_11 
REMARK    3  A    between atoms: C8_11  and  C9_12 
REMARK    4  A    between atoms: C9_12  and  C10_13 
REMARK    5  A    between atoms: C10_13  and  C11_14 
REMARK    6  A    between atoms: C11_14  and  N4_15 
REMARK    7  A    between atoms: N4_15  and  C12_16 
REMARK    8  A    between atoms: C14_18  and  C15_19 
REMARK    9  A    between atoms: C15_19  and  N5_20 
REMARK   10  A    between atoms: N5_20  and  C16_22 
REMARK   11  A    between atoms: C16_22  and  C17_23 
REMARK   12  A    between atoms: N6_31  and  C25_32 
REMARK   13  A    between atoms: C25_32  and  C26_33 
ROOT
HETATM    1  C12 UNL     1      14.500  20.508  17.955  1.00  0.00     0.178 A 
HETATM    2  C13 UNL     1      14.657  21.040  16.671  1.00  0.00     0.072 A 
HETATM    3  C14 UNL     1      14.629  22.398  16.398  1.00  0.00    -0.035 A 
HETATM    4  C31 UNL     1      14.441  23.229  17.453  1.00  0.00     0.026 A 
HETATM    5  C32 UNL     1      14.285  22.721  18.714  1.00  0.00     0.091 A 
HETATM    6  N8  UNL     1      14.314  21.389  18.946  1.00  0.00    -0.341 N 
ATOM      7  H8  UNL     1      14.192  21.047  19.900  1.00  0.00     0.167 HD
ENDROOT
BRANCH   1   8
HETATM    8  N4  UNL     1      14.499  19.311  18.177  1.00  0.00    -0.404 NA
BRANCH   8   9
HETATM    9  C11 UNL     1      14.463  18.016  18.446  1.00  0.00     0.157 C 
BRANCH   9  10
HETATM   10  C10 UNL     1      13.729  17.506  19.698  1.00  0.00     0.061 C 
BRANCH  10  11
HETATM   11  C9  UNL     1      12.473  18.341  19.879  1.00  0.00     0.036 C 
BRANCH  11  12
HETATM   12  C8  UNL     1      11.248  17.529  19.613  1.00  0.00     0.273 C 
BRANCH  12  13
HETATM   13  N3  UNL     1      10.513  18.028  18.458  1.00  0.00     0.091 N 
HETATM   14  C7  UNL     1      10.989  19.369  18.114  1.00  0.00     0.292 C 
HETATM   15  C6  UNL     1      10.319  19.716  16.799  1.00  0.00     0.153 C 
HETATM   16  N2  UNL     1      11.040  18.956  15.791  1.00  0.00    -0.377 N 
HETATM   17  C34 UNL     1      11.766  17.808  16.329  1.00  0.00     0.153 C 
HETATM   18  C33 UNL     1      10.871  17.146  17.327  1.00  0.00     0.292 C 
BRANCH  16  19
HETATM   19  C5  UNL     1      11.125  19.264  14.423  1.00  0.00     0.046 C 
HETATM   20  C4  UNL     1      11.203  18.228  13.516  1.00  0.00     0.019 A 
HETATM   21  C3  UNL     1      10.530  17.028  13.641  1.00  0.00     0.033 A 
HETATM   22  C39 UNL     1      11.899  18.141  12.323  1.00  0.00     0.046 A 
HETATM   23  C2  UNL     1      10.840  16.271  12.539  1.00  0.00     0.092 A 
HETATM   24  N1  UNL     1      11.679  16.950  11.720  1.00  0.00    -0.360 N 
HETATM   25  C1  UNL     1      12.166  16.420  10.482  1.00  0.00     0.155 C 
HETATM   26  C38 UNL     1      12.701  19.105  11.765  1.00  0.00     0.034 C 
HETATM   27  C37 UNL     1      12.645  20.447  11.999  1.00  0.00     0.057 C 
HETATM   28  C36 UNL     1      11.853  21.131  12.948  1.00  0.00     0.174 C 
HETATM   29  C35 UNL     1      11.156  20.610  14.013  1.00  0.00     0.085 C 
HETATM   30  O1  UNL     1      11.793  22.355  12.784  1.00  0.00    -0.288 OA
ENDBRANCH  16  19
ENDBRANCH  12  13
ENDBRANCH  11  12
ENDBRANCH  10  11
ENDBRANCH   9  10
ENDBRANCH   8   9
ENDBRANCH   1   8
BRANCH   3  31
HETATM   31  C15 UNL     1      14.759  22.880  14.990  1.00  0.00     0.158 C 
BRANCH  31  32
HETATM   32  N5  UNL     1      15.346  24.258  14.988  1.00  0.00    -0.393 N 
ATOM     33  H5  UNL     1      14.861  25.143  15.133  1.00  0.00     0.159 HD
BRANCH  32  34
HETATM   34  C16 UNL     1      16.703  24.059  14.743  1.00  0.00     0.113 C 
BRANCH  34  35
HETATM   35  C17 UNL     1      17.758  25.062  14.821  1.00  0.00     0.051 A 
HETATM   36  C18 UNL     1      17.771  26.314  14.254  1.00  0.00     0.044 A 
HETATM   37  C19 UNL     1      19.050  26.848  14.403  1.00  0.00    -0.007 A 
HETATM   38  C20 UNL     1      19.686  28.015  14.034  1.00  0.00     0.014 A 
HETATM   39  C24 UNL     1      19.817  25.899  15.077  1.00  0.00     0.045 A 
HETATM   40  C21 UNL     1      21.019  28.277  14.285  1.00  0.00     0.001 A 
HETATM   41  C22 UNL     1      21.725  27.317  14.946  1.00  0.00     0.002 A 
HETATM   42  C23 UNL     1      21.154  26.139  15.344  1.00  0.00     0.030 A 
HETATM   43  N6  UNL     1      18.987  24.852  15.306  1.00  0.00    -0.341 N 
BRANCH  43  44
HETATM   44  C25 UNL     1      19.359  23.717  16.116  1.00  0.00     0.168 C 
BRANCH  44  45
HETATM   45  C26 UNL     1      19.062  24.136  17.547  1.00  0.00    -0.037 A 
HETATM   46  C27 UNL     1      17.798  24.112  18.079  1.00  0.00     0.026 A 
HETATM   47  C28 UNL     1      17.611  24.534  19.385  1.00  0.00     0.088 A 
HETATM   48  N7  UNL     1      18.626  24.956  20.121  1.00  0.00    -0.375 N 
HETATM   49  C29 UNL     1      19.891  24.997  19.648  1.00  0.00     0.088 A 
ATOM     50  H7  UNL     1      18.448  25.260  21.078  1.00  0.00     0.164 HD
HETATM   51  C30 UNL     1      20.078  24.579  18.351  1.00  0.00     0.026 A 
ENDBRANCH  44  45
ENDBRANCH  43  44
ENDBRANCH  34  35
ENDBRANCH  32  34
ENDBRANCH  31  32
ENDBRANCH   3  31
TORSDOF 13
ENDMDL
MODEL 5
REMARK VINA RESULT: -9.975761641      4.034     12.645
REMARK  13 active torsions:
REMARK  status: ('A' for Active; 'I' for Inactive)
REMARK    1  A    between atoms: C5_6  and  N2_7 
REMARK    2  A    between atoms: N3_10  and  C8_11 
REMARK    3  A    between atoms: C8_11  and  C9_12 
REMARK    4  A    between atoms: C9_12  and  C10_13 
REMARK    5  A    between atoms: C10_13  and  C11_14 
REMARK    6  A    between atoms: C11_14  and  N4_15 
REMARK    7  A    between atoms: N4_15  and  C12_16 
REMARK    8  A    between atoms: C14_18  and  C15_19 
REMARK    9  A    between atoms: C15_19  and  N5_20 
REMARK   10  A    between atoms: N5_20  and  C16_22 
REMARK   11  A    between atoms: C16_22  and  C17_23 
REMARK   12  A    between atoms: N6_31  and  C25_32 
REMARK   13  A    between atoms: C25_32  and  C26_33 
ROOT
HETATM    1  C12 UNL     1      13.880  19.990  15.981  1.00  0.00     0.178 A 
HETATM    2  C13 UNL     1      14.029  21.370  15.802  1.00  0.00     0.072 A 
HETATM    3  C14 UNL     1      13.534  22.055  14.706  1.00  0.00    -0.035 A 
HETATM    4  C31 UNL     1      12.871  21.324  13.776  1.00  0.00     0.026 A 
HETATM    5  C32 UNL     1      12.719  19.974  13.939  1.00  0.00     0.091 A 
HETATM    6  N8  UNL     1      13.217  19.333  15.020  1.00  0.00    -0.341 N 
ATOM      7  H8  UNL     1      13.086  18.325  15.106  1.00  0.00     0.167 HD
ENDROOT
BRANCH   1   8
HETATM    8  N4  UNL     1      14.344  19.394  16.936  1.00  0.00    -0.404 NA
BRANCH   8   9
HETATM    9  C11 UNL     1      14.848  18.784  17.996  1.00  0.00     0.157 C 
BRANCH   9  10
HETATM   10  C10 UNL     1      14.626  19.369  19.402  1.00  0.00     0.061 C 
BRANCH  10  11
HETATM   11  C9  UNL     1      13.144  19.665  19.559  1.00  0.00     0.036 C 
BRANCH  11  12
HETATM   12  C8  UNL     1      12.454  18.568  20.298  1.00  0.00     0.273 C 
BRANCH  12  13
HETATM   13  N3  UNL     1      11.353  18.009  19.525  1.00  0.00     0.091 N 
HETATM   14  C7  UNL     1      11.135  18.816  18.324  1.00  0.00     0.292 C 
HETATM   15  C6  UNL     1      10.122  18.052  17.494  1.00  0.00     0.153 C 
HETATM   16  N2  UNL     1      10.867  16.957  16.897  1.00  0.00    -0.377 N 
HETATM   17  C34 UNL     1      12.104  16.633  17.603  1.00  0.00     0.153 C 
HETATM   18  C33 UNL     1      11.804  16.677  19.067  1.00  0.00     0.292 C 
BRANCH  16  19
HETATM   19  C5  UNL     1      10.525  16.264  15.724  1.00  0.00     0.046 C 
HETATM   20  C4  UNL     1      10.206  14.926  15.815  1.00  0.00     0.019 A 
HETATM   21  C3  UNL     1       9.505  14.360  16.863  1.00  0.00     0.033 A 
HETATM   22  C39 UNL     1      10.460  13.888  14.935  1.00  0.00     0.046 A 
HETATM   23  C2  UNL     1       9.364  13.023  16.583  1.00  0.00     0.092 A 
HETATM   24  N1  UNL     1       9.946  12.725  15.396  1.00  0.00    -0.360 N 
HETATM   25  C1  UNL     1       9.949  11.408  14.834  1.00  0.00     0.155 C 
HETATM   26  C38 UNL     1      11.119  13.970  13.734  1.00  0.00     0.034 C 
HETATM   27  C37 UNL     1      11.266  15.082  12.959  1.00  0.00     0.057 C 
HETATM   28  C36 UNL     1      10.896  16.410  13.267  1.00  0.00     0.174 C 
HETATM   29  C35 UNL     1      10.543  16.937  14.487  1.00  0.00     0.085 C 
HETATM   30  O1  UNL     1      10.897  17.184  12.302  1.00  0.00    -0.288 OA
ENDBRANCH  16  19
ENDBRANCH  12  13
ENDBRANCH  11  12
ENDBRANCH  10  11
ENDBRANCH   9  10
ENDBRANCH   8   9
ENDBRANCH   1   8
BRANCH   3  31
HETATM   31  C15 UNL     1      13.778  23.523  14.570  1.00  0.00     0.158 C 
BRANCH  31  32
HETATM   32  N5  UNL     1      14.834  23.944  15.546  1.00  0.00    -0.393 N 
ATOM     33  H5  UNL     1      14.707  24.244  16.512  1.00  0.00     0.159 HD
BRANCH  32  34
HETATM   34  C16 UNL     1      16.029  23.832  14.837  1.00  0.00     0.113 C 
BRANCH  34  35
HETATM   35  C17 UNL     1      17.182  24.718  14.931  1.00  0.00     0.051 A 
HETATM   36  C18 UNL     1      17.285  26.015  14.489  1.00  0.00     0.044 A 
HETATM   37  C19 UNL     1      18.619  26.408  14.591  1.00  0.00    -0.007 A 
HETATM   38  C20 UNL     1      19.345  27.541  14.290  1.00  0.00     0.014 A 
HETATM   39  C24 UNL     1      19.329  25.325  15.109  1.00  0.00     0.045 A 
HETATM   40  C21 UNL     1      20.711  27.648  14.463  1.00  0.00     0.001 A 
HETATM   41  C22 UNL     1      21.358  26.562  14.971  1.00  0.00     0.002 A 
HETATM   42  C23 UNL     1      20.697  25.408  15.295  1.00  0.00     0.030 A 
HETATM   43  N6  UNL     1      18.414  24.343  15.298  1.00  0.00    -0.341 N 
BRANCH  43  44
HETATM   44  C25 UNL     1      18.721  23.100  15.963  1.00  0.00     0.168 C 
BRANCH  44  45
HETATM   45  C26 UNL     1      18.196  23.268  17.381  1.00  0.00    -0.037 A 
HETATM   46  C27 UNL     1      18.532  24.336  18.172  1.00  0.00     0.026 A 
HETATM   47  C28 UNL     1      18.029  24.401  19.462  1.00  0.00     0.088 A 
HETATM   48  N7  UNL     1      17.235  23.454  19.935  1.00  0.00    -0.375 N 
HETATM   49  C29 UNL     1      16.871  22.383  19.197  1.00  0.00     0.088 A 
ATOM     50  H7  UNL     1      16.886  23.536  20.890  1.00  0.00     0.164 HD
HETATM   51  C30 UNL     1      17.370  22.318  17.917  1.00  0.00     0.026 A 
ENDBRANCH  44  45
ENDBRANCH  43  44
ENDBRANCH  34  35
ENDBRANCH  32  34
ENDBRANCH  31  32
ENDBRANCH   3  31
TORSDOF 13
ENDMDL
