MODEL 1
REMARK VINA RESULT: -7.925897946      0.000      0.000
REMARK  6 active torsions:
REMARK  status: ('A' for Active; 'I' for Inactive)
REMARK    1  A    between atoms: C2_2  and  O1_3 
REMARK    2  A    between atoms: C2_2  and  C3_5 
REMARK    3  A    between atoms: C2_2  and  C7_11 
REMARK    4  A    between atoms: C10_14  and  C11_15 
REMARK    5  A    between atoms: C22_27  and  O5_28 
REMARK    6  A    between atoms: C26_33  and  C28_35 
ROOT
HETATM    1  C7  UNL     1     -15.816 -52.658 -21.565  1.00  0.00     0.036 C 
HETATM    2  C8  UNL     1     -14.441 -51.979 -21.754  1.00  0.00     0.009 C 
HETATM    3  C9  UNL     1     -14.060 -52.118 -20.258  1.00  0.00     0.007 C 
HETATM    4  C10 UNL     1     -15.210 -51.246 -19.660  1.00  0.00     0.006 C 
HETATM    5  C26 UNL     1     -16.375 -51.798 -20.451  1.00  0.00     0.020 C 
HETATM    6  C27 UNL     1     -17.320 -52.661 -19.698  1.00  0.00     0.023 C 
ENDROOT
BRANCH   4   7
HETATM    7  C11 UNL     1     -15.248 -51.438 -18.183  1.00  0.00    -0.001 C 
HETATM    8  C12 UNL     1     -14.149 -52.473 -17.782  1.00  0.00     0.006 C 
HETATM    9  C13 UNL     1     -13.428 -51.857 -16.583  1.00  0.00     0.006 C 
HETATM   10  C14 UNL     1     -13.422 -50.438 -17.124  1.00  0.00     0.003 C 
HETATM   11  C15 UNL     1     -12.713 -49.454 -16.328  1.00  0.00    -0.033 C 
HETATM   12  C24 UNL     1     -14.925 -50.308 -17.288  1.00  0.00    -0.033 C 
HETATM   13  C16 UNL     1     -11.431 -49.081 -17.123  1.00  0.00     0.016 C 
HETATM   14  C17 UNL     1     -12.092 -50.107 -15.081  1.00  0.00     0.017 C 
HETATM   15  C21 UNL     1     -13.381 -48.161 -16.024  1.00  0.00     0.030 C 
HETATM   16  C18 UNL     1     -11.144 -49.144 -14.371  1.00  0.00     0.079 C 
HETATM   17  C19 UNL     1     -11.921 -47.928 -14.030  1.00  0.00     0.127 C 
HETATM   18  O4  UNL     1     -11.428 -47.071 -13.349  1.00  0.00    -0.298 OA
HETATM   19  C20 UNL     1     -13.285 -47.814 -14.543  1.00  0.00     0.086 C 
HETATM   20  C22 UNL     1     -14.821 -48.072 -16.390  1.00  0.00     0.124 C 
HETATM   21  C23 UNL     1     -15.140 -48.910 -17.655  1.00  0.00     0.042 C 
HETATM   22  C25 UNL     1     -15.643 -50.608 -15.979  1.00  0.00     0.016 C 
BRANCH  20  23
HETATM   23  O5  UNL     1     -15.184 -46.768 -16.740  1.00  0.00    -0.395 OA
ATOM     24  H5  UNL     1     -16.128 -46.659 -16.752  1.00  0.00     0.210 HD
ENDBRANCH  20  23
ENDBRANCH   4   7
BRANCH   5  25
HETATM   25  C28 UNL     1     -17.106 -50.623 -21.011  1.00  0.00     0.241 C 
HETATM   26  O6  UNL     1     -16.926 -49.467 -20.679  1.00  0.00    -0.306 OA
ENDBRANCH   5  25
BRANCH   1  27
HETATM   27  C2  UNL     1     -16.556 -52.725 -22.829  1.00  0.00     0.071 C 
HETATM   28  C1  UNL     1     -17.880 -52.031 -22.763  1.00  0.00     0.047 C 
BRANCH  27  29
HETATM   29  O1  UNL     1     -15.878 -52.168 -23.919  1.00  0.00    -0.389 OA
ATOM     30  H1  UNL     1     -15.989 -52.778 -24.639  1.00  0.00     0.210 HD
ENDBRANCH  27  29
BRANCH  27  31
HETATM   31  C3  UNL     1     -16.797 -54.180 -23.223  1.00  0.00     0.122 C 
HETATM   32  C4  UNL     1     -18.079 -54.400 -23.940  1.00  0.00     0.044 C 
HETATM   33  C5  UNL     1     -17.758 -55.106 -25.238  1.00  0.00     0.179 C 
HETATM   34  O2  UNL     1     -16.362 -54.963 -25.403  1.00  0.00    -0.321 OA
HETATM   35  C6  UNL     1     -15.765 -54.552 -24.212  1.00  0.00     0.266 C 
HETATM   36  O3  UNL     1     -14.517 -54.506 -24.012  1.00  0.00    -0.265 OA
ENDBRANCH  27  31
ENDBRANCH   1  27
TORSDOF 6
ENDMDL
MODEL 2
REMARK VINA RESULT: -7.617131758      2.514      9.066
REMARK  6 active torsions:
REMARK  status: ('A' for Active; 'I' for Inactive)
REMARK    1  A    between atoms: C2_2  and  O1_3 
REMARK    2  A    between atoms: C2_2  and  C3_5 
REMARK    3  A    between atoms: C2_2  and  C7_11 
REMARK    4  A    between atoms: C10_14  and  C11_15 
REMARK    5  A    between atoms: C22_27  and  O5_28 
REMARK    6  A    between atoms: C26_33  and  C28_35 
ROOT
HETATM    1  C7  UNL     1     -14.910 -49.506 -16.799  1.00  0.00     0.036 C 
HETATM    2  C8  UNL     1     -15.431 -50.707 -15.976  1.00  0.00     0.009 C 
HETATM    3  C9  UNL     1     -15.236 -51.711 -17.141  1.00  0.00     0.007 C 
HETATM    4  C10 UNL     1     -16.228 -51.060 -18.157  1.00  0.00     0.006 C 
HETATM    5  C26 UNL     1     -15.819 -49.611 -18.007  1.00  0.00     0.020 C 
HETATM    6  C27 UNL     1     -15.063 -49.029 -19.144  1.00  0.00     0.023 C 
ENDROOT
BRANCH   4   7
HETATM    7  C11 UNL     1     -16.029 -51.680 -19.497  1.00  0.00    -0.001 C 
HETATM    8  C12 UNL     1     -15.530 -53.147 -19.302  1.00  0.00     0.006 C 
HETATM    9  C13 UNL     1     -16.379 -53.996 -20.248  1.00  0.00     0.006 C 
HETATM   10  C14 UNL     1     -17.680 -53.259 -19.983  1.00  0.00     0.003 C 
HETATM   11  C15 UNL     1     -18.863 -53.801 -20.624  1.00  0.00    -0.033 C 
HETATM   12  C24 UNL     1     -17.188 -51.882 -20.390  1.00  0.00    -0.033 C 
HETATM   13  C16 UNL     1     -19.730 -54.427 -19.497  1.00  0.00     0.016 C 
HETATM   14  C17 UNL     1     -18.513 -55.057 -21.441  1.00  0.00     0.017 C 
HETATM   15  C21 UNL     1     -19.771 -52.878 -21.355  1.00  0.00     0.030 C 
HETATM   16  C18 UNL     1     -19.774 -55.775 -21.913  1.00  0.00     0.079 C 
HETATM   17  C19 UNL     1     -20.567 -54.803 -22.705  1.00  0.00     0.127 C 
HETATM   18  O4  UNL     1     -21.546 -55.166 -23.296  1.00  0.00    -0.298 OA
HETATM   19  C20 UNL     1     -20.118 -53.412 -22.739  1.00  0.00     0.086 C 
HETATM   20  C22 UNL     1     -19.267 -51.490 -21.548  1.00  0.00     0.124 C 
HETATM   21  C23 UNL     1     -18.379 -51.037 -20.360  1.00  0.00     0.042 C 
HETATM   22  C25 UNL     1     -16.614 -51.905 -21.801  1.00  0.00     0.016 C 
BRANCH  20  23
HETATM   23  O5  UNL     1     -20.312 -50.562 -21.571  1.00  0.00    -0.395 OA
ATOM     24  H5  UNL     1     -20.004 -49.693 -21.801  1.00  0.00     0.210 HD
ENDBRANCH  20  23
ENDBRANCH   4   7
BRANCH   5  25
HETATM   25  C28 UNL     1     -17.075 -48.833 -17.789  1.00  0.00     0.241 C 
HETATM   26  O6  UNL     1     -18.122 -49.299 -17.381  1.00  0.00    -0.306 OA
ENDBRANCH   5  25
BRANCH   1  27
HETATM   27  C2  UNL     1     -14.939 -48.269 -16.015  1.00  0.00     0.071 C 
HETATM   28  C1  UNL     1     -14.493 -47.075 -16.797  1.00  0.00     0.047 C 
BRANCH  27  29
HETATM   29  O1  UNL     1     -16.200 -47.948 -15.498  1.00  0.00    -0.389 OA
ATOM     30  H1  UNL     1     -16.066 -47.214 -14.909  1.00  0.00     0.210 HD
ENDBRANCH  27  29
BRANCH  27  31
HETATM   31  C3  UNL     1     -14.039 -48.400 -14.788  1.00  0.00     0.122 C 
HETATM   32  C4  UNL     1     -12.643 -48.792 -15.110  1.00  0.00     0.044 C 
HETATM   33  C5  UNL     1     -11.727 -47.766 -14.480  1.00  0.00     0.179 C 
HETATM   34  O2  UNL     1     -12.564 -46.680 -14.142  1.00  0.00    -0.321 OA
HETATM   35  C6  UNL     1     -13.905 -47.057 -14.186  1.00  0.00     0.266 C 
HETATM   36  O3  UNL     1     -14.866 -46.349 -13.770  1.00  0.00    -0.265 OA
ENDBRANCH  27  31
ENDBRANCH   1  27
TORSDOF 6
ENDMDL
MODEL 3
REMARK VINA RESULT: -7.567903922      2.168      3.520
REMARK  6 active torsions:
REMARK  status: ('A' for Active; 'I' for Inactive)
REMARK    1  A    between atoms: C2_2  and  O1_3 
REMARK    2  A    between atoms: C2_2  and  C3_5 
REMARK    3  A    between atoms: C2_2  and  C7_11 
REMARK    4  A    between atoms: C10_14  and  C11_15 
REMARK    5  A    between atoms: C22_27  and  O5_28 
REMARK    6  A    between atoms: C26_33  and  C28_35 
ROOT
HETATM    1  C7  UNL     1     -15.516 -54.425 -22.090  1.00  0.00     0.036 C 
HETATM    2  C8  UNL     1     -15.992 -54.753 -20.657  1.00  0.00     0.009 C 
HETATM    3  C9  UNL     1     -16.059 -53.263 -20.236  1.00  0.00     0.007 C 
HETATM    4  C10 UNL     1     -14.548 -52.916 -20.423  1.00  0.00     0.006 C 
HETATM    5  C26 UNL     1     -14.311 -53.565 -21.768  1.00  0.00     0.020 C 
HETATM    6  C27 UNL     1     -14.146 -52.638 -22.917  1.00  0.00     0.023 C 
ENDROOT
BRANCH   4   7
HETATM    7  C11 UNL     1     -14.375 -51.438 -20.349  1.00  0.00    -0.001 C 
HETATM    8  C12 UNL     1     -15.783 -50.773 -20.221  1.00  0.00     0.006 C 
HETATM    9  C13 UNL     1     -15.646 -49.745 -19.097  1.00  0.00     0.006 C 
HETATM   10  C14 UNL     1     -14.783 -50.616 -18.201  1.00  0.00     0.003 C 
HETATM   11  C15 UNL     1     -14.463 -50.069 -16.896  1.00  0.00    -0.033 C 
HETATM   12  C24 UNL     1     -13.663 -50.839 -19.201  1.00  0.00    -0.033 C 
HETATM   13  C16 UNL     1     -15.263 -50.904 -15.858  1.00  0.00     0.016 C 
HETATM   14  C17 UNL     1     -15.113 -48.687 -16.709  1.00  0.00     0.017 C 
HETATM   15  C21 UNL     1     -13.052 -50.105 -16.430  1.00  0.00     0.030 C 
HETATM   16  C18 UNL     1     -14.993 -48.214 -15.264  1.00  0.00     0.079 C 
HETATM   17  C19 UNL     1     -13.549 -48.197 -14.922  1.00  0.00     0.127 C 
HETATM   18  O4  UNL     1     -13.185 -47.736 -13.876  1.00  0.00    -0.298 OA
HETATM   19  C20 UNL     1     -12.605 -48.752 -15.890  1.00  0.00     0.086 C 
HETATM   20  C22 UNL     1     -12.042 -50.513 -17.446  1.00  0.00     0.124 C 
HETATM   21  C23 UNL     1     -12.627 -51.542 -18.448  1.00  0.00     0.042 C 
HETATM   22  C25 UNL     1     -13.116 -49.513 -19.709  1.00  0.00     0.016 C 
BRANCH  20  23
HETATM   23  O5  UNL     1     -10.961 -51.178 -16.860  1.00  0.00    -0.395 OA
ATOM     24  H5  UNL     1     -10.743 -50.811 -16.011  1.00  0.00     0.210 HD
ENDBRANCH  20  23
ENDBRANCH   4   7
BRANCH   5  25
HETATM   25  C28 UNL     1     -13.087 -54.409 -21.625  1.00  0.00     0.241 C 
HETATM   26  O6  UNL     1     -12.014 -54.017 -21.208  1.00  0.00    -0.306 OA
ENDBRANCH   5  25
BRANCH   1  27
HETATM   27  C2  UNL     1     -15.309 -55.644 -22.875  1.00  0.00     0.071 C 
HETATM   28  C1  UNL     1     -14.549 -55.398 -24.140  1.00  0.00     0.047 C 
BRANCH  27  29
HETATM   29  O1  UNL     1     -14.618 -56.653 -22.195  1.00  0.00    -0.389 OA
ATOM     30  H1  UNL     1     -15.135 -56.855 -21.424  1.00  0.00     0.210 HD
ENDBRANCH  27  29
BRANCH  27  31
HETATM   31  C3  UNL     1     -16.652 -56.272 -23.240  1.00  0.00     0.122 C 
HETATM   32  C4  UNL     1     -17.570 -55.348 -23.954  1.00  0.00     0.044 C 
HETATM   33  C5  UNL     1     -17.992 -56.028 -25.237  1.00  0.00     0.179 C 
HETATM   34  O2  UNL     1     -17.089 -57.101 -25.403  1.00  0.00    -0.321 OA
HETATM   35  C6  UNL     1     -16.392 -57.347 -24.220  1.00  0.00     0.266 C 
HETATM   36  O3  UNL     1     -15.646 -58.347 -24.020  1.00  0.00    -0.265 OA
ENDBRANCH  27  31
ENDBRANCH   1  27
TORSDOF 6
ENDMDL
MODEL 4
REMARK VINA RESULT: -7.461277696      1.759      8.922
REMARK  6 active torsions:
REMARK  status: ('A' for Active; 'I' for Inactive)
REMARK    1  A    between atoms: C2_2  and  O1_3 
REMARK    2  A    between atoms: C2_2  and  C3_5 
REMARK    3  A    between atoms: C2_2  and  C7_11 
REMARK    4  A    between atoms: C10_14  and  C11_15 
REMARK    5  A    between atoms: C22_27  and  O5_28 
REMARK    6  A    between atoms: C26_33  and  C28_35 
ROOT
HETATM    1  C7  UNL     1     -14.698 -50.283 -17.695  1.00  0.00     0.036 C 
HETATM    2  C8  UNL     1     -15.388 -51.620 -17.342  1.00  0.00     0.009 C 
HETATM    3  C9  UNL     1     -14.636 -52.408 -18.445  1.00  0.00     0.007 C 
HETATM    4  C10 UNL     1     -15.184 -51.627 -19.681  1.00  0.00     0.006 C 
HETATM    5  C26 UNL     1     -15.018 -50.213 -19.174  1.00  0.00     0.020 C 
HETATM    6  C27 UNL     1     -13.924 -49.424 -19.795  1.00  0.00     0.023 C 
ENDROOT
BRANCH   4   7
HETATM    7  C11 UNL     1     -14.394 -52.008 -20.886  1.00  0.00    -0.001 C 
HETATM    8  C12 UNL     1     -13.263 -52.995 -20.454  1.00  0.00     0.006 C 
HETATM    9  C13 UNL     1     -13.306 -54.135 -21.472  1.00  0.00     0.006 C 
HETATM   10  C14 UNL     1     -14.821 -54.205 -21.554  1.00  0.00     0.003 C 
HETATM   11  C15 UNL     1     -15.368 -55.271 -22.373  1.00  0.00    -0.033 C 
HETATM   12  C24 UNL     1     -15.040 -52.764 -21.978  1.00  0.00    -0.033 C 
HETATM   13  C16 UNL     1     -16.010 -56.295 -21.396  1.00  0.00     0.016 C 
HETATM   14  C17 UNL     1     -14.240 -56.127 -22.977  1.00  0.00     0.017 C 
HETATM   15  C21 UNL     1     -16.430 -54.945 -23.359  1.00  0.00     0.030 C 
HETATM   16  C18 UNL     1     -14.798 -57.387 -23.631  1.00  0.00     0.079 C 
HETATM   17  C19 UNL     1     -15.778 -56.957 -24.658  1.00  0.00     0.127 C 
HETATM   18  O4  UNL     1     -16.260 -57.765 -25.403  1.00  0.00    -0.298 OA
HETATM   19  C20 UNL     1     -16.125 -55.539 -24.729  1.00  0.00     0.086 C 
HETATM   20  C22 UNL     1     -16.695 -53.495 -23.574  1.00  0.00     0.124 C 
HETATM   21  C23 UNL     1     -16.469 -52.678 -22.275  1.00  0.00     0.042 C 
HETATM   22  C25 UNL     1     -14.237 -52.438 -23.229  1.00  0.00     0.016 C 
BRANCH  20  23
HETATM   23  O5  UNL     1     -18.033 -53.259 -23.901  1.00  0.00    -0.395 OA
ATOM     24  H5  UNL     1     -18.192 -52.340 -24.085  1.00  0.00     0.210 HD
ENDBRANCH  20  23
ENDBRANCH   4   7
BRANCH   5  25
HETATM   25  C28 UNL     1     -16.323 -49.522 -19.397  1.00  0.00     0.241 C 
HETATM   26  O6  UNL     1     -16.881 -49.418 -20.472  1.00  0.00    -0.306 OA
ENDBRANCH   5  25
BRANCH   1  27
HETATM   27  C2  UNL     1     -15.168 -49.196 -16.831  1.00  0.00     0.071 C 
HETATM   28  C1  UNL     1     -14.977 -47.844 -17.443  1.00  0.00     0.047 C 
BRANCH  27  29
HETATM   29  O1  UNL     1     -16.522 -49.282 -16.488  1.00  0.00    -0.389 OA
ATOM     30  H1  UNL     1     -17.008 -49.037 -17.267  1.00  0.00     0.210 HD
ENDBRANCH  27  29
BRANCH  27  31
HETATM   31  C3  UNL     1     -14.427 -49.225 -15.496  1.00  0.00     0.122 C 
HETATM   32  C4  UNL     1     -12.949 -49.279 -15.633  1.00  0.00     0.044 C 
HETATM   33  C5  UNL     1     -12.377 -48.131 -14.831  1.00  0.00     0.179 C 
HETATM   34  O2  UNL     1     -13.473 -47.282 -14.564  1.00  0.00    -0.321 OA
HETATM   35  C6  UNL     1     -14.677 -47.936 -14.818  1.00  0.00     0.266 C 
HETATM   36  O3  UNL     1     -15.819 -47.488 -14.510  1.00  0.00    -0.265 OA
ENDBRANCH  27  31
ENDBRANCH   1  27
TORSDOF 6
ENDMDL
MODEL 5
REMARK VINA RESULT: -7.386448617      1.887      3.354
REMARK  6 active torsions:
REMARK  status: ('A' for Active; 'I' for Inactive)
REMARK    1  A    between atoms: C2_2  and  O1_3 
REMARK    2  A    between atoms: C2_2  and  C3_5 
REMARK    3  A    between atoms: C2_2  and  C7_11 
REMARK    4  A    between atoms: C10_14  and  C11_15 
REMARK    5  A    between atoms: C22_27  and  O5_28 
REMARK    6  A    between atoms: C26_33  and  C28_35 
ROOT
HETATM    1  C7  UNL     1     -16.311 -54.082 -21.359  1.00  0.00     0.036 C 
HETATM    2  C8  UNL     1     -16.607 -54.274 -19.854  1.00  0.00     0.009 C 
HETATM    3  C9  UNL     1     -16.334 -52.787 -19.514  1.00  0.00     0.007 C 
HETATM    4  C10 UNL     1     -14.834 -52.737 -19.945  1.00  0.00     0.006 C 
HETATM    5  C26 UNL     1     -14.934 -53.457 -21.271  1.00  0.00     0.020 C 
HETATM    6  C27 UNL     1     -14.787 -52.611 -22.483  1.00  0.00     0.023 C 
ENDROOT
BRANCH   4   7
HETATM    7  C11 UNL     1     -14.385 -51.317 -19.983  1.00  0.00    -0.001 C 
HETATM    8  C12 UNL     1     -15.642 -50.391 -19.939  1.00  0.00     0.006 C 
HETATM    9  C13 UNL     1     -15.323 -49.320 -18.896  1.00  0.00     0.006 C 
HETATM   10  C14 UNL     1     -14.647 -50.262 -17.915  1.00  0.00     0.003 C 
HETATM   11  C15 UNL     1     -14.240 -49.682 -16.649  1.00  0.00    -0.033 C 
HETATM   12  C24 UNL     1     -13.582 -50.772 -18.868  1.00  0.00    -0.033 C 
HETATM   13  C16 UNL     1     -15.191 -50.265 -15.568  1.00  0.00     0.016 C 
HETATM   14  C17 UNL     1     -14.618 -48.192 -16.586  1.00  0.00     0.017 C 
HETATM   15  C21 UNL     1     -12.865 -49.945 -16.149  1.00  0.00     0.030 C 
HETATM   16  C18 UNL     1     -14.422 -47.635 -15.179  1.00  0.00     0.079 C 
HETATM   17  C19 UNL     1     -13.004 -47.862 -14.806  1.00  0.00     0.127 C 
HETATM   18  O4  UNL     1     -12.568 -47.394 -13.791  1.00  0.00    -0.298 OA
HETATM   19  C20 UNL     1     -12.174 -48.660 -15.706  1.00  0.00     0.086 C 
HETATM   20  C22 UNL     1     -11.942 -50.615 -17.107  1.00  0.00     0.124 C 
HETATM   21  C23 UNL     1     -12.703 -51.594 -18.039  1.00  0.00     0.042 C 
HETATM   22  C25 UNL     1     -12.789 -49.618 -19.465  1.00  0.00     0.016 C 
BRANCH  20  23
HETATM   23  O5  UNL     1     -11.012 -51.422 -16.446  1.00  0.00    -0.395 OA
ATOM     24  H5  UNL     1     -10.861 -52.237 -16.912  1.00  0.00     0.210 HD
ENDBRANCH  20  23
ENDBRANCH   4   7
BRANCH   5  25
HETATM   25  C28 UNL     1     -13.878 -54.513 -21.266  1.00  0.00     0.241 C 
HETATM   26  O6  UNL     1     -12.820 -54.444 -21.862  1.00  0.00    -0.306 OA
ENDBRANCH   5  25
BRANCH   1  27
HETATM   27  C2  UNL     1     -16.457 -55.340 -22.096  1.00  0.00     0.071 C 
HETATM   28  C1  UNL     1     -15.737 -56.480 -21.446  1.00  0.00     0.047 C 
BRANCH  27  29
HETATM   29  O1  UNL     1     -17.782 -55.759 -22.259  1.00  0.00    -0.389 OA
ATOM     30  H1  UNL     1     -17.794 -56.305 -23.037  1.00  0.00     0.210 HD
ENDBRANCH  27  29
BRANCH  27  31
HETATM   31  C3  UNL     1     -15.921 -55.185 -23.517  1.00  0.00     0.122 C 
HETATM   32  C4  UNL     1     -15.338 -56.431 -24.076  1.00  0.00     0.044 C 
HETATM   33  C5  UNL     1     -16.028 -56.704 -25.394  1.00  0.00     0.179 C 
HETATM   34  O2  UNL     1     -17.168 -55.872 -25.396  1.00  0.00    -0.321 OA
HETATM   35  C6  UNL     1     -17.072 -54.901 -24.400  1.00  0.00     0.266 C 
HETATM   36  O3  UNL     1     -17.858 -53.919 -24.274  1.00  0.00    -0.265 OA
ENDBRANCH  27  31
ENDBRANCH   1  27
TORSDOF 6
ENDMDL
