MODEL 1
REMARK VINA RESULT: -7.941659604      0.000      0.000
REMARK  6 active torsions:
REMARK  status: ('A' for Active; 'I' for Inactive)
REMARK    1  A    between atoms: C2_2  and  N1_4 
REMARK    2  A    between atoms: N1_4  and  C5_6 
REMARK    3  A    between atoms: C5_6  and  C6_7 
REMARK    4  A    between atoms: C6_7  and  C7_9 
REMARK    5  A    between atoms: C27_31  and  O4_32 
REMARK    6  A    between atoms: C28_34  and  O5_35 
ROOT
HETATM    1  C7  UNL     1     -13.933 -50.017 -17.906  1.00  0.00     0.208 C 
HETATM    2  O2  UNL     1     -13.912 -50.239 -19.311  1.00  0.00    -0.368 OA
HETATM    3  C8  UNL     1     -14.027 -51.568 -19.080  1.00  0.00     0.171 C 
HETATM    4  C9  UNL     1     -14.657 -51.359 -17.769  1.00  0.00     0.019 C 
HETATM    5  C10 UNL     1     -14.098 -52.285 -16.721  1.00  0.00     0.021 C 
HETATM    6  C11 UNL     1     -16.142 -51.259 -17.766  1.00  0.00     0.015 C 
HETATM    7  C12 UNL     1     -16.738 -51.033 -19.157  1.00  0.00     0.009 C 
HETATM    8  C13 UNL     1     -16.306 -52.173 -19.998  1.00  0.00     0.034 C 
HETATM    9  C14 UNL     1     -17.005 -52.231 -21.363  1.00  0.00    -0.030 C 
HETATM   10  C15 UNL     1     -17.054 -50.890 -22.035  1.00  0.00     0.016 C 
HETATM   11  C16 UNL     1     -18.430 -52.641 -21.070  1.00  0.00     0.037 C 
HETATM   12  C17 UNL     1     -18.997 -53.636 -21.958  1.00  0.00    -0.022 C 
HETATM   13  C18 UNL     1     -18.403 -54.190 -23.018  1.00  0.00    -0.068 C 
HETATM   14  C19 UNL     1     -19.133 -55.204 -23.829  1.00  0.00     0.113 C 
HETATM   15  C20 UNL     1     -18.291 -56.002 -24.730  1.00  0.00     0.130 C 
HETATM   16  O3  UNL     1     -18.763 -56.994 -25.292  1.00  0.00    -0.298 OA
HETATM   17  C21 UNL     1     -16.867 -55.675 -25.008  1.00  0.00     0.079 C 
HETATM   18  C22 UNL     1     -16.228 -54.977 -23.856  1.00  0.00     0.021 C 
HETATM   19  C23 UNL     1     -17.048 -53.783 -23.372  1.00  0.00    -0.016 C 
HETATM   20  C24 UNL     1     -17.120 -52.832 -24.530  1.00  0.00     0.020 C 
HETATM   21  C25 UNL     1     -16.310 -53.274 -22.168  1.00  0.00     0.009 C 
HETATM   22  C26 UNL     1     -14.898 -52.901 -22.474  1.00  0.00     0.041 C 
HETATM   23  C27 UNL     1     -14.247 -52.046 -21.441  1.00  0.00     0.156 C 
HETATM   24  C28 UNL     1     -14.835 -52.378 -20.061  1.00  0.00     0.115 C 
ENDROOT
BRANCH   1  25
HETATM   25  C6  UNL     1     -12.609 -49.938 -17.300  1.00  0.00     0.194 C 
HETATM   26  O1  UNL     1     -11.650 -50.069 -18.119  1.00  0.00    -0.289 OA
BRANCH  25  27
HETATM   27  C5  UNL     1     -12.290 -49.728 -15.887  1.00  0.00     0.138 C 
BRANCH  27  28
HETATM   28  N1  UNL     1     -12.330 -48.457 -15.311  1.00  0.00    -0.387 N 
HETATM   29  C4  UNL     1     -11.554 -48.396 -14.066  1.00  0.00     0.149 C 
BRANCH  28  30
HETATM   30  C2  UNL     1     -13.479 -47.659 -15.274  1.00  0.00     0.075 C 
HETATM   31  C1  UNL     1     -13.232 -46.547 -14.227  1.00  0.00     0.032 C 
HETATM   32  C3  UNL     1     -14.768 -48.332 -14.886  1.00  0.00     0.032 C 
ENDBRANCH  28  30
ENDBRANCH  27  28
ENDBRANCH  25  27
ENDBRANCH   1  25
BRANCH  24  33
HETATM   33  O5  UNL     1     -14.481 -53.715 -19.827  1.00  0.00    -0.384 OA
ATOM     34  H5  UNL     1     -14.036 -54.002 -20.615  1.00  0.00     0.210 HD
ENDBRANCH  24  33
BRANCH  23  35
HETATM   35  O4  UNL     1     -12.888 -52.423 -21.346  1.00  0.00    -0.392 OA
ATOM     36  H4  UNL     1     -12.359 -51.634 -21.349  1.00  0.00     0.210 HD
ENDBRANCH  23  35
TORSDOF 6
ENDMDL
MODEL 2
REMARK VINA RESULT: -7.919903757      3.203      8.060
REMARK  6 active torsions:
REMARK  status: ('A' for Active; 'I' for Inactive)
REMARK    1  A    between atoms: C2_2  and  N1_4 
REMARK    2  A    between atoms: N1_4  and  C5_6 
REMARK    3  A    between atoms: C5_6  and  C6_7 
REMARK    4  A    between atoms: C6_7  and  C7_9 
REMARK    5  A    between atoms: C27_31  and  O4_32 
REMARK    6  A    between atoms: C28_34  and  O5_35 
ROOT
HETATM    1  C7  UNL     1     -14.956 -54.568 -22.885  1.00  0.00     0.208 C 
HETATM    2  O2  UNL     1     -14.587 -54.443 -21.517  1.00  0.00    -0.368 OA
HETATM    3  C8  UNL     1     -14.052 -53.232 -21.795  1.00  0.00     0.171 C 
HETATM    4  C9  UNL     1     -14.913 -53.040 -22.969  1.00  0.00     0.019 C 
HETATM    5  C10 UNL     1     -14.150 -52.485 -24.143  1.00  0.00     0.021 C 
HETATM    6  C11 UNL     1     -16.220 -52.374 -22.721  1.00  0.00     0.015 C 
HETATM    7  C12 UNL     1     -16.602 -52.321 -21.240  1.00  0.00     0.009 C 
HETATM    8  C13 UNL     1     -15.517 -51.591 -20.544  1.00  0.00     0.034 C 
HETATM    9  C14 UNL     1     -15.847 -51.242 -19.086  1.00  0.00    -0.030 C 
HETATM   10  C15 UNL     1     -16.453 -52.398 -18.346  1.00  0.00     0.016 C 
HETATM   11  C16 UNL     1     -16.895 -50.155 -19.159  1.00  0.00     0.037 C 
HETATM   12  C17 UNL     1     -16.720 -49.046 -18.243  1.00  0.00    -0.022 C 
HETATM   13  C18 UNL     1     -15.758 -48.912 -17.327  1.00  0.00    -0.068 C 
HETATM   14  C19 UNL     1     -15.725 -47.700 -16.460  1.00  0.00     0.113 C 
HETATM   15  C20 UNL     1     -14.456 -47.476 -15.755  1.00  0.00     0.130 C 
HETATM   16  O3  UNL     1     -14.257 -46.405 -15.175  1.00  0.00    -0.298 OA
HETATM   17  C21 UNL     1     -13.370 -48.491 -15.701  1.00  0.00     0.079 C 
HETATM   18  C22 UNL     1     -13.378 -49.370 -16.905  1.00  0.00     0.021 C 
HETATM   19  C23 UNL     1     -14.758 -49.962 -17.183  1.00  0.00    -0.016 C 
HETATM   20  C24 UNL     1     -15.103 -50.791 -15.980  1.00  0.00     0.020 C 
HETATM   21  C25 UNL     1     -14.595 -50.728 -18.464  1.00  0.00     0.009 C 
HETATM   22  C26 UNL     1     -13.538 -51.777 -18.378  1.00  0.00     0.041 C 
HETATM   23  C27 UNL     1     -13.595 -52.802 -19.458  1.00  0.00     0.156 C 
HETATM   24  C28 UNL     1     -14.159 -52.163 -20.737  1.00  0.00     0.115 C 
ENDROOT
BRANCH   1  25
HETATM   25  C6  UNL     1     -13.980 -55.283 -23.697  1.00  0.00     0.194 C 
HETATM   26  O1  UNL     1     -14.058 -55.046 -24.940  1.00  0.00    -0.289 OA
BRANCH  25  27
HETATM   27  C5  UNL     1     -12.950 -56.216 -23.234  1.00  0.00     0.138 C 
BRANCH  27  28
HETATM   28  N1  UNL     1     -11.657 -55.786 -22.936  1.00  0.00    -0.387 N 
HETATM   29  C4  UNL     1     -10.698 -56.171 -23.980  1.00  0.00     0.149 C 
BRANCH  28  30
HETATM   30  C2  UNL     1     -11.104 -55.825 -21.651  1.00  0.00     0.075 C 
HETATM   31  C1  UNL     1      -9.742 -55.095 -21.715  1.00  0.00     0.032 C 
HETATM   32  C3  UNL     1     -10.833 -57.183 -21.063  1.00  0.00     0.032 C 
ENDBRANCH  28  30
ENDBRANCH  27  28
ENDBRANCH  25  27
ENDBRANCH   1  25
BRANCH  24  33
HETATM   33  O5  UNL     1     -13.223 -51.182 -21.097  1.00  0.00    -0.384 OA
ATOM     34  H5  UNL     1     -12.933 -50.796 -20.280  1.00  0.00     0.210 HD
ENDBRANCH  24  33
BRANCH  23  35
HETATM   35  O4  UNL     1     -12.272 -53.163 -19.798  1.00  0.00    -0.392 OA
ATOM     36  H4  UNL     1     -12.114 -54.046 -19.487  1.00  0.00     0.210 HD
ENDBRANCH  23  35
TORSDOF 6
ENDMDL
MODEL 3
REMARK VINA RESULT: -7.790889815      1.136      1.363
REMARK  6 active torsions:
REMARK  status: ('A' for Active; 'I' for Inactive)
REMARK    1  A    between atoms: C2_2  and  N1_4 
REMARK    2  A    between atoms: N1_4  and  C5_6 
REMARK    3  A    between atoms: C5_6  and  C6_7 
REMARK    4  A    between atoms: C6_7  and  C7_9 
REMARK    5  A    between atoms: C27_31  and  O4_32 
REMARK    6  A    between atoms: C28_34  and  O5_35 
ROOT
HETATM    1  C7  UNL     1     -14.016 -50.116 -18.689  1.00  0.00     0.208 C 
HETATM    2  O2  UNL     1     -13.696 -50.897 -19.833  1.00  0.00    -0.368 OA
HETATM    3  C8  UNL     1     -14.316 -51.954 -19.258  1.00  0.00     0.171 C 
HETATM    4  C9  UNL     1     -15.164 -51.093 -18.422  1.00  0.00     0.019 C 
HETATM    5  C10 UNL     1     -15.259 -51.599 -17.007  1.00  0.00     0.021 C 
HETATM    6  C11 UNL     1     -16.467 -50.686 -19.014  1.00  0.00     0.015 C 
HETATM    7  C12 UNL     1     -16.553 -50.934 -20.521  1.00  0.00     0.009 C 
HETATM    8  C13 UNL     1     -16.329 -52.384 -20.730  1.00  0.00     0.034 C 
HETATM    9  C14 UNL     1     -16.611 -52.850 -22.165  1.00  0.00    -0.030 C 
HETATM   10  C15 UNL     1     -16.016 -51.930 -23.190  1.00  0.00     0.016 C 
HETATM   11  C16 UNL     1     -18.113 -52.788 -22.321  1.00  0.00     0.037 C 
HETATM   12  C17 UNL     1     -18.725 -53.915 -22.995  1.00  0.00    -0.022 C 
HETATM   13  C18 UNL     1     -18.095 -54.970 -23.518  1.00  0.00    -0.068 C 
HETATM   14  C19 UNL     1     -18.882 -56.048 -24.181  1.00  0.00     0.113 C 
HETATM   15  C20 UNL     1     -18.155 -57.306 -24.395  1.00  0.00     0.130 C 
HETATM   16  O3  UNL     1     -18.768 -58.316 -24.750  1.00  0.00    -0.298 OA
HETATM   17  C21 UNL     1     -16.685 -57.435 -24.200  1.00  0.00     0.079 C 
HETATM   18  C22 UNL     1     -16.181 -56.477 -23.175  1.00  0.00     0.021 C 
HETATM   19  C23 UNL     1     -16.642 -55.045 -23.440  1.00  0.00    -0.016 C 
HETATM   20  C24 UNL     1     -16.070 -54.667 -24.775  1.00  0.00     0.020 C 
HETATM   21  C25 UNL     1     -16.125 -54.254 -22.273  1.00  0.00     0.009 C 
HETATM   22  C26 UNL     1     -14.645 -54.351 -22.121  1.00  0.00     0.041 C 
HETATM   23  C27 UNL     1     -14.043 -53.306 -21.245  1.00  0.00     0.156 C 
HETATM   24  C28 UNL     1     -15.057 -52.905 -20.163  1.00  0.00     0.115 C 
ENDROOT
BRANCH   1  25
HETATM   25  C6  UNL     1     -12.960 -50.077 -17.685  1.00  0.00     0.194 C 
HETATM   26  O1  UNL     1     -11.802 -50.334 -18.133  1.00  0.00    -0.289 OA
BRANCH  25  27
HETATM   27  C5  UNL     1     -13.100 -49.780 -16.259  1.00  0.00     0.138 C 
BRANCH  27  28
HETATM   28  N1  UNL     1     -13.518 -48.526 -15.812  1.00  0.00    -0.387 N 
HETATM   29  C4  UNL     1     -12.636 -47.996 -14.764  1.00  0.00     0.149 C 
BRANCH  28  30
HETATM   30  C2  UNL     1     -14.860 -48.180 -15.618  1.00  0.00     0.075 C 
HETATM   31  C1  UNL     1     -15.259 -47.224 -16.767  1.00  0.00     0.032 C 
HETATM   32  C3  UNL     1     -15.206 -47.474 -14.335  1.00  0.00     0.032 C 
ENDBRANCH  28  30
ENDBRANCH  27  28
ENDBRANCH  25  27
ENDBRANCH   1  25
BRANCH  24  33
HETATM   33  O5  UNL     1     -15.259 -54.066 -19.404  1.00  0.00    -0.384 OA
ATOM     34  H5  UNL     1     -15.696 -53.780 -18.611  1.00  0.00     0.210 HD
ENDBRANCH  24  33
BRANCH  23  35
HETATM   35  O4  UNL     1     -12.974 -53.889 -20.528  1.00  0.00    -0.392 OA
ATOM     36  H4  UNL     1     -13.335 -54.375 -19.796  1.00  0.00     0.210 HD
ENDBRANCH  23  35
TORSDOF 6
ENDMDL
MODEL 4
REMARK VINA RESULT: -7.770836583      1.158      1.487
REMARK  6 active torsions:
REMARK  status: ('A' for Active; 'I' for Inactive)
REMARK    1  A    between atoms: C2_2  and  N1_4 
REMARK    2  A    between atoms: N1_4  and  C5_6 
REMARK    3  A    between atoms: C5_6  and  C6_7 
REMARK    4  A    between atoms: C6_7  and  C7_9 
REMARK    5  A    between atoms: C27_31  and  O4_32 
REMARK    6  A    between atoms: C28_34  and  O5_35 
ROOT
HETATM    1  C7  UNL     1     -13.567 -50.108 -17.925  1.00  0.00     0.208 C 
HETATM    2  O2  UNL     1     -13.801 -50.490 -19.274  1.00  0.00    -0.368 OA
HETATM    3  C8  UNL     1     -14.211 -51.704 -18.836  1.00  0.00     0.171 C 
HETATM    4  C9  UNL     1     -14.577 -51.182 -17.513  1.00  0.00     0.019 C 
HETATM    5  C10 UNL     1     -14.126 -52.095 -16.403  1.00  0.00     0.021 C 
HETATM    6  C11 UNL     1     -15.974 -50.689 -17.367  1.00  0.00     0.015 C 
HETATM    7  C12 UNL     1     -16.685 -50.476 -18.705  1.00  0.00     0.009 C 
HETATM    8  C13 UNL     1     -16.675 -51.781 -19.407  1.00  0.00     0.034 C 
HETATM    9  C14 UNL     1     -17.551 -51.809 -20.667  1.00  0.00    -0.030 C 
HETATM   10  C15 UNL     1     -17.358 -50.592 -21.522  1.00  0.00     0.016 C 
HETATM   11  C16 UNL     1     -18.978 -51.786 -20.167  1.00  0.00     0.037 C 
HETATM   12  C17 UNL     1     -19.895 -52.690 -20.830  1.00  0.00    -0.022 C 
HETATM   13  C18 UNL     1     -19.615 -53.502 -21.852  1.00  0.00    -0.068 C 
HETATM   14  C19 UNL     1     -20.683 -54.372 -22.420  1.00  0.00     0.113 C 
HETATM   15  C20 UNL     1     -20.203 -55.466 -23.276  1.00  0.00     0.130 C 
HETATM   16  O3  UNL     1     -20.983 -56.355 -23.630  1.00  0.00    -0.298 OA
HETATM   17  C21 UNL     1     -18.796 -55.566 -23.749  1.00  0.00     0.079 C 
HETATM   18  C22 UNL     1     -17.847 -54.934 -22.789  1.00  0.00     0.021 C 
HETATM   19  C23 UNL     1     -18.266 -53.517 -22.404  1.00  0.00    -0.016 C 
HETATM   20  C24 UNL     1     -18.260 -52.724 -23.678  1.00  0.00     0.020 C 
HETATM   21  C25 UNL     1     -17.261 -53.086 -21.375  1.00  0.00     0.009 C 
HETATM   22  C26 UNL     1     -15.859 -53.142 -21.881  1.00  0.00     0.041 C 
HETATM   23  C27 UNL     1     -14.875 -52.378 -21.063  1.00  0.00     0.156 C 
HETATM   24  C28 UNL     1     -15.327 -52.377 -19.594  1.00  0.00     0.115 C 
ENDROOT
BRANCH   1  25
HETATM   25  C6  UNL     1     -12.194 -50.315 -17.481  1.00  0.00     0.194 C 
HETATM   26  O1  UNL     1     -11.358 -50.472 -18.421  1.00  0.00    -0.289 OA
BRANCH  25  27
HETATM   27  C5  UNL     1     -11.702 -50.357 -16.103  1.00  0.00     0.138 C 
BRANCH  27  28
HETATM   28  N1  UNL     1     -11.002 -49.287 -15.544  1.00  0.00    -0.387 N 
HETATM   29  C4  UNL     1      -9.756 -49.723 -14.902  1.00  0.00     0.149 C 
BRANCH  28  30
HETATM   30  C2  UNL     1     -11.618 -48.225 -14.870  1.00  0.00     0.075 C 
HETATM   31  C1  UNL     1     -11.134 -48.273 -13.402  1.00  0.00     0.032 C 
HETATM   32  C3  UNL     1     -13.122 -48.223 -14.825  1.00  0.00     0.032 C 
ENDBRANCH  28  30
ENDBRANCH  27  28
ENDBRANCH  25  27
ENDBRANCH   1  25
BRANCH  24  33
HETATM   33  O5  UNL     1     -15.289 -53.723 -19.201  1.00  0.00    -0.384 OA
ATOM     34  H5  UNL     1     -16.148 -53.907 -18.841  1.00  0.00     0.210 HD
ENDBRANCH  24  33
BRANCH  23  35
HETATM   35  O4  UNL     1     -13.654 -53.090 -21.056  1.00  0.00    -0.392 OA
ATOM     36  H4  UNL     1     -13.351 -53.154 -20.158  1.00  0.00     0.210 HD
ENDBRANCH  23  35
TORSDOF 6
ENDMDL
MODEL 5
REMARK VINA RESULT: -7.536980498      2.237      3.779
REMARK  6 active torsions:
REMARK  status: ('A' for Active; 'I' for Inactive)
REMARK    1  A    between atoms: C2_2  and  N1_4 
REMARK    2  A    between atoms: N1_4  and  C5_6 
REMARK    3  A    between atoms: C5_6  and  C6_7 
REMARK    4  A    between atoms: C6_7  and  C7_9 
REMARK    5  A    between atoms: C27_31  and  O4_32 
REMARK    6  A    between atoms: C28_34  and  O5_35 
ROOT
HETATM    1  C7  UNL     1     -13.493 -47.873 -15.830  1.00  0.00     0.208 C 
HETATM    2  O2  UNL     1     -13.126 -49.053 -16.533  1.00  0.00    -0.368 OA
HETATM    3  C8  UNL     1     -14.280 -49.629 -16.124  1.00  0.00     0.171 C 
HETATM    4  C9  UNL     1     -14.948 -48.333 -15.946  1.00  0.00     0.019 C 
HETATM    5  C10 UNL     1     -15.741 -48.280 -14.666  1.00  0.00     0.021 C 
HETATM    6  C11 UNL     1     -15.669 -47.800 -17.133  1.00  0.00     0.015 C 
HETATM    7  C12 UNL     1     -15.299 -48.510 -18.437  1.00  0.00     0.009 C 
HETATM    8  C13 UNL     1     -15.618 -49.945 -18.249  1.00  0.00     0.034 C 
HETATM    9  C14 UNL     1     -15.527 -50.770 -19.539  1.00  0.00    -0.030 C 
HETATM   10  C15 UNL     1     -14.287 -50.462 -20.326  1.00  0.00     0.016 C 
HETATM   11  C16 UNL     1     -16.710 -50.342 -20.376  1.00  0.00     0.037 C 
HETATM   12  C17 UNL     1     -17.437 -51.409 -21.036  1.00  0.00    -0.022 C 
HETATM   13  C18 UNL     1     -17.143 -52.710 -21.007  1.00  0.00    -0.068 C 
HETATM   14  C19 UNL     1     -18.000 -53.679 -21.746  1.00  0.00     0.113 C 
HETATM   15  C20 UNL     1     -17.817 -55.086 -21.366  1.00  0.00     0.130 C 
HETATM   16  O3  UNL     1     -18.611 -55.940 -21.771  1.00  0.00    -0.298 OA
HETATM   17  C21 UNL     1     -16.701 -55.552 -20.498  1.00  0.00     0.079 C 
HETATM   18  C22 UNL     1     -16.260 -54.488 -19.552  1.00  0.00     0.021 C 
HETATM   19  C23 UNL     1     -15.977 -53.163 -20.258  1.00  0.00    -0.016 C 
HETATM   20  C24 UNL     1     -14.863 -53.439 -21.225  1.00  0.00     0.020 C 
HETATM   21  C25 UNL     1     -15.644 -52.203 -19.152  1.00  0.00     0.009 C 
HETATM   22  C26 UNL     1     -14.491 -52.658 -18.322  1.00  0.00     0.041 C 
HETATM   23  C27 UNL     1     -13.880 -51.594 -17.477  1.00  0.00     0.156 C 
HETATM   24  C28 UNL     1     -14.961 -50.579 -17.076  1.00  0.00     0.115 C 
ENDROOT
BRANCH   1  25
HETATM   25  C6  UNL     1     -12.950 -47.796 -14.480  1.00  0.00     0.194 C 
HETATM   26  O1  UNL     1     -13.330 -46.784 -13.818  1.00  0.00    -0.289 OA
BRANCH  25  27
HETATM   27  C5  UNL     1     -12.039 -48.743 -13.833  1.00  0.00     0.138 C 
BRANCH  27  28
HETATM   28  N1  UNL     1     -10.661 -48.525 -13.801  1.00  0.00    -0.387 N 
HETATM   29  C4  UNL     1     -10.334 -47.154 -13.387  1.00  0.00     0.149 C 
BRANCH  28  30
HETATM   30  C2  UNL     1      -9.774 -49.029 -14.759  1.00  0.00     0.075 C 
HETATM   31  C1  UNL     1     -10.235 -50.466 -15.099  1.00  0.00     0.032 C 
HETATM   32  C3  UNL     1      -8.325 -49.127 -14.365  1.00  0.00     0.032 C 
ENDBRANCH  28  30
ENDBRANCH  27  28
ENDBRANCH  25  27
ENDBRANCH   1  25
BRANCH  24  33
HETATM   33  O5  UNL     1     -15.871 -51.306 -16.295  1.00  0.00    -0.384 OA
ATOM     34  H5  UNL     1     -15.921 -52.166 -16.696  1.00  0.00     0.210 HD
ENDBRANCH  24  33
BRANCH  23  35
HETATM   35  O4  UNL     1     -13.472 -52.177 -16.256  1.00  0.00    -0.392 OA
ATOM     36  H4  UNL     1     -12.956 -51.538 -15.778  1.00  0.00     0.210 HD
ENDBRANCH  23  35
TORSDOF 6
ENDMDL
