MODEL 1
REMARK VINA RESULT: -6.960081864      0.000      0.000
REMARK  8 active torsions:
REMARK  status: ('A' for Active; 'I' for Inactive)
REMARK    1  A    between atoms: C2_2  and  C3_3 
REMARK    2  A    between atoms: C3_3  and  O1_4 
REMARK    3  A    between atoms: O1_4  and  C4_5 
REMARK    4  A    between atoms: C4_5  and  C5_6 
REMARK    5  A    between atoms: C6_8  and  O3_9 
REMARK    6  A    between atoms: C17_22  and  C18_23 
REMARK    7  A    between atoms: C18_23  and  C19_25 
REMARK    8  A    between atoms: C20_26  and  C21_27 
ROOT
HETATM    1  C5  UNL     1     -18.823 -49.905 -20.079  1.00  0.00     0.153 A 
HETATM    2  O2  UNL     1     -18.918 -49.320 -21.333  1.00  0.00    -0.332 OA
HETATM    3  C6  UNL     1     -20.110 -49.950 -20.739  1.00  0.00     0.202 A 
HETATM    4  C7  UNL     1     -20.342 -51.311 -21.343  1.00  0.00     0.066 A 
HETATM    5  C8  UNL     1     -19.224 -51.994 -22.057  1.00  0.00     0.005 A 
HETATM    6  C9  UNL     1     -19.381 -53.168 -22.912  1.00  0.00     0.007 C 
HETATM    7  C10 UNL     1     -18.222 -54.086 -23.084  1.00  0.00     0.011 C 
HETATM    8  C11 UNL     1     -16.910 -53.486 -23.336  1.00  0.00    -0.029 C 
HETATM    9  C12 UNL     1     -16.908 -52.283 -24.237  1.00  0.00     0.016 C 
HETATM   10  C13 UNL     1     -15.961 -54.454 -24.090  1.00  0.00     0.017 C 
HETATM   11  C14 UNL     1     -14.644 -53.668 -23.926  1.00  0.00     0.080 C 
HETATM   12  C15 UNL     1     -14.891 -52.714 -22.766  1.00  0.00     0.136 C 
HETATM   13  O4  UNL     1     -14.208 -51.728 -22.611  1.00  0.00    -0.297 OA
HETATM   14  C16 UNL     1     -16.011 -53.352 -22.115  1.00  0.00     0.105 C 
HETATM   15  C17 UNL     1     -16.581 -52.950 -20.858  1.00  0.00     0.059 C 
HETATM   16  C25 UNL     1     -17.059 -51.589 -20.622  1.00  0.00     0.169 C 
HETATM   17  O6  UNL     1     -16.406 -50.637 -20.998  1.00  0.00    -0.292 OA
HETATM   18  C26 UNL     1     -18.349 -51.316 -19.922  1.00  0.00     0.112 C 
HETATM   19  C27 UNL     1     -19.378 -52.164 -20.616  1.00  0.00    -0.017 A 
HETATM   20  C28 UNL     1     -20.014 -53.328 -19.935  1.00  0.00     0.017 C 
ENDROOT
BRANCH  15  21
HETATM   21  C18 UNL     1     -15.780 -53.493 -19.728  1.00  0.00     0.236 C 
HETATM   22  O5  UNL     1     -15.801 -54.754 -19.478  1.00  0.00    -0.278 OA
BRANCH  21  23
HETATM   23  C19 UNL     1     -14.971 -52.654 -18.892  1.00  0.00    -0.023 C 
HETATM   24  C20 UNL     1     -14.275 -51.917 -18.200  1.00  0.00    -0.089 C 
BRANCH  24  25
HETATM   25  C21 UNL     1     -13.462 -51.049 -17.357  1.00  0.00     0.013 C 
HETATM   26  C22 UNL     1     -13.103 -49.807 -18.112  1.00  0.00     0.028 C 
HETATM   27  C23 UNL     1     -12.196 -51.733 -16.889  1.00  0.00     0.028 C 
HETATM   28  C24 UNL     1     -14.276 -50.705 -16.134  1.00  0.00     0.028 C 
ENDBRANCH  24  25
ENDBRANCH  21  23
ENDBRANCH  15  21
BRANCH   1  29
HETATM   29  C4  UNL     1     -18.688 -48.940 -18.919  1.00  0.00     0.212 C 
BRANCH  29  30
HETATM   30  O1  UNL     1     -17.735 -49.430 -18.006  1.00  0.00    -0.388 OA
BRANCH  30  31
HETATM   31  C3  UNL     1     -16.595 -48.650 -17.996  1.00  0.00     0.167 C 
BRANCH  31  32
HETATM   32  C2  UNL     1     -16.571 -47.859 -16.726  1.00  0.00     0.022 C 
HETATM   33  C1  UNL     1     -15.276 -47.120 -16.512  1.00  0.00     0.007 C 
ENDBRANCH  31  32
ENDBRANCH  30  31
ENDBRANCH  29  30
ENDBRANCH   1  29
BRANCH   3  34
HETATM   34  O3  UNL     1     -21.121 -49.048 -20.616  1.00  0.00    -0.362 OA
ATOM     35  H3  UNL     1     -21.698 -48.742 -21.306  1.00  0.00     0.213 HD
ENDBRANCH   3  34
TORSDOF 8
ENDMDL
MODEL 2
REMARK VINA RESULT: -6.796513927      2.006      3.261
REMARK  8 active torsions:
REMARK  status: ('A' for Active; 'I' for Inactive)
REMARK    1  A    between atoms: C2_2  and  C3_3 
REMARK    2  A    between atoms: C3_3  and  O1_4 
REMARK    3  A    between atoms: O1_4  and  C4_5 
REMARK    4  A    between atoms: C4_5  and  C5_6 
REMARK    5  A    between atoms: C6_8  and  O3_9 
REMARK    6  A    between atoms: C17_22  and  C18_23 
REMARK    7  A    between atoms: C18_23  and  C19_25 
REMARK    8  A    between atoms: C20_26  and  C21_27 
ROOT
HETATM    1  C5  UNL     1     -17.346 -50.111 -20.118  1.00  0.00     0.153 A 
HETATM    2  O2  UNL     1     -17.522 -49.392 -21.291  1.00  0.00    -0.332 OA
HETATM    3  C6  UNL     1     -18.695 -49.710 -20.458  1.00  0.00     0.202 A 
HETATM    4  C7  UNL     1     -19.455 -50.873 -21.044  1.00  0.00     0.066 A 
HETATM    5  C8  UNL     1     -18.779 -51.768 -22.026  1.00  0.00     0.005 A 
HETATM    6  C9  UNL     1     -19.466 -52.747 -22.866  1.00  0.00     0.007 C 
HETATM    7  C10 UNL     1     -18.708 -53.936 -23.341  1.00  0.00     0.011 C 
HETATM    8  C11 UNL     1     -17.360 -53.718 -23.871  1.00  0.00    -0.029 C 
HETATM    9  C12 UNL     1     -17.181 -52.477 -24.700  1.00  0.00     0.016 C 
HETATM   10  C13 UNL     1     -16.937 -54.832 -24.864  1.00  0.00     0.017 C 
HETATM   11  C14 UNL     1     -15.439 -54.483 -24.984  1.00  0.00     0.080 C 
HETATM   12  C15 UNL     1     -15.129 -53.629 -23.763  1.00  0.00     0.136 C 
HETATM   13  O4  UNL     1     -14.161 -52.906 -23.734  1.00  0.00    -0.297 OA
HETATM   14  C16 UNL     1     -16.226 -53.983 -22.892  1.00  0.00     0.105 C 
HETATM   15  C17 UNL     1     -16.364 -53.572 -21.521  1.00  0.00     0.059 C 
HETATM   16  C25 UNL     1     -16.341 -52.164 -21.127  1.00  0.00     0.169 C 
HETATM   17  O6  UNL     1     -15.523 -51.407 -21.608  1.00  0.00    -0.292 OA
HETATM   18  C26 UNL     1     -17.306 -51.608 -20.132  1.00  0.00     0.112 C 
HETATM   19  C27 UNL     1     -18.668 -52.041 -20.597  1.00  0.00    -0.017 A 
HETATM   20  C28 UNL     1     -19.469 -53.038 -19.832  1.00  0.00     0.017 C 
ENDROOT
BRANCH  15  21
HETATM   21  C18 UNL     1     -15.548 -54.443 -20.634  1.00  0.00     0.236 C 
HETATM   22  O5  UNL     1     -15.993 -54.770 -19.474  1.00  0.00    -0.278 OA
BRANCH  21  23
HETATM   23  C19 UNL     1     -14.260 -54.940 -21.026  1.00  0.00    -0.023 C 
HETATM   24  C20 UNL     1     -13.147 -55.339 -21.353  1.00  0.00    -0.089 C 
BRANCH  24  25
HETATM   25  C21 UNL     1     -11.832 -55.837 -21.737  1.00  0.00     0.013 C 
HETATM   26  C22 UNL     1     -11.616 -57.195 -21.146  1.00  0.00     0.028 C 
HETATM   27  C23 UNL     1     -10.720 -54.914 -21.290  1.00  0.00     0.028 C 
HETATM   28  C24 UNL     1     -11.791 -55.906 -23.244  1.00  0.00     0.028 C 
ENDBRANCH  24  25
ENDBRANCH  21  23
ENDBRANCH  15  21
BRANCH   1  29
HETATM   29  C4  UNL     1     -16.679 -49.358 -18.986  1.00  0.00     0.212 C 
BRANCH  29  30
HETATM   30  O1  UNL     1     -15.332 -49.112 -19.312  1.00  0.00    -0.388 OA
BRANCH  30  31
HETATM   31  C3  UNL     1     -14.474 -49.698 -18.401  1.00  0.00     0.167 C 
BRANCH  31  32
HETATM   32  C2  UNL     1     -13.352 -50.343 -19.151  1.00  0.00     0.022 C 
HETATM   33  C1  UNL     1     -13.282 -51.833 -18.946  1.00  0.00     0.007 C 
ENDBRANCH  31  32
ENDBRANCH  30  31
ENDBRANCH  29  30
ENDBRANCH   1  29
BRANCH   3  34
HETATM   34  O3  UNL     1     -19.330 -48.573 -20.066  1.00  0.00    -0.362 OA
ATOM     35  H3  UNL     1     -20.244 -48.354 -20.207  1.00  0.00     0.213 HD
ENDBRANCH   3  34
TORSDOF 8
ENDMDL
MODEL 3
REMARK VINA RESULT: -6.657266124      2.068      3.137
REMARK  8 active torsions:
REMARK  status: ('A' for Active; 'I' for Inactive)
REMARK    1  A    between atoms: C2_2  and  C3_3 
REMARK    2  A    between atoms: C3_3  and  O1_4 
REMARK    3  A    between atoms: O1_4  and  C4_5 
REMARK    4  A    between atoms: C4_5  and  C5_6 
REMARK    5  A    between atoms: C6_8  and  O3_9 
REMARK    6  A    between atoms: C17_22  and  C18_23 
REMARK    7  A    between atoms: C18_23  and  C19_25 
REMARK    8  A    between atoms: C20_26  and  C21_27 
ROOT
HETATM    1  C5  UNL     1     -17.208 -50.260 -20.073  1.00  0.00     0.153 A 
HETATM    2  O2  UNL     1     -17.345 -49.504 -21.228  1.00  0.00    -0.332 OA
HETATM    3  C6  UNL     1     -18.537 -49.795 -20.411  1.00  0.00     0.202 A 
HETATM    4  C7  UNL     1     -19.339 -50.911 -21.031  1.00  0.00     0.066 A 
HETATM    5  C8  UNL     1     -18.692 -51.808 -22.031  1.00  0.00     0.005 A 
HETATM    6  C9  UNL     1     -19.413 -52.737 -22.900  1.00  0.00     0.007 C 
HETATM    7  C10 UNL     1     -18.700 -53.944 -23.400  1.00  0.00     0.011 C 
HETATM    8  C11 UNL     1     -17.341 -53.767 -23.916  1.00  0.00    -0.029 C 
HETATM    9  C12 UNL     1     -17.105 -52.515 -24.712  1.00  0.00     0.016 C 
HETATM   10  C13 UNL     1     -16.955 -54.873 -24.934  1.00  0.00     0.017 C 
HETATM   11  C14 UNL     1     -15.444 -54.582 -25.036  1.00  0.00     0.080 C 
HETATM   12  C15 UNL     1     -15.108 -53.773 -23.791  1.00  0.00     0.136 C 
HETATM   13  O4  UNL     1     -14.112 -53.091 -23.737  1.00  0.00    -0.297 OA
HETATM   14  C16 UNL     1     -16.226 -54.103 -22.936  1.00  0.00     0.105 C 
HETATM   15  C17 UNL     1     -16.357 -53.721 -21.557  1.00  0.00     0.059 C 
HETATM   16  C25 UNL     1     -16.280 -52.326 -21.126  1.00  0.00     0.169 C 
HETATM   17  O6  UNL     1     -15.428 -51.591 -21.583  1.00  0.00    -0.292 OA
HETATM   18  C26 UNL     1     -17.228 -51.756 -20.125  1.00  0.00     0.112 C 
HETATM   19  C27 UNL     1     -18.603 -52.121 -20.609  1.00  0.00    -0.017 A 
HETATM   20  C28 UNL     1     -19.451 -53.104 -19.875  1.00  0.00     0.017 C 
ENDROOT
BRANCH  15  21
HETATM   21  C18 UNL     1     -15.583 -54.647 -20.686  1.00  0.00     0.236 C 
HETATM   22  O5  UNL     1     -16.094 -55.064 -19.584  1.00  0.00    -0.278 OA
BRANCH  21  23
HETATM   23  C19 UNL     1     -14.267 -55.100 -21.034  1.00  0.00    -0.023 C 
HETATM   24  C20 UNL     1     -13.151 -55.516 -21.329  1.00  0.00    -0.089 C 
BRANCH  24  25
HETATM   25  C21 UNL     1     -11.821 -55.990 -21.693  1.00  0.00     0.013 C 
HETATM   26  C22 UNL     1     -10.787 -55.058 -21.141  1.00  0.00     0.028 C 
HETATM   27  C23 UNL     1     -11.645 -56.101 -23.191  1.00  0.00     0.028 C 
HETATM   28  C24 UNL     1     -11.652 -57.371 -21.108  1.00  0.00     0.028 C 
ENDBRANCH  24  25
ENDBRANCH  21  23
ENDBRANCH  15  21
BRANCH   1  29
HETATM   29  C4  UNL     1     -16.519 -49.564 -18.917  1.00  0.00     0.212 C 
BRANCH  29  30
HETATM   30  O1  UNL     1     -15.250 -49.113 -19.326  1.00  0.00    -0.388 OA
BRANCH  30  31
HETATM   31  C3  UNL     1     -14.238 -49.837 -18.726  1.00  0.00     0.167 C 
BRANCH  31  32
HETATM   32  C2  UNL     1     -14.633 -50.126 -17.312  1.00  0.00     0.022 C 
HETATM   33  C1  UNL     1     -13.556 -49.792 -16.315  1.00  0.00     0.007 C 
ENDBRANCH  31  32
ENDBRANCH  30  31
ENDBRANCH  29  30
ENDBRANCH   1  29
BRANCH   3  34
HETATM   34  O3  UNL     1     -19.128 -48.644 -19.994  1.00  0.00    -0.362 OA
ATOM     35  H3  UNL     1     -19.635 -48.040 -20.524  1.00  0.00     0.213 HD
ENDBRANCH   3  34
TORSDOF 8
ENDMDL
MODEL 4
REMARK VINA RESULT: -6.615094495      0.993      1.644
REMARK  8 active torsions:
REMARK  status: ('A' for Active; 'I' for Inactive)
REMARK    1  A    between atoms: C2_2  and  C3_3 
REMARK    2  A    between atoms: C3_3  and  O1_4 
REMARK    3  A    between atoms: O1_4  and  C4_5 
REMARK    4  A    between atoms: C4_5  and  C5_6 
REMARK    5  A    between atoms: C6_8  and  O3_9 
REMARK    6  A    between atoms: C17_22  and  C18_23 
REMARK    7  A    between atoms: C18_23  and  C19_25 
REMARK    8  A    between atoms: C20_26  and  C21_27 
ROOT
HETATM    1  C5  UNL     1     -18.793 -49.858 -20.054  1.00  0.00     0.153 A 
HETATM    2  O2  UNL     1     -18.900 -49.284 -21.312  1.00  0.00    -0.332 OA
HETATM    3  C6  UNL     1     -20.090 -49.897 -20.695  1.00  0.00     0.202 A 
HETATM    4  C7  UNL     1     -20.342 -51.262 -21.283  1.00  0.00     0.066 A 
HETATM    5  C8  UNL     1     -19.241 -51.961 -22.006  1.00  0.00     0.005 A 
HETATM    6  C9  UNL     1     -19.421 -53.142 -22.848  1.00  0.00     0.007 C 
HETATM    7  C10 UNL     1     -18.273 -54.072 -23.027  1.00  0.00     0.011 C 
HETATM    8  C11 UNL     1     -16.959 -53.487 -23.304  1.00  0.00    -0.029 C 
HETATM    9  C12 UNL     1     -16.958 -52.293 -24.216  1.00  0.00     0.016 C 
HETATM   10  C13 UNL     1     -16.030 -54.471 -24.062  1.00  0.00     0.017 C 
HETATM   11  C14 UNL     1     -14.703 -53.696 -23.924  1.00  0.00     0.080 C 
HETATM   12  C15 UNL     1     -14.925 -52.729 -22.769  1.00  0.00     0.136 C 
HETATM   13  O4  UNL     1     -14.231 -51.748 -22.633  1.00  0.00    -0.297 OA
HETATM   14  C16 UNL     1     -16.042 -53.351 -22.097  1.00  0.00     0.105 C 
HETATM   15  C17 UNL     1     -16.590 -52.931 -20.836  1.00  0.00     0.059 C 
HETATM   16  C25 UNL     1     -17.053 -51.564 -20.606  1.00  0.00     0.169 C 
HETATM   17  O6  UNL     1     -16.396 -50.621 -21.000  1.00  0.00    -0.292 OA
HETATM   18  C26 UNL     1     -18.330 -51.272 -19.890  1.00  0.00     0.112 C 
HETATM   19  C27 UNL     1     -19.377 -52.117 -20.561  1.00  0.00    -0.017 A 
HETATM   20  C28 UNL     1     -20.013 -53.269 -19.861  1.00  0.00     0.017 C 
ENDROOT
BRANCH  15  21
HETATM   21  C18 UNL     1     -15.778 -53.472 -19.712  1.00  0.00     0.236 C 
HETATM   22  O5  UNL     1     -15.776 -54.735 -19.476  1.00  0.00    -0.278 OA
BRANCH  21  23
HETATM   23  C19 UNL     1     -14.985 -52.627 -18.868  1.00  0.00    -0.023 C 
HETATM   24  C20 UNL     1     -14.289 -51.896 -18.169  1.00  0.00    -0.089 C 
BRANCH  24  25
HETATM   25  C21 UNL     1     -13.483 -51.024 -17.323  1.00  0.00     0.013 C 
HETATM   26  C22 UNL     1     -13.001 -49.853 -18.122  1.00  0.00     0.028 C 
HETATM   27  C23 UNL     1     -12.295 -51.747 -16.728  1.00  0.00     0.028 C 
HETATM   28  C24 UNL     1     -14.355 -50.560 -16.182  1.00  0.00     0.028 C 
ENDBRANCH  24  25
ENDBRANCH  21  23
ENDBRANCH  15  21
BRANCH   1  29
HETATM   29  C4  UNL     1     -18.632 -48.884 -18.905  1.00  0.00     0.212 C 
BRANCH  29  30
HETATM   30  O1  UNL     1     -19.376 -49.334 -17.797  1.00  0.00    -0.388 OA
BRANCH  30  31
HETATM   31  C3  UNL     1     -20.096 -48.307 -17.219  1.00  0.00     0.167 C 
BRANCH  31  32
HETATM   32  C2  UNL     1     -21.475 -48.803 -16.917  1.00  0.00     0.022 C 
HETATM   33  C1  UNL     1     -21.647 -50.275 -17.187  1.00  0.00     0.007 C 
ENDBRANCH  31  32
ENDBRANCH  30  31
ENDBRANCH  29  30
ENDBRANCH   1  29
BRANCH   3  34
HETATM   34  O3  UNL     1     -21.090 -48.985 -20.566  1.00  0.00    -0.362 OA
ATOM     35  H3  UNL     1     -21.418 -48.610 -19.757  1.00  0.00     0.213 HD
ENDBRANCH   3  34
TORSDOF 8
ENDMDL
MODEL 5
REMARK VINA RESULT: -6.605727098      2.375      4.360
REMARK  8 active torsions:
REMARK  status: ('A' for Active; 'I' for Inactive)
REMARK    1  A    between atoms: C2_2  and  C3_3 
REMARK    2  A    between atoms: C3_3  and  O1_4 
REMARK    3  A    between atoms: O1_4  and  C4_5 
REMARK    4  A    between atoms: C4_5  and  C5_6 
REMARK    5  A    between atoms: C6_8  and  O3_9 
REMARK    6  A    between atoms: C17_22  and  C18_23 
REMARK    7  A    between atoms: C18_23  and  C19_25 
REMARK    8  A    between atoms: C20_26  and  C21_27 
ROOT
HETATM    1  C5  UNL     1     -15.753 -51.418 -19.101  1.00  0.00     0.153 A 
HETATM    2  O2  UNL     1     -15.074 -50.522 -19.914  1.00  0.00    -0.332 OA
HETATM    3  C6  UNL     1     -16.526 -50.361 -19.719  1.00  0.00     0.202 A 
HETATM    4  C7  UNL     1     -17.278 -50.892 -20.913  1.00  0.00     0.066 A 
HETATM    5  C8  UNL     1     -16.593 -51.827 -21.851  1.00  0.00     0.005 A 
HETATM    6  C9  UNL     1     -17.100 -52.194 -23.172  1.00  0.00     0.007 C 
HETATM    7  C10 UNL     1     -16.698 -53.505 -23.751  1.00  0.00     0.011 C 
HETATM    8  C11 UNL     1     -15.287 -53.886 -23.660  1.00  0.00    -0.029 C 
HETATM    9  C12 UNL     1     -14.298 -52.773 -23.862  1.00  0.00     0.016 C 
HETATM   10  C13 UNL     1     -14.879 -54.885 -24.775  1.00  0.00     0.017 C 
HETATM   11  C14 UNL     1     -13.495 -55.294 -24.230  1.00  0.00     0.080 C 
HETATM   12  C15 UNL     1     -13.519 -54.914 -22.756  1.00  0.00     0.136 C 
HETATM   13  O4  UNL     1     -12.495 -54.770 -22.131  1.00  0.00    -0.297 OA
HETATM   14  C16 UNL     1     -14.941 -54.827 -22.515  1.00  0.00     0.105 C 
HETATM   15  C17 UNL     1     -15.555 -54.633 -21.230  1.00  0.00     0.059 C 
HETATM   16  C25 UNL     1     -15.213 -53.502 -20.369  1.00  0.00     0.169 C 
HETATM   17  O6  UNL     1     -14.054 -53.171 -20.224  1.00  0.00    -0.292 OA
HETATM   18  C26 UNL     1     -16.257 -52.719 -19.644  1.00  0.00     0.112 C 
HETATM   19  C27 UNL     1     -17.284 -52.351 -20.677  1.00  0.00    -0.017 A 
HETATM   20  C28 UNL     1     -18.652 -52.943 -20.659  1.00  0.00     0.017 C 
ENDROOT
BRANCH  15  21
HETATM   21  C18 UNL     1     -15.639 -55.924 -20.495  1.00  0.00     0.236 C 
HETATM   22  O5  UNL     1     -14.633 -56.724 -20.491  1.00  0.00    -0.278 OA
BRANCH  21  23
HETATM   23  C19 UNL     1     -16.819 -56.321 -19.781  1.00  0.00    -0.023 C 
HETATM   24  C20 UNL     1     -17.813 -56.684 -19.161  1.00  0.00    -0.089 C 
BRANCH  24  25
HETATM   25  C21 UNL     1     -19.002 -57.092 -18.421  1.00  0.00     0.013 C 
HETATM   26  C22 UNL     1     -19.875 -55.901 -18.176  1.00  0.00     0.028 C 
HETATM   27  C23 UNL     1     -18.656 -57.739 -17.099  1.00  0.00     0.028 C 
HETATM   28  C24 UNL     1     -19.730 -58.117 -19.256  1.00  0.00     0.028 C 
ENDBRANCH  24  25
ENDBRANCH  21  23
ENDBRANCH  15  21
BRANCH   1  29
HETATM   29  C4  UNL     1     -15.485 -51.284 -17.617  1.00  0.00     0.212 C 
BRANCH  29  30
HETATM   30  O1  UNL     1     -14.519 -52.230 -17.224  1.00  0.00    -0.388 OA
BRANCH  30  31
HETATM   31  C3  UNL     1     -13.285 -51.642 -17.026  1.00  0.00     0.167 C 
BRANCH  31  32
HETATM   32  C2  UNL     1     -13.491 -50.311 -16.374  1.00  0.00     0.022 C 
HETATM   33  C1  UNL     1     -12.204 -49.648 -15.961  1.00  0.00     0.007 C 
ENDBRANCH  31  32
ENDBRANCH  30  31
ENDBRANCH  29  30
ENDBRANCH   1  29
BRANCH   3  34
HETATM   34  O3  UNL     1     -16.809 -49.142 -19.188  1.00  0.00    -0.362 OA
ATOM     35  H3  UNL     1     -16.910 -48.324 -19.662  1.00  0.00     0.213 HD
ENDBRANCH   3  34
TORSDOF 8
ENDMDL
