MODEL 1
REMARK VINA RESULT: -8.559158301      0.000      0.000
REMARK  7 active torsions:
REMARK  status: ('A' for Active; 'I' for Inactive)
REMARK    1  A    between atoms: C2_2  and  O1_3 
REMARK    2  A    between atoms: C2_2  and  C3_5 
REMARK    3  A    between atoms: C3_5  and  N1_6 
REMARK    4  A    between atoms: C6_9  and  C7_10 
REMARK    5  A    between atoms: C7_10  and  O3_12 
REMARK    6  A    between atoms: O3_12  and  C8_13 
REMARK    7  A    between atoms: C14_20  and  O5_21 
ROOT
HETATM    1  C8  UNL     1     -15.892 -50.710 -19.221  1.00  0.00     0.137 C 
HETATM    2  C9  UNL     1     -16.751 -49.453 -19.159  1.00  0.00     0.043 C 
HETATM    3  C10 UNL     1     -18.210 -49.762 -19.079  1.00  0.00     0.062 C 
HETATM    4  C11 UNL     1     -18.973 -48.821 -20.006  1.00  0.00     0.093 A 
HETATM    5  C12 UNL     1     -20.181 -48.114 -19.537  1.00  0.00     0.049 C 
HETATM    6  O4  UNL     1     -18.547 -48.821 -21.314  1.00  0.00    -0.366 OA
HETATM    7  C13 UNL     1     -19.185 -49.982 -20.987  1.00  0.00     0.192 A 
HETATM    8  C14 UNL     1     -18.706 -50.884 -19.877  1.00  0.00     0.097 C 
HETATM    9  C15 UNL     1     -17.757 -51.971 -20.257  1.00  0.00     0.030 C 
HETATM   10  C16 UNL     1     -18.211 -52.577 -21.566  1.00  0.00     0.009 C 
HETATM   11  C17 UNL     1     -17.089 -52.761 -22.541  1.00  0.00     0.010 C 
HETATM   12  C18 UNL     1     -15.923 -53.449 -21.865  1.00  0.00    -0.037 C 
HETATM   13  C19 UNL     1     -16.346 -54.874 -21.571  1.00  0.00     0.016 C 
HETATM   14  C20 UNL     1     -14.740 -53.513 -22.773  1.00  0.00    -0.010 C 
HETATM   15  C21 UNL     1     -14.607 -52.314 -23.684  1.00  0.00     0.011 C 
HETATM   16  C22 UNL     1     -13.587 -53.480 -21.809  1.00  0.00     0.005 C 
HETATM   17  C23 UNL     1     -14.013 -52.363 -20.876  1.00  0.00     0.006 C 
HETATM   18  C24 UNL     1     -15.465 -52.724 -20.619  1.00  0.00     0.001 C 
HETATM   19  C25 UNL     1     -16.333 -51.541 -20.392  1.00  0.00     0.027 C 
ENDROOT
BRANCH   1  20
HETATM   20  O3  UNL     1     -15.926 -51.367 -17.984  1.00  0.00    -0.315 OA
BRANCH  20  21
HETATM   21  C7  UNL     1     -15.065 -51.021 -16.953  1.00  0.00     0.263 C 
HETATM   22  O2  UNL     1     -15.166 -51.653 -15.875  1.00  0.00    -0.265 OA
BRANCH  21  23
HETATM   23  C6  UNL     1     -14.054 -49.960 -17.076  1.00  0.00     0.092 C 
HETATM   24  C5  UNL     1     -12.750 -50.549 -16.516  1.00  0.00     0.045 C 
HETATM   25  C4  UNL     1     -11.814 -49.419 -16.047  1.00  0.00     0.273 C 
HETATM   26  N1  UNL     1     -12.344 -48.846 -14.875  1.00  0.00     0.091 N 
HETATM   27  C28 UNL     1     -13.808 -48.888 -14.843  1.00  0.00     0.277 C 
HETATM   28  C26 UNL     1     -14.345 -48.748 -16.262  1.00  0.00     0.023 C 
HETATM   29  C27 UNL     1     -15.781 -48.335 -16.189  1.00  0.00     0.012 C 
BRANCH  26  30
HETATM   30  C3  UNL     1     -11.832 -47.603 -14.466  1.00  0.00     0.303 C 
BRANCH  30  31
HETATM   31  C2  UNL     1     -10.709 -47.695 -13.482  1.00  0.00     0.142 C 
HETATM   32  C1  UNL     1      -9.322 -47.527 -14.034  1.00  0.00     0.041 C 
BRANCH  31  33
HETATM   33  O1  UNL     1     -10.837 -46.623 -12.538  1.00  0.00    -0.394 OA
ATOM     34  H1  UNL     1     -11.581 -46.126 -12.856  1.00  0.00     0.210 HD
ENDBRANCH  31  33
ENDBRANCH  30  31
ENDBRANCH  26  30
ENDBRANCH  21  23
ENDBRANCH  20  21
ENDBRANCH   1  20
BRANCH   8  35
HETATM   35  O5  UNL     1     -19.841 -51.470 -19.265  1.00  0.00    -0.386 OA
ATOM     36  H5  UNL     1     -20.609 -50.926 -19.391  1.00  0.00     0.210 HD
ENDBRANCH   8  35
TORSDOF 7
ENDMDL
MODEL 2
REMARK VINA RESULT: -8.415687755      1.345      1.436
REMARK  7 active torsions:
REMARK  status: ('A' for Active; 'I' for Inactive)
REMARK    1  A    between atoms: C2_2  and  O1_3 
REMARK    2  A    between atoms: C2_2  and  C3_5 
REMARK    3  A    between atoms: C3_5  and  N1_6 
REMARK    4  A    between atoms: C6_9  and  C7_10 
REMARK    5  A    between atoms: C7_10  and  O3_12 
REMARK    6  A    between atoms: O3_12  and  C8_13 
REMARK    7  A    between atoms: C14_20  and  O5_21 
ROOT
HETATM    1  C8  UNL     1     -16.489 -50.640 -19.353  1.00  0.00     0.137 C 
HETATM    2  C9  UNL     1     -17.259 -49.352 -19.083  1.00  0.00     0.043 C 
HETATM    3  C10 UNL     1     -18.706 -49.598 -18.809  1.00  0.00     0.062 C 
HETATM    4  C11 UNL     1     -19.540 -48.559 -19.550  1.00  0.00     0.093 A 
HETATM    5  C12 UNL     1     -20.626 -47.833 -18.863  1.00  0.00     0.049 C 
HETATM    6  O4  UNL     1     -19.308 -48.483 -20.903  1.00  0.00    -0.366 OA
HETATM    7  C13 UNL     1     -19.956 -49.634 -20.563  1.00  0.00     0.192 A 
HETATM    8  C14 UNL     1     -19.374 -50.635 -19.596  1.00  0.00     0.097 C 
HETATM    9  C15 UNL     1     -18.553 -51.735 -20.182  1.00  0.00     0.030 C 
HETATM   10  C16 UNL     1     -19.224 -52.223 -21.446  1.00  0.00     0.009 C 
HETATM   11  C17 UNL     1     -18.266 -52.387 -22.586  1.00  0.00     0.010 C 
HETATM   12  C18 UNL     1     -17.056 -53.176 -22.136  1.00  0.00    -0.037 C 
HETATM   13  C19 UNL     1     -17.512 -54.597 -21.876  1.00  0.00     0.016 C 
HETATM   14  C20 UNL     1     -16.021 -53.228 -23.210  1.00  0.00    -0.010 C 
HETATM   15  C21 UNL     1     -15.953 -51.974 -24.051  1.00  0.00     0.011 C 
HETATM   16  C22 UNL     1     -14.742 -53.319 -22.427  1.00  0.00     0.005 C 
HETATM   17  C23 UNL     1     -14.965 -52.254 -21.371  1.00  0.00     0.006 C 
HETATM   18  C24 UNL     1     -16.383 -52.565 -20.927  1.00  0.00     0.001 C 
HETATM   19  C25 UNL     1     -17.141 -51.363 -20.497  1.00  0.00     0.027 C 
ENDROOT
BRANCH   1  20
HETATM   20  O3  UNL     1     -16.382 -51.383 -18.170  1.00  0.00    -0.315 OA
BRANCH  20  21
HETATM   21  C7  UNL     1     -15.327 -51.198 -17.289  1.00  0.00     0.263 C 
HETATM   22  O2  UNL     1     -15.476 -51.599 -16.111  1.00  0.00    -0.265 OA
BRANCH  21  23
HETATM   23  C6  UNL     1     -14.060 -50.561 -17.679  1.00  0.00     0.092 C 
HETATM   24  C5  UNL     1     -12.946 -51.523 -17.235  1.00  0.00     0.045 C 
HETATM   25  C4  UNL     1     -11.626 -50.755 -17.041  1.00  0.00     0.273 C 
HETATM   26  N1  UNL     1     -11.728 -49.954 -15.888  1.00  0.00     0.091 N 
HETATM   27  C28 UNL     1     -13.097 -49.487 -15.651  1.00  0.00     0.277 C 
HETATM   28  C26 UNL     1     -13.792 -49.270 -16.989  1.00  0.00     0.023 C 
HETATM   29  C27 UNL     1     -14.977 -48.384 -16.771  1.00  0.00     0.012 C 
BRANCH  26  30
HETATM   30  C3  UNL     1     -10.775 -48.939 -15.709  1.00  0.00     0.303 C 
BRANCH  30  31
HETATM   31  C2  UNL     1      -9.817 -49.186 -14.587  1.00  0.00     0.142 C 
HETATM   32  C1  UNL     1     -10.381 -49.849 -13.361  1.00  0.00     0.041 C 
BRANCH  31  33
HETATM   33  O1  UNL     1      -8.807 -50.099 -15.038  1.00  0.00    -0.394 OA
ATOM     34  H1  UNL     1      -8.502 -49.717 -15.852  1.00  0.00     0.210 HD
ENDBRANCH  31  33
ENDBRANCH  30  31
ENDBRANCH  26  30
ENDBRANCH  21  23
ENDBRANCH  20  21
ENDBRANCH   1  20
BRANCH   8  35
HETATM   35  O5  UNL     1     -20.440 -51.211 -18.863  1.00  0.00    -0.386 OA
ATOM     36  H5  UNL     1     -20.623 -52.091 -19.171  1.00  0.00     0.210 HD
ENDBRANCH   8  35
TORSDOF 7
ENDMDL
MODEL 3
REMARK VINA RESULT: -8.243602688      1.568      2.130
REMARK  7 active torsions:
REMARK  status: ('A' for Active; 'I' for Inactive)
REMARK    1  A    between atoms: C2_2  and  O1_3 
REMARK    2  A    between atoms: C2_2  and  C3_5 
REMARK    3  A    between atoms: C3_5  and  N1_6 
REMARK    4  A    between atoms: C6_9  and  C7_10 
REMARK    5  A    between atoms: C7_10  and  O3_12 
REMARK    6  A    between atoms: O3_12  and  C8_13 
REMARK    7  A    between atoms: C14_20  and  O5_21 
ROOT
HETATM    1  C8  UNL     1     -16.538 -50.858 -20.221  1.00  0.00     0.137 C 
HETATM    2  C9  UNL     1     -17.899 -50.254 -20.546  1.00  0.00     0.043 C 
HETATM    3  C10 UNL     1     -19.030 -51.100 -20.061  1.00  0.00     0.062 C 
HETATM    4  C11 UNL     1     -20.108 -51.162 -21.137  1.00  0.00     0.093 A 
HETATM    5  C12 UNL     1     -21.528 -50.939 -20.799  1.00  0.00     0.049 C 
HETATM    6  O4  UNL     1     -19.675 -51.590 -22.370  1.00  0.00    -0.366 OA
HETATM    7  C13 UNL     1     -19.688 -52.603 -21.456  1.00  0.00     0.192 A 
HETATM    8  C14 UNL     1     -18.885 -52.551 -20.180  1.00  0.00     0.097 C 
HETATM    9  C15 UNL     1     -17.513 -53.136 -20.226  1.00  0.00     0.030 C 
HETATM   10  C16 UNL     1     -17.558 -54.417 -21.027  1.00  0.00     0.009 C 
HETATM   11  C17 UNL     1     -16.442 -54.520 -22.022  1.00  0.00     0.010 C 
HETATM   12  C18 UNL     1     -15.122 -54.206 -21.353  1.00  0.00    -0.037 C 
HETATM   13  C19 UNL     1     -14.818 -55.339 -20.394  1.00  0.00     0.016 C 
HETATM   14  C20 UNL     1     -14.014 -54.157 -22.352  1.00  0.00    -0.010 C 
HETATM   15  C21 UNL     1     -14.434 -53.616 -23.700  1.00  0.00     0.011 C 
HETATM   16  C22 UNL     1     -13.066 -53.164 -21.740  1.00  0.00     0.005 C 
HETATM   17  C23 UNL     1     -14.020 -52.062 -21.322  1.00  0.00     0.006 C 
HETATM   18  C24 UNL     1     -15.128 -52.861 -20.659  1.00  0.00     0.001 C 
HETATM   19  C25 UNL     1     -16.469 -52.240 -20.805  1.00  0.00     0.027 C 
ENDROOT
BRANCH   1  20
HETATM   20  O3  UNL     1     -16.309 -50.789 -18.840  1.00  0.00    -0.315 OA
BRANCH  20  21
HETATM   21  C7  UNL     1     -15.428 -49.865 -18.296  1.00  0.00     0.263 C 
HETATM   22  O2  UNL     1     -14.959 -48.989 -19.060  1.00  0.00    -0.265 OA
BRANCH  21  23
HETATM   23  C6  UNL     1     -15.035 -49.872 -16.879  1.00  0.00     0.092 C 
HETATM   24  C5  UNL     1     -14.650 -48.424 -16.537  1.00  0.00     0.045 C 
HETATM   25  C4  UNL     1     -13.694 -48.398 -15.330  1.00  0.00     0.273 C 
HETATM   26  N1  UNL     1     -12.439 -48.894 -15.731  1.00  0.00     0.091 N 
HETATM   27  C28 UNL     1     -12.548 -49.906 -16.785  1.00  0.00     0.277 C 
HETATM   28  C26 UNL     1     -13.833 -50.700 -16.588  1.00  0.00     0.023 C 
HETATM   29  C27 UNL     1     -13.721 -51.984 -17.347  1.00  0.00     0.012 C 
BRANCH  26  30
HETATM   30  C3  UNL     1     -11.528 -49.259 -14.726  1.00  0.00     0.303 C 
BRANCH  30  31
HETATM   31  C2  UNL     1     -10.399 -48.295 -14.541  1.00  0.00     0.142 C 
HETATM   32  C1  UNL     1     -10.567 -47.271 -13.454  1.00  0.00     0.041 C 
BRANCH  31  33
HETATM   33  O1  UNL     1      -9.230 -49.028 -14.147  1.00  0.00    -0.394 OA
ATOM     34  H1  UNL     1      -9.307 -49.850 -14.616  1.00  0.00     0.210 HD
ENDBRANCH  31  33
ENDBRANCH  30  31
ENDBRANCH  26  30
ENDBRANCH  21  23
ENDBRANCH  20  21
ENDBRANCH   1  20
BRANCH   8  35
HETATM   35  O5  UNL     1     -19.624 -53.213 -19.168  1.00  0.00    -0.386 OA
ATOM     36  H5  UNL     1     -20.557 -53.105 -19.309  1.00  0.00     0.210 HD
ENDBRANCH   8  35
TORSDOF 7
ENDMDL
MODEL 4
REMARK VINA RESULT: -8.234694605      1.689      4.616
REMARK  7 active torsions:
REMARK  status: ('A' for Active; 'I' for Inactive)
REMARK    1  A    between atoms: C2_2  and  O1_3 
REMARK    2  A    between atoms: C2_2  and  C3_5 
REMARK    3  A    between atoms: C3_5  and  N1_6 
REMARK    4  A    between atoms: C6_9  and  C7_10 
REMARK    5  A    between atoms: C7_10  and  O3_12 
REMARK    6  A    between atoms: O3_12  and  C8_13 
REMARK    7  A    between atoms: C14_20  and  O5_21 
ROOT
HETATM    1  C8  UNL     1     -16.515 -50.842 -18.624  1.00  0.00     0.137 C 
HETATM    2  C9  UNL     1     -16.126 -52.266 -19.005  1.00  0.00     0.043 C 
HETATM    3  C10 UNL     1     -16.168 -52.495 -20.480  1.00  0.00     0.062 C 
HETATM    4  C11 UNL     1     -16.813 -53.848 -20.759  1.00  0.00     0.093 A 
HETATM    5  C12 UNL     1     -16.194 -54.801 -21.701  1.00  0.00     0.049 C 
HETATM    6  O4  UNL     1     -18.059 -54.023 -20.204  1.00  0.00    -0.366 OA
HETATM    7  C13 UNL     1     -18.083 -53.129 -21.234  1.00  0.00     0.192 A 
HETATM    8  C14 UNL     1     -17.257 -51.867 -21.228  1.00  0.00     0.097 C 
HETATM    9  C15 UNL     1     -17.903 -50.644 -20.668  1.00  0.00     0.030 C 
HETATM   10  C16 UNL     1     -19.339 -50.593 -21.140  1.00  0.00     0.009 C 
HETATM   11  C17 UNL     1     -20.301 -50.268 -20.039  1.00  0.00     0.010 C 
HETATM   12  C18 UNL     1     -19.817 -49.059 -19.268  1.00  0.00    -0.037 C 
HETATM   13  C19 UNL     1     -19.940 -47.858 -20.184  1.00  0.00     0.016 C 
HETATM   14  C20 UNL     1     -20.679 -48.804 -18.077  1.00  0.00    -0.010 C 
HETATM   15  C21 UNL     1     -21.217 -50.061 -17.434  1.00  0.00     0.011 C 
HETATM   16  C22 UNL     1     -19.719 -48.174 -17.108  1.00  0.00     0.005 C 
HETATM   17  C23 UNL     1     -18.521 -49.096 -17.236  1.00  0.00     0.006 C 
HETATM   18  C24 UNL     1     -18.409 -49.231 -18.744  1.00  0.00     0.001 C 
HETATM   19  C25 UNL     1     -17.880 -50.550 -19.178  1.00  0.00     0.027 C 
ENDROOT
BRANCH   1  20
HETATM   20  O3  UNL     1     -15.511 -49.953 -19.030  1.00  0.00    -0.315 OA
BRANCH  20  21
HETATM   21  C7  UNL     1     -14.982 -49.009 -18.161  1.00  0.00     0.263 C 
HETATM   22  O2  UNL     1     -14.595 -47.922 -18.651  1.00  0.00    -0.265 OA
BRANCH  21  23
HETATM   23  C6  UNL     1     -14.863 -49.232 -16.713  1.00  0.00     0.092 C 
HETATM   24  C5  UNL     1     -14.819 -47.836 -16.071  1.00  0.00     0.045 C 
HETATM   25  C4  UNL     1     -14.124 -47.904 -14.698  1.00  0.00     0.273 C 
HETATM   26  N1  UNL     1     -12.748 -48.124 -14.894  1.00  0.00     0.091 N 
HETATM   27  C28 UNL     1     -12.472 -48.919 -16.094  1.00  0.00     0.277 C 
HETATM   28  C26 UNL     1     -13.605 -49.915 -16.306  1.00  0.00     0.023 C 
HETATM   29  C27 UNL     1     -13.122 -50.998 -17.218  1.00  0.00     0.012 C 
BRANCH  26  30
HETATM   30  C3  UNL     1     -11.987 -48.539 -13.788  1.00  0.00     0.303 C 
BRANCH  30  31
HETATM   31  C2  UNL     1     -10.965 -47.543 -13.337  1.00  0.00     0.142 C 
HETATM   32  C1  UNL     1      -9.664 -47.534 -14.090  1.00  0.00     0.041 C 
BRANCH  31  33
HETATM   33  O1  UNL     1     -11.490 -46.223 -13.539  1.00  0.00    -0.394 OA
ATOM     34  H1  UNL     1     -11.821 -45.976 -12.684  1.00  0.00     0.210 HD
ENDBRANCH  31  33
ENDBRANCH  30  31
ENDBRANCH  26  30
ENDBRANCH  21  23
ENDBRANCH  20  21
ENDBRANCH   1  20
BRANCH   8  35
HETATM   35  O5  UNL     1     -16.859 -51.596 -22.561  1.00  0.00    -0.386 OA
ATOM     36  H5  UNL     1     -17.613 -51.561 -23.136  1.00  0.00     0.210 HD
ENDBRANCH   8  35
TORSDOF 7
ENDMDL
MODEL 5
REMARK VINA RESULT: -8.131955515      1.860      4.956
REMARK  7 active torsions:
REMARK  status: ('A' for Active; 'I' for Inactive)
REMARK    1  A    between atoms: C2_2  and  O1_3 
REMARK    2  A    between atoms: C2_2  and  C3_5 
REMARK    3  A    between atoms: C3_5  and  N1_6 
REMARK    4  A    between atoms: C6_9  and  C7_10 
REMARK    5  A    between atoms: C7_10  and  O3_12 
REMARK    6  A    between atoms: O3_12  and  C8_13 
REMARK    7  A    between atoms: C14_20  and  O5_21 
ROOT
HETATM    1  C8  UNL     1     -16.969 -49.810 -17.936  1.00  0.00     0.137 C 
HETATM    2  C9  UNL     1     -16.371 -51.180 -18.239  1.00  0.00     0.043 C 
HETATM    3  C10 UNL     1     -16.252 -51.439 -19.705  1.00  0.00     0.062 C 
HETATM    4  C11 UNL     1     -16.695 -52.869 -19.998  1.00  0.00     0.093 A 
HETATM    5  C12 UNL     1     -15.880 -53.753 -20.854  1.00  0.00     0.049 C 
HETATM    6  O4  UNL     1     -17.954 -53.192 -19.547  1.00  0.00    -0.366 OA
HETATM    7  C13 UNL     1     -17.998 -52.327 -20.601  1.00  0.00     0.192 A 
HETATM    8  C14 UNL     1     -17.341 -50.970 -20.562  1.00  0.00     0.097 C 
HETATM    9  C15 UNL     1     -18.183 -49.829 -20.097  1.00  0.00     0.030 C 
HETATM   10  C16 UNL     1     -19.566 -49.971 -20.691  1.00  0.00     0.009 C 
HETATM   11  C17 UNL     1     -20.655 -49.752 -19.687  1.00  0.00     0.010 C 
HETATM   12  C18 UNL     1     -20.398 -48.476 -18.915  1.00  0.00    -0.037 C 
HETATM   13  C19 UNL     1     -20.589 -47.319 -19.873  1.00  0.00     0.016 C 
HETATM   14  C20 UNL     1     -21.388 -48.311 -17.810  1.00  0.00    -0.010 C 
HETATM   15  C21 UNL     1     -21.819 -49.615 -17.178  1.00  0.00     0.011 C 
HETATM   16  C22 UNL     1     -20.604 -47.545 -16.781  1.00  0.00     0.005 C 
HETATM   17  C23 UNL     1     -19.294 -48.309 -16.779  1.00  0.00     0.006 C 
HETATM   18  C24 UNL     1     -19.031 -48.457 -18.266  1.00  0.00     0.001 C 
HETATM   19  C25 UNL     1     -18.305 -49.705 -18.613  1.00  0.00     0.027 C 
ENDROOT
BRANCH   1  20
HETATM   20  O3  UNL     1     -16.052 -48.808 -18.281  1.00  0.00    -0.315 OA
BRANCH  20  21
HETATM   21  C7  UNL     1     -15.472 -47.993 -17.319  1.00  0.00     0.263 C 
HETATM   22  O2  UNL     1     -15.281 -46.790 -17.617  1.00  0.00    -0.265 OA
BRANCH  21  23
HETATM   23  C6  UNL     1     -15.081 -48.478 -15.987  1.00  0.00     0.092 C 
HETATM   24  C5  UNL     1     -15.031 -47.238 -15.081  1.00  0.00     0.045 C 
HETATM   25  C4  UNL     1     -14.101 -47.493 -13.881  1.00  0.00     0.273 C 
HETATM   26  N1  UNL     1     -12.768 -47.517 -14.333  1.00  0.00     0.091 N 
HETATM   27  C28 UNL     1     -12.650 -48.027 -15.702  1.00  0.00     0.277 C 
HETATM   28  C26 UNL     1     -13.723 -49.083 -15.937  1.00  0.00     0.023 C 
HETATM   29  C27 UNL     1     -13.327 -49.908 -17.121  1.00  0.00     0.012 C 
BRANCH  26  30
HETATM   30  C3  UNL     1     -11.794 -48.051 -13.473  1.00  0.00     0.303 C 
BRANCH  30  31
HETATM   31  C2  UNL     1     -10.541 -48.488 -14.162  1.00  0.00     0.142 C 
HETATM   32  C1  UNL     1      -9.328 -47.625 -13.955  1.00  0.00     0.041 C 
BRANCH  31  33
HETATM   33  O1  UNL     1     -10.149 -49.765 -13.637  1.00  0.00    -0.394 OA
ATOM     34  H1  UNL     1     -10.844 -49.983 -13.028  1.00  0.00     0.210 HD
ENDBRANCH  31  33
ENDBRANCH  30  31
ENDBRANCH  26  30
ENDBRANCH  21  23
ENDBRANCH  20  21
ENDBRANCH   1  20
BRANCH   8  35
HETATM   35  O5  UNL     1     -16.863 -50.676 -21.863  1.00  0.00    -0.386 OA
ATOM     36  H5  UNL     1     -17.580 -50.640 -22.484  1.00  0.00     0.210 HD
ENDBRANCH   8  35
TORSDOF 7
ENDMDL
