MODEL 1
REMARK VINA RESULT: -7.790574747      0.000      0.000
REMARK  8 active torsions:
REMARK  status: ('A' for Active; 'I' for Inactive)
REMARK    1  A    between atoms: O1_2  and  C2_3 
REMARK    2  A    between atoms: C2_3  and  C3_5 
REMARK    3  A    between atoms: C5_8  and  C6_9 
REMARK    4  A    between atoms: C12_20  and  O6_21 
REMARK    5  A    between atoms: C12_20  and  C14_26 
REMARK    6  A    between atoms: O6_21  and  N1_22 
REMARK    7  A    between atoms: N1_22  and  C13_24 
REMARK    8  A    between atoms: C16_29  and  O9_31 
ROOT
HETATM    1  C3  UNL     1      23.973  -4.894  19.123  1.00  0.00     0.251 C 
HETATM    2  O3  UNL     1      22.816  -5.303  18.396  1.00  0.00    -0.358 OA
HETATM    3  C4  UNL     1      21.732  -4.975  19.156  1.00  0.00     0.219 C 
HETATM    4  C5  UNL     1      22.250  -4.705  20.584  1.00  0.00     0.179 C 
HETATM    5  O4  UNL     1      22.485  -3.379  20.773  1.00  0.00    -0.215 OA
HETATM    6  O5  UNL     1      23.283  -2.775  20.016  1.00  0.00    -0.185 OA
HETATM    7  C12 UNL     1      24.060  -3.456  19.094  1.00  0.00     0.324 C 
HETATM    8  C16 UNL     1      23.514  -5.446  20.527  1.00  0.00     0.141 C 
HETATM    9  C17 UNL     1      24.527  -5.153  21.584  1.00  0.00     0.054 C 
ENDROOT
BRANCH   4  10
HETATM   10  C6  UNL     1      21.210  -5.172  21.477  1.00  0.00    -0.011 A 
HETATM   11  C7  UNL     1      19.921  -4.654  21.295  1.00  0.00     0.056 A 
HETATM   12  C8  UNL     1      18.841  -5.063  22.062  1.00  0.00     0.157 A 
HETATM   13  F1  UNL     1      17.637  -4.504  21.813  1.00  0.00    -0.203 F 
HETATM   14  C9  UNL     1      19.042  -6.009  23.026  1.00  0.00     0.176 A 
HETATM   15  F2  UNL     1      17.982  -6.409  23.769  1.00  0.00    -0.201 F 
HETATM   16  C10 UNL     1      20.297  -6.537  23.230  1.00  0.00     0.076 A 
HETATM   17 CL1  UNL     1      20.620  -7.739  24.436  1.00  0.00    -0.081 Cl
HETATM   18  C11 UNL     1      21.374  -6.112  22.454  1.00  0.00     0.037 A 
ENDBRANCH   4  10
BRANCH   8  19
HETATM   19  O9  UNL     1      23.405  -6.813  20.224  1.00  0.00    -0.383 OA
ATOM     20  H9  UNL     1      24.293  -6.988  19.935  1.00  0.00     0.210 HD
ENDBRANCH   8  19
BRANCH   1  21
HETATM   21  C2  UNL     1      25.099  -5.736  18.702  1.00  0.00     0.303 C 
HETATM   22  O2  UNL     1      25.048  -6.473  17.702  1.00  0.00    -0.261 OA
BRANCH  21  23
HETATM   23  O1  UNL     1      26.283  -5.714  19.434  1.00  0.00    -0.324 OA
HETATM   24  C1  UNL     1      27.136  -6.793  19.673  1.00  0.00     0.213 C 
ENDBRANCH  21  23
ENDBRANCH   1  21
BRANCH   7  25
HETATM   25  O6  UNL     1      25.361  -2.927  19.267  1.00  0.00    -0.223 OA
BRANCH  25  26
HETATM   26  N1  UNL     1      25.199  -1.861  20.088  1.00  0.00    -0.238 N 
ATOM     27  H1  UNL     1      24.700  -2.037  20.960  1.00  0.00     0.197 HD
BRANCH  26  28
HETATM   28  C13 UNL     1      25.634  -0.552  19.881  1.00  0.00     0.374 C 
HETATM   29  O7  UNL     1      25.577   0.348  20.761  1.00  0.00    -0.282 OA
ENDBRANCH  26  28
ENDBRANCH  25  26
ENDBRANCH   7  25
BRANCH   7  30
HETATM   30  C14 UNL     1      23.638  -2.928  17.737  1.00  0.00     0.193 C 
HETATM   31  C15 UNL     1      24.523  -3.051  16.560  1.00  0.00     0.097 C 
HETATM   32  O8  UNL     1      22.545  -2.380  17.569  1.00  0.00    -0.292 OA
ENDBRANCH   7  30
TORSDOF 8
ENDMDL
MODEL 2
REMARK VINA RESULT: -7.616120620      4.682      6.852
REMARK  8 active torsions:
REMARK  status: ('A' for Active; 'I' for Inactive)
REMARK    1  A    between atoms: O1_2  and  C2_3 
REMARK    2  A    between atoms: C2_3  and  C3_5 
REMARK    3  A    between atoms: C5_8  and  C6_9 
REMARK    4  A    between atoms: C12_20  and  O6_21 
REMARK    5  A    between atoms: C12_20  and  C14_26 
REMARK    6  A    between atoms: O6_21  and  N1_22 
REMARK    7  A    between atoms: N1_22  and  C13_24 
REMARK    8  A    between atoms: C16_29  and  O9_31 
ROOT
HETATM    1  C3  UNL     1      19.498  -0.081  20.762  1.00  0.00     0.251 C 
HETATM    2  O3  UNL     1      20.384  -0.382  21.837  1.00  0.00    -0.358 OA
HETATM    3  C4  UNL     1      21.390  -1.147  21.323  1.00  0.00     0.219 C 
HETATM    4  C5  UNL     1      20.902  -1.667  19.955  1.00  0.00     0.179 C 
HETATM    5  O4  UNL     1      21.324  -0.857  18.947  1.00  0.00    -0.215 OA
HETATM    6  O5  UNL     1      21.023   0.361  18.961  1.00  0.00    -0.185 OA
HETATM    7  C12 UNL     1      20.130   0.874  19.887  1.00  0.00     0.324 C 
HETATM    8  C16 UNL     1      19.454  -1.531  20.146  1.00  0.00     0.141 C 
HETATM    9  C17 UNL     1      18.595  -1.579  18.926  1.00  0.00     0.054 C 
ENDROOT
BRANCH   4  10
HETATM   10  C6  UNL     1      21.463  -2.995  19.813  1.00  0.00    -0.011 A 
HETATM   11  C7  UNL     1      21.910  -3.373  18.540  1.00  0.00     0.056 A 
HETATM   12  C8  UNL     1      22.505  -4.603  18.299  1.00  0.00     0.157 A 
HETATM   13  F1  UNL     1      22.903  -4.879  17.037  1.00  0.00    -0.203 F 
HETATM   14  C9  UNL     1      22.664  -5.471  19.339  1.00  0.00     0.176 A 
HETATM   15  F2  UNL     1      23.251  -6.669  19.099  1.00  0.00    -0.201 F 
HETATM   16  C10 UNL     1      22.234  -5.128  20.601  1.00  0.00     0.076 A 
HETATM   17 CL1  UNL     1      22.404  -6.184  21.965  1.00  0.00    -0.081 Cl
HETATM   18  C11 UNL     1      21.633  -3.891  20.829  1.00  0.00     0.037 A 
ENDBRANCH   4  10
BRANCH   8  19
HETATM   19  O9  UNL     1      18.916  -2.238  21.234  1.00  0.00    -0.383 OA
ATOM     20  H9  UNL     1      18.133  -2.592  20.828  1.00  0.00     0.210 HD
ENDBRANCH   8  19
BRANCH   1  21
HETATM   21  C2  UNL     1      18.165   0.165  21.323  1.00  0.00     0.303 C 
HETATM   22  O2  UNL     1      17.992   0.584  22.481  1.00  0.00    -0.261 OA
BRANCH  21  23
HETATM   23  O1  UNL     1      17.037  -0.067  20.540  1.00  0.00    -0.324 OA
HETATM   24  C1  UNL     1      16.038   0.855  20.222  1.00  0.00     0.213 C 
ENDBRANCH  21  23
ENDBRANCH   1  21
BRANCH   7  25
HETATM   25  O6  UNL     1      19.245   1.671  19.123  1.00  0.00    -0.223 OA
BRANCH  25  26
HETATM   26  N1  UNL     1      19.584   1.432  17.833  1.00  0.00    -0.238 N 
ATOM     27  H1  UNL     1      20.538   1.108  17.671  1.00  0.00     0.197 HD
BRANCH  26  28
HETATM   28  C13 UNL     1      18.783   1.576  16.700  1.00  0.00     0.374 C 
HETATM   29  O7  UNL     1      17.782   0.852  16.458  1.00  0.00    -0.282 OA
ENDBRANCH  26  28
ENDBRANCH  25  26
ENDBRANCH   7  25
BRANCH   7  30
HETATM   30  C14 UNL     1      20.917   1.889  20.693  1.00  0.00     0.193 C 
HETATM   31  C15 UNL     1      22.389   1.970  20.591  1.00  0.00     0.097 C 
HETATM   32  O8  UNL     1      20.358   2.679  21.458  1.00  0.00    -0.292 OA
ENDBRANCH   7  30
TORSDOF 8
ENDMDL
MODEL 3
REMARK VINA RESULT: -7.447954652      4.292      6.079
REMARK  8 active torsions:
REMARK  status: ('A' for Active; 'I' for Inactive)
REMARK    1  A    between atoms: O1_2  and  C2_3 
REMARK    2  A    between atoms: C2_3  and  C3_5 
REMARK    3  A    between atoms: C5_8  and  C6_9 
REMARK    4  A    between atoms: C12_20  and  O6_21 
REMARK    5  A    between atoms: C12_20  and  C14_26 
REMARK    6  A    between atoms: O6_21  and  N1_22 
REMARK    7  A    between atoms: N1_22  and  C13_24 
REMARK    8  A    between atoms: C16_29  and  O9_31 
ROOT
HETATM    1  C3  UNL     1      18.754  -0.453  19.619  1.00  0.00     0.251 C 
HETATM    2  O3  UNL     1      17.519  -1.031  20.036  1.00  0.00    -0.358 OA
HETATM    3  C4  UNL     1      17.804  -1.888  21.059  1.00  0.00     0.219 C 
HETATM    4  C5  UNL     1      19.325  -2.144  21.017  1.00  0.00     0.179 C 
HETATM    5  O4  UNL     1      19.984  -1.299  21.856  1.00  0.00    -0.215 OA
HETATM    6  O5  UNL     1      19.856  -0.059  21.716  1.00  0.00    -0.185 OA
HETATM    7  C12 UNL     1      19.196   0.481  20.625  1.00  0.00     0.324 C 
HETATM    8  C16 UNL     1      19.593  -1.787  19.620  1.00  0.00     0.141 C 
HETATM    9  C17 UNL     1      21.014  -1.536  19.238  1.00  0.00     0.054 C 
ENDROOT
BRANCH   4  10
HETATM   10  C6  UNL     1      19.507  -3.520  21.431  1.00  0.00    -0.011 A 
HETATM   11  C7  UNL     1      18.355  -4.294  21.619  1.00  0.00     0.056 A 
HETATM   12  C8  UNL     1      18.411  -5.634  21.971  1.00  0.00     0.157 A 
HETATM   13  F1  UNL     1      17.245  -6.298  22.132  1.00  0.00    -0.203 F 
HETATM   14  C9  UNL     1      19.633  -6.220  22.133  1.00  0.00     0.176 A 
HETATM   15  F2  UNL     1      19.682  -7.531  22.471  1.00  0.00    -0.201 F 
HETATM   16  C10 UNL     1      20.783  -5.485  21.956  1.00  0.00     0.076 A 
HETATM   17 CL1  UNL     1      22.365  -6.166  22.147  1.00  0.00    -0.081 Cl
HETATM   18  C11 UNL     1      20.712  -4.137  21.607  1.00  0.00     0.037 A 
ENDBRANCH   4  10
BRANCH   8  19
HETATM   19  O9  UNL     1      18.879  -2.521  18.658  1.00  0.00    -0.383 OA
ATOM     20  H9  UNL     1      19.311  -3.363  18.742  1.00  0.00     0.210 HD
ENDBRANCH   8  19
BRANCH   1  21
HETATM   21  C2  UNL     1      18.621  -0.054  18.214  1.00  0.00     0.303 C 
HETATM   22  O2  UNL     1      19.595   0.278  17.516  1.00  0.00    -0.261 OA
BRANCH  21  23
HETATM   23  O1  UNL     1      17.362  -0.049  17.618  1.00  0.00    -0.324 OA
HETATM   24  C1  UNL     1      16.921   0.807  16.608  1.00  0.00     0.213 C 
ENDBRANCH  21  23
ENDBRANCH   1  21
BRANCH   7  25
HETATM   25  O6  UNL     1      20.055   1.505  20.161  1.00  0.00    -0.223 OA
BRANCH  25  26
HETATM   26  N1  UNL     1      21.042   1.579  21.085  1.00  0.00    -0.238 N 
ATOM     27  H1  UNL     1      20.771   1.386  22.050  1.00  0.00     0.197 HD
BRANCH  26  28
HETATM   28  C13 UNL     1      22.386   1.889  20.875  1.00  0.00     0.374 C 
HETATM   29  O7  UNL     1      23.297   1.023  20.803  1.00  0.00    -0.282 OA
ENDBRANCH  26  28
ENDBRANCH  25  26
ENDBRANCH   7  25
BRANCH   7  30
HETATM   30  C14 UNL     1      18.015   1.239  21.198  1.00  0.00     0.193 C 
HETATM   31  C15 UNL     1      17.213   2.153  20.359  1.00  0.00     0.097 C 
HETATM   32  O8  UNL     1      17.684   1.119  22.382  1.00  0.00    -0.292 OA
ENDBRANCH   7  30
TORSDOF 8
ENDMDL
MODEL 4
REMARK VINA RESULT: -7.386295725      4.747      6.888
REMARK  8 active torsions:
REMARK  status: ('A' for Active; 'I' for Inactive)
REMARK    1  A    between atoms: O1_2  and  C2_3 
REMARK    2  A    between atoms: C2_3  and  C3_5 
REMARK    3  A    between atoms: C5_8  and  C6_9 
REMARK    4  A    between atoms: C12_20  and  O6_21 
REMARK    5  A    between atoms: C12_20  and  C14_26 
REMARK    6  A    between atoms: O6_21  and  N1_22 
REMARK    7  A    between atoms: N1_22  and  C13_24 
REMARK    8  A    between atoms: C16_29  and  O9_31 
ROOT
HETATM    1  C3  UNL     1      19.523  -0.050  20.768  1.00  0.00     0.251 C 
HETATM    2  O3  UNL     1      20.400  -0.325  21.859  1.00  0.00    -0.358 OA
HETATM    3  C4  UNL     1      21.429  -1.072  21.365  1.00  0.00     0.219 C 
HETATM    4  C5  UNL     1      20.973  -1.612  19.993  1.00  0.00     0.179 C 
HETATM    5  O4  UNL     1      21.393  -0.799  18.986  1.00  0.00    -0.215 OA
HETATM    6  O5  UNL     1      21.066   0.412  18.987  1.00  0.00    -0.185 OA
HETATM    7  C12 UNL     1      20.149   0.912  19.896  1.00  0.00     0.324 C 
HETATM    8  C16 UNL     1      19.519  -1.505  20.162  1.00  0.00     0.141 C 
HETATM    9  C17 UNL     1      18.679  -1.579  18.930  1.00  0.00     0.054 C 
ENDROOT
BRANCH   4  10
HETATM   10  C6  UNL     1      21.564  -2.928  19.868  1.00  0.00    -0.011 A 
HETATM   11  C7  UNL     1      21.454  -3.791  20.966  1.00  0.00     0.056 A 
HETATM   12  C8  UNL     1      21.943  -5.088  20.942  1.00  0.00     0.157 A 
HETATM   13  F1  UNL     1      21.791  -5.845  22.051  1.00  0.00    -0.203 F 
HETATM   14  C9  UNL     1      22.547  -5.541  19.805  1.00  0.00     0.176 A 
HETATM   15  F2  UNL     1      23.018  -6.812  19.785  1.00  0.00    -0.201 F 
HETATM   16  C10 UNL     1      22.671  -4.717  18.710  1.00  0.00     0.076 A 
HETATM   17 CL1  UNL     1      23.428  -5.227  17.237  1.00  0.00    -0.081 Cl
HETATM   18  C11 UNL     1      22.180  -3.413  18.750  1.00  0.00     0.037 A 
ENDBRANCH   4  10
BRANCH   8  19
HETATM   19  O9  UNL     1      18.981  -2.216  21.247  1.00  0.00    -0.383 OA
ATOM     20  H9  UNL     1      18.161  -1.749  21.358  1.00  0.00     0.210 HD
ENDBRANCH   8  19
BRANCH   1  21
HETATM   21  C2  UNL     1      18.177   0.171  21.309  1.00  0.00     0.303 C 
HETATM   22  O2  UNL     1      17.978   0.579  22.466  1.00  0.00    -0.261 OA
BRANCH  21  23
HETATM   23  O1  UNL     1      17.067  -0.073  20.505  1.00  0.00    -0.324 OA
HETATM   24  C1  UNL     1      16.060   0.836  20.174  1.00  0.00     0.213 C 
ENDBRANCH  21  23
ENDBRANCH   1  21
BRANCH   7  25
HETATM   25  O6  UNL     1      19.258   1.685  19.114  1.00  0.00    -0.223 OA
BRANCH  25  26
HETATM   26  N1  UNL     1      19.598   1.417  17.830  1.00  0.00    -0.238 N 
ATOM     27  H1  UNL     1      20.551   1.085  17.677  1.00  0.00     0.197 HD
BRANCH  26  28
HETATM   28  C13 UNL     1      18.801   1.543  16.692  1.00  0.00     0.374 C 
HETATM   29  O7  UNL     1      17.783   0.835  16.473  1.00  0.00    -0.282 OA
ENDBRANCH  26  28
ENDBRANCH  25  26
ENDBRANCH   7  25
BRANCH   7  30
HETATM   30  C14 UNL     1      20.902   1.949  20.706  1.00  0.00     0.193 C 
HETATM   31  C15 UNL     1      22.373   2.061  20.625  1.00  0.00     0.097 C 
HETATM   32  O8  UNL     1      20.315   2.731  21.459  1.00  0.00    -0.292 OA
ENDBRANCH   7  30
TORSDOF 8
ENDMDL
MODEL 5
REMARK VINA RESULT: -7.326903568      4.449      6.479
REMARK  8 active torsions:
REMARK  status: ('A' for Active; 'I' for Inactive)
REMARK    1  A    between atoms: O1_2  and  C2_3 
REMARK    2  A    between atoms: C2_3  and  C3_5 
REMARK    3  A    between atoms: C5_8  and  C6_9 
REMARK    4  A    between atoms: C12_20  and  O6_21 
REMARK    5  A    between atoms: C12_20  and  C14_26 
REMARK    6  A    between atoms: O6_21  and  N1_22 
REMARK    7  A    between atoms: N1_22  and  C13_24 
REMARK    8  A    between atoms: C16_29  and  O9_31 
ROOT
HETATM    1  C3  UNL     1      20.057   0.259  20.349  1.00  0.00     0.251 C 
HETATM    2  O3  UNL     1      20.610  -0.217  21.575  1.00  0.00    -0.358 OA
HETATM    3  C4  UNL     1      21.582  -1.118  21.250  1.00  0.00     0.219 C 
HETATM    4  C5  UNL     1      21.357  -1.508  19.774  1.00  0.00     0.179 C 
HETATM    5  O4  UNL     1      22.122  -0.745  18.948  1.00  0.00    -0.215 OA
HETATM    6  O5  UNL     1      22.013   0.505  18.978  1.00  0.00    -0.185 OA
HETATM    7  C12 UNL     1      21.014   1.126  19.709  1.00  0.00     0.324 C 
HETATM    8  C16 UNL     1      19.942  -1.145  19.640  1.00  0.00     0.141 C 
HETATM    9  C17 UNL     1      19.397  -1.013  18.257  1.00  0.00     0.054 C 
ENDROOT
BRANCH   4  10
HETATM   10  C6  UNL     1      21.729  -2.904  19.672  1.00  0.00    -0.011 A 
HETATM   11  C7  UNL     1      22.179  -3.362  18.427  1.00  0.00     0.056 A 
HETATM   12  C8  UNL     1      22.603  -4.667  18.226  1.00  0.00     0.157 A 
HETATM   13  F1  UNL     1      23.017  -5.017  16.988  1.00  0.00    -0.203 F 
HETATM   14  C9  UNL     1      22.587  -5.532  19.281  1.00  0.00     0.176 A 
HETATM   15  F2  UNL     1      23.008  -6.805  19.081  1.00  0.00    -0.201 F 
HETATM   16  C10 UNL     1      22.150  -5.112  20.517  1.00  0.00     0.076 A 
HETATM   17 CL1  UNL     1      22.103  -6.159  21.897  1.00  0.00    -0.081 Cl
HETATM   18  C11 UNL     1      21.721  -3.799  20.704  1.00  0.00     0.037 A 
ENDBRANCH   4  10
BRANCH   8  19
HETATM   19  O9  UNL     1      19.063  -1.790  20.526  1.00  0.00    -0.383 OA
ATOM     20  H9  UNL     1      18.891  -2.585  20.035  1.00  0.00     0.210 HD
ENDBRANCH   8  19
BRANCH   1  21
HETATM   21  C2  UNL     1      18.682   0.700  20.608  1.00  0.00     0.303 C 
HETATM   22  O2  UNL     1      17.911   1.060  19.701  1.00  0.00    -0.261 OA
BRANCH  21  23
HETATM   23  O1  UNL     1      18.201   0.714  21.915  1.00  0.00    -0.324 OA
HETATM   24  C1  UNL     1      16.862   0.706  22.311  1.00  0.00     0.213 C 
ENDBRANCH  21  23
ENDBRANCH   1  21
BRANCH   7  25
HETATM   25  O6  UNL     1      20.464   2.080  18.820  1.00  0.00    -0.223 OA
BRANCH  25  26
HETATM   26  N1  UNL     1      21.405   2.247  17.860  1.00  0.00    -0.238 N 
ATOM     27  H1  UNL     1      21.563   1.450  17.242  1.00  0.00     0.197 HD
BRANCH  26  28
HETATM   28  C13 UNL     1      22.182   3.379  17.615  1.00  0.00     0.374 C 
HETATM   29  O7  UNL     1      23.438   3.355  17.527  1.00  0.00    -0.282 OA
ENDBRANCH  26  28
ENDBRANCH  25  26
ENDBRANCH   7  25
BRANCH   7  30
HETATM   30  C14 UNL     1      21.733   1.973  20.741  1.00  0.00     0.193 C 
HETATM   31  C15 UNL     1      23.203   1.923  20.881  1.00  0.00     0.097 C 
HETATM   32  O8  UNL     1      21.117   2.730  21.496  1.00  0.00    -0.292 OA
ENDBRANCH   7  30
TORSDOF 8
ENDMDL
