MODEL 1
REMARK VINA RESULT: -8.113814400      0.000      0.000
REMARK  9 active torsions:
REMARK  status: ('A' for Active; 'I' for Inactive)
REMARK    1  A    between atoms: O1_2  and  C2_3 
REMARK    2  A    between atoms: C2_3  and  O3_5 
REMARK    3  A    between atoms: O3_5  and  C3_6 
REMARK    4  A    between atoms: C4_7  and  C5_8 
REMARK    5  A    between atoms: C5_8  and  O4_9 
REMARK    6  A    between atoms: C5_8  and  C6_11 
REMARK    7  A    between atoms: C6_11  and  O5_12 
REMARK    8  A    between atoms: O5_12  and  C7_13 
REMARK    9  A    between atoms: C15_27  and  O8_28 
ROOT
HETATM    1  C3  UNL     1      23.696  -0.552  19.389  1.00  0.00     0.201 C 
HETATM    2  C4  UNL     1      24.217  -1.428  20.507  1.00  0.00     0.223 C 
HETATM    3  O6  UNL     1      25.544  -1.029  20.743  1.00  0.00    -0.229 OA
HETATM    4  O7  UNL     1      25.537   0.294  20.855  1.00  0.00    -0.224 OA
HETATM    5  C13 UNL     1      25.709   0.807  19.590  1.00  0.00     0.149 C 
HETATM    6  C14 UNL     1      25.407   2.277  19.490  1.00  0.00     0.055 C 
HETATM    7  C15 UNL     1      27.115   0.597  19.070  1.00  0.00     0.186 C 
HETATM    8  C16 UNL     1      26.998  -0.564  18.117  1.00  0.00     0.150 C 
HETATM    9  C17 UNL     1      27.212  -0.012  16.715  1.00  0.00     0.042 C 
HETATM   10  O9  UNL     1      25.714  -1.081  18.266  1.00  0.00    -0.372 OA
HETATM   11  C18 UNL     1      24.897  -0.028  18.630  1.00  0.00     0.194 C 
ENDROOT
BRANCH   2  12
HETATM   12  C5  UNL     1      24.151  -2.894  20.146  1.00  0.00     0.177 C 
BRANCH  12  13
HETATM   13  O4  UNL     1      25.408  -3.265  19.672  1.00  0.00    -0.391 OA
ATOM     14  H4  UNL     1      25.276  -3.932  19.008  1.00  0.00     0.210 HD
ENDBRANCH  12  13
BRANCH  12  15
HETATM   15  C6  UNL     1      23.061  -3.172  19.134  1.00  0.00     0.210 C 
BRANCH  15  16
HETATM   16  O5  UNL     1      22.789  -4.551  19.169  1.00  0.00    -0.343 OA
BRANCH  16  17
HETATM   17  C7  UNL     1      22.676  -5.295  20.324  1.00  0.00     0.152 A 
HETATM   18  C8  UNL     1      21.651  -5.194  21.226  1.00  0.00     0.191 A 
HETATM   19  F1  UNL     1      20.671  -4.304  20.982  1.00  0.00    -0.200 F 
HETATM   20  C9  UNL     1      21.592  -5.965  22.364  1.00  0.00     0.160 A 
HETATM   21  F2  UNL     1      20.552  -5.835  23.242  1.00  0.00    -0.203 F 
HETATM   22  C10 UNL     1      22.604  -6.888  22.621  1.00  0.00     0.091 A 
HETATM   23  C11 UNL     1      23.642  -6.999  21.720  1.00  0.00     0.160 A 
HETATM   24  F3  UNL     1      24.619  -7.904  21.989  1.00  0.00    -0.203 F 
HETATM   25  C12 UNL     1      23.680  -6.215  20.585  1.00  0.00     0.191 A 
HETATM   26  F4  UNL     1      24.739  -6.376  19.733  1.00  0.00    -0.200 F 
ENDBRANCH  16  17
ENDBRANCH  15  16
ENDBRANCH  12  15
ENDBRANCH   2  12
BRANCH   1  27
HETATM   27  O3  UNL     1      22.985   0.515  20.009  1.00  0.00    -0.287 OA
BRANCH  27  28
HETATM   28  C2  UNL     1      21.603   0.464  20.031  1.00  0.00     0.406 C 
HETATM   29  O2  UNL     1      20.980   0.647  18.965  1.00  0.00    -0.229 OA
BRANCH  28  30
HETATM   30  O1  UNL     1      20.880   0.213  21.209  1.00  0.00    -0.303 OA
HETATM   31  C1  UNL     1      20.554  -1.136  21.576  1.00  0.00     0.215 C 
ENDBRANCH  28  30
ENDBRANCH  27  28
ENDBRANCH   1  27
BRANCH   7  32
HETATM   32  O8  UNL     1      27.966   0.301  20.146  1.00  0.00    -0.390 OA
ATOM     33  H8  UNL     1      28.565   1.026  20.281  1.00  0.00     0.210 HD
ENDBRANCH   7  32
TORSDOF 9
ENDMDL
MODEL 2
REMARK VINA RESULT: -8.067932035      3.483      4.534
REMARK  9 active torsions:
REMARK  status: ('A' for Active; 'I' for Inactive)
REMARK    1  A    between atoms: O1_2  and  C2_3 
REMARK    2  A    between atoms: C2_3  and  O3_5 
REMARK    3  A    between atoms: O3_5  and  C3_6 
REMARK    4  A    between atoms: C4_7  and  C5_8 
REMARK    5  A    between atoms: C5_8  and  O4_9 
REMARK    6  A    between atoms: C5_8  and  C6_11 
REMARK    7  A    between atoms: C6_11  and  O5_12 
REMARK    8  A    between atoms: O5_12  and  C7_13 
REMARK    9  A    between atoms: C15_27  and  O8_28 
ROOT
HETATM    1  C3  UNL     1      19.449  -0.086  19.110  1.00  0.00     0.201 C 
HETATM    2  C4  UNL     1      20.003  -0.986  20.192  1.00  0.00     0.223 C 
HETATM    3  O6  UNL     1      20.688  -0.153  21.093  1.00  0.00    -0.229 OA
HETATM    4  O7  UNL     1      19.873   0.852  21.389  1.00  0.00    -0.224 OA
HETATM    5  C13 UNL     1      20.095   1.840  20.456  1.00  0.00     0.149 C 
HETATM    6  C14 UNL     1      19.039   2.910  20.449  1.00  0.00     0.055 C 
HETATM    7  C15 UNL     1      21.432   2.523  20.649  1.00  0.00     0.186 C 
HETATM    8  C16 UNL     1      22.321   1.922  19.592  1.00  0.00     0.150 C 
HETATM    9  C17 UNL     1      22.595   3.013  18.567  1.00  0.00     0.042 C 
HETATM   10  O9  UNL     1      21.617   0.862  19.026  1.00  0.00    -0.372 OA
HETATM   11  C18 UNL     1      20.276   1.181  19.110  1.00  0.00     0.194 C 
ENDROOT
BRANCH   2  12
HETATM   12  C5  UNL     1      20.925  -2.041  19.625  1.00  0.00     0.177 C 
BRANCH  12  13
HETATM   13  O4  UNL     1      21.063  -1.785  18.262  1.00  0.00    -0.391 OA
ATOM     14  H4  UNL     1      21.659  -2.436  17.909  1.00  0.00     0.210 HD
ENDBRANCH  12  13
BRANCH  12  15
HETATM   15  C6  UNL     1      20.407  -3.437  19.888  1.00  0.00     0.210 C 
BRANCH  15  16
HETATM   16  O5  UNL     1      20.549  -3.692  21.263  1.00  0.00    -0.343 OA
BRANCH  16  17
HETATM   17  C7  UNL     1      19.985  -4.765  21.920  1.00  0.00     0.152 A 
HETATM   18  C8  UNL     1      18.642  -4.949  22.111  1.00  0.00     0.191 A 
HETATM   19  F1  UNL     1      17.794  -4.023  21.627  1.00  0.00    -0.200 F 
HETATM   20  C9  UNL     1      18.136  -6.043  22.777  1.00  0.00     0.160 A 
HETATM   21  F2  UNL     1      16.788  -6.193  22.948  1.00  0.00    -0.203 F 
HETATM   22  C10 UNL     1      19.010  -7.005  23.280  1.00  0.00     0.091 A 
HETATM   23  C11 UNL     1      20.365  -6.830  23.093  1.00  0.00     0.160 A 
HETATM   24  F3  UNL     1      21.200  -7.779  23.591  1.00  0.00    -0.203 F 
HETATM   25  C12 UNL     1      20.849  -5.725  22.422  1.00  0.00     0.191 A 
HETATM   26  F4  UNL     1      22.205  -5.613  22.273  1.00  0.00    -0.200 F 
ENDBRANCH  16  17
ENDBRANCH  15  16
ENDBRANCH  12  15
ENDBRANCH   2  12
BRANCH   1  27
HETATM   27  O3  UNL     1      18.098   0.191  19.467  1.00  0.00    -0.287 OA
BRANCH  27  28
HETATM   28  C2  UNL     1      17.208  -0.863  19.557  1.00  0.00     0.406 C 
HETATM   29  O2  UNL     1      16.968  -1.534  18.531  1.00  0.00    -0.229 OA
BRANCH  28  30
HETATM   30  O1  UNL     1      16.566  -1.203  20.759  1.00  0.00    -0.303 OA
HETATM   31  C1  UNL     1      16.458  -0.233  21.813  1.00  0.00     0.215 C 
ENDBRANCH  28  30
ENDBRANCH  27  28
ENDBRANCH   1  27
BRANCH   7  32
HETATM   32  O8  UNL     1      21.907   2.253  21.942  1.00  0.00    -0.390 OA
ATOM     33  H8  UNL     1      22.088   3.072  22.386  1.00  0.00     0.210 HD
ENDBRANCH   7  32
TORSDOF 9
ENDMDL
MODEL 3
REMARK VINA RESULT: -8.055616480      1.445      2.584
REMARK  9 active torsions:
REMARK  status: ('A' for Active; 'I' for Inactive)
REMARK    1  A    between atoms: O1_2  and  C2_3 
REMARK    2  A    between atoms: C2_3  and  O3_5 
REMARK    3  A    between atoms: O3_5  and  C3_6 
REMARK    4  A    between atoms: C4_7  and  C5_8 
REMARK    5  A    between atoms: C5_8  and  O4_9 
REMARK    6  A    between atoms: C5_8  and  C6_11 
REMARK    7  A    between atoms: C6_11  and  O5_12 
REMARK    8  A    between atoms: O5_12  and  C7_13 
REMARK    9  A    between atoms: C15_27  and  O8_28 
ROOT
HETATM    1  C3  UNL     1      23.011  -1.529  19.440  1.00  0.00     0.201 C 
HETATM    2  C4  UNL     1      23.784  -2.699  20.007  1.00  0.00     0.223 C 
HETATM    3  O6  UNL     1      25.060  -2.212  20.339  1.00  0.00    -0.229 OA
HETATM    4  O7  UNL     1      24.880  -1.102  21.045  1.00  0.00    -0.224 OA
HETATM    5  C13 UNL     1      24.820  -0.059  20.149  1.00  0.00     0.149 C 
HETATM    6  C14 UNL     1      24.302   1.220  20.749  1.00  0.00     0.055 C 
HETATM    7  C15 UNL     1      26.166   0.244  19.527  1.00  0.00     0.186 C 
HETATM    8  C16 UNL     1      26.097  -0.372  18.155  1.00  0.00     0.150 C 
HETATM    9  C17 UNL     1      26.056   0.773  17.154  1.00  0.00     0.042 C 
HETATM   10  O9  UNL     1      24.928  -1.127  18.108  1.00  0.00    -0.372 OA
HETATM   11  C18 UNL     1      24.021  -0.514  18.952  1.00  0.00     0.194 C 
ENDROOT
BRANCH   2  12
HETATM   12  C5  UNL     1      23.882  -3.837  19.017  1.00  0.00     0.177 C 
BRANCH  12  13
HETATM   13  O4  UNL     1      23.114  -3.492  17.907  1.00  0.00    -0.391 OA
ATOM     14  H4  UNL     1      23.544  -3.852  17.140  1.00  0.00     0.210 HD
ENDBRANCH  12  13
BRANCH  12  15
HETATM   15  C6  UNL     1      23.438  -5.148  19.627  1.00  0.00     0.210 C 
BRANCH  15  16
HETATM   16  O5  UNL     1      23.126  -4.907  20.976  1.00  0.00    -0.343 OA
BRANCH  16  17
HETATM   17  C7  UNL     1      22.039  -5.444  21.633  1.00  0.00     0.152 A 
HETATM   18  C8  UNL     1      22.084  -6.529  22.466  1.00  0.00     0.191 A 
HETATM   19  F1  UNL     1      23.270  -7.131  22.670  1.00  0.00    -0.200 F 
HETATM   20  C9  UNL     1      20.963  -7.021  23.096  1.00  0.00     0.160 A 
HETATM   21  F2  UNL     1      21.047  -8.108  23.921  1.00  0.00    -0.203 F 
HETATM   22  C10 UNL     1      19.732  -6.402  22.889  1.00  0.00     0.091 A 
HETATM   23  C11 UNL     1      19.674  -5.307  22.052  1.00  0.00     0.160 A 
HETATM   24  F3  UNL     1      18.465  -4.718  21.863  1.00  0.00    -0.203 F 
HETATM   25  C12 UNL     1      20.812  -4.831  21.431  1.00  0.00     0.191 A 
HETATM   26  F4  UNL     1      20.684  -3.742  20.614  1.00  0.00    -0.200 F 
ENDBRANCH  16  17
ENDBRANCH  15  16
ENDBRANCH  12  15
ENDBRANCH   2  12
BRANCH   1  27
HETATM   27  O3  UNL     1      22.237  -0.998  20.512  1.00  0.00    -0.287 OA
BRANCH  27  28
HETATM   28  C2  UNL     1      21.031  -0.388  20.219  1.00  0.00     0.406 C 
HETATM   29  O2  UNL     1      20.326   0.029  21.161  1.00  0.00    -0.229 OA
BRANCH  28  30
HETATM   30  O1  UNL     1      20.575  -0.223  18.900  1.00  0.00    -0.303 OA
HETATM   31  C1  UNL     1      19.339  -0.826  18.489  1.00  0.00     0.215 C 
ENDBRANCH  28  30
ENDBRANCH  27  28
ENDBRANCH   1  27
BRANCH   7  32
HETATM   32  O8  UNL     1      27.177  -0.338  20.308  1.00  0.00    -0.390 OA
ATOM     33  H8  UNL     1      27.804  -0.767  19.738  1.00  0.00     0.210 HD
ENDBRANCH   7  32
TORSDOF 9
ENDMDL
MODEL 4
REMARK VINA RESULT: -8.055193053      3.469      4.873
REMARK  9 active torsions:
REMARK  status: ('A' for Active; 'I' for Inactive)
REMARK    1  A    between atoms: O1_2  and  C2_3 
REMARK    2  A    between atoms: C2_3  and  O3_5 
REMARK    3  A    between atoms: O3_5  and  C3_6 
REMARK    4  A    between atoms: C4_7  and  C5_8 
REMARK    5  A    between atoms: C5_8  and  O4_9 
REMARK    6  A    between atoms: C5_8  and  C6_11 
REMARK    7  A    between atoms: C6_11  and  O5_12 
REMARK    8  A    between atoms: O5_12  and  C7_13 
REMARK    9  A    between atoms: C15_27  and  O8_28 
ROOT
HETATM    1  C3  UNL     1      19.469  -0.093  19.104  1.00  0.00     0.201 C 
HETATM    2  C4  UNL     1      20.004  -1.000  20.190  1.00  0.00     0.223 C 
HETATM    3  O6  UNL     1      20.688  -0.175  21.100  1.00  0.00    -0.229 OA
HETATM    4  O7  UNL     1      19.878   0.837  21.389  1.00  0.00    -0.224 OA
HETATM    5  C13 UNL     1      20.119   1.824  20.461  1.00  0.00     0.149 C 
HETATM    6  C14 UNL     1      19.072   2.904  20.446  1.00  0.00     0.055 C 
HETATM    7  C15 UNL     1      21.460   2.496  20.668  1.00  0.00     0.186 C 
HETATM    8  C16 UNL     1      22.354   1.889  19.619  1.00  0.00     0.150 C 
HETATM    9  C17 UNL     1      22.647   2.980  18.599  1.00  0.00     0.042 C 
HETATM   10  O9  UNL     1      21.646   0.837  19.044  1.00  0.00    -0.372 OA
HETATM   11  C18 UNL     1      20.307   1.167  19.115  1.00  0.00     0.194 C 
ENDROOT
BRANCH   2  12
HETATM   12  C5  UNL     1      20.923  -2.061  19.629  1.00  0.00     0.177 C 
BRANCH  12  13
HETATM   13  O4  UNL     1      21.042  -1.829  18.260  1.00  0.00    -0.391 OA
ATOM     14  H4  UNL     1      21.906  -2.124  17.996  1.00  0.00     0.210 HD
ENDBRANCH  12  13
BRANCH  12  15
HETATM   15  C6  UNL     1      20.413  -3.455  19.924  1.00  0.00     0.210 C 
BRANCH  15  16
HETATM   16  O5  UNL     1      20.485  -3.649  21.315  1.00  0.00    -0.343 OA
BRANCH  16  17
HETATM   17  C7  UNL     1      20.047  -4.781  21.968  1.00  0.00     0.152 A 
HETATM   18  C8  UNL     1      20.861  -5.763  22.468  1.00  0.00     0.191 A 
HETATM   19  F1  UNL     1      22.191  -5.628  22.319  1.00  0.00    -0.200 F 
HETATM   20  C9  UNL     1      20.365  -6.873  23.112  1.00  0.00     0.160 A 
HETATM   21  F2  UNL     1      21.208  -7.833  23.597  1.00  0.00    -0.203 F 
HETATM   22  C10 UNL     1      18.987  -7.017  23.270  1.00  0.00     0.091 A 
HETATM   23  C11 UNL     1      18.158  -6.035  22.770  1.00  0.00     0.160 A 
HETATM   24  F3  UNL     1      16.819  -6.194  22.934  1.00  0.00    -0.203 F 
HETATM   25  C12 UNL     1      18.678  -4.930  22.128  1.00  0.00     0.191 A 
HETATM   26  F4  UNL     1      17.799  -3.993  21.657  1.00  0.00    -0.200 F 
ENDBRANCH  16  17
ENDBRANCH  15  16
ENDBRANCH  12  15
ENDBRANCH   2  12
BRANCH   1  27
HETATM   27  O3  UNL     1      18.117   0.196  19.449  1.00  0.00    -0.287 OA
BRANCH  27  28
HETATM   28  C2  UNL     1      17.223  -0.854  19.554  1.00  0.00     0.406 C 
HETATM   29  O2  UNL     1      16.944  -1.509  18.528  1.00  0.00    -0.229 OA
BRANCH  28  30
HETATM   30  O1  UNL     1      16.620  -1.207  20.773  1.00  0.00    -0.303 OA
HETATM   31  C1  UNL     1      16.433  -0.214  21.793  1.00  0.00     0.215 C 
ENDBRANCH  28  30
ENDBRANCH  27  28
ENDBRANCH   1  27
BRANCH   7  32
HETATM   32  O8  UNL     1      21.919   2.218  21.965  1.00  0.00    -0.390 OA
ATOM     33  H8  UNL     1      21.173   2.114  22.546  1.00  0.00     0.210 HD
ENDBRANCH   7  32
TORSDOF 9
ENDMDL
MODEL 5
REMARK VINA RESULT: -8.046996674      1.443      2.065
REMARK  9 active torsions:
REMARK  status: ('A' for Active; 'I' for Inactive)
REMARK    1  A    between atoms: O1_2  and  C2_3 
REMARK    2  A    between atoms: C2_3  and  O3_5 
REMARK    3  A    between atoms: O3_5  and  C3_6 
REMARK    4  A    between atoms: C4_7  and  C5_8 
REMARK    5  A    between atoms: C5_8  and  O4_9 
REMARK    6  A    between atoms: C5_8  and  C6_11 
REMARK    7  A    between atoms: C6_11  and  O5_12 
REMARK    8  A    between atoms: O5_12  and  C7_13 
REMARK    9  A    between atoms: C15_27  and  O8_28 
ROOT
HETATM    1  C3  UNL     1      23.030  -1.574  19.476  1.00  0.00     0.201 C 
HETATM    2  C4  UNL     1      23.821  -2.735  20.036  1.00  0.00     0.223 C 
HETATM    3  O6  UNL     1      25.093  -2.233  20.360  1.00  0.00    -0.229 OA
HETATM    4  O7  UNL     1      24.904  -1.127  21.070  1.00  0.00    -0.224 OA
HETATM    5  C13 UNL     1      24.826  -0.083  20.177  1.00  0.00     0.149 C 
HETATM    6  C14 UNL     1      24.297   1.189  20.782  1.00  0.00     0.055 C 
HETATM    7  C15 UNL     1      26.165   0.237  19.547  1.00  0.00     0.186 C 
HETATM    8  C16 UNL     1      26.095  -0.378  18.174  1.00  0.00     0.150 C 
HETATM    9  C17 UNL     1      26.033   0.769  17.175  1.00  0.00     0.042 C 
HETATM   10  O9  UNL     1      24.934  -1.146  18.133  1.00  0.00    -0.372 OA
HETATM   11  C18 UNL     1      24.025  -0.545  18.984  1.00  0.00     0.194 C 
ENDROOT
BRANCH   2  12
HETATM   12  C5  UNL     1      23.926  -3.870  19.044  1.00  0.00     0.177 C 
BRANCH  12  13
HETATM   13  O4  UNL     1      23.135  -3.539  17.945  1.00  0.00    -0.391 OA
ATOM     14  H4  UNL     1      23.718  -3.385  17.211  1.00  0.00     0.210 HD
ENDBRANCH  12  13
BRANCH  12  15
HETATM   15  C6  UNL     1      23.516  -5.190  19.658  1.00  0.00     0.210 C 
BRANCH  15  16
HETATM   16  O5  UNL     1      23.180  -4.949  21.001  1.00  0.00    -0.343 OA
BRANCH  16  17
HETATM   17  C7  UNL     1      22.018  -5.382  21.605  1.00  0.00     0.152 A 
HETATM   18  C8  UNL     1      20.780  -4.831  21.408  1.00  0.00     0.191 A 
HETATM   19  F1  UNL     1      20.670  -3.788  20.565  1.00  0.00    -0.200 F 
HETATM   20  C9  UNL     1      19.654  -5.308  22.039  1.00  0.00     0.160 A 
HETATM   21  F2  UNL     1      18.434  -4.732  21.818  1.00  0.00    -0.203 F 
HETATM   22  C10 UNL     1      19.762  -6.388  22.913  1.00  0.00     0.091 A 
HETATM   23  C11 UNL     1      21.004  -6.951  23.119  1.00  0.00     0.160 A 
HETATM   24  F3  UNL     1      21.088  -8.003  23.974  1.00  0.00    -0.203 F 
HETATM   25  C12 UNL     1      22.120  -6.456  22.474  1.00  0.00     0.191 A 
HETATM   26  F4  UNL     1      23.322  -7.061  22.724  1.00  0.00    -0.200 F 
ENDBRANCH  16  17
ENDBRANCH  15  16
ENDBRANCH  12  15
ENDBRANCH   2  12
BRANCH   1  27
HETATM   27  O3  UNL     1      22.257  -1.054  20.554  1.00  0.00    -0.287 OA
BRANCH  27  28
HETATM   28  C2  UNL     1      21.080  -0.389  20.263  1.00  0.00     0.406 C 
HETATM   29  O2  UNL     1      20.427   0.112  21.202  1.00  0.00    -0.229 OA
BRANCH  28  30
HETATM   30  O1  UNL     1      20.596  -0.259  18.951  1.00  0.00    -0.303 OA
HETATM   31  C1  UNL     1      19.387  -0.931  18.563  1.00  0.00     0.215 C 
ENDBRANCH  28  30
ENDBRANCH  27  28
ENDBRANCH   1  27
BRANCH   7  32
HETATM   32  O8  UNL     1      27.187  -0.334  20.320  1.00  0.00    -0.390 OA
ATOM     33  H8  UNL     1      27.476  -1.141  19.910  1.00  0.00     0.210 HD
ENDBRANCH   7  32
TORSDOF 9
ENDMDL
