MODEL 1
REMARK VINA RESULT: -7.429096697      0.000      0.000
REMARK  9 active torsions:
REMARK  status: ('A' for Active; 'I' for Inactive)
REMARK    1  A    between atoms: C2_2  and  O1_3 
REMARK    2  A    between atoms: O1_3  and  C3_4 
REMARK    3  A    between atoms: C3_4  and  C4_6 
REMARK    4  A    between atoms: C4_6  and  O3_7 
REMARK    5  A    between atoms: O3_7  and  N1_8 
REMARK    6  A    between atoms: N1_8  and  C5_10 
REMARK    7  A    between atoms: C8_13  and  O4_14 
REMARK    8  A    between atoms: C13_20  and  C14_22 
REMARK    9  A    between atoms: C15_31  and  N4_32 
ROOT
HETATM    1  C5  UNL     1      25.312  -5.030  19.733  1.00  0.00     0.078 C 
HETATM    2  C6  UNL     1      24.658  -3.898  20.384  1.00  0.00     0.101 C 
HETATM    3  C7  UNL     1      23.862  -2.945  19.576  1.00  0.00     0.182 C 
HETATM    4  C8  UNL     1      22.550  -2.821  20.280  1.00  0.00     0.073 C 
HETATM    5  C10 UNL     1      22.130  -1.591  20.146  1.00  0.00     0.030 C 
HETATM    6  C11 UNL     1      23.076  -0.759  19.363  1.00  0.00     0.169 C 
HETATM    7  C12 UNL     1      23.215   0.544  20.024  1.00  0.00     0.071 C 
HETATM    8  N2  UNL     1      23.326   1.568  20.541  1.00  0.00    -0.196 NA
HETATM    9  C13 UNL     1      24.341  -1.556  19.582  1.00  0.00     0.248 C 
HETATM   10  F1  UNL     1      24.684  -1.277  20.924  1.00  0.00    -0.229 F 
HETATM   11  S1  UNL     1      23.401  -3.588  18.001  1.00  0.00     0.251 S 
HETATM   12  O5  UNL     1      22.845  -2.625  17.050  1.00  0.00    -0.204 OA
HETATM   13  O6  UNL     1      22.342  -4.658  18.237  1.00  0.00    -0.204 OA
HETATM   14  N3  UNL     1      24.771  -4.468  17.376  1.00  0.00    -0.268 N 
ATOM     15  H3  UNL     1      24.995  -4.473  16.380  1.00  0.00     0.180 HD
HETATM   16  C15 UNL     1      25.559  -5.179  18.317  1.00  0.00     0.133 C 
ENDROOT
BRANCH   9  17
HETATM   17  C14 UNL     1      25.474  -1.121  18.775  1.00  0.00     0.427 C 
HETATM   18  F2  UNL     1      26.244  -0.172  19.419  1.00  0.00    -0.167 F 
HETATM   19  F3  UNL     1      26.244  -2.117  18.216  1.00  0.00    -0.167 F 
HETATM   20  F4  UNL     1      24.937  -0.433  17.667  1.00  0.00    -0.167 F 
ENDBRANCH   9  17
BRANCH   4  21
HETATM   21  O4  UNL     1      21.869  -3.830  20.970  1.00  0.00    -0.358 OA
HETATM   22  C9  UNL     1      20.493  -3.789  21.201  1.00  0.00     0.209 C 
ENDBRANCH   4  21
BRANCH   1  23
HETATM   23  N1  UNL     1      25.705  -5.982  20.507  1.00  0.00    -0.267 N 
ATOM     24  H1  UNL     1      26.381  -6.661  20.157  1.00  0.00     0.194 HD
BRANCH  23  25
HETATM   25  O3  UNL     1      25.250  -6.103  21.756  1.00  0.00    -0.270 OA
BRANCH  25  26
HETATM   26  C4  UNL     1      24.377  -7.080  22.254  1.00  0.00     0.312 C 
BRANCH  26  27
HETATM   27  C3  UNL     1      22.972  -6.889  21.881  1.00  0.00     0.285 C 
HETATM   28  O2  UNL     1      22.575  -6.999  20.705  1.00  0.00    -0.263 OA
BRANCH  27  29
HETATM   29  O1  UNL     1      22.047  -6.574  22.852  1.00  0.00    -0.320 OA
BRANCH  29  30
HETATM   30  C2  UNL     1      20.781  -7.206  22.941  1.00  0.00     0.174 C 
HETATM   31  C1  UNL     1      20.439  -7.612  24.350  1.00  0.00     0.034 C 
ENDBRANCH  29  30
ENDBRANCH  27  29
ENDBRANCH  26  27
ENDBRANCH  25  26
ENDBRANCH  23  25
ENDBRANCH   1  23
BRANCH  16  32
HETATM   32  N4  UNL     1      26.487  -5.944  17.913  1.00  0.00    -0.383 N 
ATOM     33  H42 UNL     1      27.291  -6.128  18.514  1.00  0.00     0.157 HD
ATOM     34  H41 UNL     1      26.425  -6.376  16.992  1.00  0.00     0.157 HD
ENDBRANCH  16  32
TORSDOF 9
ENDMDL
MODEL 2
REMARK VINA RESULT: -7.188071221      3.045      6.471
REMARK  9 active torsions:
REMARK  status: ('A' for Active; 'I' for Inactive)
REMARK    1  A    between atoms: C2_2  and  O1_3 
REMARK    2  A    between atoms: O1_3  and  C3_4 
REMARK    3  A    between atoms: C3_4  and  C4_6 
REMARK    4  A    between atoms: C4_6  and  O3_7 
REMARK    5  A    between atoms: O3_7  and  N1_8 
REMARK    6  A    between atoms: N1_8  and  C5_10 
REMARK    7  A    between atoms: C8_13  and  O4_14 
REMARK    8  A    between atoms: C13_20  and  C14_22 
REMARK    9  A    between atoms: C15_31  and  N4_32 
ROOT
HETATM    1  C5  UNL     1      21.839  -1.963  20.536  1.00  0.00     0.078 C 
HETATM    2  C6  UNL     1      23.237  -2.359  20.388  1.00  0.00     0.101 C 
HETATM    3  C7  UNL     1      23.592  -3.480  19.488  1.00  0.00     0.182 C 
HETATM    4  C8  UNL     1      24.688  -2.962  18.615  1.00  0.00     0.073 C 
HETATM    5  C10 UNL     1      25.514  -3.945  18.371  1.00  0.00     0.030 C 
HETATM    6  C11 UNL     1      25.094  -5.206  19.029  1.00  0.00     0.169 C 
HETATM    7  C12 UNL     1      26.275  -5.842  19.625  1.00  0.00     0.071 C 
HETATM    8  N2  UNL     1      27.200  -6.344  20.093  1.00  0.00    -0.196 NA
HETATM    9  C13 UNL     1      24.238  -4.630  20.134  1.00  0.00     0.248 C 
HETATM   10  F1  UNL     1      25.179  -4.082  21.035  1.00  0.00    -0.229 F 
HETATM   11  S1  UNL     1      22.320  -3.869  18.330  1.00  0.00     0.251 S 
HETATM   12  O5  UNL     1      22.485  -5.120  17.589  1.00  0.00    -0.204 OA
HETATM   13  O6  UNL     1      22.272  -2.738  17.310  1.00  0.00    -0.204 OA
HETATM   14  N3  UNL     1      20.797  -3.756  19.172  1.00  0.00    -0.268 N 
ATOM     15  H3  UNL     1      20.024  -4.390  18.965  1.00  0.00     0.180 HD
HETATM   16  C15 UNL     1      20.682  -2.742  20.156  1.00  0.00     0.133 C 
ENDROOT
BRANCH   9  17
HETATM   17  C14 UNL     1      23.484  -5.623  20.891  1.00  0.00     0.427 C 
HETATM   18  F2  UNL     1      22.376  -5.079  21.511  1.00  0.00    -0.167 F 
HETATM   19  F3  UNL     1      23.183  -6.793  20.230  1.00  0.00    -0.167 F 
HETATM   20  F4  UNL     1      24.311  -6.028  21.958  1.00  0.00    -0.167 F 
ENDBRANCH   9  17
BRANCH   4  21
HETATM   21  O4  UNL     1      24.829  -1.657  18.130  1.00  0.00    -0.358 OA
HETATM   22  C9  UNL     1      26.048  -1.148  17.679  1.00  0.00     0.209 C 
ENDBRANCH   4  21
BRANCH   1  23
HETATM   23  N1  UNL     1      21.628  -0.804  21.060  1.00  0.00    -0.267 N 
ATOM     24  H1  UNL     1      22.127  -0.545  21.911  1.00  0.00     0.194 HD
BRANCH  23  25
HETATM   25  O3  UNL     1      20.773   0.065  20.517  1.00  0.00    -0.270 OA
BRANCH  25  26
HETATM   26  C4  UNL     1      21.079   1.279  19.886  1.00  0.00     0.312 C 
BRANCH  26  27
HETATM   27  C3  UNL     1      21.999   2.140  20.637  1.00  0.00     0.285 C 
HETATM   28  O2  UNL     1      21.798   2.451  21.827  1.00  0.00    -0.263 OA
BRANCH  27  29
HETATM   29  O1  UNL     1      23.128   2.633  20.019  1.00  0.00    -0.320 OA
BRANCH  29  30
HETATM   30  C2  UNL     1      24.146   1.795  19.499  1.00  0.00     0.174 C 
HETATM   31  C1  UNL     1      24.806   0.963  20.566  1.00  0.00     0.034 C 
ENDBRANCH  29  30
ENDBRANCH  27  29
ENDBRANCH  26  27
ENDBRANCH  25  26
ENDBRANCH  23  25
ENDBRANCH   1  23
BRANCH  16  32
HETATM   32  N4  UNL     1      19.562  -2.522  20.708  1.00  0.00    -0.383 N 
ATOM     33  H42 UNL     1      18.943  -1.802  20.332  1.00  0.00     0.157 HD
ATOM     34  H41 UNL     1      19.280  -3.066  21.523  1.00  0.00     0.157 HD
ENDBRANCH  16  32
TORSDOF 9
ENDMDL
MODEL 3
REMARK VINA RESULT: -7.112249875      3.311      6.249
REMARK  9 active torsions:
REMARK  status: ('A' for Active; 'I' for Inactive)
REMARK    1  A    between atoms: C2_2  and  O1_3 
REMARK    2  A    between atoms: O1_3  and  C3_4 
REMARK    3  A    between atoms: C3_4  and  C4_6 
REMARK    4  A    between atoms: C4_6  and  O3_7 
REMARK    5  A    between atoms: O3_7  and  N1_8 
REMARK    6  A    between atoms: N1_8  and  C5_10 
REMARK    7  A    between atoms: C8_13  and  O4_14 
REMARK    8  A    between atoms: C13_20  and  C14_22 
REMARK    9  A    between atoms: C15_31  and  N4_32 
ROOT
HETATM    1  C5  UNL     1      21.470  -1.776  20.888  1.00  0.00     0.078 C 
HETATM    2  C6  UNL     1      22.858  -2.124  20.593  1.00  0.00     0.101 C 
HETATM    3  C7  UNL     1      23.155  -3.173  19.591  1.00  0.00     0.182 C 
HETATM    4  C8  UNL     1      24.159  -2.569  18.664  1.00  0.00     0.073 C 
HETATM    5  C10 UNL     1      24.981  -3.512  18.284  1.00  0.00     0.030 C 
HETATM    6  C11 UNL     1      24.646  -4.824  18.887  1.00  0.00     0.169 C 
HETATM    7  C12 UNL     1      25.888  -5.467  19.334  1.00  0.00     0.071 C 
HETATM    8  N2  UNL     1      26.861  -5.974  19.685  1.00  0.00    -0.196 NA
HETATM    9  C13 UNL     1      23.880  -4.346  20.099  1.00  0.00     0.248 C 
HETATM   10  F1  UNL     1      24.885  -3.835  20.950  1.00  0.00    -0.229 F 
HETATM   11  S1  UNL     1      21.796  -3.518  18.523  1.00  0.00     0.251 S 
HETATM   12  O5  UNL     1      21.920  -4.711  17.687  1.00  0.00    -0.204 OA
HETATM   13  O6  UNL     1      21.635  -2.323  17.591  1.00  0.00    -0.204 OA
HETATM   14  N3  UNL     1      20.350  -3.502  19.499  1.00  0.00    -0.268 N 
ATOM     15  H3  UNL     1      19.575  -4.140  19.316  1.00  0.00     0.180 HD
HETATM   16  C15 UNL     1      20.301  -2.559  20.557  1.00  0.00     0.133 C 
ENDROOT
BRANCH   9  17
HETATM   17  C14 UNL     1      23.215  -5.407  20.847  1.00  0.00     0.427 C 
HETATM   18  F2  UNL     1      22.124  -4.944  21.556  1.00  0.00    -0.167 F 
HETATM   19  F3  UNL     1      22.926  -6.557  20.148  1.00  0.00    -0.167 F 
HETATM   20  F4  UNL     1      24.121  -5.823  21.844  1.00  0.00    -0.167 F 
ENDBRANCH   9  17
BRANCH   4  21
HETATM   21  O4  UNL     1      24.230  -1.232  18.260  1.00  0.00    -0.358 OA
HETATM   22  C9  UNL     1      25.438  -0.541  18.147  1.00  0.00     0.209 C 
ENDBRANCH   4  21
BRANCH   1  23
HETATM   23  N1  UNL     1      21.282  -0.662  21.507  1.00  0.00    -0.267 N 
ATOM     24  H1  UNL     1      20.909  -0.677  22.456  1.00  0.00     0.194 HD
BRANCH  23  25
HETATM   25  O3  UNL     1      21.563   0.512  20.937  1.00  0.00    -0.270 OA
BRANCH  25  26
HETATM   26  C4  UNL     1      20.655   1.463  20.453  1.00  0.00     0.312 C 
BRANCH  26  27
HETATM   27  C3  UNL     1      19.252   1.037  20.485  1.00  0.00     0.285 C 
HETATM   28  O2  UNL     1      18.682   0.703  21.541  1.00  0.00    -0.263 OA
BRANCH  27  29
HETATM   29  O1  UNL     1      18.527   0.997  19.314  1.00  0.00    -0.320 OA
BRANCH  29  30
HETATM   30  C2  UNL     1      18.552  -0.113  18.433  1.00  0.00     0.174 C 
HETATM   31  C1  UNL     1      17.319  -0.969  18.553  1.00  0.00     0.034 C 
ENDBRANCH  29  30
ENDBRANCH  27  29
ENDBRANCH  26  27
ENDBRANCH  25  26
ENDBRANCH  23  25
ENDBRANCH   1  23
BRANCH  16  32
HETATM   32  N4  UNL     1      19.229  -2.406  21.217  1.00  0.00    -0.383 N 
ATOM     33  H42 UNL     1      19.167  -1.671  21.921  1.00  0.00     0.157 HD
ATOM     34  H41 UNL     1      18.431  -3.015  21.040  1.00  0.00     0.157 HD
ENDBRANCH  16  32
TORSDOF 9
ENDMDL
MODEL 4
REMARK VINA RESULT: -7.108886446      3.240      6.382
REMARK  9 active torsions:
REMARK  status: ('A' for Active; 'I' for Inactive)
REMARK    1  A    between atoms: C2_2  and  O1_3 
REMARK    2  A    between atoms: O1_3  and  C3_4 
REMARK    3  A    between atoms: C3_4  and  C4_6 
REMARK    4  A    between atoms: C4_6  and  O3_7 
REMARK    5  A    between atoms: O3_7  and  N1_8 
REMARK    6  A    between atoms: N1_8  and  C5_10 
REMARK    7  A    between atoms: C8_13  and  O4_14 
REMARK    8  A    between atoms: C13_20  and  C14_22 
REMARK    9  A    between atoms: C15_31  and  N4_32 
ROOT
HETATM    1  C5  UNL     1      22.494  -1.788  20.483  1.00  0.00     0.078 C 
HETATM    2  C6  UNL     1      23.740  -2.445  20.094  1.00  0.00     0.101 C 
HETATM    3  C7  UNL     1      23.704  -3.595  19.161  1.00  0.00     0.182 C 
HETATM    4  C8  UNL     1      24.708  -3.282  18.101  1.00  0.00     0.073 C 
HETATM    5  C10 UNL     1      25.270  -4.402  17.728  1.00  0.00     0.030 C 
HETATM    6  C11 UNL     1      24.735  -5.570  18.468  1.00  0.00     0.169 C 
HETATM    7  C12 UNL     1      25.855  -6.437  18.854  1.00  0.00     0.071 C 
HETATM    8  N2  UNL     1      26.732  -7.119  19.158  1.00  0.00    -0.196 NA
HETATM    9  C13 UNL     1      24.217  -4.862  19.699  1.00  0.00     0.248 C 
HETATM   10  F1  UNL     1      25.391  -4.528  20.411  1.00  0.00    -0.229 F 
HETATM   11  S1  UNL     1      22.197  -3.705  18.253  1.00  0.00     0.251 S 
HETATM   12  O5  UNL     1      21.981  -4.948  17.512  1.00  0.00    -0.204 OA
HETATM   13  O6  UNL     1      22.191  -2.565  17.242  1.00  0.00    -0.204 OA
HETATM   14  N3  UNL     1      20.898  -3.315  19.350  1.00  0.00    -0.268 N 
ATOM     15  H3  UNL     1      19.992  -3.782  19.292  1.00  0.00     0.180 HD
HETATM   16  C15 UNL     1      21.159  -2.319  20.325  1.00  0.00     0.133 C 
ENDROOT
BRANCH   9  17
HETATM   17  C14 UNL     1      23.429  -5.705  20.591  1.00  0.00     0.427 C 
HETATM   18  F2  UNL     1      22.547  -4.973  21.361  1.00  0.00    -0.167 F 
HETATM   19  F3  UNL     1      22.826  -6.802  20.018  1.00  0.00    -0.167 F 
HETATM   20  F4  UNL     1      24.330  -6.253  21.527  1.00  0.00    -0.167 F 
ENDBRANCH   9  17
BRANCH   4  21
HETATM   21  O4  UNL     1      25.013  -2.020  17.580  1.00  0.00    -0.358 OA
HETATM   22  C9  UNL     1      26.260  -1.416  17.749  1.00  0.00     0.209 C 
ENDBRANCH   4  21
BRANCH   1  23
HETATM   23  N1  UNL     1      22.609  -0.622  21.019  1.00  0.00    -0.267 N 
ATOM     24  H1  UNL     1      22.313  -0.488  21.986  1.00  0.00     0.194 HD
BRANCH  23  25
HETATM   25  O3  UNL     1      23.108   0.414  20.342  1.00  0.00    -0.270 OA
BRANCH  25  26
HETATM   26  C4  UNL     1      22.486   1.645  20.090  1.00  0.00     0.312 C 
BRANCH  26  27
HETATM   27  C3  UNL     1      21.341   1.938  20.959  1.00  0.00     0.285 C 
HETATM   28  O2  UNL     1      21.322   2.919  21.726  1.00  0.00    -0.263 OA
BRANCH  27  29
HETATM   29  O1  UNL     1      20.242   1.107  20.938  1.00  0.00    -0.320 OA
BRANCH  29  30
HETATM   30  C2  UNL     1      19.025   1.460  20.304  1.00  0.00     0.174 C 
HETATM   31  C1  UNL     1      17.945   1.816  21.291  1.00  0.00     0.034 C 
ENDBRANCH  29  30
ENDBRANCH  27  29
ENDBRANCH  26  27
ENDBRANCH  25  26
ENDBRANCH  23  25
ENDBRANCH   1  23
BRANCH  16  32
HETATM   32  N4  UNL     1      20.219  -1.897  21.063  1.00  0.00    -0.383 N 
ATOM     33  H42 UNL     1      20.331  -1.895  22.077  1.00  0.00     0.157 HD
ATOM     34  H41 UNL     1      19.355  -1.556  20.642  1.00  0.00     0.157 HD
ENDBRANCH  16  32
TORSDOF 9
ENDMDL
MODEL 5
REMARK VINA RESULT: -7.091528474      3.060      6.659
REMARK  9 active torsions:
REMARK  status: ('A' for Active; 'I' for Inactive)
REMARK    1  A    between atoms: C2_2  and  O1_3 
REMARK    2  A    between atoms: O1_3  and  C3_4 
REMARK    3  A    between atoms: C3_4  and  C4_6 
REMARK    4  A    between atoms: C4_6  and  O3_7 
REMARK    5  A    between atoms: O3_7  and  N1_8 
REMARK    6  A    between atoms: N1_8  and  C5_10 
REMARK    7  A    between atoms: C8_13  and  O4_14 
REMARK    8  A    between atoms: C13_20  and  C14_22 
REMARK    9  A    between atoms: C15_31  and  N4_32 
ROOT
HETATM    1  C5  UNL     1      21.482  -1.752  20.926  1.00  0.00     0.078 C 
HETATM    2  C6  UNL     1      22.866  -2.112  20.628  1.00  0.00     0.101 C 
HETATM    3  C7  UNL     1      23.152  -3.162  19.624  1.00  0.00     0.182 C 
HETATM    4  C8  UNL     1      24.160  -2.566  18.697  1.00  0.00     0.073 C 
HETATM    5  C10 UNL     1      24.973  -3.515  18.313  1.00  0.00     0.030 C 
HETATM    6  C11 UNL     1      24.627  -4.825  18.915  1.00  0.00     0.169 C 
HETATM    7  C12 UNL     1      25.864  -5.480  19.359  1.00  0.00     0.071 C 
HETATM    8  N2  UNL     1      26.833  -5.997  19.707  1.00  0.00    -0.196 NA
HETATM    9  C13 UNL     1      23.867  -4.342  20.129  1.00  0.00     0.248 C 
HETATM   10  F1  UNL     1      24.878  -3.841  20.979  1.00  0.00    -0.229 F 
HETATM   11  S1  UNL     1      21.788  -3.493  18.558  1.00  0.00     0.251 S 
HETATM   12  O5  UNL     1      21.900  -4.686  17.719  1.00  0.00    -0.204 OA
HETATM   13  O6  UNL     1      21.636  -2.295  17.628  1.00  0.00    -0.204 OA
HETATM   14  N3  UNL     1      20.343  -3.465  19.536  1.00  0.00    -0.268 N 
ATOM     15  H3  UNL     1      19.563  -4.096  19.354  1.00  0.00     0.180 HD
HETATM   16  C15 UNL     1      20.305  -2.523  20.596  1.00  0.00     0.133 C 
ENDROOT
BRANCH   9  17
HETATM   17  C14 UNL     1      23.194  -5.398  20.877  1.00  0.00     0.427 C 
HETATM   18  F2  UNL     1      22.092  -4.932  21.566  1.00  0.00    -0.167 F 
HETATM   19  F3  UNL     1      22.918  -6.555  20.184  1.00  0.00    -0.167 F 
HETATM   20  F4  UNL     1      24.087  -5.804  21.890  1.00  0.00    -0.167 F 
ENDBRANCH   9  17
BRANCH   4  21
HETATM   21  O4  UNL     1      24.242  -1.228  18.294  1.00  0.00    -0.358 OA
HETATM   22  C9  UNL     1      25.413  -0.476  18.411  1.00  0.00     0.209 C 
ENDBRANCH   4  21
BRANCH   1  23
HETATM   23  N1  UNL     1      21.305  -0.636  21.547  1.00  0.00    -0.267 N 
ATOM     24  H1  UNL     1      21.697  -0.520  22.482  1.00  0.00     0.194 HD
BRANCH  23  25
HETATM   25  O3  UNL     1      20.623   0.371  20.997  1.00  0.00    -0.270 OA
BRANCH  25  26
HETATM   26  C4  UNL     1      20.856   0.980  19.757  1.00  0.00     0.312 C 
BRANCH  26  27
HETATM   27  C3  UNL     1      22.219   1.492  19.576  1.00  0.00     0.285 C 
HETATM   28  O2  UNL     1      22.994   1.670  20.535  1.00  0.00    -0.263 OA
BRANCH  27  29
HETATM   29  O1  UNL     1      22.670   1.794  18.310  1.00  0.00    -0.320 OA
BRANCH  29  30
HETATM   30  C2  UNL     1      23.188   3.067  17.962  1.00  0.00     0.174 C 
HETATM   31  C1  UNL     1      24.502   2.972  17.232  1.00  0.00     0.034 C 
ENDBRANCH  29  30
ENDBRANCH  27  29
ENDBRANCH  26  27
ENDBRANCH  25  26
ENDBRANCH  23  25
ENDBRANCH   1  23
BRANCH  16  32
HETATM   32  N4  UNL     1      19.236  -2.361  21.258  1.00  0.00    -0.383 N 
ATOM     33  H42 UNL     1      19.242  -1.787  22.101  1.00  0.00     0.157 HD
ATOM     34  H41 UNL     1      18.372  -2.803  20.945  1.00  0.00     0.157 HD
ENDBRANCH  16  32
TORSDOF 9
ENDMDL
