MODEL 1
REMARK VINA RESULT: -5.025849544      0.000      0.000
REMARK  2 active torsions:
REMARK  status: ('A' for Active; 'I' for Inactive)
REMARK    1  A    between atoms: O1_2  and  N1_3 
REMARK    2  A    between atoms: C10_13  and  O2_14 
ROOT
HETATM    1  N1  UNL     1       7.485   9.335   6.184  1.00  0.00    -0.275 N 
ATOM      2  H1  UNL     1       7.080   9.398   5.249  1.00  0.00     0.193 HD
HETATM    3  C2  UNL     1       6.817   8.702   7.085  1.00  0.00     0.016 C 
HETATM    4  C3  UNL     1       5.527   8.101   6.762  1.00  0.00     0.056 C 
HETATM    5  C4  UNL     1       4.615   7.926   7.946  1.00  0.00     0.017 C 
HETATM    6  C5  UNL     1       5.318   7.828   9.252  1.00  0.00    -0.017 C 
HETATM    7  C6  UNL     1       4.646   6.902  10.234  1.00  0.00     0.018 C 
HETATM    8  C7  UNL     1       5.489   9.225   9.839  1.00  0.00     0.012 C 
HETATM    9  C8  UNL     1       6.779   9.741   9.259  1.00  0.00     0.014 C 
HETATM   10  C9  UNL     1       7.371   8.592   8.443  1.00  0.00     0.063 C 
HETATM   11  C10 UNL     1       6.763   7.388   9.134  1.00  0.00     0.136 C 
ENDROOT
BRANCH   1  12
HETATM   12  O1  UNL     1       8.688   9.924   6.388  1.00  0.00    -0.285 OA
HETATM   13  C1  UNL     1       9.799   9.410   5.639  1.00  0.00     0.237 C 
ENDBRANCH   1  12
BRANCH  11  14
HETATM   14  O2  UNL     1       6.915   6.224   8.422  1.00  0.00    -0.394 OA
ATOM     15  H2  UNL     1       7.102   5.472   8.971  1.00  0.00     0.210 HD
ENDBRANCH  11  14
TORSDOF 2
ENDMDL
MODEL 2
REMARK VINA RESULT: -4.988881566      1.389      1.655
REMARK  2 active torsions:
REMARK  status: ('A' for Active; 'I' for Inactive)
REMARK    1  A    between atoms: O1_2  and  N1_3 
REMARK    2  A    between atoms: C10_13  and  O2_14 
ROOT
HETATM    1  N1  UNL     1       7.152   8.866   6.452  1.00  0.00    -0.275 N 
ATOM      2  H1  UNL     1       6.875   9.590   5.788  1.00  0.00     0.193 HD
HETATM    3  C2  UNL     1       6.224   8.121   6.947  1.00  0.00     0.016 C 
HETATM    4  C3  UNL     1       4.832   8.319   6.559  1.00  0.00     0.056 C 
HETATM    5  C4  UNL     1       3.834   7.838   7.577  1.00  0.00     0.017 C 
HETATM    6  C5  UNL     1       4.344   6.771   8.478  1.00  0.00    -0.017 C 
HETATM    7  C6  UNL     1       3.295   5.764   8.879  1.00  0.00     0.018 C 
HETATM    8  C7  UNL     1       4.990   7.410   9.702  1.00  0.00     0.012 C 
HETATM    9  C8  UNL     1       6.420   7.664   9.306  1.00  0.00     0.014 C 
HETATM   10  C9  UNL     1       6.588   7.068   7.908  1.00  0.00     0.063 C 
HETATM   11  C10 UNL     1       5.514   5.998   7.906  1.00  0.00     0.136 C 
ENDROOT
BRANCH   1  12
HETATM   12  O1  UNL     1       8.469   8.758   6.751  1.00  0.00    -0.285 OA
HETATM   13  C1  UNL     1       9.341   8.331   5.695  1.00  0.00     0.237 C 
ENDBRANCH   1  12
BRANCH  11  14
HETATM   14  O2  UNL     1       5.264   5.489   6.656  1.00  0.00    -0.394 OA
ATOM     15  H2  UNL     1       5.277   4.539   6.631  1.00  0.00     0.210 HD
ENDBRANCH  11  14
TORSDOF 2
ENDMDL
MODEL 3
REMARK VINA RESULT: -4.982631002      1.952      2.575
REMARK  2 active torsions:
REMARK  status: ('A' for Active; 'I' for Inactive)
REMARK    1  A    between atoms: O1_2  and  N1_3 
REMARK    2  A    between atoms: C10_13  and  O2_14 
ROOT
HETATM    1  N1  UNL     1       9.299   8.142   5.822  1.00  0.00    -0.275 N 
ATOM      2  H1  UNL     1       9.764   9.006   5.540  1.00  0.00     0.193 HD
HETATM    3  C2  UNL     1       8.304   8.235   6.634  1.00  0.00     0.016 C 
HETATM    4  C3  UNL     1       7.868   9.539   7.123  1.00  0.00     0.056 C 
HETATM    5  C4  UNL     1       7.144   9.493   8.441  1.00  0.00     0.017 C 
HETATM    6  C5  UNL     1       6.491   8.191   8.736  1.00  0.00    -0.017 C 
HETATM    7  C6  UNL     1       5.197   8.320   9.500  1.00  0.00     0.018 C 
HETATM    8  C7  UNL     1       7.476   7.287   9.469  1.00  0.00     0.012 C 
HETATM    9  C8  UNL     1       8.245   6.580   8.385  1.00  0.00     0.014 C 
HETATM   10  C9  UNL     1       7.611   7.010   7.062  1.00  0.00     0.063 C 
HETATM   11  C10 UNL     1       6.203   7.360   7.502  1.00  0.00     0.136 C 
ENDROOT
BRANCH   1  12
HETATM   12  O1  UNL     1       9.775   6.979   5.316  1.00  0.00    -0.285 OA
HETATM   13  C1  UNL     1      11.162   6.691   5.542  1.00  0.00     0.237 C 
ENDBRANCH   1  12
BRANCH  11  14
HETATM   14  O2  UNL     1       5.494   8.043   6.546  1.00  0.00    -0.394 OA
ATOM     15  H2  UNL     1       4.557   8.043   6.705  1.00  0.00     0.210 HD
ENDBRANCH  11  14
TORSDOF 2
ENDMDL
MODEL 4
REMARK VINA RESULT: -4.922578310      2.154      4.437
REMARK  2 active torsions:
REMARK  status: ('A' for Active; 'I' for Inactive)
REMARK    1  A    between atoms: O1_2  and  N1_3 
REMARK    2  A    between atoms: C10_13  and  O2_14 
ROOT
HETATM    1  N1  UNL     1       4.631   6.665  10.045  1.00  0.00    -0.275 N 
ATOM      2  H1  UNL     1       4.372   7.071  10.946  1.00  0.00     0.193 HD
HETATM    3  C2  UNL     1       5.549   7.258   9.364  1.00  0.00     0.016 C 
HETATM    4  C3  UNL     1       6.188   8.465   9.877  1.00  0.00     0.056 C 
HETATM    5  C4  UNL     1       6.769   9.356   8.813  1.00  0.00     0.017 C 
HETATM    6  C5  UNL     1       7.124   8.652   7.552  1.00  0.00    -0.017 C 
HETATM    7  C6  UNL     1       8.345   9.214   6.868  1.00  0.00     0.018 C 
HETATM    8  C7  UNL     1       5.920   8.652   6.618  1.00  0.00     0.012 C 
HETATM    9  C8  UNL     1       5.126   7.430   6.997  1.00  0.00     0.014 C 
HETATM   10  C9  UNL     1       5.946   6.701   8.061  1.00  0.00     0.063 C 
HETATM   11  C10 UNL     1       7.351   7.164   7.728  1.00  0.00     0.136 C 
ENDROOT
BRANCH   1  12
HETATM   12  O1  UNL     1       3.983   5.542   9.652  1.00  0.00    -0.285 OA
HETATM   13  C1  UNL     1       2.703   5.716   9.027  1.00  0.00     0.237 C 
ENDBRANCH   1  12
BRANCH  11  14
HETATM   14  O2  UNL     1       8.263   6.871   8.712  1.00  0.00    -0.394 OA
ATOM     15  H2  UNL     1       8.955   6.290   8.418  1.00  0.00     0.210 HD
ENDBRANCH  11  14
TORSDOF 2
ENDMDL
MODEL 5
REMARK VINA RESULT: -4.794739156      3.521      5.907
REMARK  2 active torsions:
REMARK  status: ('A' for Active; 'I' for Inactive)
REMARK    1  A    between atoms: O1_2  and  N1_3 
REMARK    2  A    between atoms: C10_13  and  O2_14 
ROOT
HETATM    1  N1  UNL     1       8.217   6.503   7.674  1.00  0.00    -0.275 N 
ATOM      2  H1  UNL     1       8.064   5.906   8.488  1.00  0.00     0.193 HD
HETATM    3  C2  UNL     1       9.173   6.186   6.871  1.00  0.00     0.016 C 
HETATM    4  C3  UNL     1       9.997   5.011   7.131  1.00  0.00     0.056 C 
HETATM    5  C4  UNL     1      11.368   5.070   6.514  1.00  0.00     0.017 C 
HETATM    6  C5  UNL     1      11.466   5.957   5.325  1.00  0.00    -0.017 C 
HETATM    7  C6  UNL     1      12.430   5.461   4.277  1.00  0.00     0.018 C 
HETATM    8  C7  UNL     1      11.823   7.369   5.776  1.00  0.00     0.012 C 
HETATM    9  C8  UNL     1      10.505   8.031   6.077  1.00  0.00     0.014 C 
HETATM   10  C9  UNL     1       9.422   7.025   5.688  1.00  0.00     0.063 C 
HETATM   11  C10 UNL     1      10.140   6.203   4.636  1.00  0.00     0.136 C 
ENDROOT
BRANCH   1  12
HETATM   12  O1  UNL     1       7.400   7.573   7.516  1.00  0.00    -0.285 OA
HETATM   13  C1  UNL     1       5.995   7.351   7.708  1.00  0.00     0.237 C 
ENDBRANCH   1  12
BRANCH  11  14
HETATM   14  O2  UNL     1       9.478   5.044   4.314  1.00  0.00    -0.394 OA
ATOM     15  H2  UNL     1       8.772   4.838   4.916  1.00  0.00     0.210 HD
ENDBRANCH  11  14
TORSDOF 2
ENDMDL
