MODEL 1
REMARK VINA RESULT: -6.054782288      0.000      0.000
REMARK  2 active torsions:
REMARK  status: ('A' for Active; 'I' for Inactive)
REMARK    1  A    between atoms: N1_5  and  N2_6 
REMARK    2  A    between atoms: C7_12  and  O1_13 
ROOT
HETATM    1  N2  UNL     1       5.880   9.161  10.013  1.00  0.00    -0.171 N 
HETATM    2  N3  UNL     1       6.929   9.848   9.524  1.00  0.00    -0.264 N 
ATOM      3  H3  UNL     1       7.488   9.748   8.676  1.00  0.00     0.190 HD
HETATM    4  C5  UNL     1       6.980  10.713  10.550  1.00  0.00     0.184 A 
HETATM    5  C6  UNL     1       7.829  11.814  10.872  1.00  0.00     0.123 C 
HETATM    6  N4  UNL     1       8.540  12.703  11.146  1.00  0.00    -0.190 NA
HETATM    7  C7  UNL     1       5.904  10.004  11.044  1.00  0.00     0.218 A 
ENDROOT
BRANCH   7   8
HETATM    8  O1  UNL     1       5.148  10.151  12.197  1.00  0.00    -0.341 OA
ATOM      9  H1  UNL     1       4.609  10.845  12.556  1.00  0.00     0.219 HD
ENDBRANCH   7   8
BRANCH   1  10
HETATM   10  N1  UNL     1       5.185   8.039   9.533  1.00  0.00    -0.305 N 
HETATM   11  C4  UNL     1       4.742   7.040  10.441  1.00  0.00     0.145 C 
HETATM   12  C3  UNL     1       3.742   6.060   9.892  1.00  0.00     0.026 C 
HETATM   13  C2  UNL     1       3.464   6.180   8.436  1.00  0.00    -0.015 C 
HETATM   14  C1  UNL     1       2.984   4.917   7.768  1.00  0.00     0.010 C 
HETATM   15  C9  UNL     1       4.677   6.642   7.641  1.00  0.00     0.026 C 
HETATM   16  C8  UNL     1       4.974   8.028   8.091  1.00  0.00     0.145 C 
ENDBRANCH   1  10
TORSDOF 2
ENDMDL
MODEL 2
REMARK VINA RESULT: -5.987132905      1.363      1.462
REMARK  2 active torsions:
REMARK  status: ('A' for Active; 'I' for Inactive)
REMARK    1  A    between atoms: N1_5  and  N2_6 
REMARK    2  A    between atoms: C7_12  and  O1_13 
ROOT
HETATM    1  N2  UNL     1       5.622   9.017  10.174  1.00  0.00    -0.171 N 
HETATM    2  N3  UNL     1       5.403   9.707  11.309  1.00  0.00    -0.264 N 
ATOM      3  H3  UNL     1       4.732   9.594  12.069  1.00  0.00     0.190 HD
HETATM    4  C5  UNL     1       6.382  10.598  11.084  1.00  0.00     0.184 A 
HETATM    5  C6  UNL     1       6.864  11.736  11.799  1.00  0.00     0.123 C 
HETATM    6  N4  UNL     1       7.243  12.683  12.374  1.00  0.00    -0.190 NA
HETATM    7  C7  UNL     1       6.601   9.884   9.924  1.00  0.00     0.218 A 
ENDROOT
BRANCH   7   8
HETATM    8  O1  UNL     1       7.520  10.044   8.898  1.00  0.00    -0.341 OA
ATOM      9  H1  UNL     1       7.621  10.662   8.185  1.00  0.00     0.219 HD
ENDBRANCH   7   8
BRANCH   1  10
HETATM   10  N1  UNL     1       4.986   7.894   9.619  1.00  0.00    -0.305 N 
HETATM   11  C4  UNL     1       4.585   6.821  10.459  1.00  0.00     0.145 C 
HETATM   12  C3  UNL     1       3.639   5.830   9.840  1.00  0.00     0.026 C 
HETATM   13  C2  UNL     1       3.367   6.026   8.391  1.00  0.00    -0.015 C 
HETATM   14  C1  UNL     1       2.956   4.785   7.642  1.00  0.00     0.010 C 
HETATM   15  C9  UNL     1       4.563   6.594   7.639  1.00  0.00     0.026 C 
HETATM   16  C8  UNL     1       4.789   7.963   8.176  1.00  0.00     0.145 C 
ENDBRANCH   1  10
TORSDOF 2
ENDMDL
MODEL 3
REMARK VINA RESULT: -5.880216369      6.031      6.988
REMARK  2 active torsions:
REMARK  status: ('A' for Active; 'I' for Inactive)
REMARK    1  A    between atoms: N1_5  and  N2_6 
REMARK    2  A    between atoms: C7_12  and  O1_13 
ROOT
HETATM    1  N2  UNL     1       9.853   6.952   5.796  1.00  0.00    -0.171 N 
HETATM    2  N3  UNL     1      11.093   7.453   5.642  1.00  0.00    -0.264 N 
ATOM      3  H3  UNL     1      11.588   8.224   6.091  1.00  0.00     0.190 HD
HETATM    4  C5  UNL     1      11.446   6.578   4.687  1.00  0.00     0.184 A 
HETATM    5  C6  UNL     1      12.631   6.384   3.916  1.00  0.00     0.123 C 
HETATM    6  N4  UNL     1      13.596   6.240   3.268  1.00  0.00    -0.190 NA
HETATM    7  C7  UNL     1      10.174   6.069   4.852  1.00  0.00     0.218 A 
ENDROOT
BRANCH   7   8
HETATM    8  O1  UNL     1       9.511   5.017   4.238  1.00  0.00    -0.341 OA
ATOM      9  H1  UNL     1       8.951   4.936   3.475  1.00  0.00     0.219 HD
ENDBRANCH   7   8
BRANCH   1  10
HETATM   10  N1  UNL     1       8.783   7.326   6.625  1.00  0.00    -0.305 N 
HETATM   11  C4  UNL     1       8.346   6.449   7.655  1.00  0.00     0.145 C 
HETATM   12  C3  UNL     1       7.431   7.057   8.682  1.00  0.00     0.026 C 
HETATM   13  C2  UNL     1       6.992   8.450   8.400  1.00  0.00    -0.015 C 
HETATM   14  C1  UNL     1       5.680   8.847   9.024  1.00  0.00     0.010 C 
HETATM   15  C9  UNL     1       6.853   8.734   6.911  1.00  0.00     0.026 C 
HETATM   16  C8  UNL     1       8.220   8.638   6.333  1.00  0.00     0.145 C 
ENDBRANCH   1  10
TORSDOF 2
ENDMDL
MODEL 4
REMARK VINA RESULT: -5.744156902      6.327      7.316
REMARK  2 active torsions:
REMARK  status: ('A' for Active; 'I' for Inactive)
REMARK    1  A    between atoms: N1_5  and  N2_6 
REMARK    2  A    between atoms: C7_12  and  O1_13 
ROOT
HETATM    1  N2  UNL     1      10.247   6.807   5.713  1.00  0.00    -0.171 N 
HETATM    2  N3  UNL     1      11.546   7.152   5.791  1.00  0.00    -0.264 N 
ATOM      3  H3  UNL     1      12.049   7.828   6.366  1.00  0.00     0.190 HD
HETATM    4  C5  UNL     1      11.944   6.288   4.844  1.00  0.00     0.184 A 
HETATM    5  C6  UNL     1      13.208   5.983   4.256  1.00  0.00     0.123 C 
HETATM    6  N4  UNL     1      14.243   5.749   3.758  1.00  0.00    -0.190 NA
HETATM    7  C7  UNL     1      10.611   5.940   4.771  1.00  0.00     0.218 A 
ENDROOT
BRANCH   7   8
HETATM    8  O1  UNL     1       9.938   5.014   3.988  1.00  0.00    -0.341 OA
ATOM      9  H1  UNL     1      10.206   4.310   3.410  1.00  0.00     0.219 HD
ENDBRANCH   7   8
BRANCH   1  10
HETATM   10  N1  UNL     1       9.108   7.273   6.390  1.00  0.00    -0.305 N 
HETATM   11  C4  UNL     1       8.623   8.585   6.138  1.00  0.00     0.145 C 
HETATM   12  C3  UNL     1       7.240   8.876   6.649  1.00  0.00     0.026 C 
HETATM   13  C2  UNL     1       6.625   7.802   7.474  1.00  0.00    -0.015 C 
HETATM   14  C1  UNL     1       5.579   8.265   8.455  1.00  0.00     0.010 C 
HETATM   15  C9  UNL     1       7.650   7.024   8.288  1.00  0.00     0.026 C 
HETATM   16  C8  UNL     1       8.513   6.311   7.309  1.00  0.00     0.145 C 
ENDBRANCH   1  10
TORSDOF 2
ENDMDL
MODEL 5
REMARK VINA RESULT: -5.719633102      2.776      5.988
REMARK  2 active torsions:
REMARK  status: ('A' for Active; 'I' for Inactive)
REMARK    1  A    between atoms: N1_5  and  N2_6 
REMARK    2  A    between atoms: C7_12  and  O1_13 
ROOT
HETATM    1  N2  UNL     1       5.034   7.045   8.187  1.00  0.00    -0.171 N 
HETATM    2  N3  UNL     1       4.634   6.112   7.302  1.00  0.00    -0.264 N 
ATOM      3  H3  UNL     1       4.926   5.893   6.350  1.00  0.00     0.190 HD
HETATM    4  C5  UNL     1       3.715   5.574   8.120  1.00  0.00     0.184 A 
HETATM    5  C6  UNL     1       2.780   4.505   7.985  1.00  0.00     0.123 C 
HETATM    6  N4  UNL     1       1.997   3.641   7.865  1.00  0.00    -0.190 NA
HETATM    7  C7  UNL     1       4.131   6.532   9.022  1.00  0.00     0.218 A 
ENDROOT
BRANCH   7   8
HETATM    8  O1  UNL     1       3.730   6.820  10.318  1.00  0.00    -0.341 OA
ATOM      9  H1  UNL     1       3.995   6.520  11.179  1.00  0.00     0.219 HD
ENDBRANCH   7   8
BRANCH   1  10
HETATM   10  N1  UNL     1       5.992   8.069   8.107  1.00  0.00    -0.305 N 
HETATM   11  C4  UNL     1       5.993   9.114   9.070  1.00  0.00     0.145 C 
HETATM   12  C3  UNL     1       7.228   9.970   9.099  1.00  0.00     0.026 C 
HETATM   13  C2  UNL     1       8.218   9.699   8.022  1.00  0.00    -0.015 C 
HETATM   14  C1  UNL     1       9.107  10.861   7.662  1.00  0.00     0.010 C 
HETATM   15  C9  UNL     1       7.565   9.250   6.722  1.00  0.00     0.026 C 
HETATM   16  C8  UNL     1       6.931   7.934   7.000  1.00  0.00     0.145 C 
ENDBRANCH   1  10
TORSDOF 2
ENDMDL
