MODEL 1
REMARK VINA RESULT: -4.807419824      0.000      0.000
REMARK  2 active torsions:
REMARK  status: ('A' for Active; 'I' for Inactive)
REMARK    1  A    between atoms: C2_2  and  C3_3 
REMARK    2  A    between atoms: C6_8  and  O1_9 
ROOT
HETATM    1  C3  UNL     1       6.951   7.387   8.444  1.00  0.00     0.029 C 
HETATM    2  C4  UNL     1       6.586   8.857   8.191  1.00  0.00     0.048 C 
HETATM    3  C5  UNL     1       5.165   8.794   8.781  1.00  0.00     0.138 C 
HETATM    4  N1  UNL     1       4.393   8.000   7.812  1.00  0.00    -0.169 NA
HETATM    5  S1  UNL     1       5.515   6.619   7.601  1.00  0.00    -0.055 SA
HETATM    6  C6  UNL     1       5.360   7.986  10.049  1.00  0.00     0.165 C 
HETATM    7  C7  UNL     1       4.332   6.950  10.110  1.00  0.00     0.099 C 
HETATM    8  N2  UNL     1       3.508   6.140  10.157  1.00  0.00    -0.194 NA
HETATM    9  C8  UNL     1       6.715   7.278   9.899  1.00  0.00     0.077 C 
ENDROOT
BRANCH   6  10
HETATM   10  O1  UNL     1       5.354   8.807  11.172  1.00  0.00    -0.374 OA
ATOM     11  H1  UNL     1       5.184   8.306  11.961  1.00  0.00     0.212 HD
ENDBRANCH   6  10
BRANCH   1  12
HETATM   12  C2  UNL     1       8.240   6.980   7.912  1.00  0.00     0.017 C 
HETATM   13  C1  UNL     1       8.615   7.906   6.772  1.00  0.00     0.006 C 
ENDBRANCH   1  12
TORSDOF 2
ENDMDL
MODEL 2
REMARK VINA RESULT: -4.450424782      2.319      2.944
REMARK  2 active torsions:
REMARK  status: ('A' for Active; 'I' for Inactive)
REMARK    1  A    between atoms: C2_2  and  C3_3 
REMARK    2  A    between atoms: C6_8  and  O1_9 
ROOT
HETATM    1  C3  UNL     1       7.518   8.897   7.396  1.00  0.00     0.029 C 
HETATM    2  C4  UNL     1       8.216   7.583   7.775  1.00  0.00     0.048 C 
HETATM    3  C5  UNL     1       7.017   6.943   8.498  1.00  0.00     0.138 C 
HETATM    4  N1  UNL     1       6.876   7.714   9.743  1.00  0.00    -0.169 NA
HETATM    5  S1  UNL     1       6.946   9.374   9.072  1.00  0.00    -0.055 SA
HETATM    6  C6  UNL     1       5.856   7.262   7.576  1.00  0.00     0.165 C 
HETATM    7  C7  UNL     1       4.753   7.791   8.375  1.00  0.00     0.099 C 
HETATM    8  N2  UNL     1       3.880   8.198   9.014  1.00  0.00    -0.194 NA
HETATM    9  C8  UNL     1       6.340   8.395   6.657  1.00  0.00     0.077 C 
ENDROOT
BRANCH   6  10
HETATM   10  O1  UNL     1       5.485   6.148   6.830  1.00  0.00    -0.374 OA
ATOM     11  H1  UNL     1       4.685   5.761   7.166  1.00  0.00     0.212 HD
ENDBRANCH   6  10
BRANCH   1  12
HETATM   12  C2  UNL     1       8.375   9.881   6.759  1.00  0.00     0.017 C 
HETATM   13  C1  UNL     1       9.264   9.178   5.752  1.00  0.00     0.006 C 
ENDBRANCH   1  12
TORSDOF 2
ENDMDL
MODEL 3
REMARK VINA RESULT: -4.437241204      2.168      3.602
REMARK  2 active torsions:
REMARK  status: ('A' for Active; 'I' for Inactive)
REMARK    1  A    between atoms: C2_2  and  C3_3 
REMARK    2  A    between atoms: C6_8  and  O1_9 
ROOT
HETATM    1  C3  UNL     1       4.680   7.209   8.609  1.00  0.00     0.029 C 
HETATM    2  C4  UNL     1       4.900   6.775  10.065  1.00  0.00     0.048 C 
HETATM    3  C5  UNL     1       6.113   7.683  10.343  1.00  0.00     0.138 C 
HETATM    4  N1  UNL     1       7.209   7.090   9.562  1.00  0.00    -0.169 NA
HETATM    5  S1  UNL     1       6.376   6.887   7.988  1.00  0.00    -0.055 SA
HETATM    6  C6  UNL     1       5.702   8.999   9.712  1.00  0.00     0.165 C 
HETATM    7  C7  UNL     1       6.807   9.494   8.894  1.00  0.00     0.099 C 
HETATM    8  N2  UNL     1       7.690   9.885   8.259  1.00  0.00    -0.194 NA
HETATM    9  C8  UNL     1       4.540   8.673   8.762  1.00  0.00     0.077 C 
ENDROOT
BRANCH   6  10
HETATM   10  O1  UNL     1       5.305   9.917  10.679  1.00  0.00    -0.374 OA
ATOM     11  H1  UNL     1       6.020  10.494  10.919  1.00  0.00     0.212 HD
ENDBRANCH   6  10
BRANCH   1  12
HETATM   12  C2  UNL     1       3.641   6.477   7.906  1.00  0.00     0.017 C 
HETATM   13  C1  UNL     1       3.068   5.426   8.835  1.00  0.00     0.006 C 
ENDBRANCH   1  12
TORSDOF 2
ENDMDL
MODEL 4
REMARK VINA RESULT: -4.417063298      2.872      4.009
REMARK  2 active torsions:
REMARK  status: ('A' for Active; 'I' for Inactive)
REMARK    1  A    between atoms: C2_2  and  C3_3 
REMARK    2  A    between atoms: C6_8  and  O1_9 
ROOT
HETATM    1  C3  UNL     1       3.663   5.994   8.397  1.00  0.00     0.029 C 
HETATM    2  C4  UNL     1       3.001   7.344   8.084  1.00  0.00     0.048 C 
HETATM    3  C5  UNL     1       4.271   8.204   8.220  1.00  0.00     0.138 C 
HETATM    4  N1  UNL     1       4.566   8.209   9.661  1.00  0.00    -0.169 NA
HETATM    5  S1  UNL     1       4.434   6.453   9.997  1.00  0.00    -0.055 SA
HETATM    6  C6  UNL     1       5.318   7.379   7.497  1.00  0.00     0.165 C 
HETATM    7  C7  UNL     1       6.513   7.297   8.333  1.00  0.00     0.099 C 
HETATM    8  N2  UNL     1       7.460   7.247   8.994  1.00  0.00    -0.194 NA
HETATM    9  C8  UNL     1       4.740   5.960   7.384  1.00  0.00     0.077 C 
ENDROOT
BRANCH   6  10
HETATM   10  O1  UNL     1       5.586   7.902   6.236  1.00  0.00    -0.374 OA
ATOM     11  H1  UNL     1       6.292   7.429   5.812  1.00  0.00     0.212 HD
ENDBRANCH   6  10
BRANCH   1  12
HETATM   12  C2  UNL     1       2.746   4.872   8.480  1.00  0.00     0.017 C 
HETATM   13  C1  UNL     1       2.931   3.995   7.257  1.00  0.00     0.006 C 
ENDBRANCH   1  12
TORSDOF 2
ENDMDL
MODEL 5
REMARK VINA RESULT: -4.197709820      2.572      3.852
REMARK  2 active torsions:
REMARK  status: ('A' for Active; 'I' for Inactive)
REMARK    1  A    between atoms: C2_2  and  C3_3 
REMARK    2  A    between atoms: C6_8  and  O1_9 
ROOT
HETATM    1  C3  UNL     1       4.648   6.979   8.973  1.00  0.00     0.029 C 
HETATM    2  C4  UNL     1       4.503   8.507   8.945  1.00  0.00     0.048 C 
HETATM    3  C5  UNL     1       5.983   8.824   8.661  1.00  0.00     0.138 C 
HETATM    4  N1  UNL     1       6.682   8.495   9.912  1.00  0.00    -0.169 NA
HETATM    5  S1  UNL     1       5.986   6.872  10.222  1.00  0.00    -0.055 SA
HETATM    6  C6  UNL     1       6.349   7.806   7.598  1.00  0.00     0.165 C 
HETATM    7  C7  UNL     1       7.611   7.172   7.970  1.00  0.00     0.099 C 
HETATM    8  N2  UNL     1       8.617   6.683   8.265  1.00  0.00    -0.194 NA
HETATM    9  C8  UNL     1       5.260   6.723   7.651  1.00  0.00     0.077 C 
ENDROOT
BRANCH   6  10
HETATM   10  O1  UNL     1       6.400   8.392   6.338  1.00  0.00    -0.374 OA
ATOM     11  H1  UNL     1       5.566   8.313   5.890  1.00  0.00     0.212 HD
ENDBRANCH   6  10
BRANCH   1  12
HETATM   12  C2  UNL     1       3.439   6.259   9.333  1.00  0.00     0.017 C 
HETATM   13  C1  UNL     1       3.053   5.343   8.189  1.00  0.00     0.006 C 
ENDBRANCH   1  12
TORSDOF 2
ENDMDL
