MODEL 1
REMARK VINA RESULT: -5.420972278      0.000      0.000
REMARK  3 active torsions:
REMARK  status: ('A' for Active; 'I' for Inactive)
REMARK    1  A    between atoms: O1_2  and  C2_3 
REMARK    2  A    between atoms: C2_3  and  C3_8 
REMARK    3  A    between atoms: N1_4  and  O2_6 
ROOT
HETATM    1  C3  UNL     1       5.144   7.694   8.239  1.00  0.00     0.149 C 
HETATM    2  C4  UNL     1       5.129   7.969   6.758  1.00  0.00     0.058 C 
HETATM    3  O3  UNL     1       4.787   8.764   9.010  1.00  0.00    -0.284 OA
HETATM    4  N2  UNL     1       5.857   9.413   9.422  1.00  0.00    -0.199 NA
HETATM    5  C5  UNL     1       5.739   9.895  10.807  1.00  0.00     0.143 C 
HETATM    6  C6  UNL     1       7.001   8.568   9.365  1.00  0.00     0.128 C 
HETATM    7  C7  UNL     1       6.519   7.281   8.703  1.00  0.00     0.041 C 
HETATM    8  C8  UNL     1       7.451   6.978   7.572  1.00  0.00     0.015 C 
ENDROOT
BRANCH   1   9
HETATM    9  C2  UNL     1       4.207   6.572   8.562  1.00  0.00     0.175 C 
HETATM   10  N1  UNL     1       3.792   6.332   9.741  1.00  0.00    -0.248 N 
ATOM     11  H1  UNL     1       3.155   5.543   9.849  1.00  0.00     0.196 HD
BRANCH   9  12
HETATM   12  O1  UNL     1       3.747   5.727   7.543  1.00  0.00    -0.340 OA
HETATM   13  C1  UNL     1       2.884   4.654   7.903  1.00  0.00     0.211 C 
ENDBRANCH   9  12
BRANCH  10  14
HETATM   14  O2  UNL     1       4.107   7.015  10.867  1.00  0.00    -0.288 OA
ATOM     15  H2  UNL     1       3.648   6.983  11.698  1.00  0.00     0.244 HD
ENDBRANCH  10  14
ENDBRANCH   1   9
TORSDOF 3
ENDMDL
MODEL 2
REMARK VINA RESULT: -4.955515133      1.876      2.971
REMARK  3 active torsions:
REMARK  status: ('A' for Active; 'I' for Inactive)
REMARK    1  A    between atoms: O1_2  and  C2_3 
REMARK    2  A    between atoms: C2_3  and  C3_8 
REMARK    3  A    between atoms: N1_4  and  O2_6 
ROOT
HETATM    1  C3  UNL     1       5.629   7.542   9.017  1.00  0.00     0.149 C 
HETATM    2  C4  UNL     1       5.614   7.012  10.426  1.00  0.00     0.058 C 
HETATM    3  O3  UNL     1       6.634   7.037   8.241  1.00  0.00    -0.284 OA
HETATM    4  N2  UNL     1       7.670   7.851   8.240  1.00  0.00    -0.199 NA
HETATM    5  C5  UNL     1       8.323   7.949   6.925  1.00  0.00     0.143 C 
HETATM    6  C6  UNL     1       7.268   9.164   8.612  1.00  0.00     0.128 C 
HETATM    7  C7  UNL     1       5.798   9.041   8.999  1.00  0.00     0.041 C 
HETATM    8  C8  UNL     1       5.633   9.664  10.350  1.00  0.00     0.015 C 
ENDROOT
BRANCH   1   9
HETATM    9  C2  UNL     1       4.333   7.229   8.336  1.00  0.00     0.175 C 
HETATM   10  N1  UNL     1       4.121   7.465   7.103  1.00  0.00    -0.248 N 
ATOM     11  H1  UNL     1       3.202   7.211   6.741  1.00  0.00     0.196 HD
BRANCH   9  12
HETATM   12  O1  UNL     1       3.283   6.650   9.061  1.00  0.00    -0.340 OA
HETATM   13  C1  UNL     1       2.899   5.319   8.735  1.00  0.00     0.211 C 
ENDBRANCH   9  12
BRANCH  10  14
HETATM   14  O2  UNL     1       4.989   8.016   6.222  1.00  0.00    -0.288 OA
ATOM     15  H2  UNL     1       4.871   8.096   5.283  1.00  0.00     0.244 HD
ENDBRANCH  10  14
ENDBRANCH   1   9
TORSDOF 3
ENDMDL
MODEL 3
REMARK VINA RESULT: -4.580689947      1.537      3.843
REMARK  3 active torsions:
REMARK  status: ('A' for Active; 'I' for Inactive)
REMARK    1  A    between atoms: O1_2  and  C2_3 
REMARK    2  A    between atoms: C2_3  and  C3_8 
REMARK    3  A    between atoms: N1_4  and  O2_6 
ROOT
HETATM    1  C3  UNL     1       6.214   7.776   8.781  1.00  0.00     0.149 C 
HETATM    2  C4  UNL     1       7.625   7.252   8.722  1.00  0.00     0.058 C 
HETATM    3  O3  UNL     1       5.269   6.811   8.987  1.00  0.00    -0.284 OA
HETATM    4  N2  UNL     1       4.756   6.415   7.840  1.00  0.00    -0.199 NA
HETATM    5  C5  UNL     1       3.308   6.164   7.913  1.00  0.00     0.143 C 
HETATM    6  C6  UNL     1       4.963   7.404   6.837  1.00  0.00     0.128 C 
HETATM    7  C7  UNL     1       5.834   8.469   7.496  1.00  0.00     0.041 C 
HETATM    8  C8  UNL     1       7.005   8.714   6.596  1.00  0.00     0.015 C 
ENDROOT
BRANCH   1   9
HETATM    9  C2  UNL     1       6.084   8.778   9.886  1.00  0.00     0.175 C 
HETATM   10  N1  UNL     1       5.208   8.688  10.805  1.00  0.00    -0.248 N 
ATOM     11  H1  UNL     1       5.209   9.426  11.509  1.00  0.00     0.196 HD
BRANCH   9  12
HETATM   12  O1  UNL     1       6.950   9.878   9.939  1.00  0.00    -0.340 OA
HETATM   13  C1  UNL     1       6.895  10.717  11.087  1.00  0.00     0.211 C 
ENDBRANCH   9  12
BRANCH  10  14
HETATM   14  O2  UNL     1       4.277   7.715  10.946  1.00  0.00    -0.288 OA
ATOM     15  H2  UNL     1       4.210   7.093  11.660  1.00  0.00     0.244 HD
ENDBRANCH  10  14
ENDBRANCH   1   9
TORSDOF 3
ENDMDL
MODEL 4
REMARK VINA RESULT: -4.527191863      5.854      7.235
REMARK  3 active torsions:
REMARK  status: ('A' for Active; 'I' for Inactive)
REMARK    1  A    between atoms: O1_2  and  C2_3 
REMARK    2  A    between atoms: C2_3  and  C3_8 
REMARK    3  A    between atoms: N1_4  and  O2_6 
ROOT
HETATM    1  C3  UNL     1      11.005   6.946   4.906  1.00  0.00     0.149 C 
HETATM    2  C4  UNL     1      11.720   7.069   3.586  1.00  0.00     0.058 C 
HETATM    3  O3  UNL     1       9.708   7.376   4.882  1.00  0.00    -0.284 OA
HETATM    4  N2  UNL     1       9.627   8.625   5.294  1.00  0.00    -0.199 NA
HETATM    5  C5  UNL     1       8.442   8.880   6.127  1.00  0.00     0.143 C 
HETATM    6  C6  UNL     1      10.770   8.964   6.070  1.00  0.00     0.128 C 
HETATM    7  C7  UNL     1      11.694   7.754   5.978  1.00  0.00     0.041 C 
HETATM    8  C8  UNL     1      13.044   8.247   5.561  1.00  0.00     0.015 C 
ENDROOT
BRANCH   1   9
HETATM    9  C2  UNL     1      10.998   5.519   5.356  1.00  0.00     0.175 C 
HETATM   10  N1  UNL     1      10.185   4.651   4.903  1.00  0.00    -0.248 N 
ATOM     11  H1  UNL     1      10.268   3.707   5.279  1.00  0.00     0.196 HD
BRANCH   9  12
HETATM   12  O1  UNL     1      11.917   5.084   6.321  1.00  0.00    -0.340 OA
HETATM   13  C1  UNL     1      13.010   4.280   5.890  1.00  0.00     0.211 C 
ENDBRANCH   9  12
BRANCH  10  14
HETATM   14  O2  UNL     1       9.220   4.851   3.974  1.00  0.00    -0.288 OA
ATOM     15  H2  UNL     1       9.297   4.717   3.037  1.00  0.00     0.244 HD
ENDBRANCH  10  14
ENDBRANCH   1   9
TORSDOF 3
ENDMDL
MODEL 5
REMARK VINA RESULT: -4.495631704      6.757      8.370
REMARK  3 active torsions:
REMARK  status: ('A' for Active; 'I' for Inactive)
REMARK    1  A    between atoms: O1_2  and  C2_3 
REMARK    2  A    between atoms: C2_3  and  C3_8 
REMARK    3  A    between atoms: N1_4  and  O2_6 
ROOT
HETATM    1  C3  UNL     1      11.835   6.287   4.514  1.00  0.00     0.149 C 
HETATM    2  C4  UNL     1      12.494   5.085   5.138  1.00  0.00     0.058 C 
HETATM    3  O3  UNL     1      11.704   6.209   3.156  1.00  0.00    -0.284 OA
HETATM    4  N2  UNL     1      12.707   6.821   2.559  1.00  0.00    -0.199 NA
HETATM    5  C5  UNL     1      12.294   7.565   1.359  1.00  0.00     0.143 C 
HETATM    6  C6  UNL     1      13.315   7.753   3.446  1.00  0.00     0.128 C 
HETATM    7  C7  UNL     1      12.622   7.544   4.789  1.00  0.00     0.041 C 
HETATM    8  C8  UNL     1      13.687   7.353   5.822  1.00  0.00     0.015 C 
ENDROOT
BRANCH   1   9
HETATM    9  C2  UNL     1      10.467   6.480   5.089  1.00  0.00     0.175 C 
HETATM   10  N1  UNL     1       9.456   5.799   4.721  1.00  0.00    -0.248 N 
ATOM     11  H1  UNL     1       8.571   6.013   5.179  1.00  0.00     0.196 HD
BRANCH   9  12
HETATM   12  O1  UNL     1      10.253   7.448   6.079  1.00  0.00    -0.340 OA
HETATM   13  C1  UNL     1       9.293   7.168   7.092  1.00  0.00     0.211 C 
ENDBRANCH   9  12
BRANCH  10  14
HETATM   14  O2  UNL     1       9.434   4.821   3.785  1.00  0.00    -0.288 OA
ATOM     15  H2  UNL     1       9.959   4.779   2.995  1.00  0.00     0.244 HD
ENDBRANCH  10  14
ENDBRANCH   1   9
TORSDOF 3
ENDMDL
