MODEL 1
REMARK VINA RESULT: -8.996074117      0.000      0.000
REMARK  9 active torsions:
REMARK  status: ('A' for Active; 'I' for Inactive)
REMARK    1  A    between atoms: C2_2  and  C6_22 
REMARK    2  A    between atoms: N1_3  and  O1_5 
REMARK    3  A    between atoms: O1_5  and  C3_6 
REMARK    4  A    between atoms: C3_6  and  C4_7 
REMARK    5  A    between atoms: C4_7  and  N2_8 
REMARK       I    between atoms: C5_10  and  N3_11 
REMARK       I    between atoms: C5_10  and  N6_17 
REMARK    6  A    between atoms: N3_11  and  N4_13 
REMARK    7  A    between atoms: N4_13  and  N5_14 
REMARK    8  A    between atoms: N6_17  and  N7_19 
REMARK    9  A    between atoms: C10_28  and  N9_29 
ROOT
HETATM    1  C1  UNL     1      28.818 129.340  17.642  1.00  0.00     0.073 C 
HETATM    2  C2  UNL     1      27.489 128.760  17.616  1.00  0.00     0.062 C 
HETATM    3  N1  UNL     1      26.417 129.405  17.675  1.00  0.00    -0.269 N 
ATOM      4  H1  UNL     1      25.590 128.810  17.641  1.00  0.00     0.194 HD
ENDROOT
BRANCH   3   5
HETATM    5  O1  UNL     1      26.125 130.702  17.772  1.00  0.00    -0.279 OA
BRANCH   5   6
HETATM    6  C3  UNL     1      26.269 131.652  16.756  1.00  0.00     0.221 C 
BRANCH   6   7
HETATM    7  C4  UNL     1      25.403 132.872  17.023  1.00  0.00     0.166 C 
BRANCH   7   8
HETATM    8  N2  UNL     1      26.082 133.887  17.747  1.00  0.00    -0.222 N 
HETATM    9  C5  UNL     1      26.196 133.975  19.019  1.00  0.00     0.710 C 
HETATM   10  N3  UNL     1      25.657 133.061  19.961  1.00  0.00    -0.115 N 
HETATM   11  N6  UNL     1      26.926 135.083  19.529  1.00  0.00    -0.071 N 
ATOM     12  H3  UNL     1      25.809 132.064  19.806  1.00  0.00     0.203 HD
ATOM     13  H6  UNL     1      26.493 135.781  20.135  1.00  0.00     0.212 HD
ATOM     14  H2  UNL     1      26.524 134.622  17.196  1.00  0.00     0.177 HD
BRANCH  10  15
HETATM   15  N4  UNL     1      24.931 133.445  21.084  1.00  0.00    -0.015 NA
BRANCH  15  16
HETATM   16  N5  UNL     1      24.870 132.472  22.069  1.00  0.00    -0.328 N 
ATOM     17  H52 UNL     1      24.027 131.924  22.241  1.00  0.00     0.174 HD
ATOM     18  H51 UNL     1      25.738 132.363  22.594  1.00  0.00     0.174 HD
ENDBRANCH  15  16
ENDBRANCH  10  15
BRANCH  11  19
HETATM   19  N7  UNL     1      28.287 135.164  19.146  1.00  0.00    -0.024 N 
HETATM   20  O2  UNL     1      29.006 136.101  19.544  1.00  0.00    -0.516 OA
HETATM   21  O3  UNL     1      28.798 134.200  18.336  1.00  0.00    -0.516 OA
ENDBRANCH  11  19
ENDBRANCH   7   8
ENDBRANCH   6   7
ENDBRANCH   5   6
ENDBRANCH   3   5
BRANCH   2  22
HETATM   22  C6  UNL     1      27.358 127.288  17.513  1.00  0.00     0.099 A 
HETATM   23  N8  UNL     1      27.476 126.375  18.446  1.00  0.00    -0.348 N 
HETATM   24  C7  UNL     1      27.322 125.112  18.149  1.00  0.00     0.050 A 
ATOM     25  H8  UNL     1      27.689 126.652  19.405  1.00  0.00     0.166 HD
HETATM   26  C8  UNL     1      27.426 124.043  19.058  1.00  0.00     0.033 A 
HETATM   27  C12 UNL     1      27.038 124.793  16.852  1.00  0.00     0.036 A 
HETATM   28  C9  UNL     1      27.242 122.764  18.619  1.00  0.00     0.038 A 
HETATM   29  C10 UNL     1      26.952 122.414  17.311  1.00  0.00     0.104 A 
HETATM   30  C11 UNL     1      26.853 123.471  16.426  1.00  0.00     0.057 A 
HETATM   31  S1  UNL     1      27.007 126.340  16.123  1.00  0.00    -0.068 SA
BRANCH  29  32
HETATM   32  N9  UNL     1      26.772 121.093  16.906  1.00  0.00    -0.116 N 
HETATM   33  O4  UNL     1      27.610 120.225  17.203  1.00  0.00    -0.532 OA
HETATM   34  O5  UNL     1      25.667 120.744  16.176  1.00  0.00    -0.532 OA
ENDBRANCH  29  32
ENDBRANCH   2  22
TORSDOF 9
ENDMDL
MODEL 2
REMARK VINA RESULT: -8.971947800      2.044      2.478
REMARK  9 active torsions:
REMARK  status: ('A' for Active; 'I' for Inactive)
REMARK    1  A    between atoms: C2_2  and  C6_22 
REMARK    2  A    between atoms: N1_3  and  O1_5 
REMARK    3  A    between atoms: O1_5  and  C3_6 
REMARK    4  A    between atoms: C3_6  and  C4_7 
REMARK    5  A    between atoms: C4_7  and  N2_8 
REMARK       I    between atoms: C5_10  and  N3_11 
REMARK       I    between atoms: C5_10  and  N6_17 
REMARK    6  A    between atoms: N3_11  and  N4_13 
REMARK    7  A    between atoms: N4_13  and  N5_14 
REMARK    8  A    between atoms: N6_17  and  N7_19 
REMARK    9  A    between atoms: C10_28  and  N9_29 
ROOT
HETATM    1  C1  UNL     1      27.171 129.159  13.983  1.00  0.00     0.073 C 
HETATM    2  C2  UNL     1      27.247 129.402  15.411  1.00  0.00     0.062 C 
HETATM    3  N1  UNL     1      27.239 130.530  15.955  1.00  0.00    -0.269 N 
ATOM      4  H1  UNL     1      27.300 130.484  16.971  1.00  0.00     0.194 HD
ENDROOT
BRANCH   3   5
HETATM    5  O1  UNL     1      27.168 131.778  15.490  1.00  0.00    -0.279 OA
BRANCH   5   6
HETATM    6  C3  UNL     1      26.059 132.623  15.582  1.00  0.00     0.221 C 
BRANCH   6   7
HETATM    7  C4  UNL     1      25.585 132.747  17.020  1.00  0.00     0.166 C 
BRANCH   7   8
HETATM    8  N2  UNL     1      26.214 133.808  17.723  1.00  0.00    -0.222 N 
HETATM    9  C5  UNL     1      26.271 133.958  18.993  1.00  0.00     0.710 C 
HETATM   10  N3  UNL     1      25.707 133.079  19.953  1.00  0.00    -0.115 N 
HETATM   11  N6  UNL     1      26.958 135.103  19.480  1.00  0.00    -0.071 N 
ATOM     12  H3  UNL     1      25.884 132.079  19.852  1.00  0.00     0.203 HD
ATOM     13  H6  UNL     1      26.488 135.819  20.033  1.00  0.00     0.212 HD
ATOM     14  H2  UNL     1      26.667 134.526  17.157  1.00  0.00     0.177 HD
BRANCH  10  15
HETATM   15  N4  UNL     1      24.928 133.501  21.025  1.00  0.00    -0.015 NA
BRANCH  15  16
HETATM   16  N5  UNL     1      24.898 132.605  22.082  1.00  0.00    -0.328 N 
ATOM     17  H52 UNL     1      24.313 131.769  22.071  1.00  0.00     0.174 HD
ATOM     18  H51 UNL     1      25.510 132.863  22.856  1.00  0.00     0.174 HD
ENDBRANCH  15  16
ENDBRANCH  10  15
BRANCH  11  19
HETATM   19  N7  UNL     1      28.333 135.192  19.152  1.00  0.00    -0.024 N 
HETATM   20  O2  UNL     1      29.032 136.130  19.583  1.00  0.00    -0.516 OA
HETATM   21  O3  UNL     1      28.881 134.235  18.357  1.00  0.00    -0.516 OA
ENDBRANCH  11  19
ENDBRANCH   7   8
ENDBRANCH   6   7
ENDBRANCH   5   6
ENDBRANCH   3   5
BRANCH   2  22
HETATM   22  C6  UNL     1      27.342 128.240  16.325  1.00  0.00     0.099 A 
HETATM   23  N8  UNL     1      26.981 126.995  16.127  1.00  0.00    -0.348 N 
HETATM   24  C7  UNL     1      27.150 126.107  17.070  1.00  0.00     0.050 A 
ATOM     25  H8  UNL     1      26.567 126.721  15.236  1.00  0.00     0.166 HD
HETATM   26  C8  UNL     1      26.802 124.746  16.980  1.00  0.00     0.033 A 
HETATM   27  C12 UNL     1      27.708 126.524  18.245  1.00  0.00     0.036 A 
HETATM   28  C9  UNL     1      27.032 123.920  18.040  1.00  0.00     0.038 A 
HETATM   29  C10 UNL     1      27.597 124.316  19.241  1.00  0.00     0.104 A 
HETATM   30  C11 UNL     1      27.934 125.655  19.321  1.00  0.00     0.057 A 
HETATM   31  S1  UNL     1      27.962 128.186  17.927  1.00  0.00    -0.068 SA
BRANCH  29  32
HETATM   32  N9  UNL     1      27.813 123.438  20.300  1.00  0.00    -0.116 N 
HETATM   33  O4  UNL     1      27.303 122.305  20.292  1.00  0.00    -0.532 OA
HETATM   34  O5  UNL     1      28.594 123.819  21.360  1.00  0.00    -0.532 OA
ENDBRANCH  29  32
ENDBRANCH   2  22
TORSDOF 9
ENDMDL
MODEL 3
REMARK VINA RESULT: -8.806675555      1.702      2.080
REMARK  9 active torsions:
REMARK  status: ('A' for Active; 'I' for Inactive)
REMARK    1  A    between atoms: C2_2  and  C6_22 
REMARK    2  A    between atoms: N1_3  and  O1_5 
REMARK    3  A    between atoms: O1_5  and  C3_6 
REMARK    4  A    between atoms: C3_6  and  C4_7 
REMARK    5  A    between atoms: C4_7  and  N2_8 
REMARK       I    between atoms: C5_10  and  N3_11 
REMARK       I    between atoms: C5_10  and  N6_17 
REMARK    6  A    between atoms: N3_11  and  N4_13 
REMARK    7  A    between atoms: N4_13  and  N5_14 
REMARK    8  A    between atoms: N6_17  and  N7_19 
REMARK    9  A    between atoms: C10_28  and  N9_29 
ROOT
HETATM    1  C1  UNL     1      27.047 129.534  14.108  1.00  0.00     0.073 C 
HETATM    2  C2  UNL     1      26.276 129.301  15.315  1.00  0.00     0.062 C 
HETATM    3  N1  UNL     1      25.394 130.065  15.769  1.00  0.00    -0.269 N 
ATOM      4  H1  UNL     1      24.969 129.719  16.628  1.00  0.00     0.194 HD
ENDROOT
BRANCH   3   5
HETATM    5  O1  UNL     1      24.893 131.235  15.372  1.00  0.00    -0.279 OA
BRANCH   5   6
HETATM    6  C3  UNL     1      24.975 132.442  16.073  1.00  0.00     0.221 C 
BRANCH   6   7
HETATM    7  C4  UNL     1      25.599 132.235  17.442  1.00  0.00     0.166 C 
BRANCH   7   8
HETATM    8  N2  UNL     1      26.193 133.414  17.965  1.00  0.00    -0.222 N 
HETATM    9  C5  UNL     1      26.319 133.725  19.201  1.00  0.00     0.710 C 
HETATM   10  N3  UNL     1      25.881 132.939  20.298  1.00  0.00    -0.115 N 
HETATM   11  N6  UNL     1      26.950 134.964  19.496  1.00  0.00    -0.071 N 
ATOM     12  H3  UNL     1      26.122 131.948  20.306  1.00  0.00     0.203 HD
ATOM     13  H6  UNL     1      26.465 135.712  19.991  1.00  0.00     0.212 HD
ATOM     14  H2  UNL     1      26.556 134.082  17.286  1.00  0.00     0.177 HD
BRANCH  10  15
HETATM   15  N4  UNL     1      25.141 133.442  21.364  1.00  0.00    -0.015 NA
BRANCH  15  16
HETATM   16  N5  UNL     1      24.584 132.461  22.169  1.00  0.00    -0.328 N 
ATOM     17  H52 UNL     1      24.435 132.597  23.169  1.00  0.00     0.174 HD
ATOM     18  H51 UNL     1      24.343 131.606  21.668  1.00  0.00     0.174 HD
ENDBRANCH  15  16
ENDBRANCH  10  15
BRANCH  11  19
HETATM   19  N7  UNL     1      28.292 135.098  19.063  1.00  0.00    -0.024 N 
HETATM   20  O2  UNL     1      28.785 134.286  18.254  1.00  0.00    -0.516 OA
HETATM   21  O3  UNL     1      29.036 136.129  19.542  1.00  0.00    -0.516 OA
ENDBRANCH  11  19
ENDBRANCH   7   8
ENDBRANCH   6   7
ENDBRANCH   5   6
ENDBRANCH   3   5
BRANCH   2  22
HETATM   22  C6  UNL     1      26.530 128.066  16.092  1.00  0.00     0.099 A 
HETATM   23  N8  UNL     1      27.269 127.894  17.161  1.00  0.00    -0.348 N 
HETATM   24  C7  UNL     1      27.366 126.710  17.707  1.00  0.00     0.050 A 
ATOM     25  H8  UNL     1      27.768 128.685  17.568  1.00  0.00     0.166 HD
HETATM   26  C8  UNL     1      28.125 126.400  18.850  1.00  0.00     0.033 A 
HETATM   27  C12 UNL     1      26.679 125.684  17.125  1.00  0.00     0.036 A 
HETATM   28  C9  UNL     1      28.143 125.119  19.320  1.00  0.00     0.038 A 
HETATM   29  C10 UNL     1      27.455 124.061  18.750  1.00  0.00     0.104 A 
HETATM   30  C11 UNL     1      26.712 124.376  17.627  1.00  0.00     0.057 A 
HETATM   31  S1  UNL     1      25.923 126.483  15.815  1.00  0.00    -0.068 SA
BRANCH  29  32
HETATM   32  N9  UNL     1      27.501 122.767  19.264  1.00  0.00    -0.116 N 
HETATM   33  O4  UNL     1      27.583 122.579  20.489  1.00  0.00    -0.532 OA
HETATM   34  O5  UNL     1      27.457 121.690  18.417  1.00  0.00    -0.532 OA
ENDBRANCH  29  32
ENDBRANCH   2  22
TORSDOF 9
ENDMDL
MODEL 4
REMARK VINA RESULT: -8.508589989      1.360      1.550
REMARK  9 active torsions:
REMARK  status: ('A' for Active; 'I' for Inactive)
REMARK    1  A    between atoms: C2_2  and  C6_22 
REMARK    2  A    between atoms: N1_3  and  O1_5 
REMARK    3  A    between atoms: O1_5  and  C3_6 
REMARK    4  A    between atoms: C3_6  and  C4_7 
REMARK    5  A    between atoms: C4_7  and  N2_8 
REMARK       I    between atoms: C5_10  and  N3_11 
REMARK       I    between atoms: C5_10  and  N6_17 
REMARK    6  A    between atoms: N3_11  and  N4_13 
REMARK    7  A    between atoms: N4_13  and  N5_14 
REMARK    8  A    between atoms: N6_17  and  N7_19 
REMARK    9  A    between atoms: C10_28  and  N9_29 
ROOT
HETATM    1  C1  UNL     1      30.015 128.367  17.253  1.00  0.00     0.073 C 
HETATM    2  C2  UNL     1      28.624 128.100  17.565  1.00  0.00     0.062 C 
HETATM    3  N1  UNL     1      27.810 128.937  18.018  1.00  0.00    -0.269 N 
ATOM      4  H1  UNL     1      26.879 128.549  18.169  1.00  0.00     0.194 HD
ENDROOT
BRANCH   3   5
HETATM    5  O1  UNL     1      27.898 130.226  18.346  1.00  0.00    -0.279 OA
BRANCH   5   6
HETATM    6  C3  UNL     1      27.495 131.302  17.551  1.00  0.00     0.221 C 
BRANCH   6   7
HETATM    7  C4  UNL     1      26.024 131.617  17.763  1.00  0.00     0.166 C 
BRANCH   7   8
HETATM    8  N2  UNL     1      25.755 133.010  17.812  1.00  0.00    -0.222 N 
HETATM    9  C5  UNL     1      25.754 133.753  18.854  1.00  0.00     0.710 C 
HETATM   10  N3  UNL     1      26.024 133.320  20.178  1.00  0.00    -0.115 N 
HETATM   11  N6  UNL     1      25.456 135.131  18.667  1.00  0.00    -0.071 N 
ATOM     12  H3  UNL     1      26.850 132.741  20.335  1.00  0.00     0.203 HD
ATOM     13  H6  UNL     1      24.646 135.572  19.104  1.00  0.00     0.212 HD
ATOM     14  H2  UNL     1      25.540 133.465  16.926  1.00  0.00     0.177 HD
BRANCH  10  15
HETATM   15  N4  UNL     1      25.229 133.637  21.275  1.00  0.00    -0.015 NA
BRANCH  15  16
HETATM   16  N5  UNL     1      24.878 132.542  22.046  1.00  0.00    -0.328 N 
ATOM     17  H52 UNL     1      23.933 132.157  22.048  1.00  0.00     0.174 HD
ATOM     18  H51 UNL     1      25.646 132.167  22.602  1.00  0.00     0.174 HD
ENDBRANCH  15  16
ENDBRANCH  10  15
BRANCH  11  19
HETATM   19  N7  UNL     1      26.348 135.855  17.840  1.00  0.00    -0.024 N 
HETATM   20  O2  UNL     1      25.932 136.774  17.106  1.00  0.00    -0.516 OA
HETATM   21  O3  UNL     1      27.667 135.532  17.857  1.00  0.00    -0.516 OA
ENDBRANCH  11  19
ENDBRANCH   7   8
ENDBRANCH   6   7
ENDBRANCH   5   6
ENDBRANCH   3   5
BRANCH   2  22
HETATM   22  C6  UNL     1      28.095 126.734  17.339  1.00  0.00     0.099 A 
HETATM   23  N8  UNL     1      28.206 125.665  18.089  1.00  0.00    -0.348 N 
HETATM   24  C7  UNL     1      27.661 124.540  17.710  1.00  0.00     0.050 A 
ATOM     25  H8  UNL     1      28.718 125.712  18.970  1.00  0.00     0.166 HD
HETATM   26  C8  UNL     1      27.712 123.328  18.424  1.00  0.00     0.033 A 
HETATM   27  C12 UNL     1      26.986 124.529  16.523  1.00  0.00     0.036 A 
HETATM   28  C9  UNL     1      27.099 122.220  17.916  1.00  0.00     0.038 A 
HETATM   29  C10 UNL     1      26.407 122.182  16.717  1.00  0.00     0.104 A 
HETATM   30  C11 UNL     1      26.364 123.377  16.022  1.00  0.00     0.057 A 
HETATM   31  S1  UNL     1      27.172 126.151  16.013  1.00  0.00    -0.068 SA
BRANCH  29  32
HETATM   32  N9  UNL     1      25.796 121.027  16.235  1.00  0.00    -0.116 N 
HETATM   33  O4  UNL     1      24.687 121.087  15.679  1.00  0.00    -0.532 OA
HETATM   34  O5  UNL     1      26.418 119.813  16.372  1.00  0.00    -0.532 OA
ENDBRANCH  29  32
ENDBRANCH   2  22
TORSDOF 9
ENDMDL
MODEL 5
REMARK VINA RESULT: -8.358159557      3.210      4.380
REMARK  9 active torsions:
REMARK  status: ('A' for Active; 'I' for Inactive)
REMARK    1  A    between atoms: C2_2  and  C6_22 
REMARK    2  A    between atoms: N1_3  and  O1_5 
REMARK    3  A    between atoms: O1_5  and  C3_6 
REMARK    4  A    between atoms: C3_6  and  C4_7 
REMARK    5  A    between atoms: C4_7  and  N2_8 
REMARK       I    between atoms: C5_10  and  N3_11 
REMARK       I    between atoms: C5_10  and  N6_17 
REMARK    6  A    between atoms: N3_11  and  N4_13 
REMARK    7  A    between atoms: N4_13  and  N5_14 
REMARK    8  A    between atoms: N6_17  and  N7_19 
REMARK    9  A    between atoms: C10_28  and  N9_29 
ROOT
HETATM    1  C1  UNL     1      24.160 131.811  13.907  1.00  0.00     0.073 C 
HETATM    2  C2  UNL     1      24.734 132.060  15.216  1.00  0.00     0.062 C 
HETATM    3  N1  UNL     1      24.595 133.113  15.879  1.00  0.00    -0.269 N 
ATOM      4  H1  UNL     1      25.078 133.088  16.777  1.00  0.00     0.194 HD
ENDROOT
BRANCH   3   5
HETATM    5  O1  UNL     1      23.952 134.261  15.663  1.00  0.00    -0.279 OA
BRANCH   5   6
HETATM    6  C3  UNL     1      24.549 135.496  15.393  1.00  0.00     0.221 C 
BRANCH   6   7
HETATM    7  C4  UNL     1      24.805 136.270  16.675  1.00  0.00     0.166 C 
BRANCH   7   8
HETATM    8  N2  UNL     1      26.137 136.138  17.147  1.00  0.00    -0.222 N 
HETATM    9  C5  UNL     1      26.536 135.411  18.123  1.00  0.00     0.710 C 
HETATM   10  N3  UNL     1      25.709 134.589  18.931  1.00  0.00    -0.115 N 
HETATM   11  N6  UNL     1      27.926 135.432  18.421  1.00  0.00    -0.071 N 
ATOM     12  H3  UNL     1      25.046 133.968  18.466  1.00  0.00     0.203 HD
ATOM     13  H6  UNL     1      28.280 135.757  19.321  1.00  0.00     0.212 HD
ATOM     14  H2  UNL     1      26.851 136.678  16.658  1.00  0.00     0.177 HD
BRANCH  10  15
HETATM   15  N4  UNL     1      25.749 134.579  20.322  1.00  0.00    -0.015 NA
BRANCH  15  16
HETATM   16  N5  UNL     1      25.675 133.311  20.874  1.00  0.00    -0.328 N 
ATOM     17  H52 UNL     1      26.482 132.856  21.302  1.00  0.00     0.174 HD
ATOM     18  H51 UNL     1      24.750 132.887  20.810  1.00  0.00     0.174 HD
ENDBRANCH  15  16
ENDBRANCH  10  15
BRANCH  11  19
HETATM   19  N7  UNL     1      28.790 134.977  17.396  1.00  0.00    -0.024 N 
HETATM   20  O2  UNL     1      29.475 133.946  17.552  1.00  0.00    -0.516 OA
HETATM   21  O3  UNL     1      28.862 135.682  16.237  1.00  0.00    -0.516 OA
ENDBRANCH  11  19
ENDBRANCH   7   8
ENDBRANCH   6   7
ENDBRANCH   5   6
ENDBRANCH   3   5
BRANCH   2  22
HETATM   22  C6  UNL     1      25.555 130.999  15.845  1.00  0.00     0.099 A 
HETATM   23  N8  UNL     1      25.247 129.750  16.098  1.00  0.00    -0.348 N 
HETATM   24  C7  UNL     1      26.122 128.962  16.666  1.00  0.00     0.050 A 
ATOM     25  H8  UNL     1      24.324 129.393  15.851  1.00  0.00     0.166 HD
HETATM   26  C8  UNL     1      25.911 127.609  16.989  1.00  0.00     0.033 A 
HETATM   27  C12 UNL     1      27.343 129.488  16.977  1.00  0.00     0.036 A 
HETATM   28  C9  UNL     1      26.910 126.894  17.582  1.00  0.00     0.038 A 
HETATM   29  C10 UNL     1      28.157 127.402  17.907  1.00  0.00     0.104 A 
HETATM   30  C11 UNL     1      28.354 128.732  17.587  1.00  0.00     0.057 A 
HETATM   31  S1  UNL     1      27.167 131.099  16.431  1.00  0.00    -0.068 SA
BRANCH  29  32
HETATM   32  N9  UNL     1      29.149 126.635  18.514  1.00  0.00    -0.116 N 
HETATM   33  O4  UNL     1      28.879 125.917  19.491  1.00  0.00    -0.532 OA
HETATM   34  O5  UNL     1      30.432 126.668  18.034  1.00  0.00    -0.532 OA
ENDBRANCH  29  32
ENDBRANCH   2  22
TORSDOF 9
ENDMDL
