MODEL 1
REMARK VINA RESULT: -8.230087227      0.000      0.000
REMARK  11 active torsions:
REMARK  status: ('A' for Active; 'I' for Inactive)
REMARK    1  A    between atoms: C2_2  and  C7_21 
REMARK    2  A    between atoms: N1_3  and  N2_5 
REMARK    3  A    between atoms: N2_5  and  C3_7 
REMARK    4  A    between atoms: C4_10  and  N4_11 
REMARK    5  A    between atoms: C6_17  and  N6_18 
REMARK    6  A    between atoms: N8_27  and  C10_28 
REMARK    7  A    between atoms: C10_28  and  C12_31 
REMARK    8  A    between atoms: C12_31  and  O3_32 
REMARK    9  A    between atoms: C12_31  and  C13_34 
REMARK   10  A    between atoms: C13_34  and  N10_35 
REMARK   11  A    between atoms: N10_35  and  N11_36 
ROOT
HETATM    1  C10 UNL     1      27.605 128.913  15.438  1.00  0.00     0.366 C 
HETATM    2  C11 UNL     1      27.973 127.923  14.388  1.00  0.00     0.098 C 
HETATM    3  N9  UNL     1      28.280 127.150  13.581  1.00  0.00    -0.195 NA
ENDROOT
BRANCH   1   4
HETATM    4  N8  UNL     1      26.198 128.971  15.524  1.00  0.00     0.147 N 
HETATM    5  C7  UNL     1      25.529 130.201  15.480  1.00  0.00     0.467 C 
HETATM    6  N7  UNL     1      25.047 130.428  14.132  1.00  0.00    -0.036 N 
HETATM    7  C8  UNL     1      24.708 129.125  13.660  1.00  0.00     0.265 C 
ATOM      8  H72 UNL     1      24.289 131.108  14.067  1.00  0.00     0.280 HD
ATOM      9  H71 UNL     1      25.700 130.934  13.534  1.00  0.00     0.280 HD
HETATM   10  C9  UNL     1      25.542 128.181  14.513  1.00  0.00     0.305 C 
BRANCH   5  11
HETATM   11  C2  UNL     1      26.178 131.381  16.058  1.00  0.00     0.060 C 
HETATM   12  C1  UNL     1      26.753 132.414  15.185  1.00  0.00     0.069 C 
HETATM   13  N1  UNL     1      26.248 131.503  17.316  1.00  0.00    -0.304 N 
ATOM     14  H1  UNL     1      25.847 130.780  17.912  1.00  0.00     0.186 HD
BRANCH  13  15
HETATM   15  N2  UNL     1      26.853 132.593  17.895  1.00  0.00    -0.283 N 
ATOM     16  H2  UNL     1      27.685 132.927  17.408  1.00  0.00     0.188 HD
BRANCH  15  17
HETATM   17  C3  UNL     1      26.553 133.246  18.925  1.00  0.00     0.170 A 
HETATM   18  N3  UNL     1      25.840 132.792  19.970  1.00  0.00    -0.173 N 
HETATM   19  C4  UNL     1      25.559 133.556  21.057  1.00  0.00     0.677 A 
ATOM     20  H3  UNL     1      25.494 131.833  19.945  1.00  0.00     0.186 HD
HETATM   21  N5  UNL     1      26.012 134.814  21.091  1.00  0.00    -0.200 N 
HETATM   22  C5  UNL     1      26.734 135.362  20.097  1.00  0.00     0.146 A 
ATOM     23  H5  UNL     1      25.800 135.384  21.909  1.00  0.00     0.183 HD
HETATM   24  C6  UNL     1      27.003 134.562  19.003  1.00  0.00     0.164 A 
BRANCH  19  25
HETATM   25  N4  UNL     1      24.855 133.040  22.026  1.00  0.00    -0.234 N 
ATOM     26  H42 UNL     1      25.149 133.090  23.001  1.00  0.00     0.174 HD
ATOM     27  H41 UNL     1      23.976 132.573  21.804  1.00  0.00     0.174 HD
ENDBRANCH  19  25
BRANCH  24  28
HETATM   28  N6  UNL     1      27.759 135.100  17.943  1.00  0.00    -0.110 N 
HETATM   29  O1  UNL     1      27.202 135.792  17.085  1.00  0.00    -0.532 OA
HETATM   30  O2  UNL     1      29.095 134.861  17.862  1.00  0.00    -0.532 OA
ENDBRANCH  24  28
ENDBRANCH  15  17
ENDBRANCH  13  15
ENDBRANCH   5  11
ENDBRANCH   1   4
BRANCH   1  31
HETATM   31  C12 UNL     1      28.201 128.438  16.730  1.00  0.00     0.219 C 
BRANCH  31  32
HETATM   32  O3  UNL     1      28.689 127.121  16.532  1.00  0.00    -0.386 OA
ATOM     33  H3  UNL     1      29.628 127.171  16.398  1.00  0.00     0.210 HD
ENDBRANCH  31  32
BRANCH  31  34
HETATM   34  C13 UNL     1      29.294 129.305  17.256  1.00  0.00     0.215 C 
BRANCH  34  35
HETATM   35  N10 UNL     1      30.442 128.610  17.649  1.00  0.00    -0.347 NA
BRANCH  35  36
HETATM   36  N11 UNL     1      31.353 128.037  17.976  1.00  0.00    -0.281 N 
ATOM     37 2H11 UNL     1      30.845 128.204  17.107  1.00  0.00     0.191 HD
ATOM     38 1H11 UNL     1      32.177 127.523  18.289  1.00  0.00     0.191 HD
ENDBRANCH  35  36
ENDBRANCH  34  35
ENDBRANCH  31  34
ENDBRANCH   1  31
TORSDOF 11
ENDMDL
MODEL 2
REMARK VINA RESULT: -7.876281907      1.338      1.533
REMARK  11 active torsions:
REMARK  status: ('A' for Active; 'I' for Inactive)
REMARK    1  A    between atoms: C2_2  and  C7_21 
REMARK    2  A    between atoms: N1_3  and  N2_5 
REMARK    3  A    between atoms: N2_5  and  C3_7 
REMARK    4  A    between atoms: C4_10  and  N4_11 
REMARK    5  A    between atoms: C6_17  and  N6_18 
REMARK    6  A    between atoms: N8_27  and  C10_28 
REMARK    7  A    between atoms: C10_28  and  C12_31 
REMARK    8  A    between atoms: C12_31  and  O3_32 
REMARK    9  A    between atoms: C12_31  and  C13_34 
REMARK   10  A    between atoms: C13_34  and  N10_35 
REMARK   11  A    between atoms: N10_35  and  N11_36 
ROOT
HETATM    1  C10 UNL     1      27.445 129.418  15.920  1.00  0.00     0.366 C 
HETATM    2  C11 UNL     1      28.140 128.355  15.142  1.00  0.00     0.098 C 
HETATM    3  N9  UNL     1      28.699 127.529  14.551  1.00  0.00    -0.195 NA
ENDROOT
BRANCH   1   4
HETATM    4  N8  UNL     1      26.054 129.255  15.753  1.00  0.00     0.147 N 
HETATM    5  C7  UNL     1      25.244 130.341  15.392  1.00  0.00     0.467 C 
HETATM    6  N7  UNL     1      25.007 130.296  13.962  1.00  0.00    -0.036 N 
HETATM    7  C8  UNL     1      24.946 128.903  13.663  1.00  0.00     0.265 C 
ATOM      8  H72 UNL     1      24.191 130.827  13.657  1.00  0.00     0.280 HD
ATOM      9  H71 UNL     1      25.689 130.815  13.409  1.00  0.00     0.280 HD
HETATM   10  C9  UNL     1      25.719 128.236  14.791  1.00  0.00     0.305 C 
BRANCH   5  11
HETATM   11  C2  UNL     1      25.603 131.680  15.867  1.00  0.00     0.060 C 
HETATM   12  C1  UNL     1      26.295 132.623  14.977  1.00  0.00     0.069 C 
HETATM   13  N1  UNL     1      25.319 132.020  17.053  1.00  0.00    -0.304 N 
ATOM     14  H1  UNL     1      24.840 131.357  17.662  1.00  0.00     0.186 HD
BRANCH  13  15
HETATM   15  N2  UNL     1      25.644 133.265  17.536  1.00  0.00    -0.283 N 
ATOM     16  H2  UNL     1      25.829 133.965  16.818  1.00  0.00     0.188 HD
BRANCH  15  17
HETATM   17  C3  UNL     1      25.751 133.683  18.715  1.00  0.00     0.170 A 
HETATM   18  N3  UNL     1      25.332 133.047  19.823  1.00  0.00    -0.173 N 
HETATM   19  C4  UNL     1      25.490 133.559  21.070  1.00  0.00     0.677 A 
ATOM     20  H3  UNL     1      24.876 132.141  19.721  1.00  0.00     0.186 HD
HETATM   21  N5  UNL     1      26.088 134.747  21.205  1.00  0.00    -0.200 N 
HETATM   22  C5  UNL     1      26.542 135.464  20.161  1.00  0.00     0.146 A 
ATOM     23  H5  UNL     1      26.206 135.129  22.144  1.00  0.00     0.183 HD
HETATM   24  C6  UNL     1      26.367 134.918  18.903  1.00  0.00     0.164 A 
BRANCH  19  25
HETATM   25  N4  UNL     1      25.049 132.879  22.092  1.00  0.00    -0.234 N 
ATOM     26  H42 UNL     1      24.634 133.327  22.909  1.00  0.00     0.174 HD
ATOM     27  H41 UNL     1      25.118 131.861  22.075  1.00  0.00     0.174 HD
ENDBRANCH  19  25
BRANCH  24  28
HETATM   28  N6  UNL     1      26.833 135.638  17.785  1.00  0.00    -0.110 N 
HETATM   29  O1  UNL     1      27.992 135.474  17.393  1.00  0.00    -0.532 OA
HETATM   30  O2  UNL     1      26.012 136.507  17.138  1.00  0.00    -0.532 OA
ENDBRANCH  24  28
ENDBRANCH  15  17
ENDBRANCH  13  15
ENDBRANCH   5  11
ENDBRANCH   1   4
BRANCH   1  31
HETATM   31  C12 UNL     1      27.835 129.249  17.358  1.00  0.00     0.219 C 
BRANCH  31  32
HETATM   32  O3  UNL     1      27.451 130.421  18.059  1.00  0.00    -0.386 OA
ATOM     33  H3  UNL     1      27.733 130.330  18.962  1.00  0.00     0.210 HD
ENDBRANCH  31  32
BRANCH  31  34
HETATM   34  C13 UNL     1      27.241 128.051  18.018  1.00  0.00     0.215 C 
BRANCH  34  35
HETATM   35  N10 UNL     1      28.179 127.128  18.489  1.00  0.00    -0.347 NA
BRANCH  35  36
HETATM   36  N11 UNL     1      28.930 126.373  18.853  1.00  0.00    -0.281 N 
ATOM     37 2H11 UNL     1      28.391 126.545  18.004  1.00  0.00     0.191 HD
ATOM     38 1H11 UNL     1      29.611 125.698  19.199  1.00  0.00     0.191 HD
ENDBRANCH  35  36
ENDBRANCH  34  35
ENDBRANCH  31  34
ENDBRANCH   1  31
TORSDOF 11
ENDMDL
MODEL 3
REMARK VINA RESULT: -7.818925824      1.969      3.692
REMARK  11 active torsions:
REMARK  status: ('A' for Active; 'I' for Inactive)
REMARK    1  A    between atoms: C2_2  and  C7_21 
REMARK    2  A    between atoms: N1_3  and  N2_5 
REMARK    3  A    between atoms: N2_5  and  C3_7 
REMARK    4  A    between atoms: C4_10  and  N4_11 
REMARK    5  A    between atoms: C6_17  and  N6_18 
REMARK    6  A    between atoms: N8_27  and  C10_28 
REMARK    7  A    between atoms: C10_28  and  C12_31 
REMARK    8  A    between atoms: C12_31  and  O3_32 
REMARK    9  A    between atoms: C12_31  and  C13_34 
REMARK   10  A    between atoms: C13_34  and  N10_35 
REMARK   11  A    between atoms: N10_35  and  N11_36 
ROOT
HETATM    1  C10 UNL     1      25.297 130.022  14.725  1.00  0.00     0.366 C 
HETATM    2  C11 UNL     1      24.867 128.606  14.894  1.00  0.00     0.098 C 
HETATM    3  N9  UNL     1      24.512 127.509  15.017  1.00  0.00    -0.195 NA
ENDROOT
BRANCH   1   4
HETATM    4  N8  UNL     1      26.699 130.048  14.575  1.00  0.00     0.147 N 
HETATM    5  C7  UNL     1      27.498 130.801  15.446  1.00  0.00     0.467 C 
HETATM    6  N7  UNL     1      28.034 129.926  16.470  1.00  0.00    -0.036 N 
HETATM    7  C8  UNL     1      28.242 128.686  15.795  1.00  0.00     0.265 C 
ATOM      8  H72 UNL     1      28.861 130.291  16.942  1.00  0.00     0.280 HD
ATOM      9  H71 UNL     1      27.453 129.855  17.306  1.00  0.00     0.280 HD
HETATM   10  C9  UNL     1      27.291 128.734  14.608  1.00  0.00     0.305 C 
BRANCH   5  11
HETATM   11  C2  UNL     1      26.965 132.053  15.990  1.00  0.00     0.060 C 
HETATM   12  C1  UNL     1      27.108 133.309  15.242  1.00  0.00     0.069 C 
HETATM   13  N1  UNL     1      26.384 132.048  17.116  1.00  0.00    -0.304 N 
ATOM     14  H1  UNL     1      26.292 131.171  17.627  1.00  0.00     0.186 HD
BRANCH  13  15
HETATM   15  N2  UNL     1      25.876 133.203  17.661  1.00  0.00    -0.283 N 
ATOM     16  H2  UNL     1      25.417 133.823  16.994  1.00  0.00     0.188 HD
BRANCH  15  17
HETATM   17  C3  UNL     1      25.884 133.621  18.845  1.00  0.00     0.170 A 
HETATM   18  N3  UNL     1      25.366 132.990  19.912  1.00  0.00    -0.173 N 
HETATM   19  C4  UNL     1      25.419 133.501  21.168  1.00  0.00     0.677 A 
ATOM     20  H3  UNL     1      24.913 132.087  19.772  1.00  0.00     0.186 HD
HETATM   21  N5  UNL     1      26.012 134.685  21.354  1.00  0.00    -0.200 N 
HETATM   22  C5  UNL     1      26.561 135.397  20.353  1.00  0.00     0.146 A 
ATOM     23  H5  UNL     1      26.051 135.067  22.299  1.00  0.00     0.183 HD
HETATM   24  C6  UNL     1      26.491 134.852  19.085  1.00  0.00     0.164 A 
BRANCH  19  25
HETATM   25  N4  UNL     1      24.885 132.826  22.149  1.00  0.00    -0.234 N 
ATOM     26  H42 UNL     1      25.188 131.882  22.390  1.00  0.00     0.174 HD
ATOM     27  H41 UNL     1      24.142 133.256  22.698  1.00  0.00     0.174 HD
ENDBRANCH  19  25
BRANCH  24  28
HETATM   28  N6  UNL     1      27.058 135.566  18.012  1.00  0.00    -0.110 N 
HETATM   29  O1  UNL     1      26.350 136.324  17.341  1.00  0.00    -0.532 OA
HETATM   30  O2  UNL     1      28.377 135.426  17.713  1.00  0.00    -0.532 OA
ENDBRANCH  24  28
ENDBRANCH  15  17
ENDBRANCH  13  15
ENDBRANCH   5  11
ENDBRANCH   1   4
BRANCH   1  31
HETATM   31  C12 UNL     1      24.617 130.553  13.498  1.00  0.00     0.219 C 
BRANCH  31  32
HETATM   32  O3  UNL     1      23.521 129.704  13.198  1.00  0.00    -0.386 OA
ATOM     33  H3  UNL     1      23.097 129.471  14.015  1.00  0.00     0.210 HD
ENDBRANCH  31  32
BRANCH  31  34
HETATM   34  C13 UNL     1      24.143 131.961  13.622  1.00  0.00     0.215 C 
BRANCH  34  35
HETATM   35  N10 UNL     1      23.459 132.235  14.810  1.00  0.00    -0.347 NA
BRANCH  35  36
HETATM   36  N11 UNL     1      22.912 132.437  15.773  1.00  0.00    -0.281 N 
ATOM     37 2H11 UNL     1      22.687 132.391  14.779  1.00  0.00     0.191 HD
ATOM     38 1H11 UNL     1      22.433 132.618  16.655  1.00  0.00     0.191 HD
ENDBRANCH  35  36
ENDBRANCH  34  35
ENDBRANCH  31  34
ENDBRANCH   1  31
TORSDOF 11
ENDMDL
MODEL 4
REMARK VINA RESULT: -7.745680293      2.217      7.003
REMARK  11 active torsions:
REMARK  status: ('A' for Active; 'I' for Inactive)
REMARK    1  A    between atoms: C2_2  and  C7_21 
REMARK    2  A    between atoms: N1_3  and  N2_5 
REMARK    3  A    between atoms: N2_5  and  C3_7 
REMARK    4  A    between atoms: C4_10  and  N4_11 
REMARK    5  A    between atoms: C6_17  and  N6_18 
REMARK    6  A    between atoms: N8_27  and  C10_28 
REMARK    7  A    between atoms: C10_28  and  C12_31 
REMARK    8  A    between atoms: C12_31  and  O3_32 
REMARK    9  A    between atoms: C12_31  and  C13_34 
REMARK   10  A    between atoms: C13_34  and  N10_35 
REMARK   11  A    between atoms: N10_35  and  N11_36 
ROOT
HETATM    1  C10 UNL     1      27.762 134.423  17.668  1.00  0.00     0.366 C 
HETATM    2  C11 UNL     1      28.381 135.239  18.749  1.00  0.00     0.098 C 
HETATM    3  N9  UNL     1      28.879 135.881  19.576  1.00  0.00    -0.195 NA
ENDROOT
BRANCH   1   4
HETATM    4  N8  UNL     1      26.401 134.226  17.982  1.00  0.00     0.147 N 
HETATM    5  C7  UNL     1      25.878 132.934  18.120  1.00  0.00     0.467 C 
HETATM    6  N7  UNL     1      25.828 132.594  19.528  1.00  0.00    -0.036 N 
HETATM    7  C8  UNL     1      25.533 133.831  20.175  1.00  0.00     0.265 C 
ATOM      8  H72 UNL     1      25.182 131.838  19.754  1.00  0.00     0.280 HD
ATOM      9  H71 UNL     1      26.667 132.129  19.876  1.00  0.00     0.280 HD
HETATM   10  C9  UNL     1      26.002 134.895  19.194  1.00  0.00     0.305 C 
BRANCH   5  11
HETATM   11  C2  UNL     1      26.429 131.855  17.294  1.00  0.00     0.060 C 
HETATM   12  C1  UNL     1      25.801 131.506  16.012  1.00  0.00     0.069 C 
HETATM   13  N1  UNL     1      27.448 131.219  17.696  1.00  0.00    -0.304 N 
ATOM     14  H1  UNL     1      27.874 131.469  18.587  1.00  0.00     0.186 HD
BRANCH  13  15
HETATM   15  N2  UNL     1      27.990 130.198  16.952  1.00  0.00    -0.283 N 
ATOM     16  H2  UNL     1      27.945 130.336  15.942  1.00  0.00     0.188 HD
BRANCH  15  17
HETATM   17  C3  UNL     1      28.531 129.123  17.309  1.00  0.00     0.170 A 
HETATM   18  N3  UNL     1      29.844 128.929  17.522  1.00  0.00    -0.173 N 
HETATM   19  C4  UNL     1      30.358 127.737  17.917  1.00  0.00     0.677 A 
ATOM     20  H3  UNL     1      30.482 129.713  17.381  1.00  0.00     0.186 HD
HETATM   21  N5  UNL     1      29.523 126.709  18.102  1.00  0.00    -0.200 N 
HETATM   22  C5  UNL     1      28.195 126.798  17.916  1.00  0.00     0.146 A 
ATOM     23  H5  UNL     1      29.913 125.814  18.399  1.00  0.00     0.183 HD
HETATM   24  C6  UNL     1      27.700 128.024  17.513  1.00  0.00     0.164 A 
BRANCH  19  25
HETATM   25  N4  UNL     1      31.646 127.632  18.096  1.00  0.00    -0.234 N 
ATOM     26  H42 UNL     1      32.299 128.358  17.801  1.00  0.00     0.174 HD
ATOM     27  H41 UNL     1      32.016 126.798  18.550  1.00  0.00     0.174 HD
ENDBRANCH  19  25
BRANCH  24  28
HETATM   28  N6  UNL     1      26.312 128.158  17.311  1.00  0.00    -0.110 N 
HETATM   29  O1  UNL     1      25.608 128.639  18.204  1.00  0.00    -0.532 OA
HETATM   30  O2  UNL     1      25.748 127.763  16.138  1.00  0.00    -0.532 OA
ENDBRANCH  24  28
ENDBRANCH  15  17
ENDBRANCH  13  15
ENDBRANCH   5  11
ENDBRANCH   1   4
BRANCH   1  31
HETATM   31  C12 UNL     1      27.912 135.189  16.387  1.00  0.00     0.219 C 
BRANCH  31  32
HETATM   32  O3  UNL     1      29.114 134.771  15.762  1.00  0.00    -0.386 OA
ATOM     33  H3  UNL     1      29.701 135.516  15.724  1.00  0.00     0.210 HD
ENDBRANCH  31  32
BRANCH  31  34
HETATM   34  C13 UNL     1      26.770 135.028  15.441  1.00  0.00     0.215 C 
BRANCH  34  35
HETATM   35  N10 UNL     1      27.091 134.343  14.264  1.00  0.00    -0.347 NA
BRANCH  35  36
HETATM   36  N11 UNL     1      27.359 133.779  13.328  1.00  0.00    -0.281 N 
ATOM     37 2H11 UNL     1      27.760 133.927  14.255  1.00  0.00     0.191 HD
ATOM     38 1H11 UNL     1      27.587 133.274  12.472  1.00  0.00     0.191 HD
ENDBRANCH  35  36
ENDBRANCH  34  35
ENDBRANCH  31  34
ENDBRANCH   1  31
TORSDOF 11
ENDMDL
MODEL 5
REMARK VINA RESULT: -7.744669309      2.559      4.129
REMARK  11 active torsions:
REMARK  status: ('A' for Active; 'I' for Inactive)
REMARK    1  A    between atoms: C2_2  and  C7_21 
REMARK    2  A    between atoms: N1_3  and  N2_5 
REMARK    3  A    between atoms: N2_5  and  C3_7 
REMARK    4  A    between atoms: C4_10  and  N4_11 
REMARK    5  A    between atoms: C6_17  and  N6_18 
REMARK    6  A    between atoms: N8_27  and  C10_28 
REMARK    7  A    between atoms: C10_28  and  C12_31 
REMARK    8  A    between atoms: C12_31  and  O3_32 
REMARK    9  A    between atoms: C12_31  and  C13_34 
REMARK   10  A    between atoms: C13_34  and  N10_35 
REMARK   11  A    between atoms: N10_35  and  N11_36 
ROOT
HETATM    1  C10 UNL     1      24.694 131.517  15.084  1.00  0.00     0.366 C 
HETATM    2  C11 UNL     1      24.172 130.150  14.804  1.00  0.00     0.098 C 
HETATM    3  N9  UNL     1      23.745 129.094  14.593  1.00  0.00    -0.195 NA
ENDROOT
BRANCH   1   4
HETATM    4  N8  UNL     1      25.827 131.737  14.273  1.00  0.00     0.147 N 
HETATM    5  C7  UNL     1      27.107 131.389  14.722  1.00  0.00     0.467 C 
HETATM    6  N7  UNL     1      27.468 130.099  14.166  1.00  0.00    -0.036 N 
HETATM    7  C8  UNL     1      26.862 130.096  12.875  1.00  0.00     0.265 C 
ATOM      8  H72 UNL     1      28.470 129.912  14.160  1.00  0.00     0.280 HD
ATOM      9  H71 UNL     1      27.210 129.305  14.752  1.00  0.00     0.280 HD
HETATM   10  C9  UNL     1      25.725 131.101  12.984  1.00  0.00     0.305 C 
BRANCH   5  11
HETATM   11  C2  UNL     1      27.408 131.495  16.153  1.00  0.00     0.060 C 
HETATM   12  C1  UNL     1      27.874 130.320  16.903  1.00  0.00     0.069 C 
HETATM   13  N1  UNL     1      27.259 132.605  16.743  1.00  0.00    -0.304 N 
ATOM     14  H1  UNL     1      26.934 133.413  16.213  1.00  0.00     0.186 HD
BRANCH  13  15
HETATM   15  N2  UNL     1      27.526 132.743  18.084  1.00  0.00    -0.283 N 
ATOM     16  H2  UNL     1      28.362 132.253  18.404  1.00  0.00     0.188 HD
BRANCH  15  17
HETATM   17  C3  UNL     1      26.912 133.371  18.981  1.00  0.00     0.170 A 
HETATM   18  N3  UNL     1      26.144 132.830  19.943  1.00  0.00    -0.173 N 
HETATM   19  C4  UNL     1      25.515 133.574  20.888  1.00  0.00     0.677 A 
ATOM     20  H3  UNL     1      26.030 131.817  19.964  1.00  0.00     0.186 HD
HETATM   21  N5  UNL     1      25.663 134.903  20.862  1.00  0.00    -0.200 N 
HETATM   22  C5  UNL     1      26.408 135.541  19.942  1.00  0.00     0.146 A 
ATOM     23  H5  UNL     1      25.189 135.459  21.574  1.00  0.00     0.183 HD
HETATM   24  C6  UNL     1      27.037 134.758  18.992  1.00  0.00     0.164 A 
BRANCH  19  25
HETATM   25  N4  UNL     1      24.783 132.970  21.784  1.00  0.00    -0.234 N 
ATOM     26  H42 UNL     1      23.766 133.042  21.798  1.00  0.00     0.174 HD
ATOM     27  H41 UNL     1      25.243 132.400  22.494  1.00  0.00     0.174 HD
ENDBRANCH  19  25
BRANCH  24  28
HETATM   28  N6  UNL     1      27.828 135.390  18.013  1.00  0.00    -0.110 N 
HETATM   29  O1  UNL     1      29.032 135.569  18.224  1.00  0.00    -0.532 OA
HETATM   30  O2  UNL     1      27.274 135.800  16.841  1.00  0.00    -0.532 OA
ENDBRANCH  24  28
ENDBRANCH  15  17
ENDBRANCH  13  15
ENDBRANCH   5  11
ENDBRANCH   1   4
BRANCH   1  31
HETATM   31  C12 UNL     1      23.601 132.490  14.754  1.00  0.00     0.219 C 
BRANCH  31  32
HETATM   32  O3  UNL     1      22.611 132.401  15.766  1.00  0.00    -0.386 OA
ATOM     33  H3  UNL     1      22.148 131.580  15.654  1.00  0.00     0.210 HD
ENDBRANCH  31  32
BRANCH  31  34
HETATM   34  C13 UNL     1      24.060 133.903  14.622  1.00  0.00     0.215 C 
BRANCH  34  35
HETATM   35  N10 UNL     1      24.244 134.565  15.841  1.00  0.00    -0.347 NA
BRANCH  35  36
HETATM   36  N11 UNL     1      24.408 135.107  16.813  1.00  0.00    -0.281 N 
ATOM     37 2H11 UNL     1      23.619 134.716  16.297  1.00  0.00     0.191 HD
ATOM     38 1H11 UNL     1      24.575 135.599  17.691  1.00  0.00     0.191 HD
ENDBRANCH  35  36
ENDBRANCH  34  35
ENDBRANCH  31  34
ENDBRANCH   1  31
TORSDOF 11
ENDMDL
