MODEL 1
REMARK VINA RESULT: -7.560951285      0.000      0.000
REMARK  11 active torsions:
REMARK  status: ('A' for Active; 'I' for Inactive)
REMARK    1  A    between atoms: C2_2  and  O1_3 
REMARK    2  A    between atoms: C2_2  and  N1_5 
REMARK    3  A    between atoms: N1_5  and  N2_7 
REMARK    4  A    between atoms: C5_13  and  N4_14 
REMARK    5  A    between atoms: N4_14  and  O3_16 
REMARK    6  A    between atoms: C6_18  and  N5_19 
REMARK    7  A    between atoms: N5_19  and  N6_21 
REMARK    8  A    between atoms: N6_21  and  C7_23 
REMARK    9  A    between atoms: C7_23  and  C8_24 
REMARK   10  A    between atoms: C13_29  and  S1_30 
REMARK   11  A    between atoms: S1_30  and  N7_31 
ROOT
HETATM    1  N2  UNL     1      26.509 133.668  18.482  1.00  0.00    -0.187 N 
HETATM    2  C3  UNL     1      27.004 134.843  18.062  1.00  0.00     0.347 A 
HETATM    3  O2  UNL     1      26.703 135.962  18.573  1.00  0.00    -0.245 OA
HETATM    4  N3  UNL     1      27.893 134.908  17.028  1.00  0.00    -0.315 N 
ATOM      5  H3  UNL     1      28.252 135.815  16.732  1.00  0.00     0.170 HD
HETATM    6  C4  UNL     1      28.299 133.805  16.398  1.00  0.00     0.128 A 
HETATM    7  C5  UNL     1      27.806 132.606  16.812  1.00  0.00     0.117 A 
HETATM    8  C6  UNL     1      26.890 132.502  17.875  1.00  0.00     0.176 A 
ENDROOT
BRANCH   8   9
HETATM    9  N5  UNL     1      26.519 131.360  18.148  1.00  0.00    -0.286 N 
ATOM     10  H5  UNL     1      27.157 131.012  18.864  1.00  0.00     0.188 HD
BRANCH   9  11
HETATM   11  N6  UNL     1      25.649 130.387  17.914  1.00  0.00    -0.330 N 
ATOM     12  H6  UNL     1      24.706 130.668  17.649  1.00  0.00     0.180 HD
BRANCH  11  13
HETATM   13  C7  UNL     1      25.911 128.945  17.999  1.00  0.00     0.179 C 
BRANCH  13  14
HETATM   14  C8  UNL     1      26.105 128.291  16.706  1.00  0.00    -0.016 A 
HETATM   15  C9  UNL     1      25.112 128.122  15.762  1.00  0.00     0.010 A 
HETATM   16  C10 UNL     1      25.322 127.492  14.549  1.00  0.00     0.001 A 
HETATM   17  C11 UNL     1      26.595 127.025  14.309  1.00  0.00     0.002 A 
HETATM   18  C12 UNL     1      27.597 127.187  15.246  1.00  0.00     0.026 A 
HETATM   19  C13 UNL     1      27.398 127.813  16.457  1.00  0.00     0.087 A 
BRANCH  19  20
HETATM   20  S1  UNL     1      28.713 127.961  17.559  1.00  0.00     0.257 S 
HETATM   21  O4  UNL     1      28.761 129.285  18.254  1.00  0.00    -0.201 OA
HETATM   22  O5  UNL     1      30.007 127.822  16.810  1.00  0.00    -0.201 OA
BRANCH  20  23
HETATM   23  N7  UNL     1      28.707 126.716  18.757  1.00  0.00    -0.324 N 
ATOM     24  H72 UNL     1      27.875 126.176  18.992  1.00  0.00     0.169 HD
ATOM     25  H71 UNL     1      29.622 126.593  19.192  1.00  0.00     0.169 HD
ENDBRANCH  20  23
ENDBRANCH  19  20
ENDBRANCH  13  14
ENDBRANCH  11  13
ENDBRANCH   9  11
ENDBRANCH   8   9
BRANCH   1  26
HETATM   26  N1  UNL     1      25.592 133.620  19.537  1.00  0.00    -0.296 N 
ATOM     27  H1  UNL     1      24.604 133.566  19.287  1.00  0.00     0.183 HD
BRANCH  26  28
HETATM   28  C2  UNL     1      25.911 133.639  20.942  1.00  0.00     0.229 C 
HETATM   29  C1  UNL     1      24.652 133.145  21.705  1.00  0.00     0.064 C 
BRANCH  28  30
HETATM   30  O1  UNL     1      26.123 134.949  21.431  1.00  0.00    -0.376 OA
ATOM     31  H1  UNL     1      26.912 135.239  20.989  1.00  0.00     0.212 HD
ENDBRANCH  28  30
ENDBRANCH  26  28
ENDBRANCH   1  26
BRANCH   7  32
HETATM   32  N4  UNL     1      28.242 131.407  16.133  1.00  0.00    -0.264 N 
ATOM     33  H4  UNL     1      29.088 130.913  16.415  1.00  0.00     0.194 HD
BRANCH  32  34
HETATM   34  O3  UNL     1      27.545 131.008  15.196  1.00  0.00    -0.289 OA
ATOM     35  H3  UNL     1      27.557 130.076  15.016  1.00  0.00     0.244 HD
ENDBRANCH  32  34
ENDBRANCH   7  32
TORSDOF 11
ENDMDL
MODEL 2
REMARK VINA RESULT: -7.427273050      2.616      3.028
REMARK  11 active torsions:
REMARK  status: ('A' for Active; 'I' for Inactive)
REMARK    1  A    between atoms: C2_2  and  O1_3 
REMARK    2  A    between atoms: C2_2  and  N1_5 
REMARK    3  A    between atoms: N1_5  and  N2_7 
REMARK    4  A    between atoms: C5_13  and  N4_14 
REMARK    5  A    between atoms: N4_14  and  O3_16 
REMARK    6  A    between atoms: C6_18  and  N5_19 
REMARK    7  A    between atoms: N5_19  and  N6_21 
REMARK    8  A    between atoms: N6_21  and  C7_23 
REMARK    9  A    between atoms: C7_23  and  C8_24 
REMARK   10  A    between atoms: C13_29  and  S1_30 
REMARK   11  A    between atoms: S1_30  and  N7_31 
ROOT
HETATM    1  N2  UNL     1      26.036 133.437  18.163  1.00  0.00    -0.187 N 
HETATM    2  C3  UNL     1      26.236 134.604  17.532  1.00  0.00     0.347 A 
HETATM    3  O2  UNL     1      26.702 135.641  18.090  1.00  0.00    -0.245 OA
HETATM    4  N3  UNL     1      25.942 134.751  16.207  1.00  0.00    -0.315 N 
ATOM      5  H3  UNL     1      26.106 135.651  15.754  1.00  0.00     0.170 HD
HETATM    6  C4  UNL     1      25.445 133.740  15.494  1.00  0.00     0.128 A 
HETATM    7  C5  UNL     1      25.237 132.550  16.120  1.00  0.00     0.117 A 
HETATM    8  C6  UNL     1      25.529 132.362  17.484  1.00  0.00     0.176 A 
ENDROOT
BRANCH   8   9
HETATM    9  N5  UNL     1      25.292 131.239  17.929  1.00  0.00    -0.286 N 
ATOM     10  H5  UNL     1      24.441 131.323  18.486  1.00  0.00     0.188 HD
BRANCH   9  11
HETATM   11  N6  UNL     1      25.663 129.968  17.998  1.00  0.00    -0.330 N 
ATOM     12  H6  UNL     1      25.212 129.396  18.711  1.00  0.00     0.180 HD
BRANCH  11  13
HETATM   13  C7  UNL     1      26.659 129.304  17.149  1.00  0.00     0.179 C 
BRANCH  13  14
HETATM   14  C8  UNL     1      26.766 127.862  17.362  1.00  0.00    -0.016 A 
HETATM   15  C9  UNL     1      27.411 127.278  18.434  1.00  0.00     0.010 A 
HETATM   16  C10 UNL     1      27.504 125.908  18.607  1.00  0.00     0.001 A 
HETATM   17  C11 UNL     1      26.912 125.125  17.642  1.00  0.00     0.002 A 
HETATM   18  C12 UNL     1      26.264 125.696  16.564  1.00  0.00     0.026 A 
HETATM   19  C13 UNL     1      26.167 127.059  16.383  1.00  0.00     0.087 A 
BRANCH  19  20
HETATM   20  S1  UNL     1      25.341 127.671  15.002  1.00  0.00     0.257 S 
HETATM   21  O4  UNL     1      24.233 128.616  15.342  1.00  0.00    -0.201 OA
HETATM   22  O5  UNL     1      24.717 126.532  14.249  1.00  0.00    -0.201 OA
BRANCH  20  23
HETATM   23  N7  UNL     1      26.409 128.459  13.895  1.00  0.00    -0.324 N 
ATOM     24  H72 UNL     1      26.198 129.359  13.465  1.00  0.00     0.169 HD
ATOM     25  H71 UNL     1      27.260 127.922  13.730  1.00  0.00     0.169 HD
ENDBRANCH  20  23
ENDBRANCH  19  20
ENDBRANCH  13  14
ENDBRANCH  11  13
ENDBRANCH   9  11
ENDBRANCH   8   9
BRANCH   1  26
HETATM   26  N1  UNL     1      26.332 133.305  19.524  1.00  0.00    -0.296 N 
ATOM     27  H1  UNL     1      27.030 132.607  19.779  1.00  0.00     0.183 HD
BRANCH  26  28
HETATM   28  C2  UNL     1      25.743 134.064  20.599  1.00  0.00     0.229 C 
HETATM   29  C1  UNL     1      25.130 133.046  21.597  1.00  0.00     0.064 C 
BRANCH  28  30
HETATM   30  O1  UNL     1      24.641 134.842  20.173  1.00  0.00    -0.376 OA
ATOM     31  H1  UNL     1      24.222 135.116  20.979  1.00  0.00     0.212 HD
ENDBRANCH  28  30
ENDBRANCH  26  28
ENDBRANCH   1  26
BRANCH   7  32
HETATM   32  N4  UNL     1      24.699 131.450  15.353  1.00  0.00    -0.264 N 
ATOM     33  H4  UNL     1      25.306 130.809  14.843  1.00  0.00     0.194 HD
BRANCH  32  34
HETATM   34  O3  UNL     1      23.472 131.320  15.344  1.00  0.00    -0.289 OA
ATOM     35  H3  UNL     1      23.128 130.489  15.040  1.00  0.00     0.244 HD
ENDBRANCH  32  34
ENDBRANCH   7  32
TORSDOF 11
ENDMDL
MODEL 3
REMARK VINA RESULT: -7.277014277      2.642      4.185
REMARK  11 active torsions:
REMARK  status: ('A' for Active; 'I' for Inactive)
REMARK    1  A    between atoms: C2_2  and  O1_3 
REMARK    2  A    between atoms: C2_2  and  N1_5 
REMARK    3  A    between atoms: N1_5  and  N2_7 
REMARK    4  A    between atoms: C5_13  and  N4_14 
REMARK    5  A    between atoms: N4_14  and  O3_16 
REMARK    6  A    between atoms: C6_18  and  N5_19 
REMARK    7  A    between atoms: N5_19  and  N6_21 
REMARK    8  A    between atoms: N6_21  and  C7_23 
REMARK    9  A    between atoms: C7_23  and  C8_24 
REMARK   10  A    between atoms: C13_29  and  S1_30 
REMARK   11  A    between atoms: S1_30  and  N7_31 
ROOT
HETATM    1  N2  UNL     1      26.025 134.055  17.628  1.00  0.00    -0.187 N 
HETATM    2  C3  UNL     1      26.422 135.304  17.914  1.00  0.00     0.347 A 
HETATM    3  O2  UNL     1      26.763 136.157  17.041  1.00  0.00    -0.245 OA
HETATM    4  N3  UNL     1      26.486 135.750  19.203  1.00  0.00    -0.315 N 
ATOM      5  H3  UNL     1      26.791 136.706  19.388  1.00  0.00     0.170 HD
HETATM    6  C4  UNL     1      26.155 134.959  20.223  1.00  0.00     0.128 A 
HETATM    7  C5  UNL     1      25.749 133.688  19.950  1.00  0.00     0.117 A 
HETATM    8  C6  UNL     1      25.672 133.196  18.633  1.00  0.00     0.176 A 
ENDROOT
BRANCH   8   9
HETATM    9  N5  UNL     1      25.294 132.029  18.524  1.00  0.00    -0.286 N 
ATOM     10  H5  UNL     1      24.292 132.031  18.711  1.00  0.00     0.188 HD
BRANCH   9  11
HETATM   11  N6  UNL     1      25.626 130.771  18.267  1.00  0.00    -0.330 N 
ATOM     12  H6  UNL     1      25.492 130.098  19.021  1.00  0.00     0.180 HD
BRANCH  11  13
HETATM   13  C7  UNL     1      26.168 130.253  17.005  1.00  0.00     0.179 C 
BRANCH  13  14
HETATM   14  C8  UNL     1      26.250 128.795  16.939  1.00  0.00    -0.016 A 
HETATM   15  C9  UNL     1      26.862 128.005  17.891  1.00  0.00     0.010 A 
HETATM   16  C10 UNL     1      26.931 126.626  17.799  1.00  0.00     0.001 A 
HETATM   17  C11 UNL     1      26.351 126.053  16.690  1.00  0.00     0.002 A 
HETATM   18  C12 UNL     1      25.737 126.833  15.729  1.00  0.00     0.026 A 
HETATM   19  C13 UNL     1      25.662 128.206  15.812  1.00  0.00     0.087 A 
BRANCH  19  20
HETATM   20  S1  UNL     1      24.877 129.088  14.558  1.00  0.00     0.257 S 
HETATM   21  O4  UNL     1      25.533 130.396  14.250  1.00  0.00    -0.201 OA
HETATM   22  O5  UNL     1      23.470 129.402  14.977  1.00  0.00    -0.201 OA
BRANCH  20  23
HETATM   23  N7  UNL     1      24.758 128.179  13.093  1.00  0.00    -0.324 N 
ATOM     24  H72 UNL     1      25.014 127.194  13.029  1.00  0.00     0.169 HD
ATOM     25  H71 UNL     1      24.407 128.740  12.317  1.00  0.00     0.169 HD
ENDBRANCH  20  23
ENDBRANCH  19  20
ENDBRANCH  13  14
ENDBRANCH  11  13
ENDBRANCH   9  11
ENDBRANCH   8   9
BRANCH   1  26
HETATM   26  N1  UNL     1      25.976 133.610  16.303  1.00  0.00    -0.296 N 
ATOM     27  H1  UNL     1      26.866 133.385  15.858  1.00  0.00     0.183 HD
BRANCH  26  28
HETATM   28  C2  UNL     1      24.786 133.439  15.508  1.00  0.00     0.229 C 
HETATM   29  C1  UNL     1      23.960 134.748  15.631  1.00  0.00     0.064 C 
BRANCH  28  30
HETATM   30  O1  UNL     1      23.930 132.437  16.022  1.00  0.00    -0.376 OA
ATOM     31  H1  UNL     1      24.504 131.696  16.176  1.00  0.00     0.212 HD
ENDBRANCH  28  30
ENDBRANCH  26  28
ENDBRANCH   1  26
BRANCH   7  32
HETATM   32  N4  UNL     1      25.390 132.825  21.051  1.00  0.00    -0.264 N 
ATOM     33  H4  UNL     1      24.934 131.926  20.897  1.00  0.00     0.194 HD
BRANCH  32  34
HETATM   34  O3  UNL     1      25.660 133.224  22.188  1.00  0.00    -0.289 OA
ATOM     35  H3  UNL     1      26.570 133.422  22.371  1.00  0.00     0.244 HD
ENDBRANCH  32  34
ENDBRANCH   7  32
TORSDOF 11
ENDMDL
MODEL 4
REMARK VINA RESULT: -7.272173536      2.570      6.792
REMARK  11 active torsions:
REMARK  status: ('A' for Active; 'I' for Inactive)
REMARK    1  A    between atoms: C2_2  and  O1_3 
REMARK    2  A    between atoms: C2_2  and  N1_5 
REMARK    3  A    between atoms: N1_5  and  N2_7 
REMARK    4  A    between atoms: C5_13  and  N4_14 
REMARK    5  A    between atoms: N4_14  and  O3_16 
REMARK    6  A    between atoms: C6_18  and  N5_19 
REMARK    7  A    between atoms: N5_19  and  N6_21 
REMARK    8  A    between atoms: N6_21  and  C7_23 
REMARK    9  A    between atoms: C7_23  and  C8_24 
REMARK   10  A    between atoms: C13_29  and  S1_30 
REMARK   11  A    between atoms: S1_30  and  N7_31 
ROOT
HETATM    1  N2  UNL     1      25.418 128.488  16.205  1.00  0.00    -0.187 N 
HETATM    2  C3  UNL     1      25.423 127.209  15.798  1.00  0.00     0.347 A 
HETATM    3  O2  UNL     1      24.644 126.744  14.914  1.00  0.00    -0.245 OA
HETATM    4  N3  UNL     1      26.296 126.302  16.325  1.00  0.00    -0.315 N 
ATOM      5  H3  UNL     1      26.277 125.337  15.995  1.00  0.00     0.170 HD
HETATM    6  C4  UNL     1      27.174 126.655  17.265  1.00  0.00     0.128 A 
HETATM    7  C5  UNL     1      27.181 127.949  17.688  1.00  0.00     0.117 A 
HETATM    8  C6  UNL     1      26.297 128.911  17.166  1.00  0.00     0.176 A 
ENDROOT
BRANCH   8   9
HETATM    9  N5  UNL     1      26.404 130.043  17.636  1.00  0.00    -0.286 N 
ATOM     10  H5  UNL     1      27.378 130.317  17.511  1.00  0.00     0.188 HD
BRANCH   9  11
HETATM   11  N6  UNL     1      25.801 131.061  18.236  1.00  0.00    -0.330 N 
ATOM     12  H6  UNL     1      25.420 130.886  19.165  1.00  0.00     0.180 HD
BRANCH  11  13
HETATM   13  C7  UNL     1      25.630 132.414  17.693  1.00  0.00     0.179 C 
BRANCH  13  14
HETATM   14  C8  UNL     1      26.088 133.481  18.580  1.00  0.00    -0.016 A 
HETATM   15  C9  UNL     1      25.353 133.990  19.632  1.00  0.00     0.010 A 
HETATM   16  C10 UNL     1      25.810 135.007  20.452  1.00  0.00     0.001 A 
HETATM   17  C11 UNL     1      27.061 135.508  20.172  1.00  0.00     0.002 A 
HETATM   18  C12 UNL     1      27.806 135.009  19.122  1.00  0.00     0.026 A 
HETATM   19  C13 UNL     1      27.361 133.997  18.300  1.00  0.00     0.087 A 
BRANCH  19  20
HETATM   20  S1  UNL     1      28.365 133.447  17.014  1.00  0.00     0.257 S 
HETATM   21  O4  UNL     1      28.583 131.968  17.020  1.00  0.00    -0.201 OA
HETATM   22  O5  UNL     1      29.721 134.081  17.137  1.00  0.00    -0.201 OA
BRANCH  20  23
HETATM   23  N7  UNL     1      27.753 133.902  15.464  1.00  0.00    -0.324 N 
ATOM     24  H72 UNL     1      28.237 134.553  14.845  1.00  0.00     0.169 HD
ATOM     25  H71 UNL     1      26.865 133.449  15.250  1.00  0.00     0.169 HD
ENDBRANCH  20  23
ENDBRANCH  19  20
ENDBRANCH  13  14
ENDBRANCH  11  13
ENDBRANCH   9  11
ENDBRANCH   8   9
BRANCH   1  26
HETATM   26  N1  UNL     1      24.510 129.403  15.662  1.00  0.00    -0.296 N 
ATOM     27  H1  UNL     1      23.708 129.655  16.239  1.00  0.00     0.183 HD
BRANCH  26  28
HETATM   28  C2  UNL     1      24.602 130.023  14.364  1.00  0.00     0.229 C 
HETATM   29  C1  UNL     1      24.146 131.498  14.527  1.00  0.00     0.064 C 
BRANCH  28  30
HETATM   30  O1  UNL     1      23.686 129.475  13.437  1.00  0.00    -0.376 OA
ATOM     31  H1  UNL     1      22.917 130.028  13.511  1.00  0.00     0.212 HD
ENDBRANCH  28  30
ENDBRANCH  26  28
ENDBRANCH   1  26
BRANCH   7  32
HETATM   32  N4  UNL     1      28.130 128.338  18.706  1.00  0.00    -0.264 N 
ATOM     33  H4  UNL     1      28.110 127.925  19.639  1.00  0.00     0.194 HD
BRANCH  32  34
HETATM   34  O3  UNL     1      28.967 129.191  18.397  1.00  0.00    -0.289 OA
ATOM     35  H3  UNL     1      29.858 128.893  18.264  1.00  0.00     0.244 HD
ENDBRANCH  32  34
ENDBRANCH   7  32
TORSDOF 11
ENDMDL
MODEL 5
REMARK VINA RESULT: -7.243163095      2.650      4.279
REMARK  11 active torsions:
REMARK  status: ('A' for Active; 'I' for Inactive)
REMARK    1  A    between atoms: C2_2  and  O1_3 
REMARK    2  A    between atoms: C2_2  and  N1_5 
REMARK    3  A    between atoms: N1_5  and  N2_7 
REMARK    4  A    between atoms: C5_13  and  N4_14 
REMARK    5  A    between atoms: N4_14  and  O3_16 
REMARK    6  A    between atoms: C6_18  and  N5_19 
REMARK    7  A    between atoms: N5_19  and  N6_21 
REMARK    8  A    between atoms: N6_21  and  C7_23 
REMARK    9  A    between atoms: C7_23  and  C8_24 
REMARK   10  A    between atoms: C13_29  and  S1_30 
REMARK   11  A    between atoms: S1_30  and  N7_31 
ROOT
HETATM    1  N2  UNL     1      26.290 134.536  17.769  1.00  0.00    -0.187 N 
HETATM    2  C3  UNL     1      26.146 135.834  18.073  1.00  0.00     0.347 A 
HETATM    3  O2  UNL     1      26.269 136.777  17.234  1.00  0.00    -0.245 OA
HETATM    4  N3  UNL     1      25.847 136.236  19.343  1.00  0.00    -0.315 N 
ATOM      5  H3  UNL     1      25.743 137.230  19.543  1.00  0.00     0.170 HD
HETATM    6  C4  UNL     1      25.689 135.350  20.326  1.00  0.00     0.128 A 
HETATM    7  C5  UNL     1      25.831 134.028  20.034  1.00  0.00     0.117 A 
HETATM    8  C6  UNL     1      26.138 133.579  18.735  1.00  0.00     0.176 A 
ENDROOT
BRANCH   8   9
HETATM    9  N5  UNL     1      26.242 132.359  18.605  1.00  0.00    -0.286 N 
ATOM     10  H5  UNL     1      25.296 131.983  18.637  1.00  0.00     0.188 HD
BRANCH   9  11
HETATM   11  N6  UNL     1      27.054 131.323  18.442  1.00  0.00    -0.330 N 
ATOM     12  H6  UNL     1      27.449 130.911  19.286  1.00  0.00     0.180 HD
BRANCH  11  13
HETATM   13  C7  UNL     1      27.439 130.711  17.165  1.00  0.00     0.179 C 
BRANCH  13  14
HETATM   14  C8  UNL     1      26.860 129.389  16.932  1.00  0.00    -0.016 A 
HETATM   15  C9  UNL     1      27.269 128.236  17.570  1.00  0.00     0.010 A 
HETATM   16  C10 UNL     1      26.707 126.995  17.324  1.00  0.00     0.001 A 
HETATM   17  C11 UNL     1      25.696 126.951  16.391  1.00  0.00     0.002 A 
HETATM   18  C12 UNL     1      25.278 128.098  15.744  1.00  0.00     0.026 A 
HETATM   19  C13 UNL     1      25.830 129.338  15.982  1.00  0.00     0.087 A 
BRANCH  19  20
HETATM   20  S1  UNL     1      25.241 130.706  15.120  1.00  0.00     0.257 S 
HETATM   21  O4  UNL     1      24.847 131.844  16.007  1.00  0.00    -0.201 OA
HETATM   22  O5  UNL     1      24.011 130.317  14.350  1.00  0.00    -0.201 OA
BRANCH  20  23
HETATM   23  N7  UNL     1      26.379 131.289  13.957  1.00  0.00    -0.324 N 
ATOM     24  H72 UNL     1      27.388 131.202  14.077  1.00  0.00     0.169 HD
ATOM     25  H71 UNL     1      25.924 131.722  13.153  1.00  0.00     0.169 HD
ENDBRANCH  20  23
ENDBRANCH  19  20
ENDBRANCH  13  14
ENDBRANCH  11  13
ENDBRANCH   9  11
ENDBRANCH   8   9
BRANCH   1  26
HETATM   26  N1  UNL     1      26.607 134.141  16.464  1.00  0.00    -0.296 N 
ATOM     27  H1  UNL     1      25.857 133.726  15.912  1.00  0.00     0.183 HD
BRANCH  26  28
HETATM   28  C2  UNL     1      27.894 134.267  15.827  1.00  0.00     0.229 C 
HETATM   29  C1  UNL     1      28.971 134.111  16.934  1.00  0.00     0.064 C 
BRANCH  28  30
HETATM   30  O1  UNL     1      28.115 135.563  15.306  1.00  0.00    -0.376 OA
ATOM     31  H1  UNL     1      28.645 135.417  14.531  1.00  0.00     0.212 HD
ENDBRANCH  28  30
ENDBRANCH  26  28
ENDBRANCH   1  26
BRANCH   7  32
HETATM   32  N4  UNL     1      25.660 133.062  21.095  1.00  0.00    -0.264 N 
ATOM     33  H4  UNL     1      25.518 132.072  20.897  1.00  0.00     0.194 HD
BRANCH  32  34
HETATM   34  O3  UNL     1      25.694 133.489  22.252  1.00  0.00    -0.289 OA
ATOM     35  H3  UNL     1      25.588 132.854  22.950  1.00  0.00     0.244 HD
ENDBRANCH  32  34
ENDBRANCH   7  32
TORSDOF 11
ENDMDL
