MODEL 1
REMARK VINA RESULT: -8.441596977      0.000      0.000
REMARK  11 active torsions:
REMARK  status: ('A' for Active; 'I' for Inactive)
REMARK    1  A    between atoms: C2_2  and  C3_3 
REMARK    2  A    between atoms: C3_3  and  C4_4 
REMARK    3  A    between atoms: C5_5  and  C6_6 
REMARK    4  A    between atoms: C7_7  and  C8_8 
REMARK    5  A    between atoms: C8_8  and  C9_9 
REMARK    6  A    between atoms: C12_14  and  N1_15 
REMARK    7  A    between atoms: C13_18  and  O3_19 
REMARK    8  A    between atoms: C14_21  and  C15_22 
REMARK    9  A    between atoms: C17_24  and  O4_25 
REMARK   10  A    between atoms: C19_27  and  O5_28 
REMARK   11  A    between atoms: C21_30  and  O6_31 
ROOT
HETATM    1  C6  UNL     1     -39.851 -15.397 377.812  1.00  0.00     0.038 A 
HETATM    2  C7  UNL     1     -40.866 -16.026 378.490  1.00  0.00    -0.030 A 
HETATM    3  C11 UNL     1     -41.764 -16.866 377.862  1.00  0.00     0.047 A 
HETATM    4  C12 UNL     1     -41.657 -17.097 376.495  1.00  0.00     0.137 A 
HETATM    5  C13 UNL     1     -40.649 -16.474 375.801  1.00  0.00     0.111 A 
HETATM    6  C14 UNL     1     -39.753 -15.627 376.470  1.00  0.00     0.029 A 
ENDROOT
BRANCH   6   7
HETATM    7  C15 UNL     1     -38.688 -14.957 375.744  1.00  0.00    -0.016 A 
HETATM    8  C16 UNL     1     -37.365 -15.295 375.987  1.00  0.00     0.052 A 
HETATM    9  C17 UNL     1     -36.325 -14.689 375.322  1.00  0.00     0.105 A 
HETATM   10  C19 UNL     1     -36.644 -13.705 374.374  1.00  0.00     0.135 A 
HETATM   11  C21 UNL     1     -37.944 -13.339 374.101  1.00  0.00     0.105 A 
HETATM   12  C23 UNL     1     -38.940 -13.984 374.802  1.00  0.00     0.052 A 
BRANCH   9  13
HETATM   13  O4  UNL     1     -34.983 -14.983 375.525  1.00  0.00    -0.353 OA
HETATM   14  C18 UNL     1     -34.379 -14.540 376.722  1.00  0.00     0.210 C 
ENDBRANCH   9  13
BRANCH  10  15
HETATM   15  O5  UNL     1     -35.608 -13.081 373.691  1.00  0.00    -0.351 OA
HETATM   16  C20 UNL     1     -35.029 -13.555 372.504  1.00  0.00     0.210 C 
ENDBRANCH  10  15
BRANCH  11  17
HETATM   17  O6  UNL     1     -38.184 -12.374 373.166  1.00  0.00    -0.353 OA
HETATM   18  C22 UNL     1     -37.586 -11.101 373.138  1.00  0.00     0.210 C 
ENDBRANCH  11  17
ENDBRANCH   6   7
BRANCH   1  19
HETATM   19  C5  UNL     1     -38.859 -14.562 378.487  1.00  0.00    -0.066 C 
HETATM   20  C4  UNL     1     -38.060 -13.839 379.055  1.00  0.00    -0.101 C 
BRANCH  20  21
HETATM   21  C3  UNL     1     -37.124 -12.958 379.754  1.00  0.00     0.094 C 
BRANCH  21  22
HETATM   22  C2  UNL     1     -37.818 -11.712 380.191  1.00  0.00     0.007 C 
HETATM   23  C1  UNL     1     -37.700 -10.686 379.081  1.00  0.00     0.006 C 
ENDBRANCH  21  22
ENDBRANCH  20  21
ENDBRANCH   1  19
BRANCH   5  24
HETATM   24  O3  UNL     1     -40.458 -16.627 374.458  1.00  0.00    -0.357 OA
ATOM     25  H3  UNL     1     -39.613 -16.522 374.036  1.00  0.00     0.217 HD
ENDBRANCH   5  24
BRANCH   2  26
HETATM   26  C8  UNL     1     -41.055 -15.751 379.952  1.00  0.00     0.118 C 
BRANCH  26  27
HETATM   27  C9  UNL     1     -42.087 -14.669 380.117  1.00  0.00     0.244 C 
HETATM   28  C10 UNL     1     -41.466 -13.386 380.652  1.00  0.00     0.090 C 
HETATM   29  F1  UNL     1     -42.835 -14.416 379.008  1.00  0.00    -0.206 F 
HETATM   30  F2  UNL     1     -42.955 -15.075 381.165  1.00  0.00    -0.206 F 
ENDBRANCH  26  27
ENDBRANCH   2  26
BRANCH   4  31
HETATM   31  N1  UNL     1     -42.607 -17.967 375.874  1.00  0.00    -0.113 N 
HETATM   32  O1  UNL     1     -43.005 -17.846 374.719  1.00  0.00    -0.532 OA
HETATM   33  O2  UNL     1     -43.067 -19.031 376.658  1.00  0.00    -0.532 OA
ENDBRANCH   4  31
TORSDOF 11
ENDMDL
MODEL 2
REMARK VINA RESULT: -8.197461269      0.071      2.080
REMARK  11 active torsions:
REMARK  status: ('A' for Active; 'I' for Inactive)
REMARK    1  A    between atoms: C2_2  and  C3_3 
REMARK    2  A    between atoms: C3_3  and  C4_4 
REMARK    3  A    between atoms: C5_5  and  C6_6 
REMARK    4  A    between atoms: C7_7  and  C8_8 
REMARK    5  A    between atoms: C8_8  and  C9_9 
REMARK    6  A    between atoms: C12_14  and  N1_15 
REMARK    7  A    between atoms: C13_18  and  O3_19 
REMARK    8  A    between atoms: C14_21  and  C15_22 
REMARK    9  A    between atoms: C17_24  and  O4_25 
REMARK   10  A    between atoms: C19_27  and  O5_28 
REMARK   11  A    between atoms: C21_30  and  O6_31 
ROOT
HETATM    1  C6  UNL     1     -39.828 -15.404 377.822  1.00  0.00     0.038 A 
HETATM    2  C7  UNL     1     -40.851 -16.017 378.503  1.00  0.00    -0.030 A 
HETATM    3  C11 UNL     1     -41.757 -16.852 377.879  1.00  0.00     0.047 A 
HETATM    4  C12 UNL     1     -41.652 -17.092 376.513  1.00  0.00     0.137 A 
HETATM    5  C13 UNL     1     -40.637 -16.483 375.817  1.00  0.00     0.111 A 
HETATM    6  C14 UNL     1     -39.732 -15.642 376.481  1.00  0.00     0.029 A 
ENDROOT
BRANCH   6   7
HETATM    7  C15 UNL     1     -38.660 -14.988 375.753  1.00  0.00    -0.016 A 
HETATM    8  C16 UNL     1     -38.957 -14.047 374.778  1.00  0.00     0.052 A 
HETATM    9  C17 UNL     1     -37.973 -13.401 374.066  1.00  0.00     0.105 A 
HETATM   10  C19 UNL     1     -36.639 -13.725 374.357  1.00  0.00     0.135 A 
HETATM   11  C21 UNL     1     -36.299 -14.653 375.317  1.00  0.00     0.105 A 
HETATM   12  C23 UNL     1     -37.332 -15.265 375.995  1.00  0.00     0.052 A 
BRANCH   9  13
HETATM   13  O4  UNL     1     -38.210 -12.453 373.079  1.00  0.00    -0.353 OA
HETATM   14  C18 UNL     1     -37.625 -11.176 373.230  1.00  0.00     0.210 C 
ENDBRANCH   9  13
BRANCH  10  15
HETATM   15  O5  UNL     1     -35.632 -13.084 373.648  1.00  0.00    -0.351 OA
HETATM   16  C20 UNL     1     -35.051 -13.566 372.465  1.00  0.00     0.210 C 
ENDBRANCH  10  15
BRANCH  11  17
HETATM   17  O6  UNL     1     -34.982 -14.920 375.550  1.00  0.00    -0.353 OA
HETATM   18  C22 UNL     1     -34.279 -14.588 376.723  1.00  0.00     0.210 C 
ENDBRANCH  11  17
ENDBRANCH   6   7
BRANCH   1  19
HETATM   19  C5  UNL     1     -38.828 -14.575 378.493  1.00  0.00    -0.066 C 
HETATM   20  C4  UNL     1     -38.021 -13.857 379.055  1.00  0.00    -0.101 C 
BRANCH  20  21
HETATM   21  C3  UNL     1     -37.076 -12.979 379.746  1.00  0.00     0.094 C 
BRANCH  21  22
HETATM   22  C2  UNL     1     -37.775 -11.758 380.243  1.00  0.00     0.007 C 
HETATM   23  C1  UNL     1     -37.934 -10.794 379.085  1.00  0.00     0.006 C 
ENDBRANCH  21  22
ENDBRANCH  20  21
ENDBRANCH   1  19
BRANCH   5  24
HETATM   24  O3  UNL     1     -40.446 -16.646 374.474  1.00  0.00    -0.357 OA
ATOM     25  H3  UNL     1     -40.119 -17.450 374.088  1.00  0.00     0.217 HD
ENDBRANCH   5  24
BRANCH   2  26
HETATM   26  C8  UNL     1     -41.038 -15.732 379.963  1.00  0.00     0.118 C 
BRANCH  26  27
HETATM   27  C9  UNL     1     -42.064 -14.644 380.121  1.00  0.00     0.244 C 
HETATM   28  C10 UNL     1     -41.433 -13.354 380.626  1.00  0.00     0.090 C 
HETATM   29  F1  UNL     1     -42.825 -14.408 379.017  1.00  0.00    -0.206 F 
HETATM   30  F2  UNL     1     -42.921 -15.028 381.187  1.00  0.00    -0.206 F 
ENDBRANCH  26  27
ENDBRANCH   2  26
BRANCH   4  31
HETATM   31  N1  UNL     1     -42.610 -17.955 375.896  1.00  0.00    -0.113 N 
HETATM   32  O1  UNL     1     -43.005 -17.838 374.739  1.00  0.00    -0.532 OA
HETATM   33  O2  UNL     1     -43.085 -19.007 376.687  1.00  0.00    -0.532 OA
ENDBRANCH   4  31
TORSDOF 11
ENDMDL
MODEL 3
REMARK VINA RESULT: -8.131332536      1.308      2.591
REMARK  11 active torsions:
REMARK  status: ('A' for Active; 'I' for Inactive)
REMARK    1  A    between atoms: C2_2  and  C3_3 
REMARK    2  A    between atoms: C3_3  and  C4_4 
REMARK    3  A    between atoms: C5_5  and  C6_6 
REMARK    4  A    between atoms: C7_7  and  C8_8 
REMARK    5  A    between atoms: C8_8  and  C9_9 
REMARK    6  A    between atoms: C12_14  and  N1_15 
REMARK    7  A    between atoms: C13_18  and  O3_19 
REMARK    8  A    between atoms: C14_21  and  C15_22 
REMARK    9  A    between atoms: C17_24  and  O4_25 
REMARK   10  A    between atoms: C19_27  and  O5_28 
REMARK   11  A    between atoms: C21_30  and  O6_31 
ROOT
HETATM    1  C6  UNL     1     -39.994 -15.250 376.952  1.00  0.00     0.038 A 
HETATM    2  C7  UNL     1     -41.179 -15.785 377.392  1.00  0.00    -0.030 A 
HETATM    3  C11 UNL     1     -41.894 -16.706 376.651  1.00  0.00     0.047 A 
HETATM    4  C12 UNL     1     -41.417 -17.119 375.412  1.00  0.00     0.137 A 
HETATM    5  C13 UNL     1     -40.234 -16.591 374.956  1.00  0.00     0.111 A 
HETATM    6  C14 UNL     1     -39.532 -15.658 375.734  1.00  0.00     0.029 A 
ENDROOT
BRANCH   6   7
HETATM    7  C15 UNL     1     -38.284 -15.089 375.257  1.00  0.00    -0.016 A 
HETATM    8  C16 UNL     1     -38.291 -14.189 374.202  1.00  0.00     0.052 A 
HETATM    9  C17 UNL     1     -37.134 -13.623 373.720  1.00  0.00     0.105 A 
HETATM   10  C19 UNL     1     -35.926 -13.986 374.336  1.00  0.00     0.135 A 
HETATM   11  C21 UNL     1     -35.874 -14.876 375.387  1.00  0.00     0.105 A 
HETATM   12  C23 UNL     1     -37.069 -15.407 375.822  1.00  0.00     0.052 A 
BRANCH   9  13
HETATM   13  O4  UNL     1     -37.079 -12.719 372.667  1.00  0.00    -0.353 OA
HETATM   14  C18 UNL     1     -37.287 -11.352 372.953  1.00  0.00     0.210 C 
ENDBRANCH   9  13
BRANCH  10  15
HETATM   15  O5  UNL     1     -34.747 -13.426 373.863  1.00  0.00    -0.351 OA
HETATM   16  C20 UNL     1     -33.938 -13.983 372.861  1.00  0.00     0.210 C 
ENDBRANCH  10  15
BRANCH  11  17
HETATM   17  O6  UNL     1     -34.665 -15.184 375.940  1.00  0.00    -0.353 OA
HETATM   18  C22 UNL     1     -34.144 -14.624 377.121  1.00  0.00     0.210 C 
ENDBRANCH  11  17
ENDBRANCH   6   7
BRANCH   1  19
HETATM   19  C5  UNL     1     -39.203 -14.327 377.764  1.00  0.00    -0.066 C 
HETATM   20  C4  UNL     1     -38.556 -13.577 378.472  1.00  0.00    -0.101 C 
BRANCH  20  21
HETATM   21  C3  UNL     1     -37.779 -12.697 379.346  1.00  0.00     0.094 C 
BRANCH  21  22
HETATM   22  C2  UNL     1     -38.673 -11.696 379.998  1.00  0.00     0.007 C 
HETATM   23  C1  UNL     1     -39.640 -12.437 380.900  1.00  0.00     0.006 C 
ENDBRANCH  21  22
ENDBRANCH  20  21
ENDBRANCH   1  19
BRANCH   5  24
HETATM   24  O3  UNL     1     -39.680 -16.923 373.753  1.00  0.00    -0.357 OA
ATOM     25  H3  UNL     1     -40.193 -17.102 372.973  1.00  0.00     0.217 HD
ENDBRANCH   5  24
BRANCH   2  26
HETATM   26  C8  UNL     1     -41.761 -15.316 378.692  1.00  0.00     0.118 C 
BRANCH  26  27
HETATM   27  C9  UNL     1     -41.476 -16.343 379.754  1.00  0.00     0.244 C 
HETATM   28  C10 UNL     1     -42.413 -16.187 380.943  1.00  0.00     0.090 C 
HETATM   29  F1  UNL     1     -41.464 -17.632 379.316  1.00  0.00    -0.206 F 
HETATM   30  F2  UNL     1     -40.201 -16.039 380.300  1.00  0.00    -0.206 F 
ENDBRANCH  26  27
ENDBRANCH   2  26
BRANCH   4  31
HETATM   31  N1  UNL     1     -42.184 -18.069 374.668  1.00  0.00    -0.113 N 
HETATM   32  O1  UNL     1     -43.410 -18.077 374.611  1.00  0.00    -0.532 OA
HETATM   33  O2  UNL     1     -41.450 -19.018 373.947  1.00  0.00    -0.532 OA
ENDBRANCH   4  31
TORSDOF 11
ENDMDL
MODEL 4
REMARK VINA RESULT: -8.119063102      1.306      1.565
REMARK  11 active torsions:
REMARK  status: ('A' for Active; 'I' for Inactive)
REMARK    1  A    between atoms: C2_2  and  C3_3 
REMARK    2  A    between atoms: C3_3  and  C4_4 
REMARK    3  A    between atoms: C5_5  and  C6_6 
REMARK    4  A    between atoms: C7_7  and  C8_8 
REMARK    5  A    between atoms: C8_8  and  C9_9 
REMARK    6  A    between atoms: C12_14  and  N1_15 
REMARK    7  A    between atoms: C13_18  and  O3_19 
REMARK    8  A    between atoms: C14_21  and  C15_22 
REMARK    9  A    between atoms: C17_24  and  O4_25 
REMARK   10  A    between atoms: C19_27  and  O5_28 
REMARK   11  A    between atoms: C21_30  and  O6_31 
ROOT
HETATM    1  C6  UNL     1     -40.037 -15.210 376.845  1.00  0.00     0.038 A 
HETATM    2  C7  UNL     1     -41.188 -15.794 377.312  1.00  0.00    -0.030 A 
HETATM    3  C11 UNL     1     -41.897 -16.723 376.575  1.00  0.00     0.047 A 
HETATM    4  C12 UNL     1     -41.448 -17.093 375.312  1.00  0.00     0.137 A 
HETATM    5  C13 UNL     1     -40.300 -16.516 374.829  1.00  0.00     0.111 A 
HETATM    6  C14 UNL     1     -39.604 -15.576 375.603  1.00  0.00     0.029 A 
ENDROOT
BRANCH   6   7
HETATM    7  C15 UNL     1     -38.392 -14.955 375.098  1.00  0.00    -0.016 A 
HETATM    8  C16 UNL     1     -37.159 -15.315 375.620  1.00  0.00     0.052 A 
HETATM    9  C17 UNL     1     -35.987 -14.754 375.171  1.00  0.00     0.105 A 
HETATM   10  C19 UNL     1     -36.073 -13.793 374.152  1.00  0.00     0.135 A 
HETATM   11  C21 UNL     1     -37.277 -13.406 373.605  1.00  0.00     0.105 A 
HETATM   12  C23 UNL     1     -38.415 -14.006 374.100  1.00  0.00     0.052 A 
BRANCH   9  13
HETATM   13  O4  UNL     1     -34.725 -15.073 375.656  1.00  0.00    -0.353 OA
HETATM   14  C18 UNL     1     -34.390 -14.656 376.964  1.00  0.00     0.210 C 
ENDBRANCH   9  13
BRANCH  10  15
HETATM   15  O5  UNL     1     -34.900 -13.215 373.685  1.00  0.00    -0.351 OA
HETATM   16  C20 UNL     1     -34.147 -13.691 372.600  1.00  0.00     0.210 C 
ENDBRANCH  10  15
BRANCH  11  17
HETATM   17  O6  UNL     1     -37.289 -12.466 372.616  1.00  0.00    -0.353 OA
HETATM   18  C22 UNL     1     -37.221 -11.075 372.815  1.00  0.00     0.210 C 
ENDBRANCH  11  17
ENDBRANCH   6   7
BRANCH   1  19
HETATM   19  C5  UNL     1     -39.250 -14.279 377.651  1.00  0.00    -0.066 C 
HETATM   20  C4  UNL     1     -38.570 -13.531 378.331  1.00  0.00    -0.101 C 
BRANCH  20  21
HETATM   21  C3  UNL     1     -37.729 -12.652 379.144  1.00  0.00     0.094 C 
BRANCH  21  22
HETATM   22  C2  UNL     1     -38.139 -12.724 380.576  1.00  0.00     0.007 C 
HETATM   23  C1  UNL     1     -39.542 -12.163 380.699  1.00  0.00     0.006 C 
ENDBRANCH  21  22
ENDBRANCH  20  21
ENDBRANCH   1  19
BRANCH   5  24
HETATM   24  O3  UNL     1     -39.776 -16.803 373.600  1.00  0.00    -0.357 OA
ATOM     25  H3  UNL     1     -40.115 -17.489 373.036  1.00  0.00     0.217 HD
ENDBRANCH   5  24
BRANCH   2  26
HETATM   26  C8  UNL     1     -41.741 -15.374 378.641  1.00  0.00     0.118 C 
BRANCH  26  27
HETATM   27  C9  UNL     1     -41.431 -16.437 379.658  1.00  0.00     0.244 C 
HETATM   28  C10 UNL     1     -42.594 -16.642 380.619  1.00  0.00     0.090 C 
HETATM   29  F1  UNL     1     -41.021 -17.626 379.138  1.00  0.00    -0.206 F 
HETATM   30  F2  UNL     1     -40.401 -15.930 380.494  1.00  0.00    -0.206 F 
ENDBRANCH  26  27
ENDBRANCH   2  26
BRANCH   4  31
HETATM   31  N1  UNL     1     -42.208 -18.052 374.572  1.00  0.00    -0.113 N 
HETATM   32  O1  UNL     1     -43.435 -18.088 374.539  1.00  0.00    -0.532 OA
HETATM   33  O2  UNL     1     -41.468 -18.976 373.826  1.00  0.00    -0.532 OA
ENDBRANCH   4  31
TORSDOF 11
ENDMDL
MODEL 5
REMARK VINA RESULT: -7.946813525      1.484      2.803
REMARK  11 active torsions:
REMARK  status: ('A' for Active; 'I' for Inactive)
REMARK    1  A    between atoms: C2_2  and  C3_3 
REMARK    2  A    between atoms: C3_3  and  C4_4 
REMARK    3  A    between atoms: C5_5  and  C6_6 
REMARK    4  A    between atoms: C7_7  and  C8_8 
REMARK    5  A    between atoms: C8_8  and  C9_9 
REMARK    6  A    between atoms: C12_14  and  N1_15 
REMARK    7  A    between atoms: C13_18  and  O3_19 
REMARK    8  A    between atoms: C14_21  and  C15_22 
REMARK    9  A    between atoms: C17_24  and  O4_25 
REMARK   10  A    between atoms: C19_27  and  O5_28 
REMARK   11  A    between atoms: C21_30  and  O6_31 
ROOT
HETATM    1  C6  UNL     1     -40.696 -15.854 377.220  1.00  0.00     0.038 A 
HETATM    2  C7  UNL     1     -41.911 -16.458 377.431  1.00  0.00    -0.030 A 
HETATM    3  C11 UNL     1     -42.473 -17.327 376.516  1.00  0.00     0.047 A 
HETATM    4  C12 UNL     1     -41.803 -17.613 375.331  1.00  0.00     0.137 A 
HETATM    5  C13 UNL     1     -40.588 -17.015 375.104  1.00  0.00     0.111 A 
HETATM    6  C14 UNL     1     -40.045 -16.138 376.055  1.00  0.00     0.029 A 
ENDROOT
BRANCH   6   7
HETATM    7  C15 UNL     1     -38.764 -15.495 375.820  1.00  0.00    -0.016 A 
HETATM    8  C16 UNL     1     -38.690 -14.374 375.008  1.00  0.00     0.052 A 
HETATM    9  C17 UNL     1     -37.499 -13.731 374.761  1.00  0.00     0.105 A 
HETATM   10  C19 UNL     1     -36.343 -14.249 375.364  1.00  0.00     0.135 A 
HETATM   11  C21 UNL     1     -36.371 -15.361 376.177  1.00  0.00     0.105 A 
HETATM   12  C23 UNL     1     -37.596 -15.958 376.384  1.00  0.00     0.052 A 
BRANCH   9  13
HETATM   13  O4  UNL     1     -37.364 -12.607 373.956  1.00  0.00    -0.353 OA
HETATM   14  C18 UNL     1     -37.413 -12.783 372.555  1.00  0.00     0.210 C 
ENDBRANCH   9  13
BRANCH  10  15
HETATM   15  O5  UNL     1     -35.131 -13.615 375.126  1.00  0.00    -0.351 OA
HETATM   16  C20 UNL     1     -34.223 -13.970 374.116  1.00  0.00     0.210 C 
ENDBRANCH  10  15
BRANCH  11  17
HETATM   17  O6  UNL     1     -35.209 -15.812 376.732  1.00  0.00    -0.353 OA
HETATM   18  C22 UNL     1     -34.434 -15.114 377.677  1.00  0.00     0.210 C 
ENDBRANCH  11  17
ENDBRANCH   6   7
BRANCH   1  19
HETATM   19  C5  UNL     1     -40.070 -14.988 378.218  1.00  0.00    -0.066 C 
HETATM   20  C4  UNL     1     -39.520 -14.292 379.053  1.00  0.00    -0.101 C 
BRANCH  20  21
HETATM   21  C3  UNL     1     -38.832 -13.470 380.049  1.00  0.00     0.094 C 
BRANCH  21  22
HETATM   22  C2  UNL     1     -37.457 -13.134 379.578  1.00  0.00     0.007 C 
HETATM   23  C1  UNL     1     -37.575 -12.316 378.307  1.00  0.00     0.006 C 
ENDBRANCH  21  22
ENDBRANCH  20  21
ENDBRANCH   1  19
BRANCH   5  24
HETATM   24  O3  UNL     1     -39.851 -17.222 373.973  1.00  0.00    -0.357 OA
ATOM     25  H3  UNL     1     -39.934 -16.688 373.191  1.00  0.00     0.217 HD
ENDBRANCH   5  24
BRANCH   2  26
HETATM   26  C8  UNL     1     -42.695 -16.124 378.665  1.00  0.00     0.118 C 
BRANCH  26  27
HETATM   27  C9  UNL     1     -42.583 -17.264 379.640  1.00  0.00     0.244 C 
HETATM   28  C10 UNL     1     -43.922 -17.961 379.836  1.00  0.00     0.090 C 
HETATM   29  F1  UNL     1     -41.606 -18.168 379.354  1.00  0.00    -0.206 F 
HETATM   30  F2  UNL     1     -42.317 -16.700 380.916  1.00  0.00    -0.206 F 
ENDBRANCH  26  27
ENDBRANCH   2  26
BRANCH   4  31
HETATM   31  N1  UNL     1     -42.414 -18.511 374.402  1.00  0.00    -0.113 N 
HETATM   32  O1  UNL     1     -41.803 -19.345 373.740  1.00  0.00    -0.532 OA
HETATM   33  O2  UNL     1     -43.806 -18.422 374.290  1.00  0.00    -0.532 OA
ENDBRANCH   4  31
TORSDOF 11
ENDMDL
