MODEL 1
REMARK VINA RESULT: -7.611782842      0.000      0.000
REMARK  10 active torsions:
REMARK  status: ('A' for Active; 'I' for Inactive)
REMARK    1  A    between atoms: C2_2  and  O1_3 
REMARK    2  A    between atoms: O1_3  and  C3_4 
REMARK       I    between atoms: C3_4  and  N1_6 
REMARK    3  A    between atoms: N1_6  and  O3_7 
REMARK    4  A    between atoms: N1_6  and  C4_9 
REMARK    5  A    between atoms: C4_9  and  N2_10 
REMARK    6  A    between atoms: C4_9  and  C11_19 
REMARK    7  A    between atoms: N2_10  and  C5_12 
REMARK    8  A    between atoms: C14_22  and  C15_23 
REMARK    9  A    between atoms: C15_23  and  C17_26 
REMARK       I    between atoms: N3_30  and  C21_31 
REMARK   10  A    between atoms: C21_31  and  O5_33 
ROOT
HETATM    1  C4  UNL     1     -36.691 -13.097 376.862  1.00  0.00     0.167 C 
ENDROOT
BRANCH   1   2
HETATM    2  N1  UNL     1     -36.536 -11.860 377.531  1.00  0.00    -0.147 N 
HETATM    3  C3  UNL     1     -37.336 -11.575 378.700  1.00  0.00     0.393 C 
HETATM    4  O2  UNL     1     -37.215 -10.506 379.337  1.00  0.00    -0.236 OA
BRANCH   3   5
HETATM    5  O1  UNL     1     -38.265 -12.488 379.153  1.00  0.00    -0.302 OA
BRANCH   5   6
HETATM    6  C2  UNL     1     -38.579 -12.814 380.460  1.00  0.00     0.176 C 
HETATM    7  C1  UNL     1     -39.701 -13.768 380.677  1.00  0.00     0.034 C 
ENDBRANCH   5   6
ENDBRANCH   3   5
BRANCH   2   8
HETATM    8  O3  UNL     1     -35.684 -10.932 377.145  1.00  0.00    -0.277 OA
ATOM      9  H3  UNL     1     -35.698 -10.685 376.227  1.00  0.00     0.245 HD
ENDBRANCH   2   8
ENDBRANCH   1   2
BRANCH   1  10
HETATM   10  N2  UNL     1     -36.964 -14.301 377.535  1.00  0.00    -0.339 N 
ATOM     11  H2  UNL     1     -36.476 -14.373 378.427  1.00  0.00     0.167 HD
BRANCH  10  12
HETATM   12  C5  UNL     1     -37.747 -15.417 377.261  1.00  0.00     0.033 A 
HETATM   13  C6  UNL     1     -39.107 -15.390 377.454  1.00  0.00     0.032 A 
HETATM   14  C7  UNL     1     -39.955 -16.430 377.150  1.00  0.00     0.044 A 
HETATM   15  C8  UNL     1     -39.436 -17.574 376.619  1.00  0.00     0.116 A 
HETATM   16  F1  UNL     1     -40.259 -18.629 376.296  1.00  0.00    -0.206 F 
HETATM   17  C9  UNL     1     -38.081 -17.641 376.412  1.00  0.00     0.044 A 
HETATM   18  C10 UNL     1     -37.234 -16.564 376.732  1.00  0.00     0.032 A 
ENDBRANCH  10  12
ENDBRANCH   1  10
BRANCH   1  19
HETATM   19  C11 UNL     1     -35.619 -13.241 375.811  1.00  0.00     0.091 A 
HETATM   20  C12 UNL     1     -34.317 -13.576 376.191  1.00  0.00     0.036 A 
HETATM   21  C13 UNL     1     -33.531 -13.684 375.074  1.00  0.00     0.031 A 
HETATM   22  C14 UNL     1     -34.358 -13.415 373.991  1.00  0.00     0.062 A 
HETATM   23  N3  UNL     1     -35.623 -13.149 374.482  1.00  0.00    -0.255 N 
HETATM   24  C21 UNL     1     -36.713 -12.871 373.642  1.00  0.00     0.371 C 
HETATM   25  O4  UNL     1     -36.590 -12.715 372.395  1.00  0.00    -0.238 OA
BRANCH  22  26
HETATM   26  C15 UNL     1     -33.865 -13.471 372.621  1.00  0.00     0.146 C 
HETATM   27  C16 UNL     1     -33.655 -12.090 372.084  1.00  0.00     0.059 C 
HETATM   28  F2  UNL     1     -34.639 -14.222 371.745  1.00  0.00    -0.236 F 
BRANCH  26  29
HETATM   29  C17 UNL     1     -32.499 -14.148 372.604  1.00  0.00     0.035 A 
HETATM   30  C18 UNL     1     -32.563 -15.614 372.148  1.00  0.00     0.013 A 
HETATM   31  C19 UNL     1     -31.798 -14.536 371.391  1.00  0.00    -0.010 A 
HETATM   32  C20 UNL     1     -32.190 -14.167 369.996  1.00  0.00     0.010 C 
ENDBRANCH  26  29
ENDBRANCH  22  26
BRANCH  24  33
HETATM   33  O5  UNL     1     -38.049 -12.730 374.000  1.00  0.00    -0.308 OA
HETATM   34  C22 UNL     1     -38.957 -13.807 374.120  1.00  0.00     0.215 C 
ENDBRANCH  24  33
ENDBRANCH   1  19
TORSDOF 10
ENDMDL
MODEL 2
REMARK VINA RESULT: -7.271833741      2.490      4.444
REMARK  10 active torsions:
REMARK  status: ('A' for Active; 'I' for Inactive)
REMARK    1  A    between atoms: C2_2  and  O1_3 
REMARK    2  A    between atoms: O1_3  and  C3_4 
REMARK       I    between atoms: C3_4  and  N1_6 
REMARK    3  A    between atoms: N1_6  and  O3_7 
REMARK    4  A    between atoms: N1_6  and  C4_9 
REMARK    5  A    between atoms: C4_9  and  N2_10 
REMARK    6  A    between atoms: C4_9  and  C11_19 
REMARK    7  A    between atoms: N2_10  and  C5_12 
REMARK    8  A    between atoms: C14_22  and  C15_23 
REMARK    9  A    between atoms: C15_23  and  C17_26 
REMARK       I    between atoms: N3_30  and  C21_31 
REMARK   10  A    between atoms: C21_31  and  O5_33 
ROOT
HETATM    1  C4  UNL     1     -37.423 -13.661 375.511  1.00  0.00     0.167 C 
ENDROOT
BRANCH   1   2
HETATM    2  N1  UNL     1     -38.683 -14.031 374.983  1.00  0.00    -0.147 N 
HETATM    3  C3  UNL     1     -39.072 -15.422 374.972  1.00  0.00     0.393 C 
HETATM    4  O2  UNL     1     -40.185 -15.792 374.538  1.00  0.00    -0.236 OA
BRANCH   3   5
HETATM    5  O1  UNL     1     -38.217 -16.392 375.451  1.00  0.00    -0.302 OA
BRANCH   5   6
HETATM    6  C2  UNL     1     -38.433 -17.292 376.479  1.00  0.00     0.176 C 
HETATM    7  C1  UNL     1     -37.590 -17.154 377.698  1.00  0.00     0.034 C 
ENDBRANCH   5   6
ENDBRANCH   3   5
BRANCH   2   8
HETATM    8  O3  UNL     1     -39.542 -13.161 374.491  1.00  0.00    -0.277 OA
ATOM      9  H3  UNL     1     -39.374 -12.242 374.660  1.00  0.00     0.245 HD
ENDBRANCH   2   8
ENDBRANCH   1   2
BRANCH   1  10
HETATM   10  N2  UNL     1     -37.276 -12.753 376.574  1.00  0.00    -0.339 N 
ATOM     11  H2  UNL     1     -36.693 -11.953 376.331  1.00  0.00     0.167 HD
BRANCH  10  12
HETATM   12  C5  UNL     1     -37.746 -12.696 377.882  1.00  0.00     0.033 A 
HETATM   13  C6  UNL     1     -37.700 -11.525 378.599  1.00  0.00     0.032 A 
HETATM   14  C7  UNL     1     -38.199 -11.375 379.873  1.00  0.00     0.044 A 
HETATM   15  C8  UNL     1     -38.783 -12.444 380.485  1.00  0.00     0.116 A 
HETATM   16  F1  UNL     1     -39.299 -12.323 381.755  1.00  0.00    -0.206 F 
HETATM   17  C9  UNL     1     -38.847 -13.633 379.803  1.00  0.00     0.044 A 
HETATM   18  C10 UNL     1     -38.329 -13.761 378.501  1.00  0.00     0.032 A 
ENDBRANCH  10  12
ENDBRANCH   1  10
BRANCH   1  19
HETATM   19  C11 UNL     1     -36.458 -13.403 374.381  1.00  0.00     0.091 A 
HETATM   20  C12 UNL     1     -36.946 -13.111 373.105  1.00  0.00     0.036 A 
HETATM   21  C13 UNL     1     -35.895 -12.882 372.257  1.00  0.00     0.031 A 
HETATM   22  C14 UNL     1     -34.743 -13.031 373.019  1.00  0.00     0.062 A 
HETATM   23  N3  UNL     1     -35.128 -13.350 374.309  1.00  0.00    -0.255 N 
HETATM   24  C21 UNL     1     -34.202 -13.535 375.346  1.00  0.00     0.371 C 
HETATM   25  O4  UNL     1     -32.954 -13.555 375.152  1.00  0.00    -0.238 OA
BRANCH  22  26
HETATM   26  C15 UNL     1     -33.418 -12.827 372.449  1.00  0.00     0.146 C 
HETATM   27  C16 UNL     1     -32.753 -14.141 372.186  1.00  0.00     0.059 C 
HETATM   28  F2  UNL     1     -32.580 -11.996 373.183  1.00  0.00    -0.236 F 
BRANCH  26  29
HETATM   29  C17 UNL     1     -33.552 -12.137 371.096  1.00  0.00     0.035 A 
HETATM   30  C18 UNL     1     -33.326 -10.620 371.171  1.00  0.00     0.013 A 
HETATM   31  C19 UNL     1     -32.439 -11.558 370.363  1.00  0.00    -0.010 A 
HETATM   32  C20 UNL     1     -30.991 -11.712 370.704  1.00  0.00     0.010 C 
ENDBRANCH  26  29
ENDBRANCH  22  26
BRANCH  24  33
HETATM   33  O5  UNL     1     -34.465 -13.714 376.700  1.00  0.00    -0.308 OA
HETATM   34  C22 UNL     1     -34.578 -14.977 377.327  1.00  0.00     0.215 C 
ENDBRANCH  24  33
ENDBRANCH   1  19
TORSDOF 10
ENDMDL
MODEL 3
REMARK VINA RESULT: -7.259311013      3.130      5.220
REMARK  10 active torsions:
REMARK  status: ('A' for Active; 'I' for Inactive)
REMARK    1  A    between atoms: C2_2  and  O1_3 
REMARK    2  A    between atoms: O1_3  and  C3_4 
REMARK       I    between atoms: C3_4  and  N1_6 
REMARK    3  A    between atoms: N1_6  and  O3_7 
REMARK    4  A    between atoms: N1_6  and  C4_9 
REMARK    5  A    between atoms: C4_9  and  N2_10 
REMARK    6  A    between atoms: C4_9  and  C11_19 
REMARK    7  A    between atoms: N2_10  and  C5_12 
REMARK    8  A    between atoms: C14_22  and  C15_23 
REMARK    9  A    between atoms: C15_23  and  C17_26 
REMARK       I    between atoms: N3_30  and  C21_31 
REMARK   10  A    between atoms: C21_31  and  O5_33 
ROOT
HETATM    1  C4  UNL     1     -39.620 -16.519 376.415  1.00  0.00     0.167 C 
ENDROOT
BRANCH   1   2
HETATM    2  N1  UNL     1     -39.927 -17.080 375.153  1.00  0.00    -0.147 N 
HETATM    3  C3  UNL     1     -40.759 -18.259 375.079  1.00  0.00     0.393 C 
HETATM    4  O2  UNL     1     -41.076 -18.775 373.985  1.00  0.00    -0.236 OA
BRANCH   3   5
HETATM    5  O1  UNL     1     -41.237 -18.853 376.228  1.00  0.00    -0.302 OA
BRANCH   5   6
HETATM    6  C2  UNL     1     -42.489 -18.725 376.801  1.00  0.00     0.176 C 
HETATM    7  C1  UNL     1     -42.613 -19.033 378.253  1.00  0.00     0.034 C 
ENDBRANCH   5   6
ENDBRANCH   3   5
BRANCH   2   8
HETATM    8  O3  UNL     1     -39.490 -16.580 374.015  1.00  0.00    -0.277 OA
ATOM      9  H3  UNL     1     -38.568 -16.352 373.966  1.00  0.00     0.245 HD
ENDBRANCH   2   8
ENDBRANCH   1   2
BRANCH   1  10
HETATM   10  N2  UNL     1     -40.472 -15.617 377.077  1.00  0.00    -0.339 N 
ATOM     11  H2  UNL     1     -40.998 -15.027 376.434  1.00  0.00     0.167 HD
BRANCH  10  12
HETATM   12  C5  UNL     1     -40.759 -15.346 378.410  1.00  0.00     0.033 A 
HETATM   13  C6  UNL     1     -39.789 -14.875 379.261  1.00  0.00     0.032 A 
HETATM   14  C7  UNL     1     -40.011 -14.527 380.574  1.00  0.00     0.044 A 
HETATM   15  C8  UNL     1     -41.267 -14.649 381.088  1.00  0.00     0.116 A 
HETATM   16  F1  UNL     1     -41.522 -14.301 382.396  1.00  0.00    -0.206 F 
HETATM   17  C9  UNL     1     -42.264 -15.119 380.272  1.00  0.00     0.044 A 
HETATM   18  C10 UNL     1     -42.013 -15.469 378.932  1.00  0.00     0.032 A 
ENDBRANCH  10  12
ENDBRANCH   1  10
BRANCH   1  19
HETATM   19  C11 UNL     1     -38.175 -16.087 376.438  1.00  0.00     0.091 A 
HETATM   20  C12 UNL     1     -37.203 -16.949 376.951  1.00  0.00     0.036 A 
HETATM   21  C13 UNL     1     -35.970 -16.362 376.840  1.00  0.00     0.031 A 
HETATM   22  C14 UNL     1     -36.184 -15.123 376.248  1.00  0.00     0.062 A 
HETATM   23  N3  UNL     1     -37.541 -14.993 376.020  1.00  0.00    -0.255 N 
HETATM   24  C21 UNL     1     -38.094 -13.863 375.397  1.00  0.00     0.371 C 
HETATM   25  O4  UNL     1     -37.414 -12.835 375.121  1.00  0.00    -0.238 OA
BRANCH  22  26
HETATM   26  C15 UNL     1     -35.079 -14.223 375.942  1.00  0.00     0.146 C 
HETATM   27  C16 UNL     1     -33.971 -14.399 376.931  1.00  0.00     0.059 C 
HETATM   28  F2  UNL     1     -35.425 -12.881 375.832  1.00  0.00    -0.236 F 
BRANCH  26  29
HETATM   29  C17 UNL     1     -34.498 -14.583 374.579  1.00  0.00     0.035 A 
HETATM   30  C18 UNL     1     -34.880 -13.579 373.481  1.00  0.00     0.013 A 
HETATM   31  C19 UNL     1     -33.444 -13.831 373.920  1.00  0.00    -0.010 A 
HETATM   32  C20 UNL     1     -32.636 -12.732 374.533  1.00  0.00     0.010 C 
ENDBRANCH  26  29
ENDBRANCH  22  26
BRANCH  24  33
HETATM   33  O5  UNL     1     -39.409 -13.676 374.986  1.00  0.00    -0.308 OA
HETATM   34  C22 UNL     1     -39.806 -12.764 373.981  1.00  0.00     0.215 C 
ENDBRANCH  24  33
ENDBRANCH   1  19
TORSDOF 10
ENDMDL
MODEL 4
REMARK VINA RESULT: -7.170801381      2.488      6.664
REMARK  10 active torsions:
REMARK  status: ('A' for Active; 'I' for Inactive)
REMARK    1  A    between atoms: C2_2  and  O1_3 
REMARK    2  A    between atoms: O1_3  and  C3_4 
REMARK       I    between atoms: C3_4  and  N1_6 
REMARK    3  A    between atoms: N1_6  and  O3_7 
REMARK    4  A    between atoms: N1_6  and  C4_9 
REMARK    5  A    between atoms: C4_9  and  N2_10 
REMARK    6  A    between atoms: C4_9  and  C11_19 
REMARK    7  A    between atoms: N2_10  and  C5_12 
REMARK    8  A    between atoms: C14_22  and  C15_23 
REMARK    9  A    between atoms: C15_23  and  C17_26 
REMARK       I    between atoms: N3_30  and  C21_31 
REMARK   10  A    between atoms: C21_31  and  O5_33 
ROOT
HETATM    1  C4  UNL     1     -35.541 -13.649 376.111  1.00  0.00     0.167 C 
ENDROOT
BRANCH   1   2
HETATM    2  N1  UNL     1     -34.292 -14.041 375.575  1.00  0.00    -0.147 N 
HETATM    3  C3  UNL     1     -34.104 -14.061 374.143  1.00  0.00     0.393 C 
HETATM    4  O2  UNL     1     -33.010 -14.377 373.625  1.00  0.00    -0.236 OA
BRANCH   3   5
HETATM    5  O1  UNL     1     -35.138 -13.722 373.295  1.00  0.00    -0.302 OA
BRANCH   5   6
HETATM    6  C2  UNL     1     -35.063 -13.270 371.990  1.00  0.00     0.176 C 
HETATM    7  C1  UNL     1     -34.549 -11.889 371.772  1.00  0.00     0.034 C 
ENDBRANCH   5   6
ENDBRANCH   3   5
BRANCH   2   8
HETATM    8  O3  UNL     1     -33.266 -14.398 376.321  1.00  0.00    -0.277 OA
ATOM      9  H3  UNL     1     -33.274 -15.279 376.677  1.00  0.00     0.245 HD
ENDBRANCH   2   8
ENDBRANCH   1   2
BRANCH   1  10
HETATM   10  N2  UNL     1     -35.666 -12.719 377.158  1.00  0.00    -0.339 N 
ATOM     11  H2  UNL     1     -34.832 -12.144 377.275  1.00  0.00     0.167 HD
BRANCH  10  12
HETATM   12  C5  UNL     1     -36.666 -12.406 378.071  1.00  0.00     0.033 A 
HETATM   13  C6  UNL     1     -37.154 -13.353 378.939  1.00  0.00     0.032 A 
HETATM   14  C7  UNL     1     -38.097 -13.104 379.909  1.00  0.00     0.044 A 
HETATM   15  C8  UNL     1     -38.598 -11.843 380.039  1.00  0.00     0.116 A 
HETATM   16  F1  UNL     1     -39.536 -11.561 381.005  1.00  0.00    -0.206 F 
HETATM   17  C9  UNL     1     -38.138 -10.868 379.189  1.00  0.00     0.044 A 
HETATM   18  C10 UNL     1     -37.172 -11.147 378.204  1.00  0.00     0.032 A 
ENDBRANCH  10  12
ENDBRANCH   1  10
BRANCH   1  19
HETATM   19  C11 UNL     1     -36.416 -14.864 376.298  1.00  0.00     0.091 A 
HETATM   20  C12 UNL     1     -35.928 -15.966 377.006  1.00  0.00     0.036 A 
HETATM   21  C13 UNL     1     -36.901 -16.928 377.076  1.00  0.00     0.031 A 
HETATM   22  C14 UNL     1     -38.004 -16.413 376.405  1.00  0.00     0.062 A 
HETATM   23  N3  UNL     1     -37.667 -15.153 375.945  1.00  0.00    -0.255 N 
HETATM   24  C21 UNL     1     -38.576 -14.339 375.251  1.00  0.00     0.371 C 
HETATM   25  O4  UNL     1     -39.713 -14.745 374.883  1.00  0.00    -0.238 OA
BRANCH  22  26
HETATM   26  C15 UNL     1     -39.252 -17.157 376.305  1.00  0.00     0.146 C 
HETATM   27  C16 UNL     1     -38.990 -18.562 375.862  1.00  0.00     0.059 C 
HETATM   28  F2  UNL     1     -40.227 -16.570 375.507  1.00  0.00    -0.236 F 
BRANCH  26  29
HETATM   29  C17 UNL     1     -39.894 -17.256 377.684  1.00  0.00     0.035 A 
HETATM   30  C18 UNL     1     -40.664 -15.987 378.079  1.00  0.00     0.013 A 
HETATM   31  C19 UNL     1     -41.326 -17.349 377.911  1.00  0.00    -0.010 A 
HETATM   32  C20 UNL     1     -42.368 -17.559 376.860  1.00  0.00     0.010 C 
ENDBRANCH  26  29
ENDBRANCH  22  26
BRANCH  24  33
HETATM   33  O5  UNL     1     -38.407 -13.014 374.865  1.00  0.00    -0.308 OA
HETATM   34  C22 UNL     1     -38.333 -12.580 373.522  1.00  0.00     0.215 C 
ENDBRANCH  24  33
ENDBRANCH   1  19
TORSDOF 10
ENDMDL
MODEL 5
REMARK VINA RESULT: -7.156599063      2.813      6.566
REMARK  10 active torsions:
REMARK  status: ('A' for Active; 'I' for Inactive)
REMARK    1  A    between atoms: C2_2  and  O1_3 
REMARK    2  A    between atoms: O1_3  and  C3_4 
REMARK       I    between atoms: C3_4  and  N1_6 
REMARK    3  A    between atoms: N1_6  and  O3_7 
REMARK    4  A    between atoms: N1_6  and  C4_9 
REMARK    5  A    between atoms: C4_9  and  N2_10 
REMARK    6  A    between atoms: C4_9  and  C11_19 
REMARK    7  A    between atoms: N2_10  and  C5_12 
REMARK    8  A    between atoms: C14_22  and  C15_23 
REMARK    9  A    between atoms: C15_23  and  C17_26 
REMARK       I    between atoms: N3_30  and  C21_31 
REMARK   10  A    between atoms: C21_31  and  O5_33 
ROOT
HETATM    1  C4  UNL     1     -36.598 -14.332 376.957  1.00  0.00     0.167 C 
ENDROOT
BRANCH   1   2
HETATM    2  N1  UNL     1     -35.311 -14.474 376.385  1.00  0.00    -0.147 N 
HETATM    3  C3  UNL     1     -35.077 -14.021 375.033  1.00  0.00     0.393 C 
HETATM    4  O2  UNL     1     -33.951 -14.105 374.496  1.00  0.00    -0.236 OA
BRANCH   3   5
HETATM    5  O1  UNL     1     -36.102 -13.474 374.290  1.00  0.00    -0.302 OA
BRANCH   5   6
HETATM    6  C2  UNL     1     -36.127 -13.208 372.933  1.00  0.00     0.176 C 
HETATM    7  C1  UNL     1     -37.059 -14.012 372.095  1.00  0.00     0.034 C 
ENDBRANCH   5   6
ENDBRANCH   3   5
BRANCH   2   8
HETATM    8  O3  UNL     1     -34.291 -15.005 377.027  1.00  0.00    -0.277 OA
ATOM      9  H3  UNL     1     -34.488 -15.640 377.706  1.00  0.00     0.245 HD
ENDBRANCH   2   8
ENDBRANCH   1   2
BRANCH   1  10
HETATM   10  N2  UNL     1     -36.807 -13.824 378.251  1.00  0.00    -0.339 N 
ATOM     11  H2  UNL     1     -35.938 -13.567 378.719  1.00  0.00     0.167 HD
BRANCH  10  12
HETATM   12  C5  UNL     1     -37.929 -13.592 379.039  1.00  0.00     0.033 A 
HETATM   13  C6  UNL     1     -38.819 -14.601 379.316  1.00  0.00     0.032 A 
HETATM   14  C7  UNL     1     -39.916 -14.465 380.135  1.00  0.00     0.044 A 
HETATM   15  C8  UNL     1     -40.159 -13.260 380.723  1.00  0.00     0.116 A 
HETATM   16  F1  UNL     1     -41.243 -13.095 381.554  1.00  0.00    -0.206 F 
HETATM   17  C9  UNL     1     -39.294 -12.225 380.470  1.00  0.00     0.044 A 
HETATM   18  C10 UNL     1     -38.178 -12.389 379.629  1.00  0.00     0.032 A 
ENDBRANCH  10  12
ENDBRANCH   1  10
BRANCH   1  19
HETATM   19  C11 UNL     1     -37.417 -15.566 376.671  1.00  0.00     0.091 A 
HETATM   20  C12 UNL     1     -37.051 -16.788 377.240  1.00  0.00     0.036 A 
HETATM   21  C13 UNL     1     -37.953 -17.751 376.870  1.00  0.00     0.031 A 
HETATM   22  C14 UNL     1     -38.889 -17.114 376.065  1.00  0.00     0.062 A 
HETATM   23  N3  UNL     1     -38.527 -15.783 375.966  1.00  0.00    -0.255 N 
HETATM   24  C21 UNL     1     -39.287 -14.848 375.247  1.00  0.00     0.371 C 
HETATM   25  O4  UNL     1     -40.276 -15.177 374.534  1.00  0.00    -0.238 OA
BRANCH  22  26
HETATM   26  C15 UNL     1     -40.030 -17.830 375.508  1.00  0.00     0.146 C 
HETATM   27  C16 UNL     1     -39.638 -19.223 375.128  1.00  0.00     0.059 C 
HETATM   28  F2  UNL     1     -40.663 -17.196 374.446  1.00  0.00    -0.236 F 
BRANCH  26  29
HETATM   29  C17 UNL     1     -41.110 -17.965 376.575  1.00  0.00     0.035 A 
HETATM   30  C18 UNL     1     -42.128 -16.814 376.545  1.00  0.00     0.013 A 
HETATM   31  C19 UNL     1     -42.503 -18.268 376.289  1.00  0.00    -0.010 A 
HETATM   32  C20 UNL     1     -43.054 -18.685 374.963  1.00  0.00     0.010 C 
ENDBRANCH  26  29
ENDBRANCH  22  26
BRANCH  24  33
HETATM   33  O5  UNL     1     -39.110 -13.470 375.192  1.00  0.00    -0.308 OA
HETATM   34  C22 UNL     1     -39.657 -12.638 374.188  1.00  0.00     0.215 C 
ENDBRANCH  24  33
ENDBRANCH   1  19
TORSDOF 10
ENDMDL
