MODEL 1
REMARK VINA RESULT: -6.922137394      0.000      0.000
REMARK  11 active torsions:
REMARK  status: ('A' for Active; 'I' for Inactive)
REMARK    1  A    between atoms: C2_2  and  C3_3 
REMARK    2  A    between atoms: C3_3  and  N1_4 
REMARK    3  A    between atoms: N1_4  and  C4_5 
REMARK    4  A    between atoms: N1_4  and  C6_8 
REMARK    5  A    between atoms: C4_5  and  C5_6 
REMARK    6  A    between atoms: C10_14  and  N3_15 
REMARK    7  A    between atoms: N3_15  and  C11_16 
REMARK    8  A    between atoms: N3_15  and  C13_18 
REMARK    9  A    between atoms: C20_26  and  C21_27 
REMARK   10  A    between atoms: C21_27  and  O1_28 
REMARK   11  A    between atoms: N4_30  and  O2_32 
ROOT
HETATM    1  C6  UNL     1     -37.433 -14.254 377.370  1.00  0.00     0.115 C 
HETATM    2  N2  UNL     1     -37.804 -14.865 378.401  1.00  0.00    -0.364 N 
ATOM      3  H2  UNL     1     -37.571 -15.857 378.446  1.00  0.00     0.162 HD
HETATM    4  C7  UNL     1     -38.523 -14.324 379.533  1.00  0.00     0.153 C 
HETATM    5  C8  UNL     1     -39.884 -14.935 379.577  1.00  0.00    -0.024 A 
HETATM    6  C9  UNL     1     -40.124 -16.145 378.909  1.00  0.00     0.042 A 
HETATM    7  C10 UNL     1     -41.357 -16.751 378.919  1.00  0.00     0.069 A 
HETATM    8  C15 UNL     1     -42.350 -16.108 379.623  1.00  0.00     0.143 A 
HETATM    9  F1  UNL     1     -43.578 -16.684 379.654  1.00  0.00    -0.204 F 
HETATM   10  C16 UNL     1     -42.152 -14.924 380.288  1.00  0.00     0.052 A 
HETATM   11  C17 UNL     1     -40.897 -14.343 380.254  1.00  0.00    -0.046 A 
HETATM   12  C18 UNL     1     -40.625 -13.044 380.944  1.00  0.00     0.042 C 
HETATM   13  C19 UNL     1     -39.861 -12.217 379.960  1.00  0.00     0.047 C 
HETATM   14  C20 UNL     1     -38.552 -12.853 379.525  1.00  0.00     0.121 C 
HETATM   15  N5  UNL     1     -38.135 -12.248 378.313  1.00  0.00    -0.377 N 
ATOM     16  H5  UNL     1     -38.265 -11.239 378.241  1.00  0.00     0.160 HD
HETATM   17  C22 UNL     1     -37.621 -12.820 377.313  1.00  0.00     0.132 C 
ENDROOT
BRANCH   1  18
HETATM   18  N1  UNL     1     -36.723 -14.889 376.276  1.00  0.00    -0.365 N 
BRANCH  18  19
HETATM   19  C3  UNL     1     -35.494 -15.490 376.626  1.00  0.00     0.124 C 
BRANCH  19  20
HETATM   20  C2  UNL     1     -34.424 -14.520 377.005  1.00  0.00     0.015 C 
HETATM   21  C1  UNL     1     -33.942 -13.775 375.740  1.00  0.00     0.006 C 
ENDBRANCH  19  20
ENDBRANCH  18  19
BRANCH  18  22
HETATM   22  C4  UNL     1     -37.325 -14.824 374.992  1.00  0.00     0.139 C 
BRANCH  22  23
HETATM   23  C5  UNL     1     -38.596 -15.561 374.772  1.00  0.00     0.134 C 
HETATM   24 CL1  UNL     1     -39.990 -14.485 374.487  1.00  0.00    -0.129 Cl
ENDBRANCH  22  23
ENDBRANCH  18  22
ENDBRANCH   1  18
BRANCH  14  25
HETATM   25  C21 UNL     1     -37.568 -12.335 380.575  1.00  0.00     0.167 C 
HETATM   26  N4  UNL     1     -37.080 -11.191 380.500  1.00  0.00    -0.249 N 
ATOM     27  H4  UNL     1     -36.440 -10.982 381.266  1.00  0.00     0.196 HD
BRANCH  25  28
HETATM   28  O1  UNL     1     -37.228 -13.171 381.621  1.00  0.00    -0.346 OA
ATOM     29  H1  UNL     1     -36.759 -12.799 382.359  1.00  0.00     0.219 HD
ENDBRANCH  25  28
BRANCH  26  30
HETATM   30  O2  UNL     1     -37.208 -10.177 379.639  1.00  0.00    -0.288 OA
ATOM     31  H2  UNL     1     -36.755  -9.353 379.513  1.00  0.00     0.244 HD
ENDBRANCH  26  30
ENDBRANCH  14  25
BRANCH   7  32
HETATM   32  N3  UNL     1     -41.632 -17.959 378.269  1.00  0.00    -0.379 N 
BRANCH  32  33
HETATM   33  C11 UNL     1     -41.311 -18.068 376.842  1.00  0.00     0.118 C 
HETATM   34  C12 UNL     1     -42.121 -17.063 376.050  1.00  0.00     0.026 C 
ENDBRANCH  32  33
BRANCH  32  35
HETATM   35  C13 UNL     1     -42.209 -19.128 378.888  1.00  0.00     0.118 C 
HETATM   36  C14 UNL     1     -43.401 -19.653 378.122  1.00  0.00     0.026 C 
ENDBRANCH  32  35
ENDBRANCH   7  32
TORSDOF 11
ENDMDL
MODEL 2
REMARK VINA RESULT: -6.904628747      1.178      2.101
REMARK  11 active torsions:
REMARK  status: ('A' for Active; 'I' for Inactive)
REMARK    1  A    between atoms: C2_2  and  C3_3 
REMARK    2  A    between atoms: C3_3  and  N1_4 
REMARK    3  A    between atoms: N1_4  and  C4_5 
REMARK    4  A    between atoms: N1_4  and  C6_8 
REMARK    5  A    between atoms: C4_5  and  C5_6 
REMARK    6  A    between atoms: C10_14  and  N3_15 
REMARK    7  A    between atoms: N3_15  and  C11_16 
REMARK    8  A    between atoms: N3_15  and  C13_18 
REMARK    9  A    between atoms: C20_26  and  C21_27 
REMARK   10  A    between atoms: C21_27  and  O1_28 
REMARK   11  A    between atoms: N4_30  and  O2_32 
ROOT
HETATM    1  C6  UNL     1     -37.426 -14.254 377.392  1.00  0.00     0.115 C 
HETATM    2  N2  UNL     1     -37.803 -14.862 378.422  1.00  0.00    -0.364 N 
ATOM      3  H2  UNL     1     -37.569 -15.854 378.471  1.00  0.00     0.162 HD
HETATM    4  C7  UNL     1     -38.531 -14.320 379.547  1.00  0.00     0.153 C 
HETATM    5  C8  UNL     1     -39.891 -14.932 379.582  1.00  0.00    -0.024 A 
HETATM    6  C9  UNL     1     -40.125 -16.144 378.916  1.00  0.00     0.042 A 
HETATM    7  C10 UNL     1     -41.357 -16.752 378.919  1.00  0.00     0.069 A 
HETATM    8  C15 UNL     1     -42.357 -16.108 379.614  1.00  0.00     0.143 A 
HETATM    9  F1  UNL     1     -43.583 -16.686 379.637  1.00  0.00    -0.204 F 
HETATM   10  C16 UNL     1     -42.165 -14.922 380.277  1.00  0.00     0.052 A 
HETATM   11  C17 UNL     1     -40.910 -14.340 380.251  1.00  0.00    -0.046 A 
HETATM   12  C18 UNL     1     -40.644 -13.039 380.939  1.00  0.00     0.042 C 
HETATM   13  C19 UNL     1     -39.874 -12.213 379.959  1.00  0.00     0.047 C 
HETATM   14  C20 UNL     1     -38.562 -12.849 379.535  1.00  0.00     0.121 C 
HETATM   15  N5  UNL     1     -38.137 -12.247 378.324  1.00  0.00    -0.377 N 
ATOM     16  H5  UNL     1     -38.267 -11.238 378.249  1.00  0.00     0.160 HD
HETATM   17  C22 UNL     1     -37.615 -12.820 377.329  1.00  0.00     0.132 C 
ENDROOT
BRANCH   1  18
HETATM   18  N1  UNL     1     -36.707 -14.890 376.304  1.00  0.00    -0.365 N 
BRANCH  18  19
HETATM   19  C3  UNL     1     -37.357 -14.850 375.051  1.00  0.00     0.124 C 
BRANCH  19  20
HETATM   20  C2  UNL     1     -38.626 -15.634 374.992  1.00  0.00     0.015 C 
HETATM   21  C1  UNL     1     -39.768 -14.718 374.502  1.00  0.00     0.006 C 
ENDBRANCH  19  20
ENDBRANCH  18  19
BRANCH  18  22
HETATM   22  C4  UNL     1     -35.458 -15.487 376.618  1.00  0.00     0.139 C 
BRANCH  22  23
HETATM   23  C5  UNL     1     -34.315 -14.598 376.947  1.00  0.00     0.134 C 
HETATM   24 CL1  UNL     1     -33.767 -13.617 375.562  1.00  0.00    -0.129 Cl
ENDBRANCH  22  23
ENDBRANCH  18  22
ENDBRANCH   1  18
BRANCH  14  25
HETATM   25  C21 UNL     1     -37.586 -12.327 380.591  1.00  0.00     0.167 C 
HETATM   26  N4  UNL     1     -37.096 -11.184 380.514  1.00  0.00    -0.249 N 
ATOM     27  H4  UNL     1     -36.462 -10.972 381.285  1.00  0.00     0.196 HD
BRANCH  25  28
HETATM   28  O1  UNL     1     -37.256 -13.158 381.644  1.00  0.00    -0.346 OA
ATOM     29  H1  UNL     1     -37.943 -13.687 382.030  1.00  0.00     0.219 HD
ENDBRANCH  25  28
BRANCH  26  30
HETATM   30  O2  UNL     1     -37.216 -10.174 379.647  1.00  0.00    -0.288 OA
ATOM     31  H2  UNL     1     -36.598  -9.612 379.195  1.00  0.00     0.244 HD
ENDBRANCH  26  30
ENDBRANCH  14  25
BRANCH   7  32
HETATM   32  N3  UNL     1     -41.626 -17.962 378.269  1.00  0.00    -0.379 N 
BRANCH  32  33
HETATM   33  C11 UNL     1     -41.304 -18.071 376.843  1.00  0.00     0.118 C 
HETATM   34  C12 UNL     1     -42.142 -17.094 376.045  1.00  0.00     0.026 C 
ENDBRANCH  32  33
BRANCH  32  35
HETATM   35  C13 UNL     1     -42.198 -19.132 378.889  1.00  0.00     0.118 C 
HETATM   36  C14 UNL     1     -43.406 -19.646 378.139  1.00  0.00     0.026 C 
ENDBRANCH  32  35
ENDBRANCH   7  32
TORSDOF 11
ENDMDL
MODEL 3
REMARK VINA RESULT: -6.850794822      3.046      6.282
REMARK  11 active torsions:
REMARK  status: ('A' for Active; 'I' for Inactive)
REMARK    1  A    between atoms: C2_2  and  C3_3 
REMARK    2  A    between atoms: C3_3  and  N1_4 
REMARK    3  A    between atoms: N1_4  and  C4_5 
REMARK    4  A    between atoms: N1_4  and  C6_8 
REMARK    5  A    between atoms: C4_5  and  C5_6 
REMARK    6  A    between atoms: C10_14  and  N3_15 
REMARK    7  A    between atoms: N3_15  and  C11_16 
REMARK    8  A    between atoms: N3_15  and  C13_18 
REMARK    9  A    between atoms: C20_26  and  C21_27 
REMARK   10  A    between atoms: C21_27  and  O1_28 
REMARK   11  A    between atoms: N4_30  and  O2_32 
ROOT
HETATM    1  C6  UNL     1     -40.871 -16.755 377.229  1.00  0.00     0.115 C 
HETATM    2  N2  UNL     1     -40.656 -15.521 377.154  1.00  0.00    -0.364 N 
ATOM      3  H2  UNL     1     -40.695 -15.112 376.220  1.00  0.00     0.162 HD
HETATM    4  C7  UNL     1     -40.359 -14.612 378.238  1.00  0.00     0.153 C 
HETATM    5  C8  UNL     1     -38.960 -14.117 378.084  1.00  0.00    -0.024 A 
HETATM    6  C9  UNL     1     -38.331 -14.190 376.832  1.00  0.00     0.042 A 
HETATM    7  C10 UNL     1     -37.046 -13.746 376.635  1.00  0.00     0.069 A 
HETATM    8  C15 UNL     1     -36.403 -13.223 377.734  1.00  0.00     0.143 A 
HETATM    9  F1  UNL     1     -35.133 -12.774 377.569  1.00  0.00    -0.204 F 
HETATM   10  C16 UNL     1     -36.986 -13.135 378.973  1.00  0.00     0.052 A 
HETATM   11  C17 UNL     1     -38.282 -13.593 379.133  1.00  0.00    -0.046 A 
HETATM   12  C18 UNL     1     -38.964 -13.541 380.464  1.00  0.00     0.042 C 
HETATM   13  C19 UNL     1     -39.605 -14.880 380.641  1.00  0.00     0.047 C 
HETATM   14  C20 UNL     1     -40.615 -15.212 379.556  1.00  0.00     0.121 C 
HETATM   15  N5  UNL     1     -40.828 -16.614 379.549  1.00  0.00    -0.377 N 
ATOM     16  H5  UNL     1     -40.883 -17.069 380.461  1.00  0.00     0.160 HD
HETATM   17  C22 UNL     1     -40.957 -17.361 378.541  1.00  0.00     0.132 C 
ENDROOT
BRANCH   1  18
HETATM   18  N1  UNL     1     -41.149 -17.590 376.077  1.00  0.00    -0.365 N 
BRANCH  18  19
HETATM   19  C3  UNL     1     -42.491 -18.015 375.954  1.00  0.00     0.124 C 
BRANCH  19  20
HETATM   20  C2  UNL     1     -42.692 -19.139 374.993  1.00  0.00     0.015 C 
HETATM   21  C1  UNL     1     -44.154 -19.127 374.495  1.00  0.00     0.006 C 
ENDBRANCH  19  20
ENDBRANCH  18  19
BRANCH  18  22
HETATM   22  C4  UNL     1     -40.058 -17.897 375.223  1.00  0.00     0.139 C 
BRANCH  22  23
HETATM   23  C5  UNL     1     -38.893 -18.616 375.798  1.00  0.00     0.134 C 
HETATM   24 CL1  UNL     1     -37.632 -17.520 376.424  1.00  0.00    -0.129 Cl
ENDBRANCH  22  23
ENDBRANCH  18  22
ENDBRANCH   1  18
BRANCH  14  25
HETATM   25  C21 UNL     1     -41.911 -14.627 380.122  1.00  0.00     0.167 C 
HETATM   26  N4  UNL     1     -43.011 -14.838 379.577  1.00  0.00    -0.249 N 
ATOM     27  H4  UNL     1     -43.787 -14.385 380.062  1.00  0.00     0.196 HD
BRANCH  25  28
HETATM   28  O1  UNL     1     -41.834 -13.853 381.263  1.00  0.00    -0.346 OA
ATOM     29  H1  UNL     1     -41.879 -14.289 382.106  1.00  0.00     0.219 HD
ENDBRANCH  25  28
BRANCH  26  30
HETATM   30  O2  UNL     1     -43.402 -15.524 378.499  1.00  0.00    -0.288 OA
ATOM     31  H2  UNL     1     -43.675 -16.420 378.347  1.00  0.00     0.244 HD
ENDBRANCH  26  30
ENDBRANCH  14  25
BRANCH   7  32
HETATM   32  N3  UNL     1     -36.389 -13.800 375.401  1.00  0.00    -0.379 N 
BRANCH  32  33
HETATM   33  C11 UNL     1     -36.809 -12.868 374.349  1.00  0.00     0.118 C 
HETATM   34  C12 UNL     1     -37.467 -13.627 373.216  1.00  0.00     0.026 C 
ENDBRANCH  32  33
BRANCH  32  35
HETATM   35  C13 UNL     1     -35.315 -14.703 375.065  1.00  0.00     0.118 C 
HETATM   36  C14 UNL     1     -34.039 -13.972 374.714  1.00  0.00     0.026 C 
ENDBRANCH  32  35
ENDBRANCH   7  32
TORSDOF 11
ENDMDL
MODEL 4
REMARK VINA RESULT: -6.736477622      3.158      5.955
REMARK  11 active torsions:
REMARK  status: ('A' for Active; 'I' for Inactive)
REMARK    1  A    between atoms: C2_2  and  C3_3 
REMARK    2  A    between atoms: C3_3  and  N1_4 
REMARK    3  A    between atoms: N1_4  and  C4_5 
REMARK    4  A    between atoms: N1_4  and  C6_8 
REMARK    5  A    between atoms: C4_5  and  C5_6 
REMARK    6  A    between atoms: C10_14  and  N3_15 
REMARK    7  A    between atoms: N3_15  and  C11_16 
REMARK    8  A    between atoms: N3_15  and  C13_18 
REMARK    9  A    between atoms: C20_26  and  C21_27 
REMARK   10  A    between atoms: C21_27  and  O1_28 
REMARK   11  A    between atoms: N4_30  and  O2_32 
ROOT
HETATM    1  C6  UNL     1     -40.855 -16.702 377.278  1.00  0.00     0.115 C 
HETATM    2  N2  UNL     1     -40.656 -15.466 377.195  1.00  0.00    -0.364 N 
ATOM      3  H2  UNL     1     -40.714 -15.061 376.261  1.00  0.00     0.162 HD
HETATM    4  C7  UNL     1     -40.352 -14.551 378.272  1.00  0.00     0.153 C 
HETATM    5  C8  UNL     1     -38.961 -14.040 378.094  1.00  0.00    -0.024 A 
HETATM    6  C9  UNL     1     -38.351 -14.110 376.833  1.00  0.00     0.042 A 
HETATM    7  C10 UNL     1     -37.075 -13.653 376.614  1.00  0.00     0.069 A 
HETATM    8  C15 UNL     1     -36.420 -13.118 377.701  1.00  0.00     0.143 A 
HETATM    9  F1  UNL     1     -35.159 -12.656 377.515  1.00  0.00    -0.204 F 
HETATM   10  C16 UNL     1     -36.984 -13.033 378.949  1.00  0.00     0.052 A 
HETATM   11  C17 UNL     1     -38.272 -13.506 379.131  1.00  0.00    -0.046 A 
HETATM   12  C18 UNL     1     -38.933 -13.458 380.472  1.00  0.00     0.042 C 
HETATM   13  C19 UNL     1     -39.557 -14.802 380.663  1.00  0.00     0.047 C 
HETATM   14  C20 UNL     1     -40.580 -15.150 379.596  1.00  0.00     0.121 C 
HETATM   15  N5  UNL     1     -40.777 -16.554 379.596  1.00  0.00    -0.377 N 
ATOM     16  H5  UNL     1     -40.813 -17.007 380.510  1.00  0.00     0.160 HD
HETATM   17  C22 UNL     1     -40.913 -17.305 378.592  1.00  0.00     0.132 C 
ENDROOT
BRANCH   1  18
HETATM   18  N1  UNL     1     -41.142 -17.544 376.132  1.00  0.00    -0.365 N 
BRANCH  18  19
HETATM   19  C3  UNL     1     -40.052 -17.766 375.261  1.00  0.00     0.124 C 
BRANCH  19  20
HETATM   20  C2  UNL     1     -38.943 -18.566 375.859  1.00  0.00     0.015 C 
HETATM   21  C1  UNL     1     -37.844 -17.608 376.372  1.00  0.00     0.006 C 
ENDBRANCH  19  20
ENDBRANCH  18  19
BRANCH  18  22
HETATM   22  C4  UNL     1     -42.469 -18.033 376.007  1.00  0.00     0.139 C 
BRANCH  22  23
HETATM   23  C5  UNL     1     -42.732 -19.113 375.022  1.00  0.00     0.134 C 
HETATM   24 CL1  UNL     1     -44.412 -19.124 374.425  1.00  0.00    -0.129 Cl
ENDBRANCH  22  23
ENDBRANCH  18  22
ENDBRANCH   1  18
BRANCH  14  25
HETATM   25  C21 UNL     1     -41.873 -14.578 380.180  1.00  0.00     0.167 C 
HETATM   26  N4  UNL     1     -42.980 -14.801 379.653  1.00  0.00    -0.249 N 
ATOM     27  H4  UNL     1     -43.752 -14.356 380.148  1.00  0.00     0.196 HD
BRANCH  25  28
HETATM   28  O1  UNL     1     -41.788 -13.800 381.319  1.00  0.00    -0.346 OA
ATOM     29  H1  UNL     1     -42.589 -13.435 381.674  1.00  0.00     0.219 HD
ENDBRANCH  25  28
BRANCH  26  30
HETATM   30  O2  UNL     1     -43.379 -15.493 378.582  1.00  0.00    -0.288 OA
ATOM     31  H2  UNL     1     -44.180 -15.522 378.072  1.00  0.00     0.244 HD
ENDBRANCH  26  30
ENDBRANCH  14  25
BRANCH   7  32
HETATM   32  N3  UNL     1     -36.437 -13.702 375.370  1.00  0.00    -0.379 N 
BRANCH  32  33
HETATM   33  C11 UNL     1     -35.413 -14.730 375.154  1.00  0.00     0.118 C 
HETATM   34  C12 UNL     1     -34.127 -14.090 374.675  1.00  0.00     0.026 C 
ENDBRANCH  32  33
BRANCH  32  35
HETATM   35  C13 UNL     1     -36.702 -12.819 374.260  1.00  0.00     0.118 C 
HETATM   36  C14 UNL     1     -37.525 -13.484 373.181  1.00  0.00     0.026 C 
ENDBRANCH  32  35
ENDBRANCH   7  32
TORSDOF 11
ENDMDL
MODEL 5
REMARK VINA RESULT: -6.709039814      3.160      5.948
REMARK  11 active torsions:
REMARK  status: ('A' for Active; 'I' for Inactive)
REMARK    1  A    between atoms: C2_2  and  C3_3 
REMARK    2  A    between atoms: C3_3  and  N1_4 
REMARK    3  A    between atoms: N1_4  and  C4_5 
REMARK    4  A    between atoms: N1_4  and  C6_8 
REMARK    5  A    between atoms: C4_5  and  C5_6 
REMARK    6  A    between atoms: C10_14  and  N3_15 
REMARK    7  A    between atoms: N3_15  and  C11_16 
REMARK    8  A    between atoms: N3_15  and  C13_18 
REMARK    9  A    between atoms: C20_26  and  C21_27 
REMARK   10  A    between atoms: C21_27  and  O1_28 
REMARK   11  A    between atoms: N4_30  and  O2_32 
ROOT
HETATM    1  C6  UNL     1     -40.883 -16.736 377.277  1.00  0.00     0.115 C 
HETATM    2  N2  UNL     1     -40.663 -15.503 377.196  1.00  0.00    -0.364 N 
ATOM      3  H2  UNL     1     -40.706 -15.098 376.261  1.00  0.00     0.162 HD
HETATM    4  C7  UNL     1     -40.356 -14.591 378.275  1.00  0.00     0.153 C 
HETATM    5  C8  UNL     1     -38.956 -14.103 378.111  1.00  0.00    -0.024 A 
HETATM    6  C9  UNL     1     -38.335 -14.183 376.856  1.00  0.00     0.042 A 
HETATM    7  C10 UNL     1     -37.049 -13.746 376.650  1.00  0.00     0.069 A 
HETATM    8  C15 UNL     1     -36.397 -13.221 377.743  1.00  0.00     0.143 A 
HETATM    9  F1  UNL     1     -35.127 -12.778 377.570  1.00  0.00    -0.204 F 
HETATM   10  C16 UNL     1     -36.973 -13.126 378.985  1.00  0.00     0.052 A 
HETATM   11  C17 UNL     1     -38.270 -13.578 379.154  1.00  0.00    -0.046 A 
HETATM   12  C18 UNL     1     -38.944 -13.519 380.489  1.00  0.00     0.042 C 
HETATM   13  C19 UNL     1     -39.590 -14.853 380.674  1.00  0.00     0.047 C 
HETATM   14  C20 UNL     1     -40.607 -15.186 379.597  1.00  0.00     0.121 C 
HETATM   15  N5  UNL     1     -40.826 -16.587 379.596  1.00  0.00    -0.377 N 
ATOM     16  H5  UNL     1     -40.878 -17.038 380.510  1.00  0.00     0.160 HD
HETATM   17  C22 UNL     1     -40.964 -17.337 378.591  1.00  0.00     0.132 C 
ENDROOT
BRANCH   1  18
HETATM   18  N1  UNL     1     -41.171 -17.574 376.130  1.00  0.00    -0.365 N 
BRANCH  18  19
HETATM   19  C3  UNL     1     -40.084 -17.787 375.253  1.00  0.00     0.124 C 
BRANCH  19  20
HETATM   20  C2  UNL     1     -38.977 -18.601 375.836  1.00  0.00     0.015 C 
HETATM   21  C1  UNL     1     -37.879 -17.655 376.372  1.00  0.00     0.006 C 
ENDBRANCH  19  20
ENDBRANCH  18  19
BRANCH  18  22
HETATM   22  C4  UNL     1     -42.496 -18.068 376.008  1.00  0.00     0.139 C 
BRANCH  22  23
HETATM   23  C5  UNL     1     -42.760 -19.142 375.016  1.00  0.00     0.134 C 
HETATM   24 CL1  UNL     1     -44.419 -19.101 374.362  1.00  0.00    -0.129 Cl
ENDBRANCH  22  23
ENDBRANCH  18  22
ENDBRANCH   1  18
BRANCH  14  25
HETATM   25  C21 UNL     1     -41.897 -14.593 380.167  1.00  0.00     0.167 C 
HETATM   26  N4  UNL     1     -42.999 -14.781 379.617  1.00  0.00    -0.249 N 
ATOM     27  H4  UNL     1     -43.770 -14.327 380.106  1.00  0.00     0.196 HD
BRANCH  25  28
HETATM   28  O1  UNL     1     -41.815 -13.837 381.321  1.00  0.00    -0.346 OA
ATOM     29  H1  UNL     1     -42.572 -13.807 381.893  1.00  0.00     0.219 HD
ENDBRANCH  25  28
BRANCH  26  30
HETATM   30  O2  UNL     1     -43.394 -15.446 378.527  1.00  0.00    -0.288 OA
ATOM     31  H2  UNL     1     -44.205 -15.865 378.265  1.00  0.00     0.244 HD
ENDBRANCH  26  30
ENDBRANCH  14  25
BRANCH   7  32
HETATM   32  N3  UNL     1     -36.399 -13.806 375.412  1.00  0.00    -0.379 N 
BRANCH  32  33
HETATM   33  C11 UNL     1     -36.820 -12.875 374.360  1.00  0.00     0.118 C 
HETATM   34  C12 UNL     1     -37.455 -13.637 373.216  1.00  0.00     0.026 C 
ENDBRANCH  32  33
BRANCH  32  35
HETATM   35  C13 UNL     1     -35.332 -14.717 375.073  1.00  0.00     0.118 C 
HETATM   36  C14 UNL     1     -34.048 -13.995 374.736  1.00  0.00     0.026 C 
ENDBRANCH  32  35
ENDBRANCH   7  32
TORSDOF 11
ENDMDL
