MODEL 1
REMARK VINA RESULT: -8.189247001      0.000      0.000
REMARK  8 active torsions:
REMARK  status: ('A' for Active; 'I' for Inactive)
REMARK    1  A    between atoms: O1_2  and  C2_3 
REMARK    2  A    between atoms: C4_5  and  C5_6 
REMARK    3  A    between atoms: C5_6  and  C6_7 
REMARK       I    between atoms: C6_7  and  N1_9 
REMARK    4  A    between atoms: N1_9  and  C7_11 
REMARK    5  A    between atoms: C9_13  and  O3_14 
REMARK    6  A    between atoms: N2_16  and  C10_17 
REMARK    7  A    between atoms: C19_28  and  O4_29 
REMARK    8  A    between atoms: C21_31  and  O5_32 
ROOT
HETATM    1  C6  UNL     1     -41.412 -14.418 380.742  1.00  0.00     0.226 C 
HETATM    2  O2  UNL     1     -41.970 -13.411 380.249  1.00  0.00    -0.273 OA
HETATM    3  N1  UNL     1     -40.029 -14.582 380.678  1.00  0.00    -0.325 N 
ATOM      4  H1  UNL     1     -39.634 -15.425 381.097  1.00  0.00     0.169 HD
ENDROOT
BRANCH   3   5
HETATM    5  C7  UNL     1     -39.128 -13.668 380.074  1.00  0.00     0.061 A 
HETATM    6  C8  UNL     1     -38.791 -12.402 380.420  1.00  0.00     0.087 A 
HETATM    7  C9  UNL     1     -37.870 -11.963 379.497  1.00  0.00     0.145 A 
HETATM    8  N2  UNL     1     -37.615 -12.921 378.573  1.00  0.00    -0.325 N 
HETATM    9  C16 UNL     1     -38.380 -13.964 378.920  1.00  0.00     0.037 A 
HETATM   10  C17 UNL     1     -38.451 -15.252 378.215  1.00  0.00     0.071 C 
BRANCH   7  11
HETATM   11  O3  UNL     1     -37.282 -10.706 379.511  1.00  0.00    -0.346 OA
ATOM     12  H3  UNL     1     -37.296 -10.098 378.781  1.00  0.00     0.219 HD
ENDBRANCH   7  11
BRANCH   8  13
HETATM   13  C10 UNL     1     -36.693 -12.822 377.444  1.00  0.00     0.092 C 
HETATM   14  C11 UNL     1     -37.364 -13.095 376.156  1.00  0.00     0.032 C 
HETATM   15  C12 UNL     1     -36.322 -12.949 375.055  1.00  0.00     0.081 C 
HETATM   16  C13 UNL     1     -35.375 -14.114 375.278  1.00  0.00     0.243 C 
HETATM   17  F1  UNL     1     -36.068 -15.304 375.125  1.00  0.00    -0.206 F 
HETATM   18  F2  UNL     1     -34.457 -14.072 374.224  1.00  0.00    -0.206 F 
HETATM   19  C14 UNL     1     -34.660 -14.063 376.587  1.00  0.00     0.081 C 
HETATM   20  C15 UNL     1     -35.416 -13.520 377.727  1.00  0.00     0.032 C 
ENDBRANCH   8  13
ENDBRANCH   3   5
BRANCH   1  21
HETATM   21  C5  UNL     1     -42.300 -15.426 381.397  1.00  0.00     0.141 C 
BRANCH  21  22
HETATM   22  C4  UNL     1     -42.653 -16.526 380.462  1.00  0.00    -0.044 A 
HETATM   23  C3  UNL     1     -43.778 -17.291 380.607  1.00  0.00     0.047 A 
HETATM   24  C2  UNL     1     -44.072 -18.299 379.726  1.00  0.00     0.104 A 
HETATM   25  C21 UNL     1     -43.243 -18.574 378.664  1.00  0.00     0.135 A 
HETATM   26  C19 UNL     1     -42.103 -17.808 378.506  1.00  0.00     0.104 A 
HETATM   27  C18 UNL     1     -41.815 -16.794 379.399  1.00  0.00     0.047 A 
BRANCH  24  28
HETATM   28  O1  UNL     1     -45.217 -19.050 379.906  1.00  0.00    -0.353 OA
HETATM   29  C1  UNL     1     -45.236 -20.142 380.797  1.00  0.00     0.210 C 
ENDBRANCH  24  28
BRANCH  25  30
HETATM   30  O5  UNL     1     -43.533 -19.602 377.755  1.00  0.00    -0.351 OA
HETATM   31  C22 UNL     1     -42.995 -20.896 377.913  1.00  0.00     0.210 C 
ENDBRANCH  25  30
BRANCH  26  32
HETATM   32  O4  UNL     1     -41.252 -18.066 377.443  1.00  0.00    -0.353 OA
HETATM   33  C20 UNL     1     -41.239 -17.209 376.320  1.00  0.00     0.210 C 
ENDBRANCH  26  32
ENDBRANCH  21  22
ENDBRANCH   1  21
TORSDOF 8
ENDMDL
MODEL 2
REMARK VINA RESULT: -8.149246001      0.597      2.336
REMARK  8 active torsions:
REMARK  status: ('A' for Active; 'I' for Inactive)
REMARK    1  A    between atoms: O1_2  and  C2_3 
REMARK    2  A    between atoms: C4_5  and  C5_6 
REMARK    3  A    between atoms: C5_6  and  C6_7 
REMARK       I    between atoms: C6_7  and  N1_9 
REMARK    4  A    between atoms: N1_9  and  C7_11 
REMARK    5  A    between atoms: C9_13  and  O3_14 
REMARK    6  A    between atoms: N2_16  and  C10_17 
REMARK    7  A    between atoms: C19_28  and  O4_29 
REMARK    8  A    between atoms: C21_31  and  O5_32 
ROOT
HETATM    1  C6  UNL     1     -41.695 -14.789 380.559  1.00  0.00     0.226 C 
HETATM    2  O2  UNL     1     -42.273 -13.883 379.916  1.00  0.00    -0.273 OA
HETATM    3  N1  UNL     1     -40.306 -14.813 380.683  1.00  0.00    -0.325 N 
ATOM      4  H1  UNL     1     -39.894 -15.577 381.219  1.00  0.00     0.169 HD
ENDROOT
BRANCH   3   5
HETATM    5  C7  UNL     1     -39.422 -13.856 380.121  1.00  0.00     0.061 A 
HETATM    6  C8  UNL     1     -39.110 -12.600 380.523  1.00  0.00     0.087 A 
HETATM    7  C9  UNL     1     -38.196 -12.104 379.622  1.00  0.00     0.145 A 
HETATM    8  N2  UNL     1     -37.921 -13.016 378.658  1.00  0.00    -0.325 N 
HETATM    9  C16 UNL     1     -38.666 -14.088 378.958  1.00  0.00     0.037 A 
HETATM   10  C17 UNL     1     -38.712 -15.345 378.198  1.00  0.00     0.071 C 
BRANCH   7  11
HETATM   11  O3  UNL     1     -37.632 -10.838 379.692  1.00  0.00    -0.346 OA
ATOM     12  H3  UNL     1     -37.595 -10.226 378.966  1.00  0.00     0.219 HD
ENDBRANCH   7  11
BRANCH   8  13
HETATM   13  C10 UNL     1     -37.000 -12.851 377.537  1.00  0.00     0.092 C 
HETATM   14  C11 UNL     1     -37.638 -13.174 376.244  1.00  0.00     0.032 C 
HETATM   15  C12 UNL     1     -36.600 -12.953 375.151  1.00  0.00     0.081 C 
HETATM   16  C13 UNL     1     -35.572 -14.045 375.384  1.00  0.00     0.243 C 
HETATM   17  F1  UNL     1     -36.174 -15.283 375.227  1.00  0.00    -0.206 F 
HETATM   18  F2  UNL     1     -34.651 -13.937 374.337  1.00  0.00    -0.206 F 
HETATM   19  C14 UNL     1     -34.874 -13.940 376.698  1.00  0.00     0.081 C 
HETATM   20  C15 UNL     1     -35.677 -13.453 377.831  1.00  0.00     0.032 C 
ENDBRANCH   8  13
ENDBRANCH   3   5
BRANCH   1  21
HETATM   21  C5  UNL     1     -42.564 -15.832 381.181  1.00  0.00     0.141 C 
BRANCH  21  22
HETATM   22  C4  UNL     1     -42.846 -16.940 380.230  1.00  0.00    -0.044 A 
HETATM   23  C3  UNL     1     -42.059 -17.201 379.140  1.00  0.00     0.047 A 
HETATM   24  C2  UNL     1     -42.349 -18.230 378.283  1.00  0.00     0.104 A 
HETATM   25  C21 UNL     1     -43.443 -19.037 378.491  1.00  0.00     0.135 A 
HETATM   26  C19 UNL     1     -44.245 -18.783 379.589  1.00  0.00     0.104 A 
HETATM   27  C18 UNL     1     -43.945 -17.744 380.447  1.00  0.00     0.047 A 
BRANCH  24  28
HETATM   28  O1  UNL     1     -41.532 -18.462 377.194  1.00  0.00    -0.353 OA
HETATM   29  C1  UNL     1     -41.410 -17.509 376.163  1.00  0.00     0.210 C 
ENDBRANCH  24  28
BRANCH  25  30
HETATM   30  O5  UNL     1     -43.751 -20.094 377.622  1.00  0.00    -0.351 OA
HETATM   31  C22 UNL     1     -44.591 -19.906 376.506  1.00  0.00     0.210 C 
ENDBRANCH  25  30
BRANCH  26  32
HETATM   32  O4  UNL     1     -45.354 -19.583 379.820  1.00  0.00    -0.353 OA
HETATM   33  C20 UNL     1     -45.281 -20.647 380.746  1.00  0.00     0.210 C 
ENDBRANCH  26  32
ENDBRANCH  21  22
ENDBRANCH   1  21
TORSDOF 8
ENDMDL
MODEL 3
REMARK VINA RESULT: -7.832899837      1.279      1.585
REMARK  8 active torsions:
REMARK  status: ('A' for Active; 'I' for Inactive)
REMARK    1  A    between atoms: O1_2  and  C2_3 
REMARK    2  A    between atoms: C4_5  and  C5_6 
REMARK    3  A    between atoms: C5_6  and  C6_7 
REMARK       I    between atoms: C6_7  and  N1_9 
REMARK    4  A    between atoms: N1_9  and  C7_11 
REMARK    5  A    between atoms: C9_13  and  O3_14 
REMARK    6  A    between atoms: N2_16  and  C10_17 
REMARK    7  A    between atoms: C19_28  and  O4_29 
REMARK    8  A    between atoms: C21_31  and  O5_32 
ROOT
HETATM    1  C6  UNL     1     -41.750 -15.471 380.014  1.00  0.00     0.226 C 
HETATM    2  O2  UNL     1     -42.306 -14.377 379.766  1.00  0.00    -0.273 OA
HETATM    3  N1  UNL     1     -40.361 -15.598 379.988  1.00  0.00    -0.325 N 
ATOM      4  H1  UNL     1     -39.968 -16.515 380.199  1.00  0.00     0.169 HD
ENDROOT
BRANCH   3   5
HETATM    5  C7  UNL     1     -39.454 -14.549 379.691  1.00  0.00     0.061 A 
HETATM    6  C8  UNL     1     -39.167 -13.412 380.369  1.00  0.00     0.087 A 
HETATM    7  C9  UNL     1     -38.210 -12.739 379.643  1.00  0.00     0.145 A 
HETATM    8  N2  UNL     1     -37.885 -13.423 378.519  1.00  0.00    -0.325 N 
HETATM    9  C16 UNL     1     -38.640 -14.529 378.544  1.00  0.00     0.037 A 
HETATM   10  C17 UNL     1     -38.643 -15.592 377.528  1.00  0.00     0.071 C 
BRANCH   7  11
HETATM   11  O3  UNL     1     -37.656 -11.522 380.013  1.00  0.00    -0.346 OA
ATOM     12  H3  UNL     1     -37.225 -11.359 380.843  1.00  0.00     0.219 HD
ENDBRANCH   7  11
BRANCH   8  13
HETATM   13  C10 UNL     1     -36.910 -13.026 377.507  1.00  0.00     0.092 C 
HETATM   14  C11 UNL     1     -37.460 -13.125 376.140  1.00  0.00     0.032 C 
HETATM   15  C12 UNL     1     -36.372 -12.675 375.173  1.00  0.00     0.081 C 
HETATM   16  C13 UNL     1     -35.314 -13.759 375.268  1.00  0.00     0.243 C 
HETATM   17  F1  UNL     1     -35.854 -14.965 374.850  1.00  0.00    -0.206 F 
HETATM   18  F2  UNL     1     -34.340 -13.432 374.318  1.00  0.00    -0.206 F 
HETATM   19  C14 UNL     1     -34.696 -13.877 376.621  1.00  0.00     0.081 C 
HETATM   20  C15 UNL     1     -35.582 -13.632 377.770  1.00  0.00     0.032 C 
ENDBRANCH   8  13
ENDBRANCH   3   5
BRANCH   1  21
HETATM   21  C5  UNL     1     -42.644 -16.623 380.337  1.00  0.00     0.141 C 
BRANCH  21  22
HETATM   22  C4  UNL     1     -42.720 -17.584 379.206  1.00  0.00    -0.044 A 
HETATM   23  C3  UNL     1     -42.890 -18.930 379.386  1.00  0.00     0.047 A 
HETATM   24  C2  UNL     1     -42.955 -19.789 378.320  1.00  0.00     0.104 A 
HETATM   25  C21 UNL     1     -42.850 -19.323 377.030  1.00  0.00     0.135 A 
HETATM   26  C19 UNL     1     -42.678 -17.965 376.835  1.00  0.00     0.104 A 
HETATM   27  C18 UNL     1     -42.614 -17.108 377.916  1.00  0.00     0.047 A 
BRANCH  24  28
HETATM   28  O1  UNL     1     -43.127 -21.141 378.541  1.00  0.00    -0.353 OA
HETATM   29  C1  UNL     1     -42.480 -21.789 379.613  1.00  0.00     0.210 C 
ENDBRANCH  24  28
BRANCH  25  30
HETATM   30  O5  UNL     1     -42.915 -20.191 375.930  1.00  0.00    -0.351 OA
HETATM   31  C22 UNL     1     -41.761 -20.823 375.424  1.00  0.00     0.210 C 
ENDBRANCH  25  30
BRANCH  26  32
HETATM   32  O4  UNL     1     -42.570 -17.471 375.544  1.00  0.00    -0.353 OA
HETATM   33  C20 UNL     1     -41.341 -16.948 375.085  1.00  0.00     0.210 C 
ENDBRANCH  26  32
ENDBRANCH  21  22
ENDBRANCH   1  21
TORSDOF 8
ENDMDL
MODEL 4
REMARK VINA RESULT: -7.789012555      1.255      2.488
REMARK  8 active torsions:
REMARK  status: ('A' for Active; 'I' for Inactive)
REMARK    1  A    between atoms: O1_2  and  C2_3 
REMARK    2  A    between atoms: C4_5  and  C5_6 
REMARK    3  A    between atoms: C5_6  and  C6_7 
REMARK       I    between atoms: C6_7  and  N1_9 
REMARK    4  A    between atoms: N1_9  and  C7_11 
REMARK    5  A    between atoms: C9_13  and  O3_14 
REMARK    6  A    between atoms: N2_16  and  C10_17 
REMARK    7  A    between atoms: C19_28  and  O4_29 
REMARK    8  A    between atoms: C21_31  and  O5_32 
ROOT
HETATM    1  C6  UNL     1     -41.730 -15.451 380.010  1.00  0.00     0.226 C 
HETATM    2  O2  UNL     1     -42.284 -14.361 379.739  1.00  0.00    -0.273 OA
HETATM    3  N1  UNL     1     -40.341 -15.577 380.004  1.00  0.00    -0.325 N 
ATOM      4  H1  UNL     1     -39.950 -16.491 380.234  1.00  0.00     0.169 HD
ENDROOT
BRANCH   3   5
HETATM    5  C7  UNL     1     -39.430 -14.532 379.704  1.00  0.00     0.061 A 
HETATM    6  C8  UNL     1     -39.134 -13.397 380.382  1.00  0.00     0.087 A 
HETATM    7  C9  UNL     1     -38.179 -12.728 379.651  1.00  0.00     0.145 A 
HETATM    8  N2  UNL     1     -37.863 -13.412 378.525  1.00  0.00    -0.325 N 
HETATM    9  C16 UNL     1     -38.623 -14.514 378.552  1.00  0.00     0.037 A 
HETATM   10  C17 UNL     1     -38.637 -15.575 377.535  1.00  0.00     0.071 C 
BRANCH   7  11
HETATM   11  O3  UNL     1     -37.616 -11.514 380.020  1.00  0.00    -0.346 OA
ATOM     12  H3  UNL     1     -38.091 -10.809 380.445  1.00  0.00     0.219 HD
ENDBRANCH   7  11
BRANCH   8  13
HETATM   13  C10 UNL     1     -36.891 -13.018 377.508  1.00  0.00     0.092 C 
HETATM   14  C11 UNL     1     -37.444 -13.127 376.143  1.00  0.00     0.032 C 
HETATM   15  C12 UNL     1     -36.360 -12.680 375.171  1.00  0.00     0.081 C 
HETATM   16  C13 UNL     1     -35.299 -13.759 375.270  1.00  0.00     0.243 C 
HETATM   17  F1  UNL     1     -35.835 -14.970 374.862  1.00  0.00    -0.206 F 
HETATM   18  F2  UNL     1     -34.328 -13.435 374.316  1.00  0.00    -0.206 F 
HETATM   19  C14 UNL     1     -34.677 -13.866 376.622  1.00  0.00     0.081 C 
HETATM   20  C15 UNL     1     -35.561 -13.617 377.772  1.00  0.00     0.032 C 
ENDBRANCH   8  13
ENDBRANCH   3   5
BRANCH   1  21
HETATM   21  C5  UNL     1     -42.628 -16.598 380.339  1.00  0.00     0.141 C 
BRANCH  21  22
HETATM   22  C4  UNL     1     -42.741 -17.543 379.196  1.00  0.00    -0.044 A 
HETATM   23  C3  UNL     1     -42.629 -17.145 377.891  1.00  0.00     0.047 A 
HETATM   24  C2  UNL     1     -42.739 -18.043 376.862  1.00  0.00     0.104 A 
HETATM   25  C21 UNL     1     -42.966 -19.377 377.108  1.00  0.00     0.135 A 
HETATM   26  C19 UNL     1     -43.080 -19.791 378.422  1.00  0.00     0.104 A 
HETATM   27  C18 UNL     1     -42.967 -18.879 379.453  1.00  0.00     0.047 A 
BRANCH  24  28
HETATM   28  O1  UNL     1     -42.621 -17.604 375.557  1.00  0.00    -0.353 OA
HETATM   29  C1  UNL     1     -41.468 -16.918 375.124  1.00  0.00     0.210 C 
ENDBRANCH  24  28
BRANCH  25  30
HETATM   30  O5  UNL     1     -43.080 -20.306 376.064  1.00  0.00    -0.351 OA
HETATM   31  C22 UNL     1     -41.950 -20.967 375.541  1.00  0.00     0.210 C 
ENDBRANCH  25  30
BRANCH  26  32
HETATM   32  O4  UNL     1     -43.309 -21.131 378.696  1.00  0.00    -0.353 OA
HETATM   33  C20 UNL     1     -42.462 -21.827 379.587  1.00  0.00     0.210 C 
ENDBRANCH  26  32
ENDBRANCH  21  22
ENDBRANCH   1  21
TORSDOF 8
ENDMDL
MODEL 5
REMARK VINA RESULT: -7.668496883      2.857      7.942
REMARK  8 active torsions:
REMARK  status: ('A' for Active; 'I' for Inactive)
REMARK    1  A    between atoms: O1_2  and  C2_3 
REMARK    2  A    between atoms: C4_5  and  C5_6 
REMARK    3  A    between atoms: C5_6  and  C6_7 
REMARK       I    between atoms: C6_7  and  N1_9 
REMARK    4  A    between atoms: N1_9  and  C7_11 
REMARK    5  A    between atoms: C9_13  and  O3_14 
REMARK    6  A    between atoms: N2_16  and  C10_17 
REMARK    7  A    between atoms: C19_28  and  O4_29 
REMARK    8  A    between atoms: C21_31  and  O5_32 
ROOT
HETATM    1  C6  UNL     1     -41.911 -14.927 380.342  1.00  0.00     0.226 C 
HETATM    2  O2  UNL     1     -42.610 -14.377 379.459  1.00  0.00    -0.273 OA
HETATM    3  N1  UNL     1     -42.017 -16.293 380.600  1.00  0.00    -0.325 N 
ATOM      4  H1  UNL     1     -41.422 -16.682 381.331  1.00  0.00     0.169 HD
ENDROOT
BRANCH   3   5
HETATM    5  C7  UNL     1     -42.890 -17.184 379.925  1.00  0.00     0.061 A 
HETATM    6  C8  UNL     1     -44.168 -17.542 380.196  1.00  0.00     0.087 A 
HETATM    7  C9  UNL     1     -44.551 -18.439 379.224  1.00  0.00     0.145 A 
HETATM    8  N2  UNL     1     -43.545 -18.657 378.343  1.00  0.00    -0.325 N 
HETATM    9  C16 UNL     1     -42.529 -17.893 378.765  1.00  0.00     0.037 A 
HETATM   10  C17 UNL     1     -41.208 -17.789 378.128  1.00  0.00     0.071 C 
BRANCH   7  11
HETATM   11  O3  UNL     1     -45.800 -19.039 379.158  1.00  0.00    -0.346 OA
ATOM     12  H3  UNL     1     -46.447 -18.861 378.485  1.00  0.00     0.219 HD
ENDBRANCH   7  11
BRANCH   8  13
HETATM   13  C10 UNL     1     -43.580 -19.540 377.180  1.00  0.00     0.092 C 
HETATM   14  C11 UNL     1     -42.811 -20.781 377.404  1.00  0.00     0.032 C 
HETATM   15  C12 UNL     1     -42.928 -21.628 376.143  1.00  0.00     0.081 C 
HETATM   16  C13 UNL     1     -42.152 -20.850 375.096  1.00  0.00     0.243 C 
HETATM   17  F1  UNL     1     -40.826 -20.754 375.485  1.00  0.00    -0.206 F 
HETATM   18  F2  UNL     1     -42.152 -21.646 373.946  1.00  0.00    -0.206 F 
HETATM   19  C14 UNL     1     -42.732 -19.509 374.795  1.00  0.00     0.081 C 
HETATM   20  C15 UNL     1     -43.339 -18.788 375.924  1.00  0.00     0.032 C 
ENDBRANCH   8  13
ENDBRANCH   3   5
BRANCH   1  21
HETATM   21  C5  UNL     1     -40.966 -14.049 381.095  1.00  0.00     0.141 C 
BRANCH  21  22
HETATM   22  C4  UNL     1     -39.715 -13.815 380.327  1.00  0.00    -0.044 A 
HETATM   23  C3  UNL     1     -38.998 -12.652 380.414  1.00  0.00     0.047 A 
HETATM   24  C2  UNL     1     -37.848 -12.469 379.690  1.00  0.00     0.104 A 
HETATM   25  C21 UNL     1     -37.378 -13.452 378.851  1.00  0.00     0.135 A 
HETATM   26  C19 UNL     1     -38.094 -14.631 378.755  1.00  0.00     0.104 A 
HETATM   27  C18 UNL     1     -39.251 -14.806 379.489  1.00  0.00     0.047 A 
BRANCH  24  28
HETATM   28  O1  UNL     1     -37.152 -11.282 379.804  1.00  0.00    -0.353 OA
HETATM   29  C1  UNL     1     -37.482 -10.168 379.005  1.00  0.00     0.210 C 
ENDBRANCH  24  28
BRANCH  25  30
HETATM   30  O5  UNL     1     -36.203 -13.278 378.105  1.00  0.00    -0.351 OA
HETATM   31  C22 UNL     1     -36.237 -12.787 376.784  1.00  0.00     0.210 C 
ENDBRANCH  25  30
BRANCH  26  32
HETATM   32  O4  UNL     1     -37.639 -15.636 377.916  1.00  0.00    -0.353 OA
HETATM   33  C20 UNL     1     -37.675 -16.984 378.338  1.00  0.00     0.210 C 
ENDBRANCH  26  32
ENDBRANCH  21  22
ENDBRANCH   1  21
TORSDOF 8
ENDMDL
