MODEL 1
REMARK VINA RESULT: -6.128142033      0.000      0.000
REMARK  8 active torsions:
REMARK  status: ('A' for Active; 'I' for Inactive)
REMARK    1  A    between atoms: C2_2  and  C4_4 
REMARK    2  A    between atoms: C4_4  and  C5_5 
REMARK    3  A    between atoms: C5_5  and  C6_6 
REMARK    4  A    between atoms: C6_6  and  S1_7 
REMARK    5  A    between atoms: S1_7  and  C7_8 
REMARK    6  A    between atoms: C7_8  and  N1_10 
REMARK    7  A    between atoms: N1_10  and  C8_12 
REMARK    8  A    between atoms: C13_19  and  C14_20 
ROOT
HETATM    1  C7  UNL     1      29.844 -31.653   5.870  1.00  0.00     0.139 C 
HETATM    2  S2  UNL     1      30.513 -33.095   5.515  1.00  0.00    -0.053 SA
ENDROOT
BRANCH   1   3
HETATM    3  S1  UNL     1      30.756 -30.146   5.805  1.00  0.00    -0.098 SA
BRANCH   3   4
HETATM    4  C6  UNL     1      30.669 -29.227   4.309  1.00  0.00     0.112 C 
BRANCH   4   5
HETATM    5  C5  UNL     1      30.907 -27.766   4.340  1.00  0.00     0.107 C 
HETATM    6  S3  UNL     1      31.290 -27.128   5.993  1.00  0.00    -0.048 SA
HETATM    7  C18 UNL     1      30.362 -25.610   5.874  1.00  0.00     0.287 C 
HETATM    8  O1  UNL     1      30.331 -24.702   6.702  1.00  0.00    -0.260 OA
HETATM    9  N2  UNL     1      29.691 -25.697   4.640  1.00  0.00    -0.287 N 
HETATM   10  C19 UNL     1      29.622 -27.008   4.118  1.00  0.00     0.245 C 
ATOM     11  H2  UNL     1      29.291 -24.887   4.166  1.00  0.00     0.172 HD
HETATM   12  O2  UNL     1      28.633 -27.550   3.523  1.00  0.00    -0.271 OA
BRANCH   5  13
HETATM   13  C4  UNL     1      32.018 -27.303   3.447  1.00  0.00     0.035 C 
BRANCH  13  14
HETATM   14  C2  UNL     1      31.661 -26.747   2.131  1.00  0.00    -0.021 C 
HETATM   15  C1  UNL     1      32.366 -27.639   1.086  1.00  0.00     0.009 C 
HETATM   16  C3  UNL     1      32.105 -25.353   1.830  1.00  0.00     0.009 C 
ENDBRANCH  13  14
ENDBRANCH   5  13
ENDBRANCH   4   5
ENDBRANCH   3   4
ENDBRANCH   1   3
BRANCH   1  17
HETATM   17  N1  UNL     1      28.465 -31.652   6.269  1.00  0.00    -0.340 N 
ATOM     18  H1  UNL     1      28.090 -32.471   6.745  1.00  0.00     0.167 HD
BRANCH  17  19
HETATM   19  C8  UNL     1      27.610 -30.555   6.023  1.00  0.00     0.061 A 
HETATM   20  C9  UNL     1      27.495 -29.558   6.999  1.00  0.00     0.038 A 
HETATM   21 BR1  UNL     1      28.501 -29.746   8.616  1.00  0.00    -0.049 Br
HETATM   22  C10 UNL     1      26.666 -28.489   6.818  1.00  0.00     0.024 A 
HETATM   23  C11 UNL     1      25.950 -28.413   5.659  1.00  0.00     0.044 A 
HETATM   24  C12 UNL     1      26.037 -29.389   4.663  1.00  0.00     0.125 A 
HETATM   25  F1  UNL     1      25.260 -29.174   3.557  1.00  0.00    -0.205 F 
HETATM   26  C13 UNL     1      26.870 -30.465   4.848  1.00  0.00     0.016 A 
BRANCH  26  27
HETATM   27  C14 UNL     1      26.920 -31.538   3.842  1.00  0.00    -0.019 C 
HETATM   28  C15 UNL     1      28.134 -31.478   2.925  1.00  0.00     0.019 C 
HETATM   29  C16 UNL     1      26.920 -32.945   4.391  1.00  0.00     0.019 C 
HETATM   30  C17 UNL     1      25.715 -31.461   2.902  1.00  0.00     0.019 C 
ENDBRANCH  26  27
ENDBRANCH  17  19
ENDBRANCH   1  17
TORSDOF 8
ENDMDL
MODEL 2
REMARK VINA RESULT: -6.116881710      2.546      3.803
REMARK  8 active torsions:
REMARK  status: ('A' for Active; 'I' for Inactive)
REMARK    1  A    between atoms: C2_2  and  C4_4 
REMARK    2  A    between atoms: C4_4  and  C5_5 
REMARK    3  A    between atoms: C5_5  and  C6_6 
REMARK    4  A    between atoms: C6_6  and  S1_7 
REMARK    5  A    between atoms: S1_7  and  C7_8 
REMARK    6  A    between atoms: C7_8  and  N1_10 
REMARK    7  A    between atoms: N1_10  and  C8_12 
REMARK    8  A    between atoms: C13_19  and  C14_20 
ROOT
HETATM    1  C7  UNL     1      28.887 -29.866   7.240  1.00  0.00     0.139 C 
HETATM    2  S2  UNL     1      28.841 -28.981   8.607  1.00  0.00    -0.053 SA
ENDROOT
BRANCH   1   3
HETATM    3  S1  UNL     1      30.159 -29.678   6.034  1.00  0.00    -0.098 SA
BRANCH   3   4
HETATM    4  C6  UNL     1      30.118 -28.221   5.053  1.00  0.00     0.112 C 
BRANCH   4   5
HETATM    5  C5  UNL     1      30.411 -28.312   3.605  1.00  0.00     0.107 C 
HETATM    6  S3  UNL     1      29.634 -29.737   2.796  1.00  0.00    -0.048 SA
HETATM    7  C18 UNL     1      30.993 -30.160   1.722  1.00  0.00     0.287 C 
HETATM    8  O1  UNL     1      30.996 -31.025   0.848  1.00  0.00    -0.260 OA
HETATM    9  N2  UNL     1      32.033 -29.291   2.101  1.00  0.00    -0.287 N 
HETATM   10  C19 UNL     1      31.849 -28.700   3.372  1.00  0.00     0.245 C 
ATOM     11  H2  UNL     1      32.845 -29.105   1.512  1.00  0.00     0.172 HD
HETATM   12  O2  UNL     1      32.740 -28.491   4.260  1.00  0.00    -0.271 OA
BRANCH   5  13
HETATM   13  C4  UNL     1      29.997 -27.108   2.814  1.00  0.00     0.035 C 
BRANCH  13  14
HETATM   14  C2  UNL     1      30.614 -25.814   3.151  1.00  0.00    -0.021 C 
HETATM   15  C1  UNL     1      29.479 -24.769   3.077  1.00  0.00     0.009 C 
HETATM   16  C3  UNL     1      31.685 -25.306   2.243  1.00  0.00     0.009 C 
ENDBRANCH  13  14
ENDBRANCH   5  13
ENDBRANCH   4   5
ENDBRANCH   3   4
ENDBRANCH   1   3
BRANCH   1  17
HETATM   17  N1  UNL     1      27.823 -30.807   7.034  1.00  0.00    -0.340 N 
ATOM     18  H1  UNL     1      27.422 -31.281   7.843  1.00  0.00     0.167 HD
BRANCH  17  19
HETATM   19  C8  UNL     1      27.313 -31.100   5.750  1.00  0.00     0.061 A 
HETATM   20  C9  UNL     1      26.467 -30.173   5.133  1.00  0.00     0.038 A 
HETATM   21 BR1  UNL     1      26.044 -28.559   6.072  1.00  0.00    -0.049 Br
HETATM   22  C10 UNL     1      25.932 -30.419   3.901  1.00  0.00     0.024 A 
HETATM   23  C11 UNL     1      26.242 -31.595   3.284  1.00  0.00     0.044 A 
HETATM   24  C12 UNL     1      27.081 -32.547   3.869  1.00  0.00     0.125 A 
HETATM   25  F1  UNL     1      27.301 -33.675   3.127  1.00  0.00    -0.205 F 
HETATM   26  C13 UNL     1      27.617 -32.297   5.109  1.00  0.00     0.016 A 
BRANCH  26  27
HETATM   27  C14 UNL     1      28.445 -33.319   5.771  1.00  0.00    -0.019 C 
HETATM   28  C15 UNL     1      28.499 -33.191   7.287  1.00  0.00     0.019 C 
HETATM   29  C16 UNL     1      28.036 -34.750   5.519  1.00  0.00     0.019 C 
HETATM   30  C17 UNL     1      29.902 -33.218   5.316  1.00  0.00     0.019 C 
ENDBRANCH  26  27
ENDBRANCH  17  19
ENDBRANCH   1  17
TORSDOF 8
ENDMDL
MODEL 3
REMARK VINA RESULT: -6.093693443      2.158      3.215
REMARK  8 active torsions:
REMARK  status: ('A' for Active; 'I' for Inactive)
REMARK    1  A    between atoms: C2_2  and  C4_4 
REMARK    2  A    between atoms: C4_4  and  C5_5 
REMARK    3  A    between atoms: C5_5  and  C6_6 
REMARK    4  A    between atoms: C6_6  and  S1_7 
REMARK    5  A    between atoms: S1_7  and  C7_8 
REMARK    6  A    between atoms: C7_8  and  N1_10 
REMARK    7  A    between atoms: N1_10  and  C8_12 
REMARK    8  A    between atoms: C13_19  and  C14_20 
ROOT
HETATM    1  C7  UNL     1      29.608 -30.541   7.461  1.00  0.00     0.139 C 
HETATM    2  S2  UNL     1      30.188 -30.340   8.969  1.00  0.00    -0.053 SA
ENDROOT
BRANCH   1   3
HETATM    3  S1  UNL     1      30.582 -30.236   6.023  1.00  0.00    -0.098 SA
BRANCH   3   4
HETATM    4  C6  UNL     1      30.737 -28.564   5.506  1.00  0.00     0.112 C 
BRANCH   4   5
HETATM    5  C5  UNL     1      30.457 -28.211   4.096  1.00  0.00     0.107 C 
HETATM    6  S3  UNL     1      29.669 -29.546   3.157  1.00  0.00    -0.048 SA
HETATM    7  C18 UNL     1      30.555 -29.307   1.629  1.00  0.00     0.287 C 
HETATM    8  O1  UNL     1      30.360 -29.894   0.566  1.00  0.00    -0.260 OA
HETATM    9  N2  UNL     1      31.506 -28.311   1.918  1.00  0.00    -0.287 N 
HETATM   10  C19 UNL     1      31.736 -28.125   3.301  1.00  0.00     0.245 C 
ATOM     11  H2  UNL     1      31.985 -27.772   1.197  1.00  0.00     0.172 HD
HETATM   12  O2  UNL     1      32.854 -27.909   3.874  1.00  0.00    -0.271 OA
BRANCH   5  13
HETATM   13  C4  UNL     1      29.582 -27.007   3.923  1.00  0.00     0.035 C 
BRANCH  13  14
HETATM   14  C2  UNL     1      30.224 -25.682   3.905  1.00  0.00    -0.021 C 
HETATM   15  C1  UNL     1      30.068 -25.114   5.333  1.00  0.00     0.009 C 
HETATM   16  C3  UNL     1      29.641 -24.648   2.998  1.00  0.00     0.009 C 
ENDBRANCH  13  14
ENDBRANCH   5  13
ENDBRANCH   4   5
ENDBRANCH   3   4
ENDBRANCH   1   3
BRANCH   1  17
HETATM   17  N1  UNL     1      28.241 -30.962   7.337  1.00  0.00    -0.340 N 
ATOM     18  H1  UNL     1      27.828 -31.518   8.084  1.00  0.00     0.167 HD
BRANCH  17  19
HETATM   19  C8  UNL     1      27.449 -30.631   6.215  1.00  0.00     0.061 A 
HETATM   20  C9  UNL     1      26.864 -29.362   6.152  1.00  0.00     0.038 A 
HETATM   21 BR1  UNL     1      27.167 -28.147   7.599  1.00  0.00    -0.049 Br
HETATM   22  C10 UNL     1      26.073 -29.003   5.099  1.00  0.00     0.024 A 
HETATM   23  C11 UNL     1      25.866 -29.913   4.104  1.00  0.00     0.044 A 
HETATM   24  C12 UNL     1      26.431 -31.191   4.133  1.00  0.00     0.125 A 
HETATM   25  F1  UNL     1      26.134 -31.990   3.063  1.00  0.00    -0.205 F 
HETATM   26  C13 UNL     1      27.225 -31.550   5.194  1.00  0.00     0.016 A 
BRANCH  26  27
HETATM   27  C14 UNL     1      27.770 -32.916   5.275  1.00  0.00    -0.019 C 
HETATM   28  C15 UNL     1      29.065 -33.118   4.501  1.00  0.00     0.019 C 
HETATM   29  C16 UNL     1      28.071 -33.414   6.669  1.00  0.00     0.019 C 
HETATM   30  C17 UNL     1      26.793 -33.929   4.676  1.00  0.00     0.019 C 
ENDBRANCH  26  27
ENDBRANCH  17  19
ENDBRANCH   1  17
TORSDOF 8
ENDMDL
MODEL 4
REMARK VINA RESULT: -6.006719691      2.406      3.182
REMARK  8 active torsions:
REMARK  status: ('A' for Active; 'I' for Inactive)
REMARK    1  A    between atoms: C2_2  and  C4_4 
REMARK    2  A    between atoms: C4_4  and  C5_5 
REMARK    3  A    between atoms: C5_5  and  C6_6 
REMARK    4  A    between atoms: C6_6  and  S1_7 
REMARK    5  A    between atoms: S1_7  and  C7_8 
REMARK    6  A    between atoms: C7_8  and  N1_10 
REMARK    7  A    between atoms: N1_10  and  C8_12 
REMARK    8  A    between atoms: C13_19  and  C14_20 
ROOT
HETATM    1  C7  UNL     1      30.351 -30.177   4.335  1.00  0.00     0.139 C 
HETATM    2  S2  UNL     1      29.253 -29.534   5.351  1.00  0.00    -0.053 SA
ENDROOT
BRANCH   1   3
HETATM    3  S1  UNL     1      31.894 -29.395   3.993  1.00  0.00    -0.098 SA
BRANCH   3   4
HETATM    4  C6  UNL     1      31.869 -28.039   2.875  1.00  0.00     0.112 C 
BRANCH   4   5
HETATM    5  C5  UNL     1      31.627 -26.674   3.394  1.00  0.00     0.107 C 
HETATM    6  S3  UNL     1      31.841 -26.532   5.188  1.00  0.00    -0.048 SA
HETATM    7  C18 UNL     1      30.471 -25.434   5.497  1.00  0.00     0.287 C 
HETATM    8  O1  UNL     1      30.178 -24.908   6.569  1.00  0.00    -0.260 OA
HETATM    9  N2  UNL     1      29.821 -25.314   4.255  1.00  0.00    -0.287 N 
HETATM   10  C19 UNL     1      30.159 -26.330   3.332  1.00  0.00     0.245 C 
ATOM     11  H2  UNL     1      29.166 -24.562   4.040  1.00  0.00     0.172 HD
HETATM   12  O2  UNL     1      29.377 -26.927   2.521  1.00  0.00    -0.271 OA
BRANCH   5  13
HETATM   13  C4  UNL     1      32.498 -25.618   2.785  1.00  0.00     0.035 C 
BRANCH  13  14
HETATM   14  C2  UNL     1      32.079 -25.030   1.502  1.00  0.00    -0.021 C 
HETATM   15  C1  UNL     1      32.865 -25.788   0.410  1.00  0.00     0.009 C 
HETATM   16  C3  UNL     1      32.377 -23.584   1.277  1.00  0.00     0.009 C 
ENDBRANCH  13  14
ENDBRANCH   5  13
ENDBRANCH   4   5
ENDBRANCH   3   4
ENDBRANCH   1   3
BRANCH   1  17
HETATM   17  N1  UNL     1      30.007 -31.415   3.697  1.00  0.00    -0.340 N 
ATOM     18  H1  UNL     1      30.228 -31.537   2.709  1.00  0.00     0.167 HD
BRANCH  17  19
HETATM   19  C8  UNL     1      29.372 -32.470   4.389  1.00  0.00     0.061 A 
HETATM   20  C9  UNL     1      30.112 -33.206   5.322  1.00  0.00     0.038 A 
HETATM   21 BR1  UNL     1      31.948 -32.741   5.599  1.00  0.00    -0.049 Br
HETATM   22  C10 UNL     1      29.550 -34.248   6.002  1.00  0.00     0.024 A 
HETATM   23  C11 UNL     1      28.245 -34.556   5.750  1.00  0.00     0.044 A 
HETATM   24  C12 UNL     1      27.475 -33.846   4.825  1.00  0.00     0.125 A 
HETATM   25  F1  UNL     1      26.183 -34.273   4.684  1.00  0.00    -0.205 F 
HETATM   26  C13 UNL     1      28.043 -32.800   4.141  1.00  0.00     0.016 A 
BRANCH  26  27
HETATM   27  C14 UNL     1      27.269 -32.087   3.112  1.00  0.00    -0.019 C 
HETATM   28  C15 UNL     1      26.272 -31.079   3.668  1.00  0.00     0.019 C 
HETATM   29  C16 UNL     1      28.084 -31.309   2.107  1.00  0.00     0.019 C 
HETATM   30  C17 UNL     1      26.423 -33.064   2.292  1.00  0.00     0.019 C 
ENDBRANCH  26  27
ENDBRANCH  17  19
ENDBRANCH   1  17
TORSDOF 8
ENDMDL
MODEL 5
REMARK VINA RESULT: -5.962379644      3.033      6.119
REMARK  8 active torsions:
REMARK  status: ('A' for Active; 'I' for Inactive)
REMARK    1  A    between atoms: C2_2  and  C4_4 
REMARK    2  A    between atoms: C4_4  and  C5_5 
REMARK    3  A    between atoms: C5_5  and  C6_6 
REMARK    4  A    between atoms: C6_6  and  S1_7 
REMARK    5  A    between atoms: S1_7  and  C7_8 
REMARK    6  A    between atoms: C7_8  and  N1_10 
REMARK    7  A    between atoms: N1_10  and  C8_12 
REMARK    8  A    between atoms: C13_19  and  C14_20 
ROOT
HETATM    1  C7  UNL     1      31.453 -29.762   4.045  1.00  0.00     0.139 C 
HETATM    2  S2  UNL     1      32.366 -31.100   4.215  1.00  0.00    -0.053 SA
ENDROOT
BRANCH   1   3
HETATM    3  S1  UNL     1      29.747 -29.831   3.602  1.00  0.00    -0.098 SA
BRANCH   3   4
HETATM    4  C6  UNL     1      28.774 -31.073   4.373  1.00  0.00     0.112 C 
BRANCH   4   5
HETATM    5  C5  UNL     1      27.443 -30.720   4.918  1.00  0.00     0.107 C 
HETATM    6  S3  UNL     1      27.080 -28.945   4.851  1.00  0.00    -0.048 SA
HETATM    7  C18 UNL     1      26.264 -28.817   6.430  1.00  0.00     0.287 C 
HETATM    8  O1  UNL     1      25.706 -27.823   6.891  1.00  0.00    -0.260 OA
HETATM    9  N2  UNL     1      26.406 -30.091   7.011  1.00  0.00    -0.287 N 
HETATM   10  C19 UNL     1      27.418 -30.880   6.417  1.00  0.00     0.245 C 
ATOM     11  H2  UNL     1      25.832 -30.416   7.789  1.00  0.00     0.172 HD
HETATM   12  O2  UNL     1      28.242 -31.652   7.011  1.00  0.00    -0.271 OA
BRANCH   5  13
HETATM   13  C4  UNL     1      26.296 -31.405   4.240  1.00  0.00     0.035 C 
BRANCH  13  14
HETATM   14  C2  UNL     1      26.221 -31.339   2.770  1.00  0.00    -0.021 C 
HETATM   15  C1  UNL     1      24.837 -30.740   2.441  1.00  0.00     0.009 C 
HETATM   16  C3  UNL     1      26.288 -32.629   2.020  1.00  0.00     0.009 C 
ENDBRANCH  13  14
ENDBRANCH   5  13
ENDBRANCH   4   5
ENDBRANCH   3   4
ENDBRANCH   1   3
BRANCH   1  17
HETATM   17  N1  UNL     1      32.100 -28.498   4.250  1.00  0.00    -0.340 N 
ATOM     18  H1  UNL     1      33.083 -28.486   4.521  1.00  0.00     0.167 HD
BRANCH  17  19
HETATM   19  C8  UNL     1      31.423 -27.269   4.088  1.00  0.00     0.061 A 
HETATM   20  C9  UNL     1      31.286 -26.737   2.801  1.00  0.00     0.038 A 
HETATM   21 BR1  UNL     1      32.035 -27.708   1.331  1.00  0.00    -0.049 Br
HETATM   22  C10 UNL     1      30.659 -25.543   2.595  1.00  0.00     0.024 A 
HETATM   23  C11 UNL     1      30.165 -24.876   3.678  1.00  0.00     0.044 A 
HETATM   24  C12 UNL     1      30.284 -25.373   4.979  1.00  0.00     0.125 A 
HETATM   25  F1  UNL     1      29.737 -24.592   5.960  1.00  0.00    -0.205 F 
HETATM   26  C13 UNL     1      30.917 -26.574   5.183  1.00  0.00     0.016 A 
BRANCH  26  27
HETATM   27  C14 UNL     1      31.114 -27.078   6.552  1.00  0.00    -0.019 C 
HETATM   28  C15 UNL     1      32.372 -27.917   6.733  1.00  0.00     0.019 C 
HETATM   29  C16 UNL     1      31.197 -26.021   7.628  1.00  0.00     0.019 C 
HETATM   30  C17 UNL     1      29.965 -27.999   6.965  1.00  0.00     0.019 C 
ENDBRANCH  26  27
ENDBRANCH  17  19
ENDBRANCH   1  17
TORSDOF 8
ENDMDL
