MODEL 1
REMARK VINA RESULT: -7.044581795      0.000      0.000
REMARK  6 active torsions:
REMARK  status: ('A' for Active; 'I' for Inactive)
REMARK    1  A    between atoms: O1_2  and  C2_3 
REMARK    2  A    between atoms: C2_3  and  C3_4 
REMARK    3  A    between atoms: C4_5  and  C5_6 
REMARK    4  A    between atoms: C5_6  and  O2_9 
REMARK    5  A    between atoms: C10_15  and  O3_16 
REMARK    6  A    between atoms: N3_28  and  C21_29 
ROOT
HETATM    1  C3  UNL     1      29.202 -29.312   5.418  1.00  0.00     0.068 A 
HETATM    2  C4  UNL     1      28.210 -29.424   6.403  1.00  0.00     0.070 A 
HETATM    3  N1  UNL     1      28.138 -30.713   6.685  1.00  0.00    -0.340 N 
ATOM      4  H1  UNL     1      27.507 -31.131   7.369  1.00  0.00     0.167 HD
HETATM    5  C8  UNL     1      29.052 -31.410   5.911  1.00  0.00     0.128 A 
HETATM    6  C9  UNL     1      29.068 -32.847   6.057  1.00  0.00     0.067 A 
HETATM    7  C10 UNL     1      28.040 -33.534   5.411  1.00  0.00     0.084 A 
HETATM    8  C12 UNL     1      27.999 -34.902   5.489  1.00  0.00     0.045 A 
HETATM    9  C13 UNL     1      28.936 -35.649   6.187  1.00  0.00    -0.046 A 
HETATM   10  C14 UNL     1      29.943 -34.963   6.821  1.00  0.00    -0.026 A 
HETATM   11  C15 UNL     1      30.001 -33.562   6.752  1.00  0.00     0.070 A 
HETATM   12  N2  UNL     1      31.067 -32.959   7.482  1.00  0.00    -0.101 NA
HETATM   13  C16 UNL     1      30.814 -35.949   7.497  1.00  0.00     0.050 C 
HETATM   14  C17 UNL     1      29.976 -37.205   7.605  1.00  0.00    -0.040 C 
HETATM   15  C18 UNL     1      29.155 -37.198   8.896  1.00  0.00     0.015 C 
HETATM   16  C19 UNL     1      30.834 -38.432   7.622  1.00  0.00     0.015 C 
HETATM   17  C20 UNL     1      29.082 -37.110   6.397  1.00  0.00     0.048 C 
HETATM   18  N3  UNL     1      29.710 -30.540   5.133  1.00  0.00    -0.293 N 
ENDROOT
BRANCH  18  19
HETATM   19  C21 UNL     1      30.762 -30.784   4.239  1.00  0.00     0.084 A 
HETATM   20  C22 UNL     1      32.085 -30.780   4.709  1.00  0.00     0.063 A 
HETATM   21 CL1  UNL     1      32.402 -30.384   6.373  1.00  0.00    -0.082 Cl
HETATM   22  C23 UNL     1      33.172 -31.022   3.914  1.00  0.00     0.026 A 
HETATM   23  C24 UNL     1      33.027 -31.287   2.576  1.00  0.00     0.003 A 
HETATM   24  C25 UNL     1      31.742 -31.294   2.090  1.00  0.00     0.026 A 
HETATM   25  C26 UNL     1      30.646 -31.050   2.892  1.00  0.00     0.063 A 
HETATM   26 CL2  UNL     1      29.100 -31.040   2.086  1.00  0.00    -0.082 Cl
ENDBRANCH  18  19
BRANCH   2  27
HETATM   27  C5  UNL     1      27.402 -28.315   7.005  1.00  0.00     0.095 C 
HETATM   28  C6  UNL     1      25.981 -28.313   6.530  1.00  0.00     0.052 C 
HETATM   29  C7  UNL     1      27.380 -28.520   8.514  1.00  0.00     0.052 C 
BRANCH  27  30
HETATM   30  O2  UNL     1      28.039 -27.084   6.795  1.00  0.00    -0.384 OA
ATOM     31  H2  UNL     1      28.594 -26.871   7.536  1.00  0.00     0.211 HD
ENDBRANCH  27  30
ENDBRANCH   2  27
BRANCH   7  32
HETATM   32  O3  UNL     1      27.050 -32.886   4.695  1.00  0.00    -0.355 OA
HETATM   33  C11 UNL     1      26.805 -33.253   3.358  1.00  0.00     0.210 C 
ENDBRANCH   7  32
BRANCH   1  34
HETATM   34  C2  UNL     1      29.556 -28.031   4.818  1.00  0.00     0.226 C 
BRANCH  34  35
HETATM   35  O1  UNL     1      28.810 -27.634   3.725  1.00  0.00    -0.390 OA
HETATM   36  C1  UNL     1      29.364 -26.556   3.084  1.00  0.00     0.201 C 
ENDBRANCH  34  35
ENDBRANCH   1  34
TORSDOF 6
ENDMDL
MODEL 2
REMARK VINA RESULT: -6.946803581      0.134      1.546
REMARK  6 active torsions:
REMARK  status: ('A' for Active; 'I' for Inactive)
REMARK    1  A    between atoms: O1_2  and  C2_3 
REMARK    2  A    between atoms: C2_3  and  C3_4 
REMARK    3  A    between atoms: C4_5  and  C5_6 
REMARK    4  A    between atoms: C5_6  and  O2_9 
REMARK    5  A    between atoms: C10_15  and  O3_16 
REMARK    6  A    between atoms: N3_28  and  C21_29 
ROOT
HETATM    1  C3  UNL     1      29.252 -29.324   5.398  1.00  0.00     0.068 A 
HETATM    2  C4  UNL     1      28.238 -29.430   6.362  1.00  0.00     0.070 A 
HETATM    3  N1  UNL     1      28.161 -30.718   6.650  1.00  0.00    -0.340 N 
ATOM      4  H1  UNL     1      27.515 -31.132   7.322  1.00  0.00     0.167 HD
HETATM    5  C8  UNL     1      29.090 -31.419   5.898  1.00  0.00     0.128 A 
HETATM    6  C9  UNL     1      29.103 -32.855   6.053  1.00  0.00     0.067 A 
HETATM    7  C10 UNL     1      28.089 -33.545   5.389  1.00  0.00     0.084 A 
HETATM    8  C12 UNL     1      28.046 -34.913   5.473  1.00  0.00     0.045 A 
HETATM    9  C13 UNL     1      28.967 -35.656   6.195  1.00  0.00    -0.046 A 
HETATM   10  C14 UNL     1      29.961 -34.967   6.846  1.00  0.00    -0.026 A 
HETATM   11  C15 UNL     1      30.020 -33.566   6.771  1.00  0.00     0.070 A 
HETATM   12  N2  UNL     1      31.071 -32.960   7.520  1.00  0.00    -0.101 NA
HETATM   13  C16 UNL     1      30.817 -35.950   7.545  1.00  0.00     0.050 C 
HETATM   14  C17 UNL     1      29.977 -37.205   7.643  1.00  0.00    -0.040 C 
HETATM   15  C18 UNL     1      29.129 -37.191   8.916  1.00  0.00     0.015 C 
HETATM   16  C19 UNL     1      30.834 -38.432   7.684  1.00  0.00     0.015 C 
HETATM   17  C20 UNL     1      29.109 -37.117   6.416  1.00  0.00     0.048 C 
HETATM   18  N3  UNL     1      29.765 -30.553   5.130  1.00  0.00    -0.293 N 
ENDROOT
BRANCH  18  19
HETATM   19  C21 UNL     1      30.835 -30.802   4.259  1.00  0.00     0.084 A 
HETATM   20  C22 UNL     1      30.582 -31.010   2.894  1.00  0.00     0.063 A 
HETATM   21 CL1  UNL     1      28.940 -31.047   2.322  1.00  0.00    -0.082 Cl
HETATM   22  C23 UNL     1      31.563 -31.245   1.969  1.00  0.00     0.026 A 
HETATM   23  C24 UNL     1      32.885 -31.293   2.333  1.00  0.00     0.003 A 
HETATM   24  C25 UNL     1      33.159 -31.093   3.665  1.00  0.00     0.026 A 
HETATM   25  C26 UNL     1      32.170 -30.857   4.597  1.00  0.00     0.063 A 
HETATM   26 CL2  UNL     1      32.704 -30.690   6.248  1.00  0.00    -0.082 Cl
ENDBRANCH  18  19
BRANCH   2  27
HETATM   27  C5  UNL     1      27.419 -28.318   6.941  1.00  0.00     0.095 C 
HETATM   28  C6  UNL     1      26.016 -28.300   6.414  1.00  0.00     0.052 C 
HETATM   29  C7  UNL     1      27.338 -28.532   8.447  1.00  0.00     0.052 C 
BRANCH  27  30
HETATM   30  O2  UNL     1      28.073 -27.091   6.763  1.00  0.00    -0.384 OA
ATOM     31  H2  UNL     1      27.470 -26.373   6.917  1.00  0.00     0.211 HD
ENDBRANCH  27  30
ENDBRANCH   2  27
BRANCH   7  32
HETATM   32  O3  UNL     1      27.114 -32.901   4.649  1.00  0.00    -0.355 OA
HETATM   33  C11 UNL     1      26.760 -33.401   3.380  1.00  0.00     0.210 C 
ENDBRANCH   7  32
BRANCH   1  34
HETATM   34  C2  UNL     1      29.618 -28.046   4.798  1.00  0.00     0.226 C 
BRANCH  34  35
HETATM   35  O1  UNL     1      28.837 -27.612   3.744  1.00  0.00    -0.390 OA
HETATM   36  C1  UNL     1      29.396 -26.542   3.093  1.00  0.00     0.201 C 
ENDBRANCH  34  35
ENDBRANCH   1  34
TORSDOF 6
ENDMDL
MODEL 3
REMARK VINA RESULT: -6.696618403      2.736      4.473
REMARK  6 active torsions:
REMARK  status: ('A' for Active; 'I' for Inactive)
REMARK    1  A    between atoms: O1_2  and  C2_3 
REMARK    2  A    between atoms: C2_3  and  C3_4 
REMARK    3  A    between atoms: C4_5  and  C5_6 
REMARK    4  A    between atoms: C5_6  and  O2_9 
REMARK    5  A    between atoms: C10_15  and  O3_16 
REMARK    6  A    between atoms: N3_28  and  C21_29 
ROOT
HETATM    1  C3  UNL     1      30.561 -28.128   6.650  1.00  0.00     0.068 A 
HETATM    2  C4  UNL     1      31.792 -28.628   7.100  1.00  0.00     0.070 A 
HETATM    3  N1  UNL     1      31.589 -29.915   7.323  1.00  0.00    -0.340 N 
ATOM      4  H1  UNL     1      32.292 -30.571   7.661  1.00  0.00     0.167 HD
HETATM    5  C8  UNL     1      30.273 -30.236   7.029  1.00  0.00     0.128 A 
HETATM    6  C9  UNL     1      29.866 -31.601   7.269  1.00  0.00     0.067 A 
HETATM    7  C10 UNL     1      29.619 -31.934   8.601  1.00  0.00     0.084 A 
HETATM    8  C12 UNL     1      29.210 -33.206   8.906  1.00  0.00     0.045 A 
HETATM    9  C13 UNL     1      29.030 -34.194   7.949  1.00  0.00    -0.046 A 
HETATM   10  C14 UNL     1      29.278 -33.856   6.641  1.00  0.00    -0.026 A 
HETATM   11  C15 UNL     1      29.697 -32.557   6.310  1.00  0.00     0.070 A 
HETATM   12  N2  UNL     1      29.961 -32.336   4.927  1.00  0.00    -0.101 NA
HETATM   13  C16 UNL     1      29.027 -35.049   5.805  1.00  0.00     0.050 C 
HETATM   14  C17 UNL     1      29.078 -36.220   6.763  1.00  0.00    -0.040 C 
HETATM   15  C18 UNL     1      30.509 -36.744   6.902  1.00  0.00     0.015 C 
HETATM   16  C19 UNL     1      28.226 -37.354   6.284  1.00  0.00     0.015 C 
HETATM   17  C20 UNL     1      28.600 -35.610   8.054  1.00  0.00     0.048 C 
HETATM   18  N3  UNL     1      29.643 -29.130   6.608  1.00  0.00    -0.293 N 
ENDROOT
BRANCH  18  19
HETATM   19  C21 UNL     1      28.327 -28.992   6.147  1.00  0.00     0.084 A 
HETATM   20  C22 UNL     1      27.291 -28.772   7.068  1.00  0.00     0.063 A 
HETATM   21 CL1  UNL     1      27.643 -28.765   8.771  1.00  0.00    -0.082 Cl
HETATM   22  C23 UNL     1      25.980 -28.610   6.708  1.00  0.00     0.026 A 
HETATM   23  C24 UNL     1      25.594 -28.658   5.393  1.00  0.00     0.003 A 
HETATM   24  C25 UNL     1      26.590 -28.874   4.471  1.00  0.00     0.026 A 
HETATM   25  C26 UNL     1      27.911 -29.037   4.834  1.00  0.00     0.063 A 
HETATM   26 CL2  UNL     1      29.023 -29.364   3.532  1.00  0.00    -0.082 Cl
ENDBRANCH  18  19
BRANCH   2  27
HETATM   27  C5  UNL     1      33.066 -27.863   7.287  1.00  0.00     0.095 C 
HETATM   28  C6  UNL     1      33.001 -26.906   8.438  1.00  0.00     0.052 C 
HETATM   29  C7  UNL     1      34.173 -28.865   7.587  1.00  0.00     0.052 C 
BRANCH  27  30
HETATM   30  O2  UNL     1      33.434 -27.234   6.089  1.00  0.00    -0.384 OA
ATOM     31  H2  UNL     1      34.357 -27.376   5.914  1.00  0.00     0.211 HD
ENDBRANCH  27  30
ENDBRANCH   2  27
BRANCH   7  32
HETATM   32  O3  UNL     1      29.776 -31.028   9.634  1.00  0.00    -0.355 OA
HETATM   33  C11 UNL     1      30.683 -31.311  10.675  1.00  0.00     0.210 C 
ENDBRANCH   7  32
BRANCH   1  34
HETATM   34  C2  UNL     1      30.370 -26.720   6.325  1.00  0.00     0.226 C 
BRANCH  34  35
HETATM   35  O1  UNL     1      30.814 -26.307   5.083  1.00  0.00    -0.390 OA
HETATM   36  C1  UNL     1      30.099 -25.238   4.607  1.00  0.00     0.201 C 
ENDBRANCH  34  35
ENDBRANCH   1  34
TORSDOF 6
ENDMDL
MODEL 4
REMARK VINA RESULT: -6.684991710      2.723      4.665
REMARK  6 active torsions:
REMARK  status: ('A' for Active; 'I' for Inactive)
REMARK    1  A    between atoms: O1_2  and  C2_3 
REMARK    2  A    between atoms: C2_3  and  C3_4 
REMARK    3  A    between atoms: C4_5  and  C5_6 
REMARK    4  A    between atoms: C5_6  and  O2_9 
REMARK    5  A    between atoms: C10_15  and  O3_16 
REMARK    6  A    between atoms: N3_28  and  C21_29 
ROOT
HETATM    1  C3  UNL     1      30.624 -28.025   6.484  1.00  0.00     0.068 A 
HETATM    2  C4  UNL     1      31.888 -28.517   6.844  1.00  0.00     0.070 A 
HETATM    3  N1  UNL     1      31.704 -29.800   7.104  1.00  0.00    -0.340 N 
ATOM      4  H1  UNL     1      32.433 -30.451   7.396  1.00  0.00     0.167 HD
HETATM    5  C8  UNL     1      30.370 -30.126   6.919  1.00  0.00     0.128 A 
HETATM    6  C9  UNL     1      29.984 -31.486   7.213  1.00  0.00     0.067 A 
HETATM    7  C10 UNL     1      29.843 -31.798   8.565  1.00  0.00     0.084 A 
HETATM    8  C12 UNL     1      29.461 -33.065   8.923  1.00  0.00     0.045 A 
HETATM    9  C13 UNL     1      29.207 -34.068   7.999  1.00  0.00    -0.046 A 
HETATM   10  C14 UNL     1      29.352 -33.751   6.670  1.00  0.00    -0.026 A 
HETATM   11  C15 UNL     1      29.742 -32.459   6.286  1.00  0.00     0.070 A 
HETATM   12  N2  UNL     1      29.896 -32.260   4.883  1.00  0.00    -0.101 NA
HETATM   13  C16 UNL     1      29.037 -34.959   5.876  1.00  0.00     0.050 C 
HETATM   14  C17 UNL     1      29.164 -36.113   6.846  1.00  0.00    -0.040 C 
HETATM   15  C18 UNL     1      30.602 -36.635   6.880  1.00  0.00     0.015 C 
HETATM   16  C19 UNL     1      28.278 -37.255   6.454  1.00  0.00     0.015 C 
HETATM   17  C20 UNL     1      28.789 -35.482   8.161  1.00  0.00     0.048 C 
HETATM   18  N3  UNL     1      29.708 -29.027   6.532  1.00  0.00    -0.293 N 
ENDROOT
BRANCH  18  19
HETATM   19  C21 UNL     1      28.359 -28.896   6.172  1.00  0.00     0.084 A 
HETATM   20  C22 UNL     1      27.999 -28.923   4.816  1.00  0.00     0.063 A 
HETATM   21 CL1  UNL     1      29.240 -29.026   3.601  1.00  0.00    -0.082 Cl
HETATM   22  C23 UNL     1      26.709 -28.817   4.373  1.00  0.00     0.026 A 
HETATM   23  C24 UNL     1      25.666 -28.674   5.252  1.00  0.00     0.003 A 
HETATM   24  C25 UNL     1      25.992 -28.643   6.587  1.00  0.00     0.026 A 
HETATM   25  C26 UNL     1      27.293 -28.749   7.033  1.00  0.00     0.063 A 
HETATM   26 CL2  UNL     1      27.519 -28.626   8.757  1.00  0.00    -0.082 Cl
ENDBRANCH  18  19
BRANCH   2  27
HETATM   27  C5  UNL     1      33.172 -27.749   6.918  1.00  0.00     0.095 C 
HETATM   28  C6  UNL     1      33.160 -26.708   7.995  1.00  0.00     0.052 C 
HETATM   29  C7  UNL     1      34.287 -28.734   7.247  1.00  0.00     0.052 C 
BRANCH  27  30
HETATM   30  O2  UNL     1      33.490 -27.216   5.661  1.00  0.00    -0.384 OA
ATOM     31  H2  UNL     1      34.389 -26.908   5.653  1.00  0.00     0.211 HD
ENDBRANCH  27  30
ENDBRANCH   2  27
BRANCH   7  32
HETATM   32  O3  UNL     1      30.080 -30.875   9.568  1.00  0.00    -0.355 OA
HETATM   33  C11 UNL     1      30.778 -31.270  10.726  1.00  0.00     0.210 C 
ENDBRANCH   7  32
BRANCH   1  34
HETATM   34  C2  UNL     1      30.407 -26.622   6.152  1.00  0.00     0.226 C 
BRANCH  34  35
HETATM   35  O1  UNL     1      30.881 -26.197   4.926  1.00  0.00    -0.390 OA
HETATM   36  C1  UNL     1      30.079 -25.236   4.366  1.00  0.00     0.201 C 
ENDBRANCH  34  35
ENDBRANCH   1  34
TORSDOF 6
ENDMDL
MODEL 5
REMARK VINA RESULT: -6.564791316      2.917      6.058
REMARK  6 active torsions:
REMARK  status: ('A' for Active; 'I' for Inactive)
REMARK    1  A    between atoms: O1_2  and  C2_3 
REMARK    2  A    between atoms: C2_3  and  C3_4 
REMARK    3  A    between atoms: C4_5  and  C5_6 
REMARK    4  A    between atoms: C5_6  and  O2_9 
REMARK    5  A    between atoms: C10_15  and  O3_16 
REMARK    6  A    between atoms: N3_28  and  C21_29 
ROOT
HETATM    1  C3  UNL     1      31.227 -30.378   5.451  1.00  0.00     0.068 A 
HETATM    2  C4  UNL     1      30.826 -31.666   5.835  1.00  0.00     0.070 A 
HETATM    3  N1  UNL     1      29.648 -31.852   5.266  1.00  0.00    -0.340 N 
ATOM      4  H1  UNL     1      29.082 -32.696   5.348  1.00  0.00     0.167 HD
HETATM    5  C8  UNL     1      29.299 -30.725   4.539  1.00  0.00     0.128 A 
HETATM    6  C9  UNL     1      28.008 -30.740   3.893  1.00  0.00     0.067 A 
HETATM    7  C10 UNL     1      26.911 -30.509   4.723  1.00  0.00     0.084 A 
HETATM    8  C12 UNL     1      25.653 -30.490   4.178  1.00  0.00     0.045 A 
HETATM    9  C13 UNL     1      25.410 -30.693   2.828  1.00  0.00    -0.046 A 
HETATM   10  C14 UNL     1      26.497 -30.922   2.020  1.00  0.00    -0.026 A 
HETATM   11  C15 UNL     1      27.792 -30.945   2.560  1.00  0.00     0.070 A 
HETATM   12  N2  UNL     1      28.835 -31.230   1.632  1.00  0.00    -0.101 NA
HETATM   13  C16 UNL     1      26.006 -31.112   0.637  1.00  0.00     0.050 C 
HETATM   14  C17 UNL     1      24.538 -31.449   0.783  1.00  0.00    -0.040 C 
HETATM   15  C18 UNL     1      24.343 -32.957   0.952  1.00  0.00     0.015 C 
HETATM   16  C19 UNL     1      23.759 -31.025  -0.424  1.00  0.00     0.015 C 
HETATM   17  C20 UNL     1      24.154 -30.713   2.039  1.00  0.00     0.048 C 
HETATM   18  N3  UNL     1      30.280 -29.818   4.653  1.00  0.00    -0.293 N 
ENDROOT
BRANCH  18  19
HETATM   19  C21 UNL     1      30.388 -28.561   4.041  1.00  0.00     0.084 A 
HETATM   20  C22 UNL     1      29.886 -27.427   4.699  1.00  0.00     0.063 A 
HETATM   21 CL1  UNL     1      29.058 -27.612   6.217  1.00  0.00    -0.082 Cl
HETATM   22  C23 UNL     1      29.960 -26.160   4.186  1.00  0.00     0.026 A 
HETATM   23  C24 UNL     1      30.544 -25.921   2.968  1.00  0.00     0.003 A 
HETATM   24  C25 UNL     1      31.042 -27.015   2.304  1.00  0.00     0.026 A 
HETATM   25  C26 UNL     1      30.967 -28.292   2.820  1.00  0.00     0.063 A 
HETATM   26 CL2  UNL     1      31.597 -29.562   1.805  1.00  0.00    -0.082 Cl
ENDBRANCH  18  19
BRANCH   2  27
HETATM   27  C5  UNL     1      31.577 -32.625   6.707  1.00  0.00     0.095 C 
HETATM   28  C6  UNL     1      31.562 -32.225   8.151  1.00  0.00     0.052 C 
HETATM   29  C7  UNL     1      30.894 -33.983   6.602  1.00  0.00     0.052 C 
BRANCH  27  30
HETATM   30  O2  UNL     1      32.876 -32.811   6.216  1.00  0.00    -0.384 OA
ATOM     31  H2  UNL     1      32.847 -33.088   5.307  1.00  0.00     0.211 HD
ENDBRANCH  27  30
ENDBRANCH   2  27
BRANCH   7  32
HETATM   32  O3  UNL     1      27.041 -30.303   6.084  1.00  0.00    -0.355 OA
HETATM   33  C11 UNL     1      26.053 -29.574   6.775  1.00  0.00     0.210 C 
ENDBRANCH   7  32
BRANCH   1  34
HETATM   34  C2  UNL     1      32.479 -29.788   5.910  1.00  0.00     0.226 C 
BRANCH  34  35
HETATM   35  O1  UNL     1      33.615 -30.114   5.194  1.00  0.00    -0.390 OA
HETATM   36  C1  UNL     1      34.152 -29.027   4.553  1.00  0.00     0.201 C 
ENDBRANCH  34  35
ENDBRANCH   1  34
TORSDOF 6
ENDMDL
