MODEL 1
REMARK VINA RESULT: -5.036182504      0.000      0.000
REMARK  1 active torsions:
REMARK  status: ('A' for Active; 'I' for Inactive)
REMARK    1  A    between atoms: N4_10  and  N5_12 
ROOT
HETATM    1  C1  UNL     1     305.973 217.332 331.044  1.00  0.00     0.197 C 
HETATM    2  N1  UNL     1     305.589 218.650 331.445  1.00  0.00    -0.123 N 
HETATM    3  N2  UNL     1     306.424 219.627 331.816  1.00  0.00    -0.235 N 
ATOM      4  H2  UNL     1     307.439 219.542 331.856  1.00  0.00     0.192 HD
HETATM    5  C2  UNL     1     305.735 220.737 332.130  1.00  0.00     0.353 A 
HETATM    6  O1  UNL     1     306.201 221.841 332.517  1.00  0.00    -0.245 OA
HETATM    7  N3  UNL     1     304.451 220.396 331.936  1.00  0.00    -0.137 N 
ATOM      8  H3  UNL     1     303.663 221.025 332.087  1.00  0.00     0.189 HD
HETATM    9  C3  UNL     1     304.333 219.131 331.519  1.00  0.00     0.717 A 
HETATM   10  N4  UNL     1     303.223 218.506 331.244  1.00  0.00    -0.137 N 
ATOM     11  H4  UNL     1     302.340 219.005 331.348  1.00  0.00     0.205 HD
ENDROOT
BRANCH  10  12
HETATM   12  N5  UNL     1     303.198 217.181 330.815  1.00  0.00    -0.331 N 
ATOM     13  H52 UNL     1     304.076 216.662 330.821  1.00  0.00     0.177 HD
ATOM     14  H51 UNL     1     302.342 216.723 330.499  1.00  0.00     0.177 HD
ENDBRANCH  10  12
TORSDOF 1
ENDMDL
MODEL 2
REMARK VINA RESULT: -5.030893816      2.391      3.538
REMARK  1 active torsions:
REMARK  status: ('A' for Active; 'I' for Inactive)
REMARK    1  A    between atoms: N4_10  and  N5_12 
ROOT
HETATM    1  C1  UNL     1     302.985 218.796 332.372  1.00  0.00     0.197 C 
HETATM    2  N1  UNL     1     304.309 218.425 331.978  1.00  0.00    -0.123 N 
HETATM    3  N2  UNL     1     304.625 217.639 330.944  1.00  0.00    -0.235 N 
ATOM      4  H2  UNL     1     303.950 217.209 330.312  1.00  0.00     0.192 HD
HETATM    5  C2  UNL     1     305.958 217.494 330.856  1.00  0.00     0.353 A 
HETATM    6  O1  UNL     1     306.599 216.823 330.003  1.00  0.00    -0.245 OA
HETATM    7  N3  UNL     1     306.438 218.221 331.877  1.00  0.00    -0.137 N 
ATOM      8  H3  UNL     1     307.430 218.321 332.091  1.00  0.00     0.189 HD
HETATM    9  C3  UNL     1     305.457 218.800 332.577  1.00  0.00     0.717 A 
HETATM   10  N4  UNL     1     305.598 219.565 333.622  1.00  0.00    -0.137 N 
ATOM     11  H4  UNL     1     306.539 219.762 333.963  1.00  0.00     0.205 HD
ENDROOT
BRANCH  10  12
HETATM   12  N5  UNL     1     304.511 220.125 334.290  1.00  0.00    -0.331 N 
ATOM     13  H52 UNL     1     303.733 220.470 333.728  1.00  0.00     0.177 HD
ATOM     14  H51 UNL     1     304.473 220.200 335.307  1.00  0.00     0.177 HD
ENDBRANCH  10  12
TORSDOF 1
ENDMDL
MODEL 3
REMARK VINA RESULT: -4.779565199      2.075      2.942
REMARK  1 active torsions:
REMARK  status: ('A' for Active; 'I' for Inactive)
REMARK    1  A    between atoms: N4_10  and  N5_12 
ROOT
HETATM    1  C1  UNL     1     305.114 220.927 332.190  1.00  0.00     0.197 C 
HETATM    2  N1  UNL     1     305.191 219.586 331.699  1.00  0.00    -0.123 N 
HETATM    3  N2  UNL     1     306.313 218.937 331.373  1.00  0.00    -0.235 N 
ATOM      4  H2  UNL     1     307.252 219.329 331.437  1.00  0.00     0.192 HD
HETATM    5  C2  UNL     1     306.029 217.694 330.948  1.00  0.00     0.353 A 
HETATM    6  O1  UNL     1     306.843 216.813 330.563  1.00  0.00    -0.245 OA
HETATM    7  N3  UNL     1     304.690 217.615 331.028  1.00  0.00    -0.137 N 
ATOM      8  H3  UNL     1     304.150 216.789 330.773  1.00  0.00     0.189 HD
HETATM    9  C3  UNL     1     304.154 218.753 331.482  1.00  0.00     0.717 A 
HETATM   10  N4  UNL     1     302.887 218.990 331.671  1.00  0.00    -0.137 N 
ATOM     11  H4  UNL     1     302.213 218.255 331.460  1.00  0.00     0.205 HD
ENDROOT
BRANCH  10  12
HETATM   12  N5  UNL     1     302.419 220.213 332.150  1.00  0.00    -0.331 N 
ATOM     13  H52 UNL     1     302.927 220.647 332.920  1.00  0.00     0.177 HD
ATOM     14  H51 UNL     1     301.598 220.675 331.760  1.00  0.00     0.177 HD
ENDBRANCH  10  12
TORSDOF 1
ENDMDL
MODEL 4
REMARK VINA RESULT: -4.767190579      2.216      2.916
REMARK  1 active torsions:
REMARK  status: ('A' for Active; 'I' for Inactive)
REMARK    1  A    between atoms: N4_10  and  N5_12 
ROOT
HETATM    1  C1  UNL     1     301.718 220.078 332.006  1.00  0.00     0.197 C 
HETATM    2  N1  UNL     1     302.889 219.388 332.450  1.00  0.00    -0.123 N 
HETATM    3  N2  UNL     1     303.715 219.794 333.420  1.00  0.00    -0.235 N 
ATOM      4  H2  UNL     1     303.603 220.653 333.959  1.00  0.00     0.192 HD
HETATM    5  C2  UNL     1     304.715 218.912 333.584  1.00  0.00     0.353 A 
HETATM    6  O1  UNL     1     305.667 218.980 334.407  1.00  0.00    -0.245 OA
HETATM    7  N3  UNL     1     304.465 217.955 332.676  1.00  0.00    -0.137 N 
ATOM      8  H3  UNL     1     305.047 217.129 332.540  1.00  0.00     0.189 HD
HETATM    9  C3  UNL     1     303.359 218.219 331.971  1.00  0.00     0.717 A 
HETATM   10  N4  UNL     1     302.853 217.486 331.021  1.00  0.00    -0.137 N 
ATOM     11  H4  UNL     1     303.325 216.619 330.765  1.00  0.00     0.205 HD
ENDROOT
BRANCH  10  12
HETATM   12  N5  UNL     1     301.692 217.843 330.339  1.00  0.00    -0.331 N 
ATOM     13  H52 UNL     1     300.797 217.619 330.774  1.00  0.00     0.177 HD
ATOM     14  H51 UNL     1     301.711 218.314 329.433  1.00  0.00     0.177 HD
ENDBRANCH  10  12
TORSDOF 1
ENDMDL
MODEL 5
REMARK VINA RESULT: -4.659422728      1.887      2.514
REMARK  1 active torsions:
REMARK  status: ('A' for Active; 'I' for Inactive)
REMARK    1  A    between atoms: N4_10  and  N5_12 
ROOT
HETATM    1  C1  UNL     1     303.443 217.549 331.270  1.00  0.00     0.197 C 
HETATM    2  N1  UNL     1     304.258 218.338 332.141  1.00  0.00    -0.123 N 
HETATM    3  N2  UNL     1     303.816 219.103 333.145  1.00  0.00    -0.235 N 
ATOM      4  H2  UNL     1     302.836 219.211 333.406  1.00  0.00     0.192 HD
HETATM    5  C2  UNL     1     304.845 219.709 333.761  1.00  0.00     0.353 A 
HETATM    6  O1  UNL     1     304.791 220.496 334.742  1.00  0.00    -0.245 OA
HETATM    7  N3  UNL     1     305.928 219.284 333.091  1.00  0.00    -0.137 N 
ATOM      8  H3  UNL     1     306.883 219.564 333.311  1.00  0.00     0.189 HD
HETATM    9  C3  UNL     1     305.601 218.448 332.099  1.00  0.00     0.717 A 
HETATM   10  N4  UNL     1     306.422 217.868 331.272  1.00  0.00    -0.137 N 
ATOM     11  H4  UNL     1     307.422 218.049 331.364  1.00  0.00     0.205 HD
ENDROOT
BRANCH  10  12
HETATM   12  N5  UNL     1     305.987 217.009 330.265  1.00  0.00    -0.331 N 
ATOM     13  H52 UNL     1     306.217 217.251 329.301  1.00  0.00     0.177 HD
ATOM     14  H51 UNL     1     305.454 216.161 330.460  1.00  0.00     0.177 HD
ENDBRANCH  10  12
TORSDOF 1
ENDMDL
