MODEL 1
REMARK VINA RESULT: -5.839103844      0.000      0.000
REMARK  1 active torsions:
REMARK  status: ('A' for Active; 'I' for Inactive)
REMARK       I    between atoms: C3_3  and  N1_5 
REMARK       I    between atoms: N1_5  and  C4_7 
REMARK    1  A    between atoms: N3_9  and  N4_11 
ROOT
HETATM    1  C1  UNL     1     304.551 219.919 334.377  1.00  0.00     0.022 C 
HETATM    2  C2  UNL     1     305.200 220.278 333.450  1.00  0.00    -0.016 C 
HETATM    3  C3  UNL     1     306.182 220.913 332.082  1.00  0.00     0.302 C 
HETATM    4  O1  UNL     1     306.164 221.939 332.665  1.00  0.00    -0.258 OA
HETATM    5  N1  UNL     1     306.202 219.742 331.417  1.00  0.00    -0.289 N 
ATOM      6  H1  UNL     1     306.702 219.862 330.536  1.00  0.00     0.172 HD
HETATM    7  C4  UNL     1     305.779 218.445 331.524  1.00  0.00     0.209 C 
HETATM    8  N2  UNL     1     305.194 217.682 332.535  1.00  0.00    -0.062 NA
HETATM    9  N3  UNL     1     306.055 217.693 330.429  1.00  0.00    -0.280 N 
ATOM     10  H3  UNL     1     306.534 218.143 329.649  1.00  0.00     0.189 HD
ENDROOT
BRANCH   9  11
HETATM   11  N4  UNL     1     305.737 216.391 330.306  1.00  0.00    -0.343 N 
ATOM     12  H42 UNL     1     305.150 215.989 331.037  1.00  0.00     0.176 HD
ATOM     13  H41 UNL     1     306.045 215.796 329.536  1.00  0.00     0.176 HD
ENDBRANCH   9  11
TORSDOF 1
ENDMDL
MODEL 2
REMARK VINA RESULT: -5.765369112      1.999      2.117
REMARK  1 active torsions:
REMARK  status: ('A' for Active; 'I' for Inactive)
REMARK       I    between atoms: C3_3  and  N1_5 
REMARK       I    between atoms: N1_5  and  C4_7 
REMARK    1  A    between atoms: N3_9  and  N4_11 
ROOT
HETATM    1  C1  UNL     1     304.284 220.058 334.330  1.00  0.00     0.022 C 
HETATM    2  C2  UNL     1     303.834 219.898 333.243  1.00  0.00    -0.016 C 
HETATM    3  C3  UNL     1     303.076 219.710 331.622  1.00  0.00     0.302 C 
HETATM    4  O1  UNL     1     302.253 220.455 332.020  1.00  0.00    -0.258 OA
HETATM    5  N1  UNL     1     304.017 218.859 331.167  1.00  0.00    -0.289 N 
ATOM      6  H1  UNL     1     303.775 218.563 330.221  1.00  0.00     0.172 HD
HETATM    7  C4  UNL     1     305.186 218.257 331.544  1.00  0.00     0.209 C 
HETATM    8  N2  UNL     1     306.051 218.386 332.631  1.00  0.00    -0.062 NA
HETATM    9  N3  UNL     1     305.669 217.386 330.623  1.00  0.00    -0.280 N 
ATOM     10  H3  UNL     1     305.138 217.258 329.762  1.00  0.00     0.189 HD
ENDROOT
BRANCH   9  11
HETATM   11  N4  UNL     1     306.805 216.680 330.773  1.00  0.00    -0.343 N 
ATOM     12  H42 UNL     1     307.028 216.361 331.715  1.00  0.00     0.176 HD
ATOM     13  H41 UNL     1     307.443 216.450 330.009  1.00  0.00     0.176 HD
ENDBRANCH   9  11
TORSDOF 1
ENDMDL
MODEL 3
REMARK VINA RESULT: -5.359304852      1.518      1.656
REMARK  1 active torsions:
REMARK  status: ('A' for Active; 'I' for Inactive)
REMARK       I    between atoms: C3_3  and  N1_5 
REMARK       I    between atoms: N1_5  and  C4_7 
REMARK    1  A    between atoms: N3_9  and  N4_11 
ROOT
HETATM    1  C1  UNL     1     302.677 219.927 332.817  1.00  0.00     0.022 C 
HETATM    2  C2  UNL     1     303.814 219.900 333.155  1.00  0.00    -0.016 C 
HETATM    3  C3  UNL     1     305.518 219.929 333.732  1.00  0.00     0.302 C 
HETATM    4  O1  UNL     1     305.138 220.704 334.536  1.00  0.00    -0.258 OA
HETATM    5  N1  UNL     1     305.953 219.043 332.814  1.00  0.00    -0.289 N 
ATOM      6  H1  UNL     1     306.959 218.912 332.921  1.00  0.00     0.172 HD
HETATM    7  C4  UNL     1     305.501 218.260 331.787  1.00  0.00     0.209 C 
HETATM    8  N2  UNL     1     304.242 217.921 331.290  1.00  0.00    -0.062 NA
HETATM    9  N3  UNL     1     306.488 217.590 331.141  1.00  0.00    -0.280 N 
ATOM     10  H3  UNL     1     307.446 217.725 331.464  1.00  0.00     0.189 HD
ENDROOT
BRANCH   9  11
HETATM   11  N4  UNL     1     306.284 216.759 330.102  1.00  0.00    -0.343 N 
ATOM     12  H42 UNL     1     305.317 216.614 329.812  1.00  0.00     0.176 HD
ATOM     13  H41 UNL     1     307.029 216.275 329.600  1.00  0.00     0.176 HD
ENDBRANCH   9  11
TORSDOF 1
ENDMDL
MODEL 4
REMARK VINA RESULT: -5.173410146      1.795      1.825
REMARK  1 active torsions:
REMARK  status: ('A' for Active; 'I' for Inactive)
REMARK       I    between atoms: C3_3  and  N1_5 
REMARK       I    between atoms: N1_5  and  C4_7 
REMARK    1  A    between atoms: N3_9  and  N4_11 
ROOT
HETATM    1  C1  UNL     1     304.929 219.986 334.726  1.00  0.00     0.022 C 
HETATM    2  C2  UNL     1     305.065 220.296 333.588  1.00  0.00    -0.016 C 
HETATM    3  C3  UNL     1     305.318 220.844 331.893  1.00  0.00     0.302 C 
HETATM    4  O1  UNL     1     305.970 221.706 332.365  1.00  0.00    -0.258 OA
HETATM    5  N1  UNL     1     304.574 219.858 331.354  1.00  0.00    -0.289 N 
ATOM      6  H1  UNL     1     304.535 219.980 330.342  1.00  0.00     0.172 HD
HETATM    7  C4  UNL     1     303.853 218.749 331.704  1.00  0.00     0.209 C 
HETATM    8  N2  UNL     1     303.673 218.027 332.885  1.00  0.00    -0.062 NA
HETATM    9  N3  UNL     1     303.225 218.158 330.657  1.00  0.00    -0.280 N 
ATOM     10  H3  UNL     1     303.337 218.577 329.735  1.00  0.00     0.189 HD
ENDROOT
BRANCH   9  11
HETATM   11  N4  UNL     1     302.461 217.054 330.759  1.00  0.00    -0.343 N 
ATOM     12  H42 UNL     1     301.492 217.190 331.046  1.00  0.00     0.176 HD
ATOM     13  H41 UNL     1     302.792 216.108 330.568  1.00  0.00     0.176 HD
ENDBRANCH   9  11
TORSDOF 1
ENDMDL
MODEL 5
REMARK VINA RESULT: -5.123720501      3.241      3.566
REMARK  1 active torsions:
REMARK  status: ('A' for Active; 'I' for Inactive)
REMARK       I    between atoms: C3_3  and  N1_5 
REMARK       I    between atoms: N1_5  and  C4_7 
REMARK    1  A    between atoms: N3_9  and  N4_11 
ROOT
HETATM    1  C1  UNL     1     303.905 219.918 333.636  1.00  0.00     0.022 C 
HETATM    2  C2  UNL     1     304.290 219.085 332.883  1.00  0.00    -0.016 C 
HETATM    3  C3  UNL     1     304.964 217.841 331.771  1.00  0.00     0.302 C 
HETATM    4  O1  UNL     1     306.002 218.083 332.275  1.00  0.00    -0.258 OA
HETATM    5  N1  UNL     1     303.777 217.564 331.195  1.00  0.00    -0.289 N 
ATOM      6  H1  UNL     1     303.912 216.869 330.462  1.00  0.00     0.172 HD
HETATM    7  C4  UNL     1     302.453 217.901 331.262  1.00  0.00     0.209 C 
HETATM    8  N2  UNL     1     301.675 218.662 332.135  1.00  0.00    -0.062 NA
HETATM    9  N3  UNL     1     301.693 217.301 330.312  1.00  0.00    -0.280 N 
ATOM     10  H3  UNL     1     302.157 216.676 329.653  1.00  0.00     0.189 HD
ENDROOT
BRANCH   9  11
HETATM   11  N4  UNL     1     300.364 217.477 330.183  1.00  0.00    -0.343 N 
ATOM     12  H42 UNL     1     299.953 217.231 329.282  1.00  0.00     0.176 HD
ATOM     13  H41 UNL     1     299.759 217.836 330.921  1.00  0.00     0.176 HD
ENDBRANCH   9  11
TORSDOF 1
ENDMDL
