MODEL 1
REMARK VINA RESULT: -5.167555205      0.000      0.000
REMARK  1 active torsions:
REMARK  status: ('A' for Active; 'I' for Inactive)
REMARK       I    between atoms: C2_5  and  N4_7 
REMARK    1  A    between atoms: N4_7  and  N5_9 
ROOT
HETATM    1  N1  UNL     1     306.225 221.335 332.559  1.00  0.00    -0.172 NA
HETATM    2  C1  UNL     1     305.569 220.593 331.958  1.00  0.00     0.184 C 
HETATM    3  N2  UNL     1     304.778 219.680 331.229  1.00  0.00    -0.266 N 
ATOM      4  H2  UNL     1     304.587 219.860 330.244  1.00  0.00     0.180 HD
HETATM    5  C2  UNL     1     304.291 218.623 331.784  1.00  0.00     0.216 C 
HETATM    6  N3  UNL     1     304.535 218.337 333.156  1.00  0.00    -0.061 NA
HETATM    7  N4  UNL     1     303.506 217.761 330.969  1.00  0.00    -0.271 N 
ATOM      8  H4  UNL     1     303.912 216.949 330.505  1.00  0.00     0.189 HD
ENDROOT
BRANCH   7   9
HETATM    9  N5  UNL     1     302.153 218.079 330.835  1.00  0.00    -0.274 N 
HETATM   10  C3  UNL     1     301.246 217.183 330.647  1.00  0.00     0.215 C 
HETATM   11  N6  UNL     1     299.893 217.598 330.522  1.00  0.00    -0.065 NA
HETATM   12  N7  UNL     1     301.639 215.825 330.575  1.00  0.00    -0.065 NA
ATOM     13  H5  UNL     1     301.872 219.057 330.887  1.00  0.00     0.189 HD
ENDBRANCH   7   9
TORSDOF 1
ENDMDL
MODEL 2
REMARK VINA RESULT: -5.061339898      1.510      1.980
REMARK  1 active torsions:
REMARK  status: ('A' for Active; 'I' for Inactive)
REMARK       I    between atoms: C2_5  and  N4_7 
REMARK    1  A    between atoms: N4_7  and  N5_9 
ROOT
HETATM    1  N1  UNL     1     305.660 219.095 334.490  1.00  0.00    -0.172 NA
HETATM    2  C1  UNL     1     304.804 218.888 333.737  1.00  0.00     0.184 C 
HETATM    3  N2  UNL     1     303.768 218.645 332.811  1.00  0.00    -0.266 N 
ATOM      4  H2  UNL     1     302.798 218.764 333.104  1.00  0.00     0.180 HD
HETATM    5  C2  UNL     1     304.022 218.275 331.602  1.00  0.00     0.216 C 
HETATM    6  N3  UNL     1     305.360 218.098 331.156  1.00  0.00    -0.061 NA
HETATM    7  N4  UNL     1     302.911 218.053 330.741  1.00  0.00    -0.271 N 
ATOM      8  H4  UNL     1     302.569 218.780 330.113  1.00  0.00     0.189 HD
ENDROOT
BRANCH   7   9
HETATM    9  N5  UNL     1     302.311 216.794 330.796  1.00  0.00    -0.274 N 
HETATM   10  C3  UNL     1     301.067 216.606 330.515  1.00  0.00     0.215 C 
HETATM   11  N6  UNL     1     300.541 215.289 330.597  1.00  0.00    -0.065 NA
HETATM   12  N7  UNL     1     300.283 217.721 330.137  1.00  0.00    -0.065 NA
ATOM     13  H5  UNL     1     302.878 215.992 331.069  1.00  0.00     0.189 HD
ENDBRANCH   7   9
TORSDOF 1
ENDMDL
MODEL 3
REMARK VINA RESULT: -4.982881951      1.052      1.052
REMARK  1 active torsions:
REMARK  status: ('A' for Active; 'I' for Inactive)
REMARK       I    between atoms: C2_5  and  N4_7 
REMARK    1  A    between atoms: N4_7  and  N5_9 
ROOT
HETATM    1  N1  UNL     1     306.121 221.555 332.564  1.00  0.00    -0.172 NA
HETATM    2  C1  UNL     1     305.310 220.846 332.139  1.00  0.00     0.184 C 
HETATM    3  N2  UNL     1     304.331 219.976 331.612  1.00  0.00    -0.266 N 
ATOM      4  H2  UNL     1     303.486 220.368 331.196  1.00  0.00     0.180 HD
HETATM    5  C2  UNL     1     304.483 218.696 331.647  1.00  0.00     0.216 C 
HETATM    6  N3  UNL     1     305.647 218.112 332.218  1.00  0.00    -0.061 NA
HETATM    7  N4  UNL     1     303.442 217.901 331.091  1.00  0.00    -0.271 N 
ATOM      8  H4  UNL     1     303.483 217.565 330.129  1.00  0.00     0.189 HD
ENDROOT
BRANCH   7   9
HETATM    9  N5  UNL     1     302.363 217.601 331.925  1.00  0.00    -0.274 N 
HETATM   10  C3  UNL     1     301.454 216.747 331.602  1.00  0.00     0.215 C 
HETATM   11  N6  UNL     1     300.392 216.504 332.513  1.00  0.00    -0.065 NA
HETATM   12  N7  UNL     1     301.557 216.089 330.353  1.00  0.00    -0.065 NA
ATOM     13  H5  UNL     1     302.291 218.077 332.824  1.00  0.00     0.189 HD
ENDBRANCH   7   9
TORSDOF 1
ENDMDL
MODEL 4
REMARK VINA RESULT: -4.942798311      1.590      4.877
REMARK  1 active torsions:
REMARK  status: ('A' for Active; 'I' for Inactive)
REMARK       I    between atoms: C2_5  and  N4_7 
REMARK    1  A    between atoms: N4_7  and  N5_9 
ROOT
HETATM    1  N1  UNL     1     300.915 215.700 330.679  1.00  0.00    -0.172 NA
HETATM    2  C1  UNL     1     301.740 216.493 330.854  1.00  0.00     0.184 C 
HETATM    3  N2  UNL     1     302.741 217.467 331.058  1.00  0.00    -0.266 N 
ATOM      4  H2  UNL     1     303.722 217.199 330.977  1.00  0.00     0.180 HD
HETATM    5  C2  UNL     1     302.440 218.687 331.343  1.00  0.00     0.216 C 
HETATM    6  N3  UNL     1     301.085 219.099 331.464  1.00  0.00    -0.061 NA
HETATM    7  N4  UNL     1     303.518 219.598 331.530  1.00  0.00    -0.271 N 
ATOM      8  H4  UNL     1     303.855 220.189 330.771  1.00  0.00     0.189 HD
ENDROOT
BRANCH   7   9
HETATM    9  N5  UNL     1     304.091 219.644 332.803  1.00  0.00    -0.274 N 
HETATM   10  C3  UNL     1     305.144 218.970 333.113  1.00  0.00     0.215 C 
HETATM   11  N6  UNL     1     305.659 219.078 334.433  1.00  0.00    -0.065 NA
HETATM   12  N7  UNL     1     305.740 218.152 332.124  1.00  0.00    -0.065 NA
ATOM     13  H5  UNL     1     303.659 220.234 333.514  1.00  0.00     0.189 HD
ENDBRANCH   7   9
TORSDOF 1
ENDMDL
MODEL 5
REMARK VINA RESULT: -4.839911397      1.762      2.552
REMARK  1 active torsions:
REMARK  status: ('A' for Active; 'I' for Inactive)
REMARK       I    between atoms: C2_5  and  N4_7 
REMARK    1  A    between atoms: N4_7  and  N5_9 
ROOT
HETATM    1  N1  UNL     1     306.962 216.781 330.259  1.00  0.00    -0.172 NA
HETATM    2  C1  UNL     1     305.973 217.193 330.698  1.00  0.00     0.184 C 
HETATM    3  N2  UNL     1     304.774 217.703 331.241  1.00  0.00    -0.266 N 
ATOM      4  H2  UNL     1     304.122 217.066 331.696  1.00  0.00     0.180 HD
HETATM    5  C2  UNL     1     304.488 218.958 331.172  1.00  0.00     0.216 C 
HETATM    6  N3  UNL     1     305.373 219.878 330.545  1.00  0.00    -0.061 NA
HETATM    7  N4  UNL     1     303.257 219.379 331.748  1.00  0.00    -0.271 N 
ATOM      8  H4  UNL     1     303.209 219.741 332.700  1.00  0.00     0.189 HD
ENDROOT
BRANCH   7   9
HETATM    9  N5  UNL     1     302.117 219.273 330.948  1.00  0.00    -0.274 N 
HETATM   10  C3  UNL     1     301.288 218.291 331.050  1.00  0.00     0.215 C 
HETATM   11  N6  UNL     1     300.154 218.264 330.195  1.00  0.00    -0.065 NA
HETATM   12  N7  UNL     1     301.546 217.284 332.010  1.00  0.00    -0.065 NA
ATOM     13  H5  UNL     1     301.934 219.999 330.257  1.00  0.00     0.189 HD
ENDBRANCH   7   9
TORSDOF 1
ENDMDL
