MODEL 1
REMARK VINA RESULT: -5.499181537      0.000      0.000
REMARK  3 active torsions:
REMARK  status: ('A' for Active; 'I' for Inactive)
REMARK    1  A    between atoms: N1_1  and  N2_4 
REMARK    2  A    between atoms: C1_7  and  N4_8 
REMARK    3  A    between atoms: N4_8  and  C2_10 
ROOT
HETATM    1  N2  UNL     1     305.953 218.363 330.560  1.00  0.00    -0.108 N 
HETATM    2  N3  UNL     1     306.138 218.736 331.833  1.00  0.00    -0.093 N 
ATOM      3  H3  UNL     1     306.431 218.107 332.582  1.00  0.00     0.209 HD
HETATM    4  C1  UNL     1     305.889 220.042 331.995  1.00  0.00     0.717 A 
HETATM    5  N5  UNL     1     305.536 220.473 330.747  1.00  0.00    -0.113 N 
ATOM      6  H5  UNL     1     305.278 221.428 330.498  1.00  0.00     0.207 HD
HETATM    7  N6  UNL     1     305.584 219.450 329.917  1.00  0.00    -0.192 N 
ATOM      8  H6  UNL     1     305.367 219.494 328.922  1.00  0.00     0.212 HD
ENDROOT
BRANCH   4   9
HETATM    9  N4  UNL     1     305.975 220.705 333.094  1.00  0.00    -0.165 N 
ATOM     10  H4  UNL     1     306.532 221.558 333.143  1.00  0.00     0.186 HD
BRANCH   9  11
HETATM   11  C2  UNL     1     305.287 220.233 334.230  1.00  0.00     0.368 C 
HETATM   12  O1  UNL     1     305.446 219.056 334.597  1.00  0.00    -0.283 OA
ENDBRANCH   9  11
ENDBRANCH   4   9
BRANCH   1  13
HETATM   13  N1  UNL     1     306.132 217.060 330.067  1.00  0.00    -0.307 N 
ATOM     14  H12 UNL     1     305.823 216.174 330.465  1.00  0.00     0.180 HD
ATOM     15  H11 UNL     1     306.620 216.823 329.202  1.00  0.00     0.180 HD
ENDBRANCH   1  13
TORSDOF 3
ENDMDL
MODEL 2
REMARK VINA RESULT: -5.196438995      2.227      3.592
REMARK  3 active torsions:
REMARK  status: ('A' for Active; 'I' for Inactive)
REMARK    1  A    between atoms: N1_1  and  N2_4 
REMARK    2  A    between atoms: C1_7  and  N4_8 
REMARK    3  A    between atoms: N4_8  and  C2_10 
ROOT
HETATM    1  N2  UNL     1     305.895 220.673 332.806  1.00  0.00    -0.108 N 
HETATM    2  N3  UNL     1     306.061 219.440 332.308  1.00  0.00    -0.093 N 
ATOM      3  H3  UNL     1     306.391 218.639 332.848  1.00  0.00     0.209 HD
HETATM    4  C1  UNL     1     305.737 219.396 331.009  1.00  0.00     0.717 A 
HETATM    5  N5  UNL     1     305.355 220.676 330.716  1.00  0.00    -0.113 N 
ATOM      6  H5  UNL     1     305.039 221.008 329.805  1.00  0.00     0.207 HD
HETATM    7  N6  UNL     1     305.461 221.409 331.806  1.00  0.00    -0.192 N 
ATOM      8  H6  UNL     1     305.239 222.402 331.866  1.00  0.00     0.212 HD
ENDROOT
BRANCH   4   9
HETATM    9  N4  UNL     1     305.786 218.363 330.245  1.00  0.00    -0.165 N 
ATOM     10  H4  UNL     1     305.534 218.434 329.259  1.00  0.00     0.186 HD
BRANCH   9  11
HETATM   11  C2  UNL     1     306.194 217.130 330.793  1.00  0.00     0.368 C 
HETATM   12  O1  UNL     1     307.172 216.536 330.306  1.00  0.00    -0.283 OA
ENDBRANCH   9  11
ENDBRANCH   4   9
BRANCH   1  13
HETATM   13  N1  UNL     1     306.148 221.047 334.136  1.00  0.00    -0.307 N 
ATOM     14  H12 UNL     1     306.907 221.616 334.511  1.00  0.00     0.180 HD
ATOM     15  H11 UNL     1     305.576 220.782 334.938  1.00  0.00     0.180 HD
ENDBRANCH   1  13
TORSDOF 3
ENDMDL
MODEL 3
REMARK VINA RESULT: -4.904465776      2.009      2.244
REMARK  3 active torsions:
REMARK  status: ('A' for Active; 'I' for Inactive)
REMARK    1  A    between atoms: N1_1  and  N2_4 
REMARK    2  A    between atoms: C1_7  and  N4_8 
REMARK    3  A    between atoms: N4_8  and  C2_10 
ROOT
HETATM    1  N2  UNL     1     304.051 217.780 331.406  1.00  0.00    -0.108 N 
HETATM    2  N3  UNL     1     304.148 218.430 332.574  1.00  0.00    -0.093 N 
ATOM      3  H3  UNL     1     303.364 218.607 333.202  1.00  0.00     0.209 HD
HETATM    4  C1  UNL     1     305.409 218.817 332.807  1.00  0.00     0.717 A 
HETATM    5  N5  UNL     1     306.103 218.371 331.717  1.00  0.00    -0.113 N 
ATOM      6  H5  UNL     1     307.103 218.492 331.560  1.00  0.00     0.207 HD
HETATM    7  N6  UNL     1     305.266 217.759 330.904  1.00  0.00    -0.192 N 
ATOM      8  H6  UNL     1     305.523 217.332 330.015  1.00  0.00     0.212 HD
ENDROOT
BRANCH   4   9
HETATM    9  N4  UNL     1     305.831 219.461 333.838  1.00  0.00    -0.165 N 
ATOM     10  H4  UNL     1     306.158 218.960 334.664  1.00  0.00     0.186 HD
BRANCH   9  11
HETATM   11  C2  UNL     1     305.834 220.870 333.807  1.00  0.00     0.368 C 
HETATM   12  O1  UNL     1     306.164 221.460 332.763  1.00  0.00    -0.283 OA
ENDBRANCH   9  11
ENDBRANCH   4   9
BRANCH   1  13
HETATM   13  N1  UNL     1     302.864 217.248 330.875  1.00  0.00    -0.307 N 
ATOM     14  H12 UNL     1     302.066 217.736 330.469  1.00  0.00     0.180 HD
ATOM     15  H11 UNL     1     302.637 216.254 330.827  1.00  0.00     0.180 HD
ENDBRANCH   1  13
TORSDOF 3
ENDMDL
MODEL 4
REMARK VINA RESULT: -4.899093755      1.752      2.025
REMARK  3 active torsions:
REMARK  status: ('A' for Active; 'I' for Inactive)
REMARK    1  A    between atoms: N1_1  and  N2_4 
REMARK    2  A    between atoms: C1_7  and  N4_8 
REMARK    3  A    between atoms: N4_8  and  C2_10 
ROOT
HETATM    1  N2  UNL     1     306.031 217.595 330.980  1.00  0.00    -0.108 N 
HETATM    2  N3  UNL     1     306.302 218.907 330.968  1.00  0.00    -0.093 N 
ATOM      3  H3  UNL     1     307.243 219.301 330.968  1.00  0.00     0.209 HD
HETATM    4  C1  UNL     1     305.176 219.632 330.955  1.00  0.00     0.717 A 
HETATM    5  N5  UNL     1     304.177 218.699 330.959  1.00  0.00    -0.113 N 
ATOM      6  H5  UNL     1     303.176 218.899 330.951  1.00  0.00     0.207 HD
HETATM    7  N6  UNL     1     304.719 217.499 330.974  1.00  0.00    -0.192 N 
ATOM      8  H6  UNL     1     304.198 216.622 330.981  1.00  0.00     0.212 HD
ENDROOT
BRANCH   4   9
HETATM    9  N4  UNL     1     305.095 220.916 330.941  1.00  0.00    -0.165 N 
ATOM     10  H4  UNL     1     304.860 221.412 330.081  1.00  0.00     0.186 HD
BRANCH   9  11
HETATM   11  C2  UNL     1     305.339 221.627 332.134  1.00  0.00     0.368 C 
HETATM   12  O1  UNL     1     306.337 221.348 332.821  1.00  0.00    -0.283 OA
ENDBRANCH   9  11
ENDBRANCH   4   9
BRANCH   1  13
HETATM   13  N1  UNL     1     306.994 216.572 330.996  1.00  0.00    -0.307 N 
ATOM     14  H12 UNL     1     307.992 216.632 331.196  1.00  0.00     0.180 HD
ATOM     15  H11 UNL     1     306.807 215.588 330.798  1.00  0.00     0.180 HD
ENDBRANCH   1  13
TORSDOF 3
ENDMDL
MODEL 5
REMARK VINA RESULT: -4.798619195      2.764      3.521
REMARK  3 active torsions:
REMARK  status: ('A' for Active; 'I' for Inactive)
REMARK    1  A    between atoms: N1_1  and  N2_4 
REMARK    2  A    between atoms: C1_7  and  N4_8 
REMARK    3  A    between atoms: N4_8  and  C2_10 
ROOT
HETATM    1  N2  UNL     1     303.715 219.901 330.871  1.00  0.00    -0.108 N 
HETATM    2  N3  UNL     1     304.359 218.841 331.379  1.00  0.00    -0.093 N 
ATOM      3  H3  UNL     1     303.917 218.113 331.941  1.00  0.00     0.209 HD
HETATM    4  C1  UNL     1     305.658 218.864 331.053  1.00  0.00     0.717 A 
HETATM    5  N5  UNL     1     305.796 220.001 330.307  1.00  0.00    -0.113 N 
ATOM      6  H5  UNL     1     306.664 220.336 329.889  1.00  0.00     0.207 HD
HETATM    7  N6  UNL     1     304.622 220.594 330.219  1.00  0.00    -0.192 N 
ATOM      8  H6  UNL     1     304.444 221.464 329.717  1.00  0.00     0.212 HD
ENDROOT
BRANCH   4   9
HETATM    9  N4  UNL     1     306.543 217.992 331.386  1.00  0.00    -0.165 N 
ATOM     10  H4  UNL     1     307.167 218.161 332.175  1.00  0.00     0.186 HD
BRANCH   9  11
HETATM   11  C2  UNL     1     306.637 216.799 330.641  1.00  0.00     0.368 C 
HETATM   12  O1  UNL     1     306.799 216.855 329.410  1.00  0.00    -0.283 OA
ENDBRANCH   9  11
ENDBRANCH   4   9
BRANCH   1  13
HETATM   13  N1  UNL     1     302.345 220.167 331.033  1.00  0.00    -0.307 N 
ATOM     14  H12 UNL     1     301.572 219.512 331.150  1.00  0.00     0.180 HD
ATOM     15  H11 UNL     1     301.927 221.098 331.056  1.00  0.00     0.180 HD
ENDBRANCH   1  13
TORSDOF 3
ENDMDL
