MODEL 1
REMARK VINA RESULT: -5.582314742      0.000      0.000
REMARK  2 active torsions:
REMARK  status: ('A' for Active; 'I' for Inactive)
REMARK    1  A    between atoms: N1_1  and  N2_4 
REMARK    2  A    between atoms: N2_4  and  N3_6 
ROOT
HETATM    1  N3  UNL     1     303.654 219.351 331.282  1.00  0.00    -0.109 N 
HETATM    2  N4  UNL     1     304.238 220.458 331.876  1.00  0.00    -0.213 N 
ATOM      3  H4  UNL     1     303.657 221.236 332.188  1.00  0.00     0.195 HD
HETATM    4  C1  UNL     1     305.644 220.507 332.049  1.00  0.00     0.345 A 
HETATM    5  O1  UNL     1     306.181 221.537 332.600  1.00  0.00    -0.245 OA
HETATM    6  N5  UNL     1     306.515 219.460 331.638  1.00  0.00    -0.258 N 
ATOM      7  H5  UNL     1     307.525 219.505 331.768  1.00  0.00     0.175 HD
HETATM    8  C2  UNL     1     305.872 218.341 331.031  1.00  0.00     0.345 A 
HETATM    9  O2  UNL     1     306.618 217.387 330.651  1.00  0.00    -0.245 OA
HETATM   10  N6  UNL     1     304.459 218.298 330.861  1.00  0.00    -0.213 N 
ATOM     11  H6  UNL     1     304.031 217.481 330.424  1.00  0.00     0.195 HD
ENDROOT
BRANCH   1  12
HETATM   12  N2  UNL     1     302.253 219.274 331.097  1.00  0.00    -0.212 N 
ATOM     13  H2  UNL     1     301.622 220.043 331.323  1.00  0.00     0.211 HD
BRANCH  12  14
HETATM   14  N1  UNL     1     301.843 218.151 330.621  1.00  0.00    -0.328 N 
ATOM     15  H12 UNL     1     301.580 217.372 331.225  1.00  0.00     0.178 HD
ATOM     16  H11 UNL     1     301.807 218.117 329.602  1.00  0.00     0.178 HD
ENDBRANCH  12  14
ENDBRANCH   1  12
TORSDOF 2
ENDMDL
MODEL 2
REMARK VINA RESULT: -5.562266746      0.031      2.559
REMARK  2 active torsions:
REMARK  status: ('A' for Active; 'I' for Inactive)
REMARK    1  A    between atoms: N1_1  and  N2_4 
REMARK    2  A    between atoms: N2_4  and  N3_6 
ROOT
HETATM    1  N3  UNL     1     303.673 219.351 331.267  1.00  0.00    -0.109 N 
HETATM    2  N4  UNL     1     304.477 218.302 330.849  1.00  0.00    -0.213 N 
ATOM      3  H4  UNL     1     304.059 217.484 330.407  1.00  0.00     0.195 HD
HETATM    4  C1  UNL     1     305.880 218.370 331.037  1.00  0.00     0.345 A 
HETATM    5  O1  UNL     1     306.622 217.394 330.648  1.00  0.00    -0.245 OA
HETATM    6  N5  UNL     1     306.530 219.480 331.646  1.00  0.00    -0.258 N 
ATOM      7  H5  UNL     1     307.541 219.519 331.775  1.00  0.00     0.175 HD
HETATM    8  C2  UNL     1     305.665 220.535 332.061  1.00  0.00     0.345 A 
HETATM    9  O2  UNL     1     306.210 221.543 332.609  1.00  0.00    -0.245 OA
HETATM   10  N6  UNL     1     304.257 220.461 331.868  1.00  0.00    -0.213 N 
ATOM     11  H6  UNL     1     303.667 221.234 332.176  1.00  0.00     0.195 HD
ENDROOT
BRANCH   1  12
HETATM   12  N2  UNL     1     302.269 219.311 331.092  1.00  0.00    -0.212 N 
ATOM     13  H2  UNL     1     301.660 220.097 331.319  1.00  0.00     0.211 HD
BRANCH  12  14
HETATM   14  N1  UNL     1     301.827 218.198 330.621  1.00  0.00    -0.328 N 
ATOM     15  H12 UNL     1     301.292 217.544 331.193  1.00  0.00     0.178 HD
ATOM     16  H11 UNL     1     302.058 218.037 329.641  1.00  0.00     0.178 HD
ENDBRANCH  12  14
ENDBRANCH   1  12
TORSDOF 2
ENDMDL
MODEL 3
REMARK VINA RESULT: -5.470009159      2.293      3.774
REMARK  2 active torsions:
REMARK  status: ('A' for Active; 'I' for Inactive)
REMARK    1  A    between atoms: N1_1  and  N2_4 
REMARK    2  A    between atoms: N2_4  and  N3_6 
ROOT
HETATM    1  N3  UNL     1     305.606 219.782 332.184  1.00  0.00    -0.109 N 
HETATM    2  N4  UNL     1     306.452 218.886 331.550  1.00  0.00    -0.213 N 
ATOM      3  H4  UNL     1     307.455 219.068 331.515  1.00  0.00     0.195 HD
HETATM    4  C1  UNL     1     305.921 217.716 330.952  1.00  0.00     0.345 A 
HETATM    5  O1  UNL     1     306.709 216.888 330.364  1.00  0.00    -0.245 OA
HETATM    6  N5  UNL     1     304.534 217.398 330.964  1.00  0.00    -0.258 N 
ATOM      7  H5  UNL     1     304.162 216.553 330.531  1.00  0.00     0.175 HD
HETATM    8  C2  UNL     1     303.701 218.348 331.626  1.00  0.00     0.345 A 
HETATM    9  O2  UNL     1     302.456 218.097 331.656  1.00  0.00    -0.245 OA
HETATM   10  N6  UNL     1     304.241 219.520 332.225  1.00  0.00    -0.213 N 
ATOM     11  H6  UNL     1     303.617 220.178 332.692  1.00  0.00     0.195 HD
ENDROOT
BRANCH   1  12
HETATM   12  N2  UNL     1     306.109 220.958 332.791  1.00  0.00    -0.212 N 
ATOM     13  H2  UNL     1     306.465 221.749 332.255  1.00  0.00     0.211 HD
BRANCH  12  14
HETATM   14  N1  UNL     1     306.079 220.943 334.077  1.00  0.00    -0.328 N 
ATOM     15  H12 UNL     1     306.690 221.537 334.638  1.00  0.00     0.178 HD
ATOM     16  H11 UNL     1     305.399 220.294 334.473  1.00  0.00     0.178 HD
ENDBRANCH  12  14
ENDBRANCH   1  12
TORSDOF 2
ENDMDL
MODEL 4
REMARK VINA RESULT: -5.462739112      2.296      3.368
REMARK  2 active torsions:
REMARK  status: ('A' for Active; 'I' for Inactive)
REMARK    1  A    between atoms: N1_1  and  N2_4 
REMARK    2  A    between atoms: N2_4  and  N3_6 
ROOT
HETATM    1  N3  UNL     1     305.584 219.780 332.195  1.00  0.00    -0.109 N 
HETATM    2  N4  UNL     1     304.225 219.511 332.237  1.00  0.00    -0.213 N 
ATOM      3  H4  UNL     1     303.590 220.157 332.704  1.00  0.00     0.195 HD
HETATM    4  C1  UNL     1     303.719 218.335 331.627  1.00  0.00     0.345 A 
HETATM    5  O1  UNL     1     302.458 218.089 331.669  1.00  0.00    -0.245 OA
HETATM    6  N5  UNL     1     304.546 217.390 330.958  1.00  0.00    -0.258 N 
ATOM      7  H5  UNL     1     304.171 216.547 330.522  1.00  0.00     0.175 HD
HETATM    8  C2  UNL     1     305.936 217.707 330.940  1.00  0.00     0.345 A 
HETATM    9  O2  UNL     1     306.705 216.886 330.351  1.00  0.00    -0.245 OA
HETATM   10  N6  UNL     1     306.436 218.890 331.553  1.00  0.00    -0.213 N 
ATOM     11  H6  UNL     1     307.437 219.087 331.520  1.00  0.00     0.195 HD
ENDROOT
BRANCH   1  12
HETATM   12  N2  UNL     1     306.116 220.947 332.794  1.00  0.00    -0.212 N 
ATOM     13  H2  UNL     1     306.496 221.723 332.252  1.00  0.00     0.211 HD
BRANCH  12  14
HETATM   14  N1  UNL     1     306.079 220.945 334.080  1.00  0.00    -0.328 N 
ATOM     15  H12 UNL     1     305.713 220.153 334.608  1.00  0.00     0.178 HD
ATOM     16  H11 UNL     1     306.443 221.795 334.511  1.00  0.00     0.178 HD
ENDBRANCH  12  14
ENDBRANCH   1  12
TORSDOF 2
ENDMDL
MODEL 5
REMARK VINA RESULT: -5.388597111      2.087      3.515
REMARK  2 active torsions:
REMARK  status: ('A' for Active; 'I' for Inactive)
REMARK    1  A    between atoms: N1_1  and  N2_4 
REMARK    2  A    between atoms: N2_4  and  N3_6 
ROOT
HETATM    1  N3  UNL     1     305.779 218.357 331.354  1.00  0.00    -0.109 N 
HETATM    2  N4  UNL     1     304.407 218.369 331.159  1.00  0.00    -0.213 N 
ATOM      3  H4  UNL     1     303.939 217.549 330.773  1.00  0.00     0.195 HD
HETATM    4  C1  UNL     1     303.656 219.522 331.499  1.00  0.00     0.345 A 
HETATM    5  O1  UNL     1     302.383 219.529 331.316  1.00  0.00    -0.245 OA
HETATM    6  N5  UNL     1     304.243 220.699 332.042  1.00  0.00    -0.258 N 
ATOM      7  H5  UNL     1     303.692 221.524 332.283  1.00  0.00     0.175 HD
HETATM    8  C2  UNL     1     305.656 220.643 332.224  1.00  0.00     0.345 A 
HETATM    9  O2  UNL     1     306.214 221.676 332.706  1.00  0.00    -0.245 OA
HETATM   10  N6  UNL     1     306.403 219.481 331.882  1.00  0.00    -0.213 N 
ATOM     11  H6  UNL     1     307.413 219.474 332.026  1.00  0.00     0.195 HD
ENDROOT
BRANCH   1  12
HETATM   12  N2  UNL     1     306.553 217.219 331.025  1.00  0.00    -0.212 N 
ATOM     13  H2  UNL     1     307.253 216.825 331.654  1.00  0.00     0.211 HD
BRANCH  12  14
HETATM   14  N1  UNL     1     306.300 216.724 329.865  1.00  0.00    -0.328 N 
ATOM     15  H12 UNL     1     306.599 217.184 329.005  1.00  0.00     0.178 HD
ATOM     16  H11 UNL     1     305.782 215.846 329.888  1.00  0.00     0.178 HD
ENDBRANCH  12  14
ENDBRANCH   1  12
TORSDOF 2
ENDMDL
