MODEL 1
REMARK VINA RESULT: -5.116219822      0.000      0.000
REMARK  1 active torsions:
REMARK  status: ('A' for Active; 'I' for Inactive)
REMARK    1  A    between atoms: N3_4  and  N4_6 
ROOT
HETATM    1  N4  UNL     1     303.194 218.037 331.238  1.00  0.00    -0.269 N 
ATOM      2  H4  UNL     1     303.675 218.385 330.407  1.00  0.00     0.190 HD
HETATM    3  C2  UNL     1     302.243 217.202 331.069  1.00  0.00     0.206 A 
HETATM    4  N5  UNL     1     301.651 216.598 329.937  1.00  0.00    -0.279 N 
ATOM      5  H5  UNL     1     301.802 216.645 328.929  1.00  0.00     0.173 HD
HETATM    6  C3  UNL     1     300.744 215.886 330.805  1.00  0.00     0.329 A 
HETATM    7  O1  UNL     1     299.825 215.073 330.567  1.00  0.00    -0.246 OA
HETATM    8  N6  UNL     1     301.356 216.506 331.928  1.00  0.00    -0.279 N 
ATOM      9  H6  UNL     1     301.216 216.466 332.938  1.00  0.00     0.173 HD
ENDROOT
BRANCH   1  10
HETATM   10  N3  UNL     1     303.613 218.497 332.457  1.00  0.00    -0.273 N 
HETATM   11  C1  UNL     1     304.860 218.340 332.794  1.00  0.00     0.215 C 
HETATM   12  N1  UNL     1     305.732 217.698 331.886  1.00  0.00    -0.065 NA
HETATM   13  N2  UNL     1     305.304 218.818 334.065  1.00  0.00    -0.065 NA
ATOM     14  H3  UNL     1     302.958 218.956 333.090  1.00  0.00     0.189 HD
ENDBRANCH   1  10
TORSDOF 1
ENDMDL
MODEL 2
REMARK VINA RESULT: -5.060894561      0.999      1.697
REMARK  1 active torsions:
REMARK  status: ('A' for Active; 'I' for Inactive)
REMARK    1  A    between atoms: N3_4  and  N4_6 
ROOT
HETATM    1  N4  UNL     1     302.928 218.204 331.813  1.00  0.00    -0.269 N 
ATOM      2  H4  UNL     1     302.928 218.468 332.798  1.00  0.00     0.190 HD
HETATM    3  C2  UNL     1     302.098 217.310 331.436  1.00  0.00     0.206 A 
HETATM    4  N5  UNL     1     301.109 216.544 332.093  1.00  0.00    -0.279 N 
ATOM      5  H5  UNL     1     300.764 216.474 333.050  1.00  0.00     0.173 HD
HETATM    6  C3  UNL     1     300.790 215.902 330.840  1.00  0.00     0.329 A 
HETATM    7  O1  UNL     1     299.953 215.023 330.540  1.00  0.00    -0.246 OA
HETATM    8  N6  UNL     1     301.790 216.685 330.202  1.00  0.00    -0.279 N 
ATOM      9  H6  UNL     1     302.142 216.764 329.247  1.00  0.00     0.173 HD
ENDROOT
BRANCH   1  10
HETATM   10  N3  UNL     1     303.819 218.831 330.985  1.00  0.00    -0.273 N 
HETATM   11  C1  UNL     1     305.094 218.659 331.184  1.00  0.00     0.215 C 
HETATM   12  N1  UNL     1     305.506 217.830 332.252  1.00  0.00    -0.065 NA
HETATM   13  N2  UNL     1     306.028 219.311 330.323  1.00  0.00    -0.065 NA
ATOM     14  H3  UNL     1     303.489 219.424 330.223  1.00  0.00     0.189 HD
ENDBRANCH   1  10
TORSDOF 1
ENDMDL
MODEL 3
REMARK VINA RESULT: -4.958181848      3.303      5.240
REMARK  1 active torsions:
REMARK  status: ('A' for Active; 'I' for Inactive)
REMARK    1  A    between atoms: N3_4  and  N4_6 
ROOT
HETATM    1  N4  UNL     1     303.476 218.243 331.055  1.00  0.00    -0.269 N 
ATOM      2  H4  UNL     1     303.885 217.329 330.862  1.00  0.00     0.190 HD
HETATM    3  C2  UNL     1     304.247 219.156 331.505  1.00  0.00     0.206 A 
HETATM    4  N5  UNL     1     305.623 219.216 331.823  1.00  0.00    -0.279 N 
ATOM      5  H5  UNL     1     306.403 218.560 331.789  1.00  0.00     0.173 HD
HETATM    6  C3  UNL     1     305.460 220.595 332.215  1.00  0.00     0.329 A 
HETATM    7  O1  UNL     1     306.271 221.441 332.653  1.00  0.00    -0.246 OA
HETATM    8  N6  UNL     1     304.080 220.510 331.888  1.00  0.00    -0.279 N 
ATOM      9  H6  UNL     1     303.292 221.158 331.916  1.00  0.00     0.173 HD
ENDROOT
BRANCH   1  10
HETATM   10  N3  UNL     1     302.139 218.409 330.815  1.00  0.00    -0.273 N 
HETATM   11  C1  UNL     1     301.398 217.355 330.625  1.00  0.00     0.215 C 
HETATM   12  N1  UNL     1     302.008 216.081 330.674  1.00  0.00    -0.065 NA
HETATM   13  N2  UNL     1     300.002 217.521 330.374  1.00  0.00    -0.065 NA
ATOM     14  H3  UNL     1     301.730 219.343 330.785  1.00  0.00     0.189 HD
ENDBRANCH   1  10
TORSDOF 1
ENDMDL
MODEL 4
REMARK VINA RESULT: -4.946489300      1.911      2.426
REMARK  1 active torsions:
REMARK  status: ('A' for Active; 'I' for Inactive)
REMARK    1  A    between atoms: N3_4  and  N4_6 
ROOT
HETATM    1  N4  UNL     1     303.727 218.148 331.404  1.00  0.00    -0.269 N 
ATOM      2  H4  UNL     1     304.026 218.922 331.997  1.00  0.00     0.190 HD
HETATM    3  C2  UNL     1     302.488 218.068 331.109  1.00  0.00     0.206 A 
HETATM    4  N5  UNL     1     301.348 218.842 331.425  1.00  0.00    -0.279 N 
ATOM      5  H5  UNL     1     301.173 219.684 331.972  1.00  0.00     0.173 HD
HETATM    6  C3  UNL     1     300.535 217.940 330.645  1.00  0.00     0.329 A 
HETATM    7  O1  UNL     1     299.309 217.923 330.396  1.00  0.00    -0.246 OA
HETATM    8  N6  UNL     1     301.695 217.179 330.341  1.00  0.00    -0.279 N 
ATOM      9  H6  UNL     1     301.882 216.337 329.795  1.00  0.00     0.173 HD
ENDROOT
BRANCH   1  10
HETATM   10  N3  UNL     1     304.683 217.266 330.977  1.00  0.00    -0.273 N 
HETATM   11  C1  UNL     1     305.881 217.709 330.724  1.00  0.00     0.215 C 
HETATM   12  N1  UNL     1     306.145 219.085 330.902  1.00  0.00    -0.065 NA
HETATM   13  N2  UNL     1     306.882 216.793 330.279  1.00  0.00    -0.065 NA
ATOM     14  H3  UNL     1     304.459 216.278 330.858  1.00  0.00     0.189 HD
ENDBRANCH   1  10
TORSDOF 1
ENDMDL
MODEL 5
REMARK VINA RESULT: -4.848318215      2.848      4.861
REMARK  1 active torsions:
REMARK  status: ('A' for Active; 'I' for Inactive)
REMARK    1  A    between atoms: N3_4  and  N4_6 
ROOT
HETATM    1  N4  UNL     1     303.056 217.919 330.903  1.00  0.00    -0.269 N 
ATOM      2  H4  UNL     1     303.473 217.344 330.171  1.00  0.00     0.190 HD
HETATM    3  C2  UNL     1     303.795 218.254 331.889  1.00  0.00     0.206 A 
HETATM    4  N5  UNL     1     305.141 218.009 332.240  1.00  0.00    -0.279 N 
ATOM      5  H5  UNL     1     305.918 217.499 331.820  1.00  0.00     0.173 HD
HETATM    6  C3  UNL     1     304.957 218.783 333.443  1.00  0.00     0.329 A 
HETATM    7  O1  UNL     1     305.736 219.075 334.378  1.00  0.00    -0.246 OA
HETATM    8  N6  UNL     1     303.606 219.017 333.069  1.00  0.00    -0.279 N 
ATOM      9  H6  UNL     1     302.822 219.525 333.479  1.00  0.00     0.173 HD
ENDROOT
BRANCH   1  10
HETATM   10  N3  UNL     1     301.743 218.279 330.762  1.00  0.00    -0.273 N 
HETATM   11  C1  UNL     1     300.851 217.348 330.584  1.00  0.00     0.215 C 
HETATM   12  N1  UNL     1     301.276 216.001 330.543  1.00  0.00    -0.065 NA
HETATM   13  N2  UNL     1     299.479 217.717 330.437  1.00  0.00    -0.065 NA
ATOM     14  H3  UNL     1     301.469 219.261 330.796  1.00  0.00     0.189 HD
ENDBRANCH   1  10
TORSDOF 1
ENDMDL
