MODEL 1
REMARK VINA RESULT: -5.075964222      0.000      0.000
REMARK  2 active torsions:
REMARK  status: ('A' for Active; 'I' for Inactive)
REMARK    1  A    between atoms: C1_2  and  C2_4 
REMARK    2  A    between atoms: C2_4  and  N2_5 
ROOT
HETATM    1  C2  UNL     1     305.432 219.231 332.293  1.00  0.00     0.360 C 
HETATM    2  N3  UNL     1     305.749 217.858 332.033  1.00  0.00    -0.035 NA
HETATM    3  O2  UNL     1     304.647 217.650 331.283  1.00  0.00    -0.223 OA
HETATM    4  C3  UNL     1     304.328 219.020 331.361  1.00  0.00     0.200 C 
HETATM    5  N4  UNL     1     303.424 219.820 330.866  1.00  0.00    -0.378 N 
ATOM      6  H41 UNL     1     302.653 219.673 330.215  1.00  0.00     0.158 HD
ATOM      7  H42 UNL     1     303.193 220.812 330.922  1.00  0.00     0.158 HD
ENDROOT
BRANCH   1   8
HETATM    8  C1  UNL     1     305.142 219.367 333.759  1.00  0.00     0.295 C 
HETATM    9  N1  UNL     1     303.974 220.095 334.093  1.00  0.00    -0.058 NA
HETATM   10  O1  UNL     1     305.841 218.898 334.658  1.00  0.00    -0.272 OA
ENDBRANCH   1   8
BRANCH   1  11
HETATM   11  N2  UNL     1     306.504 220.124 331.867  1.00  0.00    -0.037 N 
ATOM     12  H23 UNL     1     306.358 220.449 330.912  1.00  0.00     0.278 HD
ATOM     13  H22 UNL     1     306.454 221.021 332.350  1.00  0.00     0.278 HD
ATOM     14  H21 UNL     1     307.423 219.694 331.978  1.00  0.00     0.278 HD
ENDBRANCH   1  11
TORSDOF 2
ENDMDL
MODEL 2
REMARK VINA RESULT: -5.005539701      1.793      2.623
REMARK  2 active torsions:
REMARK  status: ('A' for Active; 'I' for Inactive)
REMARK    1  A    between atoms: C1_2  and  C2_4 
REMARK    2  A    between atoms: C2_4  and  N2_5 
ROOT
HETATM    1  C2  UNL     1     304.562 218.767 331.559  1.00  0.00     0.360 C 
HETATM    2  N3  UNL     1     304.763 219.955 330.784  1.00  0.00    -0.035 NA
HETATM    3  O2  UNL     1     306.016 219.613 330.416  1.00  0.00    -0.223 OA
HETATM    4  C3  UNL     1     305.859 218.355 331.029  1.00  0.00     0.200 C 
HETATM    5  N4  UNL     1     306.551 217.255 331.144  1.00  0.00    -0.378 N 
ATOM      6  H41 UNL     1     307.457 216.967 330.774  1.00  0.00     0.158 HD
ATOM      7  H42 UNL     1     306.438 216.344 331.588  1.00  0.00     0.158 HD
ENDROOT
BRANCH   1   8
HETATM    8  C1  UNL     1     304.451 219.170 333.000  1.00  0.00     0.295 C 
HETATM    9  N1  UNL     1     305.449 218.658 333.864  1.00  0.00    -0.058 NA
HETATM   10  O1  UNL     1     303.568 219.897 333.458  1.00  0.00    -0.272 OA
ENDBRANCH   1   8
BRANCH   1  11
HETATM   11  N2  UNL     1     303.391 218.022 331.113  1.00  0.00    -0.037 N 
ATOM     12  H23 UNL     1     302.938 217.541 331.890  1.00  0.00     0.278 HD
ATOM     13  H22 UNL     1     302.631 218.648 330.848  1.00  0.00     0.278 HD
ATOM     14  H21 UNL     1     303.618 217.374 330.358  1.00  0.00     0.278 HD
ENDBRANCH   1  11
TORSDOF 2
ENDMDL
MODEL 3
REMARK VINA RESULT: -4.986036734      1.334      1.464
REMARK  2 active torsions:
REMARK  status: ('A' for Active; 'I' for Inactive)
REMARK    1  A    between atoms: C1_2  and  C2_4 
REMARK    2  A    between atoms: C2_4  and  N2_5 
ROOT
HETATM    1  C2  UNL     1     305.306 218.888 332.054  1.00  0.00     0.360 C 
HETATM    2  N3  UNL     1     304.121 218.103 332.236  1.00  0.00    -0.035 NA
HETATM    3  O2  UNL     1     303.385 218.849 331.386  1.00  0.00    -0.223 OA
HETATM    4  C3  UNL     1     304.531 219.587 331.032  1.00  0.00     0.200 C 
HETATM    5  N4  UNL     1     304.835 220.531 330.185  1.00  0.00    -0.378 N 
ATOM      6  H41 UNL     1     304.295 221.019 329.470  1.00  0.00     0.158 HD
ATOM      7  H42 UNL     1     305.665 221.066 329.928  1.00  0.00     0.158 HD
ENDROOT
BRANCH   1   8
HETATM    8  C1  UNL     1     305.604 219.580 333.351  1.00  0.00     0.295 C 
HETATM    9  N1  UNL     1     305.880 220.967 333.263  1.00  0.00    -0.058 NA
HETATM   10  O1  UNL     1     305.623 219.028 334.452  1.00  0.00    -0.272 OA
ENDBRANCH   1   8
BRANCH   1  11
HETATM   11  N2  UNL     1     306.429 218.076 331.602  1.00  0.00    -0.037 N 
ATOM     12  H23 UNL     1     306.712 218.328 330.655  1.00  0.00     0.278 HD
ATOM     13  H22 UNL     1     307.287 218.321 332.096  1.00  0.00     0.278 HD
ATOM     14  H21 UNL     1     306.230 217.078 331.677  1.00  0.00     0.278 HD
ENDBRANCH   1  11
TORSDOF 2
ENDMDL
MODEL 4
REMARK VINA RESULT: -4.924582957      2.030      2.570
REMARK  2 active torsions:
REMARK  status: ('A' for Active; 'I' for Inactive)
REMARK    1  A    between atoms: C1_2  and  C2_4 
REMARK    2  A    between atoms: C2_4  and  N2_5 
ROOT
HETATM    1  C2  UNL     1     305.323 218.259 331.265  1.00  0.00     0.360 C 
HETATM    2  N3  UNL     1     305.656 218.044 332.642  1.00  0.00    -0.035 NA
HETATM    3  O2  UNL     1     304.374 217.845 333.015  1.00  0.00    -0.223 OA
HETATM    4  C3  UNL     1     303.967 217.896 331.668  1.00  0.00     0.200 C 
HETATM    5  N4  UNL     1     302.860 217.733 330.998  1.00  0.00    -0.378 N 
ATOM      6  H41 UNL     1     301.913 217.479 331.279  1.00  0.00     0.158 HD
ATOM      7  H42 UNL     1     302.565 217.770 330.022  1.00  0.00     0.158 HD
ENDROOT
BRANCH   1   8
HETATM    8  C1  UNL     1     305.634 219.688 330.933  1.00  0.00     0.295 C 
HETATM    9  N1  UNL     1     304.542 220.470 330.484  1.00  0.00    -0.058 NA
HETATM   10  O1  UNL     1     306.749 220.203 331.026  1.00  0.00    -0.272 OA
ENDBRANCH   1   8
BRANCH   1  11
HETATM   11  N2  UNL     1     306.029 217.333 330.387  1.00  0.00    -0.037 N 
ATOM     12  H23 UNL     1     306.391 217.807 329.560  1.00  0.00     0.278 HD
ATOM     13  H22 UNL     1     306.913 217.033 330.798  1.00  0.00     0.278 HD
ATOM     14  H21 UNL     1     305.448 216.533 330.133  1.00  0.00     0.278 HD
ENDBRANCH   1  11
TORSDOF 2
ENDMDL
MODEL 5
REMARK VINA RESULT: -4.916774944      1.443      3.076
REMARK  2 active torsions:
REMARK  status: ('A' for Active; 'I' for Inactive)
REMARK    1  A    between atoms: C1_2  and  C2_4 
REMARK    2  A    between atoms: C2_4  and  N2_5 
ROOT
HETATM    1  C2  UNL     1     304.887 219.024 332.469  1.00  0.00     0.360 C 
HETATM    2  N3  UNL     1     304.676 218.036 333.485  1.00  0.00    -0.035 NA
HETATM    3  O2  UNL     1     305.375 218.713 334.419  1.00  0.00    -0.223 OA
HETATM    4  C3  UNL     1     305.511 219.802 333.536  1.00  0.00     0.200 C 
HETATM    5  N4  UNL     1     306.005 221.009 333.577  1.00  0.00    -0.378 N 
ATOM      6  H41 UNL     1     306.441 221.553 334.322  1.00  0.00     0.158 HD
ATOM      7  H42 UNL     1     306.104 221.798 332.937  1.00  0.00     0.158 HD
ENDROOT
BRANCH   1   8
HETATM    8  C1  UNL     1     305.749 218.413 331.404  1.00  0.00     0.295 C 
HETATM    9  N1  UNL     1     305.968 219.210 330.254  1.00  0.00    -0.058 NA
HETATM   10  O1  UNL     1     306.259 217.294 331.472  1.00  0.00    -0.272 OA
ENDBRANCH   1   8
BRANCH   1  11
HETATM   11  N2  UNL     1     303.628 219.522 331.929  1.00  0.00    -0.037 N 
ATOM     12  H23 UNL     1     303.508 219.249 330.954  1.00  0.00     0.278 HD
ATOM     13  H22 UNL     1     302.831 219.030 332.331  1.00  0.00     0.278 HD
ATOM     14  H21 UNL     1     303.538 220.532 332.045  1.00  0.00     0.278 HD
ENDBRANCH   1  11
TORSDOF 2
ENDMDL
