MODEL 1
REMARK VINA RESULT: -5.104790846      0.000      0.000
REMARK  1 active torsions:
REMARK  status: ('A' for Active; 'I' for Inactive)
REMARK       I    between atoms: C1_4  and  N3_6 
REMARK    1  A    between atoms: N5_13  and  N6_14 
ROOT
HETATM    1  N1  UNL     1     306.269 219.831 332.165  1.00  0.00    -0.373 N 
ATOM      2  H11 UNL     1     306.344 219.851 331.148  1.00  0.00     0.158 HD
ATOM      3  H12 UNL     1     306.699 220.546 332.751  1.00  0.00     0.158 HD
HETATM    4  C1  UNL     1     305.614 218.883 332.722  1.00  0.00     0.188 C 
HETATM    5  N2  UNL     1     305.509 218.855 334.144  1.00  0.00    -0.064 NA
HETATM    6  N3  UNL     1     305.019 217.894 331.911  1.00  0.00    -0.301 N 
ATOM      7  H3  UNL     1     305.574 217.115 331.555  1.00  0.00     0.171 HD
HETATM    8  C2  UNL     1     303.768 217.986 331.625  1.00  0.00     0.215 A 
HETATM    9  N4  UNL     1     302.858 217.207 330.864  1.00  0.00    -0.277 N 
ATOM     10  H4  UNL     1     302.923 216.346 330.319  1.00  0.00     0.173 HD
HETATM   11  C3  UNL     1     301.820 218.120 331.173  1.00  0.00     0.350 A 
HETATM   12  O1  UNL     1     300.599 218.214 330.897  1.00  0.00    -0.244 OA
HETATM   13  N5  UNL     1     302.718 218.891 331.926  1.00  0.00    -0.179 N 
ENDROOT
BRANCH  13  14
HETATM   14  N6  UNL     1     302.687 220.062 332.682  1.00  0.00    -0.332 N 
ATOM     15  H62 UNL     1     302.794 221.064 332.523  1.00  0.00     0.177 HD
ATOM     16  H61 UNL     1     302.535 220.226 333.678  1.00  0.00     0.177 HD
ENDBRANCH  13  14
TORSDOF 1
ENDMDL
MODEL 2
REMARK VINA RESULT: -4.992795071      1.415      1.699
REMARK  1 active torsions:
REMARK  status: ('A' for Active; 'I' for Inactive)
REMARK       I    between atoms: C1_4  and  N3_6 
REMARK    1  A    between atoms: N5_13  and  N6_14 
ROOT
HETATM    1  N1  UNL     1     305.768 221.832 331.951  1.00  0.00    -0.373 N 
ATOM      2  H11 UNL     1     305.836 221.784 330.935  1.00  0.00     0.158 HD
ATOM      3  H12 UNL     1     305.655 222.718 332.443  1.00  0.00     0.158 HD
HETATM    4  C1  UNL     1     305.824 220.748 332.631  1.00  0.00     0.188 C 
HETATM    5  N2  UNL     1     305.727 220.816 334.052  1.00  0.00    -0.064 NA
HETATM    6  N3  UNL     1     305.980 219.522 331.952  1.00  0.00    -0.301 N 
ATOM      7  H3  UNL     1     306.903 219.215 331.646  1.00  0.00     0.171 HD
HETATM    8  C2  UNL     1     304.943 218.796 331.721  1.00  0.00     0.215 A 
HETATM    9  N4  UNL     1     304.720 217.546 331.086  1.00  0.00    -0.277 N 
ATOM     10  H4  UNL     1     305.312 216.854 330.625  1.00  0.00     0.173 HD
HETATM   11  C3  UNL     1     303.333 217.658 331.356  1.00  0.00     0.350 A 
HETATM   12  O1  UNL     1     302.319 216.953 331.133  1.00  0.00    -0.244 OA
HETATM   13  N5  UNL     1     303.552 218.893 331.984  1.00  0.00    -0.179 N 
ENDROOT
BRANCH  13  14
HETATM   14  N6  UNL     1     302.791 219.871 332.622  1.00  0.00    -0.332 N 
ATOM     15  H62 UNL     1     301.824 220.196 332.617  1.00  0.00     0.177 HD
ATOM     16  H61 UNL     1     303.034 220.574 333.321  1.00  0.00     0.177 HD
ENDBRANCH  13  14
TORSDOF 1
ENDMDL
MODEL 3
REMARK VINA RESULT: -4.973641013      1.815      1.981
REMARK  1 active torsions:
REMARK  status: ('A' for Active; 'I' for Inactive)
REMARK       I    between atoms: C1_4  and  N3_6 
REMARK    1  A    between atoms: N5_13  and  N6_14 
ROOT
HETATM    1  N1  UNL     1     306.588 220.014 331.535  1.00  0.00    -0.373 N 
ATOM      2  H11 UNL     1     306.410 220.867 331.004  1.00  0.00     0.158 HD
ATOM      3  H12 UNL     1     307.435 219.893 332.090  1.00  0.00     0.158 HD
HETATM    4  C1  UNL     1     305.726 219.069 331.505  1.00  0.00     0.188 C 
HETATM    5  N2  UNL     1     305.976 217.878 332.247  1.00  0.00    -0.064 NA
HETATM    6  N3  UNL     1     304.555 219.237 330.736  1.00  0.00    -0.301 N 
ATOM      7  H3  UNL     1     304.569 219.069 329.730  1.00  0.00     0.171 HD
HETATM    8  C2  UNL     1     303.468 219.604 331.320  1.00  0.00     0.215 A 
HETATM    9  N4  UNL     1     302.142 219.867 330.887  1.00  0.00    -0.277 N 
ATOM     10  H4  UNL     1     301.656 219.842 329.990  1.00  0.00     0.173 HD
HETATM   11  C3  UNL     1     301.771 220.178 332.219  1.00  0.00     0.350 A 
HETATM   12  O1  UNL     1     300.714 220.536 332.792  1.00  0.00    -0.244 OA
HETATM   13  N5  UNL     1     303.081 219.919 332.648  1.00  0.00    -0.179 N 
ENDROOT
BRANCH  13  14
HETATM   14  N6  UNL     1     303.794 219.937 333.845  1.00  0.00    -0.332 N 
ATOM     15  H62 UNL     1     303.779 219.444 334.739  1.00  0.00     0.177 HD
ATOM     16  H61 UNL     1     304.585 220.500 334.159  1.00  0.00     0.177 HD
ENDBRANCH  13  14
TORSDOF 1
ENDMDL
MODEL 4
REMARK VINA RESULT: -4.949612343      3.043      3.581
REMARK  1 active torsions:
REMARK  status: ('A' for Active; 'I' for Inactive)
REMARK       I    between atoms: C1_4  and  N3_6 
REMARK    1  A    between atoms: N5_13  and  N6_14 
ROOT
HETATM    1  N1  UNL     1     306.053 221.123 333.192  1.00  0.00    -0.373 N 
ATOM      2  H11 UNL     1     307.060 220.994 333.288  1.00  0.00     0.158 HD
ATOM      3  H12 UNL     1     305.624 222.048 333.207  1.00  0.00     0.158 HD
HETATM    4  C1  UNL     1     305.304 220.095 333.049  1.00  0.00     0.188 C 
HETATM    5  N2  UNL     1     303.897 220.275 332.914  1.00  0.00    -0.064 NA
HETATM    6  N3  UNL     1     305.897 218.815 333.029  1.00  0.00    -0.301 N 
ATOM      7  H3  UNL     1     306.139 218.345 333.902  1.00  0.00     0.171 HD
HETATM    8  C2  UNL     1     306.129 218.248 331.898  1.00  0.00     0.215 A 
HETATM    9  N4  UNL     1     306.694 217.008 331.499  1.00  0.00    -0.277 N 
ATOM     10  H4  UNL     1     307.082 216.200 331.988  1.00  0.00     0.173 HD
HETATM   11  C3  UNL     1     306.495 217.356 330.140  1.00  0.00     0.350 A 
HETATM   12  O1  UNL     1     306.719 216.806 329.034  1.00  0.00    -0.244 OA
HETATM   13  N5  UNL     1     305.937 218.581 330.532  1.00  0.00    -0.179 N 
ENDROOT
BRANCH  13  14
HETATM   14  N6  UNL     1     305.398 219.710 329.917  1.00  0.00    -0.332 N 
ATOM     15  H62 UNL     1     304.761 220.470 330.162  1.00  0.00     0.177 HD
ATOM     16  H61 UNL     1     305.515 220.097 328.980  1.00  0.00     0.177 HD
ENDBRANCH  13  14
TORSDOF 1
ENDMDL
MODEL 5
REMARK VINA RESULT: -4.842628951      1.609      2.187
REMARK  1 active torsions:
REMARK  status: ('A' for Active; 'I' for Inactive)
REMARK       I    between atoms: C1_4  and  N3_6 
REMARK    1  A    between atoms: N5_13  and  N6_14 
ROOT
HETATM    1  N1  UNL     1     306.461 220.281 331.853  1.00  0.00    -0.373 N 
ATOM      2  H11 UNL     1     306.096 221.156 332.228  1.00  0.00     0.158 HD
ATOM      3  H12 UNL     1     307.353 219.894 332.159  1.00  0.00     0.158 HD
HETATM    4  C1  UNL     1     305.780 219.649 330.972  1.00  0.00     0.188 C 
HETATM    5  N2  UNL     1     306.290 218.426 330.447  1.00  0.00    -0.064 NA
HETATM    6  N3  UNL     1     304.546 220.185 330.548  1.00  0.00    -0.301 N 
ATOM      7  H3  UNL     1     304.517 220.920 329.841  1.00  0.00     0.171 HD
HETATM    8  C2  UNL     1     303.456 219.735 331.064  1.00  0.00     0.215 A 
HETATM    9  N4  UNL     1     302.076 220.022 330.891  1.00  0.00    -0.277 N 
ATOM     10  H4  UNL     1     301.540 220.667 330.310  1.00  0.00     0.173 HD
HETATM   11  C3  UNL     1     301.752 219.042 331.861  1.00  0.00     0.350 A 
HETATM   12  O1  UNL     1     300.692 218.600 332.367  1.00  0.00    -0.244 OA
HETATM   13  N5  UNL     1     303.115 218.757 332.033  1.00  0.00    -0.179 N 
ENDROOT
BRANCH  13  14
HETATM   14  N6  UNL     1     303.898 217.898 332.804  1.00  0.00    -0.332 N 
ATOM     15  H62 UNL     1     304.763 217.947 333.342  1.00  0.00     0.177 HD
ATOM     16  H61 UNL     1     303.792 216.913 333.045  1.00  0.00     0.177 HD
ENDBRANCH  13  14
TORSDOF 1
ENDMDL
