MODEL 1
REMARK VINA RESULT: -8.320968067      0.000      0.000
REMARK  10 active torsions:
REMARK  status: ('A' for Active; 'I' for Inactive)
REMARK    1  A    between atoms: C2_2  and  O1_3 
REMARK    2  A    between atoms: O1_3  and  C3_4 
REMARK    3  A    between atoms: C3_4  and  C4_6 
REMARK    4  A    between atoms: C5_10  and  N2_11 
REMARK    5  A    between atoms: N2_11  and  C6_13 
REMARK    6  A    between atoms: C6_13  and  N3_15 
REMARK       I    between atoms: N3_15  and  C7_16 
REMARK    7  A    between atoms: C7_16  and  C8_18 
REMARK    8  A    between atoms: C8_18  and  C9_19 
REMARK    9  A    between atoms: C9_19  and  N4_20 
REMARK       I    between atoms: N4_20  and  C10_22 
REMARK   10  A    between atoms: C10_22  and  C11_24 
ROOT
HETATM    1  N3  UNL     1       0.584 -10.866 -26.814  1.00  0.00    -0.341 NA
HETATM    2  C7  UNL     1       0.772 -10.247 -27.927  1.00  0.00     0.295 C 
HETATM    3  O3  UNL     1      -0.058 -10.045 -28.885  1.00  0.00    -0.257 OA
ENDROOT
BRANCH   1   4
HETATM    4  C6  UNL     1       0.346 -11.549 -25.612  1.00  0.00     0.254 C 
HETATM    5  S2  UNL     1       1.621 -12.555 -25.239  1.00  0.00    -0.025 SA
BRANCH   4   6
HETATM    6  N2  UNL     1      -0.723 -11.408 -24.779  1.00  0.00    -0.313 N 
ATOM      7  H2  UNL     1      -1.219 -12.299 -24.740  1.00  0.00     0.170 HD
BRANCH   6   8
HETATM    8  C5  UNL     1      -1.395 -10.493 -23.954  1.00  0.00     0.127 A 
HETATM    9  C4  UNL     1      -2.098 -10.320 -22.828  1.00  0.00     0.150 A 
HETATM   10  N1  UNL     1      -2.206  -8.976 -22.919  1.00  0.00    -0.317 N 
HETATM   11  S1  UNL     1      -1.410  -8.752 -24.292  1.00  0.00     0.007 SA
ATOM     12  H1  UNL     1      -2.659  -8.305 -22.300  1.00  0.00     0.175 HD
BRANCH   9  13
HETATM   13  C3  UNL     1      -2.622 -11.208 -21.759  1.00  0.00     0.313 C 
HETATM   14  O2  UNL     1      -3.405 -10.927 -20.881  1.00  0.00    -0.257 OA
BRANCH  13  15
HETATM   15  O1  UNL     1      -2.166 -12.566 -21.715  1.00  0.00    -0.317 OA
BRANCH  15  16
HETATM   16  C2  UNL     1      -2.997 -13.521 -21.049  1.00  0.00     0.175 C 
HETATM   17  C1  UNL     1      -2.480 -14.894 -21.419  1.00  0.00     0.034 C 
ENDBRANCH  15  16
ENDBRANCH  13  15
ENDBRANCH   9  13
ENDBRANCH   6   8
ENDBRANCH   4   6
ENDBRANCH   1   4
BRANCH   2  18
HETATM   18  C8  UNL     1       2.130  -9.616 -28.317  1.00  0.00     0.139 C 
BRANCH  18  19
HETATM   19  C9  UNL     1       2.078  -8.135 -28.253  1.00  0.00     0.133 C 
BRANCH  19  20
HETATM   20  N4  UNL     1       1.077  -7.515 -27.474  1.00  0.00    -0.360 N 
HETATM   21  C10 UNL     1       0.076  -6.676 -27.891  1.00  0.00     0.221 C 
HETATM   22  O4  UNL     1      -0.062  -6.366 -29.126  1.00  0.00    -0.273 OA
ATOM     23  H4  UNL     1       1.101  -7.718 -26.474  1.00  0.00     0.162 HD
BRANCH  21  24
HETATM   24  C11 UNL     1      -0.936  -6.037 -26.977  1.00  0.00     0.078 C 
HETATM   25  C12 UNL     1      -0.616  -4.577 -26.860  1.00  0.00     0.014 C 
HETATM   26  C13 UNL     1      -1.875  -3.767 -26.571  1.00  0.00     0.001 C 
HETATM   27  C14 UNL     1      -2.849  -4.627 -25.778  1.00  0.00     0.000 C 
HETATM   28  C15 UNL     1      -3.412  -5.741 -26.636  1.00  0.00     0.001 C 
HETATM   29  C16 UNL     1      -2.296  -6.370 -27.463  1.00  0.00     0.014 C 
ENDBRANCH  21  24
ENDBRANCH  19  20
ENDBRANCH  18  19
ENDBRANCH   2  18
TORSDOF 10
ENDMDL
MODEL 2
REMARK VINA RESULT: -8.318728291      1.238      1.334
REMARK  10 active torsions:
REMARK  status: ('A' for Active; 'I' for Inactive)
REMARK    1  A    between atoms: C2_2  and  O1_3 
REMARK    2  A    between atoms: O1_3  and  C3_4 
REMARK    3  A    between atoms: C3_4  and  C4_6 
REMARK    4  A    between atoms: C5_10  and  N2_11 
REMARK    5  A    between atoms: N2_11  and  C6_13 
REMARK    6  A    between atoms: C6_13  and  N3_15 
REMARK       I    between atoms: N3_15  and  C7_16 
REMARK    7  A    between atoms: C7_16  and  C8_18 
REMARK    8  A    between atoms: C8_18  and  C9_19 
REMARK    9  A    between atoms: C9_19  and  N4_20 
REMARK       I    between atoms: N4_20  and  C10_22 
REMARK   10  A    between atoms: C10_22  and  C11_24 
ROOT
HETATM    1  N3  UNL     1       1.369 -10.723 -26.201  1.00  0.00    -0.341 NA
HETATM    2  C7  UNL     1       2.088 -10.119 -27.082  1.00  0.00     0.295 C 
HETATM    3  O3  UNL     1       3.286  -9.673 -26.973  1.00  0.00    -0.257 OA
ENDROOT
BRANCH   1   4
HETATM    4  C6  UNL     1       0.613 -11.378 -25.218  1.00  0.00     0.254 C 
HETATM    5  S2  UNL     1       1.537 -12.504 -24.411  1.00  0.00    -0.025 SA
BRANCH   4   6
HETATM    6  N2  UNL     1      -0.682 -11.132 -24.871  1.00  0.00    -0.313 N 
ATOM      7  H2  UNL     1      -1.288 -11.547 -25.580  1.00  0.00     0.170 HD
BRANCH   6   8
HETATM    8  C5  UNL     1      -1.491 -10.521 -23.901  1.00  0.00     0.127 A 
HETATM    9  C4  UNL     1      -2.095 -10.654 -22.714  1.00  0.00     0.150 A 
HETATM   10  N1  UNL     1      -2.578  -9.393 -22.645  1.00  0.00    -0.317 N 
HETATM   11  S1  UNL     1      -2.020  -8.835 -24.040  1.00  0.00     0.007 SA
ATOM     12  H1  UNL     1      -3.132  -8.935 -21.922  1.00  0.00     0.175 HD
BRANCH   9  13
HETATM   13  C3  UNL     1      -2.241 -11.743 -21.714  1.00  0.00     0.313 C 
HETATM   14  O2  UNL     1      -3.214 -12.012 -21.050  1.00  0.00    -0.257 OA
BRANCH  13  15
HETATM   15  O1  UNL     1      -1.117 -12.598 -21.468  1.00  0.00    -0.317 OA
BRANCH  15  16
HETATM   16  C2  UNL     1      -1.386 -13.930 -21.018  1.00  0.00     0.175 C 
HETATM   17  C1  UNL     1      -0.288 -14.300 -20.046  1.00  0.00     0.034 C 
ENDBRANCH  15  16
ENDBRANCH  13  15
ENDBRANCH   9  13
ENDBRANCH   6   8
ENDBRANCH   4   6
ENDBRANCH   1   4
BRANCH   2  18
HETATM   18  C8  UNL     1       1.577  -9.802 -28.508  1.00  0.00     0.139 C 
BRANCH  18  19
HETATM   19  C9  UNL     1       0.098  -9.689 -28.541  1.00  0.00     0.133 C 
BRANCH  19  20
HETATM   20  N4  UNL     1      -0.534  -8.703 -27.751  1.00  0.00    -0.360 N 
HETATM   21  C10 UNL     1      -0.544  -7.345 -27.939  1.00  0.00     0.221 C 
HETATM   22  O4  UNL     1       0.053  -6.806 -28.936  1.00  0.00    -0.273 OA
ATOM     23  H4  UNL     1      -1.048  -9.045 -26.939  1.00  0.00     0.162 HD
BRANCH  21  24
HETATM   24  C11 UNL     1      -1.225  -6.364 -27.022  1.00  0.00     0.078 C 
HETATM   25  C12 UNL     1      -0.637  -5.005 -27.258  1.00  0.00     0.014 C 
HETATM   26  C13 UNL     1      -1.652  -3.912 -26.940  1.00  0.00     0.001 C 
HETATM   27  C14 UNL     1      -2.584  -4.403 -25.840  1.00  0.00     0.000 C 
HETATM   28  C15 UNL     1      -3.493  -5.502 -26.351  1.00  0.00     0.001 C 
HETATM   29  C16 UNL     1      -2.692  -6.480 -27.203  1.00  0.00     0.014 C 
ENDBRANCH  21  24
ENDBRANCH  19  20
ENDBRANCH  18  19
ENDBRANCH   2  18
TORSDOF 10
ENDMDL
MODEL 3
REMARK VINA RESULT: -7.918477619      3.078      6.949
REMARK  10 active torsions:
REMARK  status: ('A' for Active; 'I' for Inactive)
REMARK    1  A    between atoms: C2_2  and  O1_3 
REMARK    2  A    between atoms: O1_3  and  C3_4 
REMARK    3  A    between atoms: C3_4  and  C4_6 
REMARK    4  A    between atoms: C5_10  and  N2_11 
REMARK    5  A    between atoms: N2_11  and  C6_13 
REMARK    6  A    between atoms: C6_13  and  N3_15 
REMARK       I    between atoms: N3_15  and  C7_16 
REMARK    7  A    between atoms: C7_16  and  C8_18 
REMARK    8  A    between atoms: C8_18  and  C9_19 
REMARK    9  A    between atoms: C9_19  and  N4_20 
REMARK       I    between atoms: N4_20  and  C10_22 
REMARK   10  A    between atoms: C10_22  and  C11_24 
ROOT
HETATM    1  N3  UNL     1       0.085 -10.267 -26.819  1.00  0.00    -0.341 NA
HETATM    2  C7  UNL     1      -0.961 -10.666 -26.184  1.00  0.00     0.295 C 
HETATM    3  O3  UNL     1      -2.116 -10.973 -26.652  1.00  0.00    -0.257 OA
ENDROOT
BRANCH   1   4
HETATM    4  C6  UNL     1       1.207  -9.832 -27.540  1.00  0.00     0.254 C 
HETATM    5  S2  UNL     1       2.456 -10.927 -27.408  1.00  0.00    -0.025 SA
BRANCH   4   6
HETATM    6  N2  UNL     1       1.310  -8.718 -28.317  1.00  0.00    -0.313 N 
ATOM      7  H2  UNL     1       0.395  -8.525 -28.724  1.00  0.00     0.170 HD
BRANCH   6   8
HETATM    8  C5  UNL     1       2.208  -7.737 -28.766  1.00  0.00     0.127 A 
HETATM    9  C4  UNL     1       3.461  -7.472 -29.154  1.00  0.00     0.150 A 
HETATM   10  N1  UNL     1       3.252  -6.175 -29.473  1.00  0.00    -0.317 N 
HETATM   11  S1  UNL     1       1.695  -6.074 -29.106  1.00  0.00     0.007 SA
ATOM     12  H1  UNL     1       3.893  -5.471 -29.838  1.00  0.00     0.175 HD
BRANCH   9  13
HETATM   13  C3  UNL     1       4.724  -8.246 -29.262  1.00  0.00     0.313 C 
HETATM   14  O2  UNL     1       5.310  -8.834 -28.383  1.00  0.00    -0.257 OA
BRANCH  13  15
HETATM   15  O1  UNL     1       5.368  -8.326 -30.540  1.00  0.00    -0.317 OA
BRANCH  15  16
HETATM   16  C2  UNL     1       4.560  -8.680 -31.667  1.00  0.00     0.175 C 
HETATM   17  C1  UNL     1       5.485  -9.275 -32.706  1.00  0.00     0.034 C 
ENDBRANCH  15  16
ENDBRANCH  13  15
ENDBRANCH   9  13
ENDBRANCH   6   8
ENDBRANCH   4   6
ENDBRANCH   1   4
BRANCH   2  18
HETATM   18  C8  UNL     1      -0.996 -10.838 -24.647  1.00  0.00     0.139 C 
BRANCH  18  19
HETATM   19  C9  UNL     1      -0.877  -9.532 -23.953  1.00  0.00     0.133 C 
BRANCH  19  20
HETATM   20  N4  UNL     1      -0.711  -8.358 -24.721  1.00  0.00    -0.360 N 
HETATM   21  C10 UNL     1      -1.682  -7.562 -25.273  1.00  0.00     0.221 C 
HETATM   22  O4  UNL     1      -2.926  -7.823 -25.116  1.00  0.00    -0.273 OA
ATOM     23  H4  UNL     1       0.252  -8.066 -24.886  1.00  0.00     0.162 HD
BRANCH  21  24
HETATM   24  C11 UNL     1      -1.408  -6.339 -26.106  1.00  0.00     0.078 C 
HETATM   25  C12 UNL     1      -1.687  -6.668 -27.541  1.00  0.00     0.014 C 
HETATM   26  C13 UNL     1      -2.103  -5.420 -28.313  1.00  0.00     0.001 C 
HETATM   27  C14 UNL     1      -1.425  -4.204 -27.697  1.00  0.00     0.000 C 
HETATM   28  C15 UNL     1      -1.997  -3.901 -26.327  1.00  0.00     0.001 C 
HETATM   29  C16 UNL     1      -2.163  -5.196 -25.540  1.00  0.00     0.014 C 
ENDBRANCH  21  24
ENDBRANCH  19  20
ENDBRANCH  18  19
ENDBRANCH   2  18
TORSDOF 10
ENDMDL
MODEL 4
REMARK VINA RESULT: -7.881684582      1.732      2.087
REMARK  10 active torsions:
REMARK  status: ('A' for Active; 'I' for Inactive)
REMARK    1  A    between atoms: C2_2  and  O1_3 
REMARK    2  A    between atoms: O1_3  and  C3_4 
REMARK    3  A    between atoms: C3_4  and  C4_6 
REMARK    4  A    between atoms: C5_10  and  N2_11 
REMARK    5  A    between atoms: N2_11  and  C6_13 
REMARK    6  A    between atoms: C6_13  and  N3_15 
REMARK       I    between atoms: N3_15  and  C7_16 
REMARK    7  A    between atoms: C7_16  and  C8_18 
REMARK    8  A    between atoms: C8_18  and  C9_19 
REMARK    9  A    between atoms: C9_19  and  N4_20 
REMARK       I    between atoms: N4_20  and  C10_22 
REMARK   10  A    between atoms: C10_22  and  C11_24 
ROOT
HETATM    1  N3  UNL     1      -0.006 -11.855 -25.260  1.00  0.00    -0.341 NA
HETATM    2  C7  UNL     1      -0.362 -11.236 -26.331  1.00  0.00     0.295 C 
HETATM    3  O3  UNL     1      -1.546 -10.962 -26.745  1.00  0.00    -0.257 OA
ENDROOT
BRANCH   1   4
HETATM    4  C6  UNL     1       0.348 -12.534 -24.085  1.00  0.00     0.254 C 
HETATM    5  S2  UNL     1       1.821 -13.293 -24.260  1.00  0.00    -0.025 SA
BRANCH   4   6
HETATM    6  N2  UNL     1      -0.334 -12.559 -22.906  1.00  0.00    -0.313 N 
ATOM      7  H2  UNL     1       0.182 -13.144 -22.249  1.00  0.00     0.170 HD
BRANCH   6   8
HETATM    8  C5  UNL     1      -1.483 -12.078 -22.260  1.00  0.00     0.127 A 
HETATM    9  C4  UNL     1      -2.476 -12.355 -21.406  1.00  0.00     0.150 A 
HETATM   10  N1  UNL     1      -3.028 -11.121 -21.406  1.00  0.00    -0.317 N 
HETATM   11  S1  UNL     1      -2.027 -10.399 -22.428  1.00  0.00     0.007 SA
ATOM     12  H1  UNL     1      -3.840 -10.759 -20.906  1.00  0.00     0.175 HD
BRANCH   9  13
HETATM   13  C3  UNL     1      -2.915 -13.552 -20.643  1.00  0.00     0.313 C 
HETATM   14  O2  UNL     1      -3.838 -13.637 -19.867  1.00  0.00    -0.257 OA
BRANCH  13  15
HETATM   15  O1  UNL     1      -2.181 -14.772 -20.806  1.00  0.00    -0.317 OA
BRANCH  15  16
HETATM   16  C2  UNL     1      -1.481 -15.281 -19.666  1.00  0.00     0.175 C 
HETATM   17  C1  UNL     1      -0.142 -14.578 -19.618  1.00  0.00     0.034 C 
ENDBRANCH  15  16
ENDBRANCH  13  15
ENDBRANCH   9  13
ENDBRANCH   6   8
ENDBRANCH   4   6
ENDBRANCH   1   4
BRANCH   2  18
HETATM   18  C8  UNL     1       0.654 -10.699 -27.367  1.00  0.00     0.139 C 
BRANCH  18  19
HETATM   19  C9  UNL     1       0.025  -9.716 -28.284  1.00  0.00     0.133 C 
BRANCH  19  20
HETATM   20  N4  UNL     1      -0.541  -8.539 -27.747  1.00  0.00    -0.360 N 
HETATM   21  C10 UNL     1       0.058  -7.321 -27.558  1.00  0.00     0.221 C 
HETATM   22  O4  UNL     1       1.278  -7.119 -27.891  1.00  0.00    -0.273 OA
ATOM     23  H4  UNL     1      -1.520  -8.604 -27.466  1.00  0.00     0.162 HD
BRANCH  21  24
HETATM   24  C11 UNL     1      -0.621  -6.124 -26.948  1.00  0.00     0.078 C 
HETATM   25  C12 UNL     1      -0.258  -4.911 -27.750  1.00  0.00     0.014 C 
HETATM   26  C13 UNL     1      -1.359  -3.858 -27.671  1.00  0.00     0.001 C 
HETATM   27  C14 UNL     1      -2.062  -3.973 -26.325  1.00  0.00     0.000 C 
HETATM   28  C15 UNL     1      -2.875  -5.249 -26.245  1.00  0.00     0.001 C 
HETATM   29  C16 UNL     1      -2.069  -6.410 -26.818  1.00  0.00     0.014 C 
ENDBRANCH  21  24
ENDBRANCH  19  20
ENDBRANCH  18  19
ENDBRANCH   2  18
TORSDOF 10
ENDMDL
MODEL 5
REMARK VINA RESULT: -7.875591801      2.431      3.239
REMARK  10 active torsions:
REMARK  status: ('A' for Active; 'I' for Inactive)
REMARK    1  A    between atoms: C2_2  and  O1_3 
REMARK    2  A    between atoms: O1_3  and  C3_4 
REMARK    3  A    between atoms: C3_4  and  C4_6 
REMARK    4  A    between atoms: C5_10  and  N2_11 
REMARK    5  A    between atoms: N2_11  and  C6_13 
REMARK    6  A    between atoms: C6_13  and  N3_15 
REMARK       I    between atoms: N3_15  and  C7_16 
REMARK    7  A    between atoms: C7_16  and  C8_18 
REMARK    8  A    between atoms: C8_18  and  C9_19 
REMARK    9  A    between atoms: C9_19  and  N4_20 
REMARK       I    between atoms: N4_20  and  C10_22 
REMARK   10  A    between atoms: C10_22  and  C11_24 
ROOT
HETATM    1  N3  UNL     1       2.944  -9.280 -26.985  1.00  0.00    -0.341 NA
HETATM    2  C7  UNL     1       3.682  -8.966 -27.993  1.00  0.00     0.295 C 
HETATM    3  O3  UNL     1       4.961  -8.995 -28.093  1.00  0.00    -0.257 OA
ENDROOT
BRANCH   1   4
HETATM    4  C6  UNL     1       2.170  -9.628 -25.869  1.00  0.00     0.254 C 
HETATM    5  S2  UNL     1       1.018  -8.465 -25.561  1.00  0.00    -0.025 SA
BRANCH   4   6
HETATM    6  N2  UNL     1       2.248 -10.771 -25.133  1.00  0.00    -0.313 N 
ATOM      7  H2  UNL     1       3.225 -11.064 -25.097  1.00  0.00     0.170 HD
BRANCH   6   8
HETATM    8  C5  UNL     1       1.484 -11.696 -24.405  1.00  0.00     0.127 A 
HETATM    9  C4  UNL     1       0.385 -11.893 -23.666  1.00  0.00     0.150 A 
HETATM   10  N1  UNL     1       0.542 -13.227 -23.509  1.00  0.00    -0.317 N 
HETATM   11  S1  UNL     1       1.904 -13.417 -24.332  1.00  0.00     0.007 SA
ATOM     12  H1  UNL     1      -0.034 -13.907 -23.015  1.00  0.00     0.175 HD
BRANCH   9  13
HETATM   13  C3  UNL     1      -0.712 -11.036 -23.148  1.00  0.00     0.313 C 
HETATM   14  O2  UNL     1      -0.981 -10.794 -21.995  1.00  0.00    -0.257 OA
BRANCH  13  15
HETATM   15  O1  UNL     1      -1.589 -10.406 -24.091  1.00  0.00    -0.317 OA
BRANCH  15  16
HETATM   16  C2  UNL     1      -2.300  -9.242 -23.658  1.00  0.00     0.175 C 
HETATM   17  C1  UNL     1      -2.797  -8.538 -24.901  1.00  0.00     0.034 C 
ENDBRANCH  15  16
ENDBRANCH  13  15
ENDBRANCH   9  13
ENDBRANCH   6   8
ENDBRANCH   4   6
ENDBRANCH   1   4
BRANCH   2  18
HETATM   18  C8  UNL     1       3.100  -8.456 -29.333  1.00  0.00     0.139 C 
BRANCH  18  19
HETATM   19  C9  UNL     1       2.539  -7.089 -29.194  1.00  0.00     0.133 C 
BRANCH  19  20
HETATM   20  N4  UNL     1       1.371  -6.900 -28.423  1.00  0.00    -0.360 N 
HETATM   21  C10 UNL     1       0.575  -5.786 -28.349  1.00  0.00     0.221 C 
HETATM   22  O4  UNL     1       0.830  -4.738 -29.040  1.00  0.00    -0.273 OA
ATOM     23  H4  UNL     1       1.084  -7.693 -27.848  1.00  0.00     0.162 HD
BRANCH  21  24
HETATM   24  C11 UNL     1      -0.641  -5.666 -27.471  1.00  0.00     0.078 C 
HETATM   25  C12 UNL     1      -0.604  -4.333 -26.785  1.00  0.00     0.014 C 
HETATM   26  C13 UNL     1      -2.014  -3.848 -26.464  1.00  0.00     0.001 C 
HETATM   27  C14 UNL     1      -2.912  -5.054 -26.223  1.00  0.00     0.000 C 
HETATM   28  C15 UNL     1      -3.154  -5.816 -27.509  1.00  0.00     0.001 C 
HETATM   29  C16 UNL     1      -1.848  -5.947 -28.284  1.00  0.00     0.014 C 
ENDBRANCH  21  24
ENDBRANCH  19  20
ENDBRANCH  18  19
ENDBRANCH   2  18
TORSDOF 10
ENDMDL
