MODEL 1
REMARK VINA RESULT: -8.177181113      0.000      0.000
REMARK  11 active torsions:
REMARK  status: ('A' for Active; 'I' for Inactive)
REMARK    1  A    between atoms: C4_4  and  C5_5 
REMARK    2  A    between atoms: C5_5  and  C6_6 
REMARK    3  A    between atoms: C7_7  and  O1_8 
REMARK    4  A    between atoms: C8_10  and  O2_11 
REMARK    5  A    between atoms: C10_14  and  O3_15 
REMARK    6  A    between atoms: C16_22  and  C17_23 
REMARK    7  A    between atoms: C17_23  and  C18_24 
REMARK    8  A    between atoms: C18_24  and  C19_25 
REMARK    9  A    between atoms: C19_25  and  O5_27 
REMARK   10  A    between atoms: O5_27  and  C20_28 
REMARK   11  A    between atoms: C20_28  and  C21_29 
ROOT
HETATM    1  C1  UNL     1       0.854  -7.369 -25.005  1.00  0.00     0.015 C 
HETATM    2  C2  UNL     1       0.052  -8.014 -26.109  1.00  0.00    -0.037 C 
HETATM    3  C3  UNL     1       1.136  -8.878 -26.843  1.00  0.00     0.015 C 
HETATM    4  C4  UNL     1      -0.835  -9.035 -25.531  1.00  0.00     0.026 C 
HETATM    5  C8  UNL     1      -2.221  -8.735 -25.154  1.00  0.00     0.126 C 
HETATM    6  C9  UNL     1      -2.907  -7.960 -26.222  1.00  0.00     0.070 C 
HETATM    7  C10 UNL     1      -2.571  -6.530 -26.034  1.00  0.00     0.068 C 
HETATM    8  C11 UNL     1      -3.795  -5.762 -26.534  1.00  0.00     0.038 C 
HETATM    9  C12 UNL     1      -3.673  -5.961 -28.022  1.00  0.00     0.004 C 
HETATM   10  C13 UNL     1      -2.177  -5.797 -28.220  1.00  0.00     0.012 C 
HETATM   11  C14 UNL     1      -1.440  -6.078 -26.934  1.00  0.00    -0.009 C 
HETATM   12  C15 UNL     1      -0.984  -4.759 -26.408  1.00  0.00     0.019 C 
HETATM   13  C16 UNL     1      -0.416  -7.108 -27.184  1.00  0.00     0.005 C 
ENDROOT
BRANCH  13  14
HETATM   14  C17 UNL     1       0.784  -6.534 -27.863  1.00  0.00     0.016 C 
BRANCH  14  15
HETATM   15  C18 UNL     1       0.843  -6.452 -29.342  1.00  0.00     0.111 C 
BRANCH  15  16
HETATM   16  C19 UNL     1       2.263  -6.025 -29.760  1.00  0.00     0.259 C 
HETATM   17  O4  UNL     1       2.365  -4.983 -30.437  1.00  0.00    -0.265 OA
BRANCH  16  18
HETATM   18  O5  UNL     1       3.367  -6.738 -29.415  1.00  0.00    -0.311 OA
BRANCH  18  19
HETATM   19  C20 UNL     1       3.460  -8.120 -29.695  1.00  0.00     0.291 C 
BRANCH  19  20
HETATM   20  C21 UNL     1       4.834  -8.632 -29.406  1.00  0.00     0.198 C 
HETATM   21  O6  UNL     1       5.704  -8.728 -30.305  1.00  0.00    -0.646 OA
HETATM   22  O7  UNL     1       5.123  -9.002 -28.103  1.00  0.00    -0.646 OA
ENDBRANCH  19  20
ENDBRANCH  18  19
ENDBRANCH  16  18
ENDBRANCH  15  16
ENDBRANCH  14  15
ENDBRANCH  13  14
BRANCH   4  23
HETATM   23  C5  UNL     1      -0.182  -9.672 -24.321  1.00  0.00     0.037 C 
BRANCH  23  24
HETATM   24  C6  UNL     1      -0.022 -11.139 -24.400  1.00  0.00    -0.002 C 
HETATM   25  C7  UNL     1       1.178 -11.711 -24.402  1.00  0.00     0.127 C 
BRANCH  25  26
HETATM   26  O1  UNL     1       2.297 -10.892 -24.325  1.00  0.00    -0.373 OA
ATOM     27  H1  UNL     1       3.119 -11.278 -24.047  1.00  0.00     0.216 HD
ENDBRANCH  25  26
ENDBRANCH  23  24
ENDBRANCH   4  23
BRANCH   7  28
HETATM   28  O3  UNL     1      -2.360  -6.147 -24.739  1.00  0.00    -0.389 OA
ATOM     29  H3  UNL     1      -1.680  -5.495 -24.615  1.00  0.00     0.210 HD
ENDBRANCH   7  28
BRANCH   5  30
HETATM   30  O2  UNL     1      -2.943  -9.956 -25.100  1.00  0.00    -0.395 OA
ATOM     31  H2  UNL     1      -3.810  -9.776 -24.756  1.00  0.00     0.210 HD
ENDBRANCH   5  30
TORSDOF 11
ENDMDL
MODEL 2
REMARK VINA RESULT: -8.168138307      1.991      6.661
REMARK  11 active torsions:
REMARK  status: ('A' for Active; 'I' for Inactive)
REMARK    1  A    between atoms: C4_4  and  C5_5 
REMARK    2  A    between atoms: C5_5  and  C6_6 
REMARK    3  A    between atoms: C7_7  and  O1_8 
REMARK    4  A    between atoms: C8_10  and  O2_11 
REMARK    5  A    between atoms: C10_14  and  O3_15 
REMARK    6  A    between atoms: C16_22  and  C17_23 
REMARK    7  A    between atoms: C17_23  and  C18_24 
REMARK    8  A    between atoms: C18_24  and  C19_25 
REMARK    9  A    between atoms: C19_25  and  O5_27 
REMARK   10  A    between atoms: O5_27  and  C20_28 
REMARK   11  A    between atoms: C20_28  and  C21_29 
ROOT
HETATM    1  C1  UNL     1       0.787  -9.687 -28.289  1.00  0.00     0.015 C 
HETATM    2  C2  UNL     1       1.418  -8.572 -27.492  1.00  0.00    -0.037 C 
HETATM    3  C3  UNL     1       2.381  -9.355 -26.534  1.00  0.00     0.015 C 
HETATM    4  C4  UNL     1       2.353  -7.830 -28.351  1.00  0.00     0.026 C 
HETATM    5  C8  UNL     1       1.946  -6.625 -29.083  1.00  0.00     0.126 C 
HETATM    6  C9  UNL     1       1.168  -5.708 -28.207  1.00  0.00     0.070 C 
HETATM    7  C10 UNL     1      -0.243  -6.161 -28.212  1.00  0.00     0.068 C 
HETATM    8  C11 UNL     1      -1.072  -4.889 -28.032  1.00  0.00     0.038 C 
HETATM    9  C12 UNL     1      -0.808  -4.575 -26.583  1.00  0.00     0.004 C 
HETATM   10  C13 UNL     1      -0.861  -5.960 -25.966  1.00  0.00     0.012 C 
HETATM   11  C14 UNL     1      -0.581  -7.015 -27.008  1.00  0.00    -0.009 C 
HETATM   12  C15 UNL     1      -1.886  -7.671 -27.311  1.00  0.00     0.019 C 
HETATM   13  C16 UNL     1       0.525  -7.869 -26.541  1.00  0.00     0.005 C 
ENDROOT
BRANCH  13  14
HETATM   14  C17 UNL     1       0.060  -8.858 -25.522  1.00  0.00     0.016 C 
BRANCH  14  15
HETATM   15  C18 UNL     1      -0.474  -8.398 -24.218  1.00  0.00     0.111 C 
BRANCH  15  16
HETATM   16  C19 UNL     1      -1.743  -9.207 -23.888  1.00  0.00     0.259 C 
HETATM   17  O4  UNL     1      -2.838  -8.633 -24.047  1.00  0.00    -0.265 OA
BRANCH  16  18
HETATM   18  O5  UNL     1      -1.691 -10.490 -23.443  1.00  0.00    -0.311 OA
BRANCH  18  19
HETATM   19  C20 UNL     1      -1.519 -10.780 -22.071  1.00  0.00     0.291 C 
BRANCH  19  20
HETATM   20  C21 UNL     1      -2.818 -11.163 -21.439  1.00  0.00     0.198 C 
HETATM   21  O6  UNL     1      -3.660 -10.300 -21.090  1.00  0.00    -0.646 OA
HETATM   22  O7  UNL     1      -3.069 -12.512 -21.248  1.00  0.00    -0.646 OA
ENDBRANCH  19  20
ENDBRANCH  18  19
ENDBRANCH  16  18
ENDBRANCH  15  16
ENDBRANCH  14  15
ENDBRANCH  13  14
BRANCH   4  23
HETATM   23  C5  UNL     1       2.985  -8.763 -29.365  1.00  0.00     0.037 C 
BRANCH  23  24
HETATM   24  C6  UNL     1       4.445  -8.944 -29.218  1.00  0.00    -0.002 C 
HETATM   25  C7  UNL     1       5.302  -8.452 -30.106  1.00  0.00     0.127 C 
BRANCH  25  26
HETATM   26  O1  UNL     1       4.793  -7.750 -31.191  1.00  0.00    -0.373 OA
ATOM     27  H1  UNL     1       5.263  -6.980 -31.488  1.00  0.00     0.216 HD
ENDBRANCH  25  26
ENDBRANCH  23  24
ENDBRANCH   4  23
BRANCH   7  28
HETATM   28  O3  UNL     1      -0.660  -6.749 -29.373  1.00  0.00    -0.389 OA
ATOM     29  H3  UNL     1      -1.577  -6.618 -29.586  1.00  0.00     0.210 HD
ENDBRANCH   7  28
BRANCH   5  30
HETATM   30  O2  UNL     1       3.112  -5.883 -29.405  1.00  0.00    -0.395 OA
ATOM     31  H2  UNL     1       3.303  -6.011 -30.327  1.00  0.00     0.210 HD
ENDBRANCH   5  30
TORSDOF 11
ENDMDL
MODEL 3
REMARK VINA RESULT: -8.046342435      2.552      4.784
REMARK  11 active torsions:
REMARK  status: ('A' for Active; 'I' for Inactive)
REMARK    1  A    between atoms: C4_4  and  C5_5 
REMARK    2  A    between atoms: C5_5  and  C6_6 
REMARK    3  A    between atoms: C7_7  and  O1_8 
REMARK    4  A    between atoms: C8_10  and  O2_11 
REMARK    5  A    between atoms: C10_14  and  O3_15 
REMARK    6  A    between atoms: C16_22  and  C17_23 
REMARK    7  A    between atoms: C17_23  and  C18_24 
REMARK    8  A    between atoms: C18_24  and  C19_25 
REMARK    9  A    between atoms: C19_25  and  O5_27 
REMARK   10  A    between atoms: O5_27  and  C20_28 
REMARK   11  A    between atoms: C20_28  and  C21_29 
ROOT
HETATM    1  C1  UNL     1       2.673  -9.392 -26.146  1.00  0.00     0.015 C 
HETATM    2  C2  UNL     1       1.430  -9.818 -26.887  1.00  0.00    -0.037 C 
HETATM    3  C3  UNL     1       1.925  -9.849 -28.374  1.00  0.00     0.015 C 
HETATM    4  C4  UNL     1       1.162 -11.238 -26.609  1.00  0.00     0.026 C 
HETATM    5  C8  UNL     1       0.261 -11.661 -25.530  1.00  0.00     0.126 C 
HETATM    6  C9  UNL     1      -0.995 -10.863 -25.542  1.00  0.00     0.070 C 
HETATM    7  C10 UNL     1      -0.740  -9.603 -24.805  1.00  0.00     0.068 C 
HETATM    8  C11 UNL     1      -2.081  -9.235 -24.167  1.00  0.00     0.038 C 
HETATM    9  C12 UNL     1      -2.860  -8.786 -25.376  1.00  0.00     0.004 C 
HETATM   10  C13 UNL     1      -1.806  -8.000 -26.132  1.00  0.00     0.012 C 
HETATM   11  C14 UNL     1      -0.422  -8.446 -25.728  1.00  0.00    -0.009 C 
HETATM   12  C15 UNL     1       0.140  -7.364 -24.869  1.00  0.00     0.019 C 
HETATM   13  C16 UNL     1       0.332  -8.824 -26.937  1.00  0.00     0.005 C 
ENDROOT
BRANCH  13  14
HETATM   14  C17 UNL     1       0.826  -7.622 -27.672  1.00  0.00     0.016 C 
BRANCH  14  15
HETATM   15  C18 UNL     1       0.012  -7.014 -28.751  1.00  0.00     0.111 C 
BRANCH  15  16
HETATM   16  C19 UNL     1      -0.192  -5.519 -28.437  1.00  0.00     0.259 C 
HETATM   17  O4  UNL     1       0.720  -4.740 -28.777  1.00  0.00    -0.265 OA
BRANCH  16  18
HETATM   18  O5  UNL     1      -1.308  -5.053 -27.819  1.00  0.00    -0.311 OA
BRANCH  18  19
HETATM   19  C20 UNL     1      -1.218  -4.233 -26.671  1.00  0.00     0.291 C 
BRANCH  19  20
HETATM   20  C21 UNL     1      -2.522  -4.192 -25.941  1.00  0.00     0.198 C 
HETATM   21  O6  UNL     1      -2.759  -3.326 -25.064  1.00  0.00    -0.646 OA
HETATM   22  O7  UNL     1      -3.471  -5.148 -26.263  1.00  0.00    -0.646 OA
ENDBRANCH  19  20
ENDBRANCH  18  19
ENDBRANCH  16  18
ENDBRANCH  15  16
ENDBRANCH  14  15
ENDBRANCH  13  14
BRANCH   4  23
HETATM   23  C5  UNL     1       2.464 -11.986 -26.408  1.00  0.00     0.037 C 
BRANCH  23  24
HETATM   24  C6  UNL     1       2.742 -13.032 -27.415  1.00  0.00    -0.002 C 
HETATM   25  C7  UNL     1       2.685 -14.325 -27.111  1.00  0.00     0.127 C 
BRANCH  25  26
HETATM   26  O1  UNL     1       2.351 -14.681 -25.811  1.00  0.00    -0.373 OA
ATOM     27  H1  UNL     1       1.672 -15.333 -25.684  1.00  0.00     0.216 HD
ENDBRANCH  25  26
ENDBRANCH  23  24
ENDBRANCH   4  23
BRANCH   7  28
HETATM   28  O3  UNL     1       0.172  -9.697 -23.791  1.00  0.00    -0.389 OA
ATOM     29  H3  UNL     1      -0.190  -9.919 -22.941  1.00  0.00     0.210 HD
ENDBRANCH   7  28
BRANCH   5  30
HETATM   30  O2  UNL     1      -0.173 -12.984 -25.805  1.00  0.00    -0.395 OA
ATOM     31  H2  UNL     1       0.364 -13.585 -25.301  1.00  0.00     0.210 HD
ENDBRANCH   5  30
TORSDOF 11
ENDMDL
MODEL 4
REMARK VINA RESULT: -7.933870469      1.319      1.708
REMARK  11 active torsions:
REMARK  status: ('A' for Active; 'I' for Inactive)
REMARK    1  A    between atoms: C4_4  and  C5_5 
REMARK    2  A    between atoms: C5_5  and  C6_6 
REMARK    3  A    between atoms: C7_7  and  O1_8 
REMARK    4  A    between atoms: C8_10  and  O2_11 
REMARK    5  A    between atoms: C10_14  and  O3_15 
REMARK    6  A    between atoms: C16_22  and  C17_23 
REMARK    7  A    between atoms: C17_23  and  C18_24 
REMARK    8  A    between atoms: C18_24  and  C19_25 
REMARK    9  A    between atoms: C19_25  and  O5_27 
REMARK   10  A    between atoms: O5_27  and  C20_28 
REMARK   11  A    between atoms: C20_28  and  C21_29 
ROOT
HETATM    1  C1  UNL     1       0.761  -7.222 -24.463  1.00  0.00     0.015 C 
HETATM    2  C2  UNL     1      -0.091  -8.000 -25.435  1.00  0.00    -0.037 C 
HETATM    3  C3  UNL     1       0.857  -9.185 -25.828  1.00  0.00     0.015 C 
HETATM    4  C4  UNL     1      -1.169  -8.680 -24.702  1.00  0.00     0.026 C 
HETATM    5  C8  UNL     1      -2.497  -8.077 -24.538  1.00  0.00     0.126 C 
HETATM    6  C9  UNL     1      -2.987  -7.512 -25.824  1.00  0.00     0.070 C 
HETATM    7  C10 UNL     1      -2.414  -6.155 -25.972  1.00  0.00     0.068 C 
HETATM    8  C11 UNL     1      -3.460  -5.362 -26.757  1.00  0.00     0.038 C 
HETATM    9  C12 UNL     1      -3.307  -5.963 -28.130  1.00  0.00     0.004 C 
HETATM   10  C13 UNL     1      -1.798  -6.095 -28.228  1.00  0.00     0.012 C 
HETATM   11  C14 UNL     1      -1.181  -6.140 -26.852  1.00  0.00    -0.009 C 
HETATM   12  C15 UNL     1      -0.526  -4.817 -26.636  1.00  0.00     0.019 C 
HETATM   13  C16 UNL     1      -0.343  -7.347 -26.742  1.00  0.00     0.005 C 
ENDROOT
BRANCH  13  14
HETATM   14  C17 UNL     1       0.969  -7.168 -27.433  1.00  0.00     0.016 C 
BRANCH  14  15
HETATM   15  C18 UNL     1       1.051  -7.214 -28.912  1.00  0.00     0.111 C 
BRANCH  15  16
HETATM   16  C19 UNL     1       2.439  -6.708 -29.349  1.00  0.00     0.259 C 
HETATM   17  O4  UNL     1       2.609  -5.473 -29.373  1.00  0.00    -0.265 OA
BRANCH  16  18
HETATM   18  O5  UNL     1       3.444  -7.553 -29.696  1.00  0.00    -0.311 OA
BRANCH  18  19
HETATM   19  C20 UNL     1       4.606  -7.672 -28.899  1.00  0.00     0.291 C 
BRANCH  19  20
HETATM   20  C21 UNL     1       4.684  -9.025 -28.268  1.00  0.00     0.198 C 
HETATM   21  O6  UNL     1       3.735  -9.492 -27.593  1.00  0.00    -0.646 OA
HETATM   22  O7  UNL     1       5.847  -9.755 -28.450  1.00  0.00    -0.646 OA
ENDBRANCH  19  20
ENDBRANCH  18  19
ENDBRANCH  16  18
ENDBRANCH  15  16
ENDBRANCH  14  15
ENDBRANCH  13  14
BRANCH   4  23
HETATM   23  C5  UNL     1      -0.693  -9.070 -23.316  1.00  0.00     0.037 C 
BRANCH  23  24
HETATM   24  C6  UNL     1      -0.907 -10.489 -22.962  1.00  0.00    -0.002 C 
HETATM   25  C7  UNL     1      -1.794 -10.851 -22.041  1.00  0.00     0.127 C 
BRANCH  25  26
HETATM   26  O1  UNL     1      -2.529  -9.857 -21.408  1.00  0.00    -0.373 OA
ATOM     27  H1  UNL     1      -2.161  -8.983 -21.367  1.00  0.00     0.216 HD
ENDBRANCH  25  26
ENDBRANCH  23  24
ENDBRANCH   4  23
BRANCH   7  28
HETATM   28  O3  UNL     1      -2.199  -5.482 -24.802  1.00  0.00    -0.389 OA
ATOM     29  H3  UNL     1      -2.450  -4.566 -24.810  1.00  0.00     0.210 HD
ENDBRANCH   7  28
BRANCH   5  30
HETATM   30  O2  UNL     1      -3.423  -9.112 -24.244  1.00  0.00    -0.395 OA
ATOM     31  H2  UNL     1      -3.785  -8.952 -23.380  1.00  0.00     0.210 HD
ENDBRANCH   5  30
TORSDOF 11
ENDMDL
MODEL 5
REMARK VINA RESULT: -7.897091743      1.907      4.798
REMARK  11 active torsions:
REMARK  status: ('A' for Active; 'I' for Inactive)
REMARK    1  A    between atoms: C4_4  and  C5_5 
REMARK    2  A    between atoms: C5_5  and  C6_6 
REMARK    3  A    between atoms: C7_7  and  O1_8 
REMARK    4  A    between atoms: C8_10  and  O2_11 
REMARK    5  A    between atoms: C10_14  and  O3_15 
REMARK    6  A    between atoms: C16_22  and  C17_23 
REMARK    7  A    between atoms: C17_23  and  C18_24 
REMARK    8  A    between atoms: C18_24  and  C19_25 
REMARK    9  A    between atoms: C19_25  and  O5_27 
REMARK   10  A    between atoms: O5_27  and  C20_28 
REMARK   11  A    between atoms: C20_28  and  C21_29 
ROOT
HETATM    1  C1  UNL     1      -0.835  -6.807 -28.963  1.00  0.00     0.015 C 
HETATM    2  C2  UNL     1       0.097  -6.635 -27.789  1.00  0.00    -0.037 C 
HETATM    3  C3  UNL     1       0.854  -5.313 -28.159  1.00  0.00     0.015 C 
HETATM    4  C4  UNL     1      -0.681  -6.238 -26.605  1.00  0.00     0.026 C 
HETATM    5  C8  UNL     1      -1.179  -7.223 -25.638  1.00  0.00     0.126 C 
HETATM    6  C9  UNL     1      -0.120  -8.207 -25.287  1.00  0.00     0.070 C 
HETATM    7  C10 UNL     1      -0.118  -9.263 -26.326  1.00  0.00     0.068 C 
HETATM    8  C11 UNL     1       0.318 -10.537 -25.601  1.00  0.00     0.038 C 
HETATM    9  C12 UNL     1       1.782 -10.256 -25.379  1.00  0.00     0.004 C 
HETATM   10  C13 UNL     1       2.163  -9.617 -26.701  1.00  0.00     0.012 C 
HETATM   11  C14 UNL     1       0.947  -9.036 -27.379  1.00  0.00    -0.009 C 
HETATM   12  C15 UNL     1       0.617  -9.946 -28.514  1.00  0.00     0.019 C 
HETATM   13  C16 UNL     1       1.202  -7.618 -27.688  1.00  0.00     0.005 C 
ENDROOT
BRANCH  13  14
HETATM   14  C17 UNL     1       2.069  -7.468 -28.895  1.00  0.00     0.016 C 
BRANCH  14  15
HETATM   15  C18 UNL     1       3.526  -7.240 -28.750  1.00  0.00     0.111 C 
BRANCH  15  16
HETATM   16  C19 UNL     1       4.277  -8.485 -29.260  1.00  0.00     0.259 C 
HETATM   17  O4  UNL     1       5.304  -8.821 -28.638  1.00  0.00    -0.265 OA
BRANCH  16  18
HETATM   18  O5  UNL     1       3.854  -9.197 -30.336  1.00  0.00    -0.311 OA
BRANCH  18  19
HETATM   19  C20 UNL     1       4.726  -9.483 -31.412  1.00  0.00     0.291 C 
BRANCH  19  20
HETATM   20  C21 UNL     1       4.920 -10.957 -31.565  1.00  0.00     0.198 C 
HETATM   21  O6  UNL     1       4.996 -11.718 -30.571  1.00  0.00    -0.646 OA
HETATM   22  O7  UNL     1       5.014 -11.463 -32.851  1.00  0.00    -0.646 OA
ENDBRANCH  19  20
ENDBRANCH  18  19
ENDBRANCH  16  18
ENDBRANCH  15  16
ENDBRANCH  14  15
ENDBRANCH  13  14
BRANCH   4  23
HETATM   23  C5  UNL     1      -1.870  -5.394 -27.020  1.00  0.00     0.037 C 
BRANCH  23  24
HETATM   24  C6  UNL     1      -1.733  -3.948 -26.744  1.00  0.00    -0.002 C 
HETATM   25  C7  UNL     1      -2.335  -3.376 -25.708  1.00  0.00     0.127 C 
BRANCH  25  26
HETATM   26  O1  UNL     1      -3.106  -4.174 -24.872  1.00  0.00    -0.373 OA
ATOM     27  H1  UNL     1      -2.887  -5.095 -24.802  1.00  0.00     0.216 HD
ENDBRANCH  25  26
ENDBRANCH  23  24
ENDBRANCH   4  23
BRANCH   7  28
HETATM   28  O3  UNL     1      -1.333  -9.523 -26.894  1.00  0.00    -0.389 OA
ATOM     29  H3  UNL     1      -1.303  -9.810 -27.799  1.00  0.00     0.210 HD
ENDBRANCH   7  28
BRANCH   5  30
HETATM   30  O2  UNL     1      -1.442  -6.553 -24.414  1.00  0.00    -0.395 OA
ATOM     31  H2  UNL     1      -1.089  -5.672 -24.475  1.00  0.00     0.210 HD
ENDBRANCH   5  30
TORSDOF 11
ENDMDL
