MODEL 1
REMARK VINA RESULT: -6.975502905      0.000      0.000
REMARK  11 active torsions:
REMARK  status: ('A' for Active; 'I' for Inactive)
REMARK    1  A    between atoms: C3_3  and  C4_4 
REMARK    2  A    between atoms: C4_4  and  N1_5 
REMARK    3  A    between atoms: N1_5  and  C5_6 
REMARK       I    between atoms: N1_5  and  C7_8 
REMARK       I    between atoms: C7_8  and  N2_10 
REMARK    4  A    between atoms: N2_10  and  C8_12 
REMARK    5  A    between atoms: C8_12  and  N3_14 
REMARK    6  A    between atoms: N3_14  and  C9_16 
REMARK    7  A    between atoms: C9_16  and  C10_17 
REMARK    8  A    between atoms: C9_16  and  C13_26 
REMARK    9  A    between atoms: C12_20  and  N4_21 
REMARK   10  A    between atoms: C13_26  and  O2_28 
REMARK   11  A    between atoms: O2_28  and  C15_29 
ROOT
HETATM    1  C9  UNL     1       0.182 -10.063 -24.364  1.00  0.00     0.163 C 
ENDROOT
BRANCH   1   2
HETATM    2  N3  UNL     1       0.266 -10.914 -25.514  1.00  0.00    -0.354 N 
ATOM      3  H3  UNL     1      -0.567 -11.097 -26.073  1.00  0.00     0.162 HD
BRANCH   2   4
HETATM    4  C8  UNL     1       1.497 -11.501 -25.876  1.00  0.00     0.176 C 
HETATM    5  S1  UNL     1       1.818 -13.071 -25.592  1.00  0.00    -0.041 SA
BRANCH   4   6
HETATM    6  N2  UNL     1       2.487 -10.705 -26.504  1.00  0.00    -0.285 N 
HETATM    7  C7  UNL     1       2.167  -9.884 -27.615  1.00  0.00     0.324 C 
HETATM    8  N1  UNL     1       3.125  -9.079 -28.265  1.00  0.00    -0.331 N 
HETATM    9  O1  UNL     1       0.983  -9.830 -28.084  1.00  0.00    -0.247 OA
ATOM     10  H2  UNL     1       3.444 -10.724 -26.152  1.00  0.00     0.173 HD
BRANCH   8  11
HETATM   11  C4  UNL     1       2.761  -8.245 -29.386  1.00  0.00     0.154 C 
BRANCH  11  12
HETATM   12  C3  UNL     1       2.442  -6.858 -28.982  1.00  0.00    -0.011 C 
HETATM   13  C2  UNL     1       2.057  -5.922 -29.835  1.00  0.00    -0.033 C 
HETATM   14  C1  UNL     1       1.744  -4.537 -29.391  1.00  0.00     0.036 C 
ENDBRANCH  11  12
ENDBRANCH   8  11
BRANCH   8  15
HETATM   15  C5  UNL     1       4.499  -9.077 -27.834  1.00  0.00     0.123 C 
HETATM   16  C6  UNL     1       5.345 -10.072 -28.597  1.00  0.00     0.026 C 
ENDBRANCH   8  15
ENDBRANCH   4   6
ENDBRANCH   2   4
ENDBRANCH   1   2
BRANCH   1  17
HETATM   17  C10 UNL     1      -0.731 -10.664 -23.290  1.00  0.00     0.043 A 
HETATM   18  C11 UNL     1      -0.632 -11.992 -22.959  1.00  0.00     0.080 A 
HETATM   19  S2  UNL     1      -1.826 -12.162 -21.759  1.00  0.00    -0.064 SA
HETATM   20  C12 UNL     1      -2.389 -10.558 -21.736  1.00  0.00     0.142 A 
HETATM   21  N5  UNL     1      -1.639  -9.956 -22.650  1.00  0.00    -0.338 N 
ATOM     22  H5  UNL     1      -1.762  -8.964 -22.853  1.00  0.00     0.168 HD
BRANCH  20  23
HETATM   23  N4  UNL     1      -3.341 -10.028 -20.995  1.00  0.00    -0.380 N 
ATOM     24  H42 UNL     1      -3.296  -9.769 -20.010  1.00  0.00     0.158 HD
ATOM     25  H41 UNL     1      -4.294  -9.779 -21.262  1.00  0.00     0.158 HD
ENDBRANCH  20  23
ENDBRANCH   1  17
BRANCH   1  26
HETATM   26  C13 UNL     1      -0.339  -8.673 -24.741  1.00  0.00     0.156 C 
HETATM   27  C14 UNL     1       0.777  -7.747 -25.151  1.00  0.00     0.042 C 
BRANCH  26  28
HETATM   28  O2  UNL     1      -1.355  -8.751 -25.692  1.00  0.00    -0.314 OA
BRANCH  28  29
HETATM   29  C15 UNL     1      -2.548  -8.090 -25.489  1.00  0.00     0.255 C 
HETATM   30  C16 UNL     1      -2.951  -6.911 -26.278  1.00  0.00     0.126 C 
HETATM   31  O3  UNL     1      -3.313  -8.516 -24.597  1.00  0.00    -0.266 OA
ENDBRANCH  28  29
ENDBRANCH  26  28
ENDBRANCH   1  26
TORSDOF 11
ENDMDL
MODEL 2
REMARK VINA RESULT: -6.580315976      2.320      5.532
REMARK  11 active torsions:
REMARK  status: ('A' for Active; 'I' for Inactive)
REMARK    1  A    between atoms: C3_3  and  C4_4 
REMARK    2  A    between atoms: C4_4  and  N1_5 
REMARK    3  A    between atoms: N1_5  and  C5_6 
REMARK       I    between atoms: N1_5  and  C7_8 
REMARK       I    between atoms: C7_8  and  N2_10 
REMARK    4  A    between atoms: N2_10  and  C8_12 
REMARK    5  A    between atoms: C8_12  and  N3_14 
REMARK    6  A    between atoms: N3_14  and  C9_16 
REMARK    7  A    between atoms: C9_16  and  C10_17 
REMARK    8  A    between atoms: C9_16  and  C13_26 
REMARK    9  A    between atoms: C12_20  and  N4_21 
REMARK   10  A    between atoms: C13_26  and  O2_28 
REMARK   11  A    between atoms: O2_28  and  C15_29 
ROOT
HETATM    1  C9  UNL     1       0.949 -11.136 -26.298  1.00  0.00     0.163 C 
ENDROOT
BRANCH   1   2
HETATM    2  N3  UNL     1       0.980 -10.222 -25.196  1.00  0.00    -0.354 N 
ATOM      3  H3  UNL     1       1.875  -9.907 -24.822  1.00  0.00     0.162 HD
BRANCH   2   4
HETATM    4  C8  UNL     1      -0.223  -9.754 -24.625  1.00  0.00     0.176 C 
HETATM    5  S1  UNL     1      -0.723 -10.242 -23.155  1.00  0.00    -0.041 SA
BRANCH   4   6
HETATM    6  N2  UNL     1      -1.023  -8.835 -25.348  1.00  0.00    -0.285 N 
HETATM    7  C7  UNL     1      -0.464  -7.653 -25.896  1.00  0.00     0.324 C 
HETATM    8  N1  UNL     1      -1.228  -6.716 -26.620  1.00  0.00    -0.331 N 
HETATM    9  O1  UNL     1       0.774  -7.378 -25.760  1.00  0.00    -0.247 OA
ATOM     10  H2  UNL     1      -2.017  -9.027 -25.476  1.00  0.00     0.173 HD
BRANCH   8  11
HETATM   11  C4  UNL     1      -0.623  -5.529 -27.175  1.00  0.00     0.154 C 
BRANCH  11  12
HETATM   12  C3  UNL     1       0.026  -5.779 -28.481  1.00  0.00    -0.011 C 
HETATM   13  C2  UNL     1       1.259  -5.390 -28.767  1.00  0.00    -0.033 C 
HETATM   14  C1  UNL     1       1.878  -5.659 -30.092  1.00  0.00     0.036 C 
ENDBRANCH  11  12
ENDBRANCH   8  11
BRANCH   8  15
HETATM   15  C5  UNL     1      -2.641  -6.914 -26.817  1.00  0.00     0.123 C 
HETATM   16  C6  UNL     1      -3.445  -5.666 -26.524  1.00  0.00     0.026 C 
ENDBRANCH   8  15
ENDBRANCH   4   6
ENDBRANCH   2   4
ENDBRANCH   1   2
BRANCH   1  17
HETATM   17  C10 UNL     1       1.605 -12.472 -25.934  1.00  0.00     0.043 A 
HETATM   18  C11 UNL     1       0.840 -13.602 -25.783  1.00  0.00     0.080 A 
HETATM   19  S2  UNL     1       2.001 -14.782 -25.389  1.00  0.00    -0.064 SA
HETATM   20  C12 UNL     1       3.385 -13.796 -25.433  1.00  0.00     0.142 A 
HETATM   21  N5  UNL     1       2.902 -12.601 -25.749  1.00  0.00    -0.338 N 
ATOM     22  H5  UNL     1       3.523 -11.798 -25.845  1.00  0.00     0.168 HD
BRANCH  20  23
HETATM   23  N4  UNL     1       4.641 -14.127 -25.209  1.00  0.00    -0.380 N 
ATOM     24  H42 UNL     1       5.283 -14.609 -25.838  1.00  0.00     0.158 HD
ATOM     25  H41 UNL     1       5.204 -13.966 -24.374  1.00  0.00     0.158 HD
ENDBRANCH  20  23
ENDBRANCH   1  17
BRANCH   1  26
HETATM   26  C13 UNL     1       1.657 -10.551 -27.524  1.00  0.00     0.156 C 
HETATM   27  C14 UNL     1       0.689  -9.880 -28.465  1.00  0.00     0.042 C 
BRANCH  26  28
HETATM   28  O2  UNL     1       2.714  -9.721 -27.153  1.00  0.00    -0.314 OA
BRANCH  28  29
HETATM   29  C15 UNL     1       3.917  -9.788 -27.823  1.00  0.00     0.255 C 
HETATM   30  C16 UNL     1       4.565  -8.605 -28.418  1.00  0.00     0.126 C 
HETATM   31  O3  UNL     1       4.473 -10.903 -27.926  1.00  0.00    -0.266 OA
ENDBRANCH  28  29
ENDBRANCH  26  28
ENDBRANCH   1  26
TORSDOF 11
ENDMDL
MODEL 3
REMARK VINA RESULT: -6.563077684      2.760      6.887
REMARK  11 active torsions:
REMARK  status: ('A' for Active; 'I' for Inactive)
REMARK    1  A    between atoms: C3_3  and  C4_4 
REMARK    2  A    between atoms: C4_4  and  N1_5 
REMARK    3  A    between atoms: N1_5  and  C5_6 
REMARK       I    between atoms: N1_5  and  C7_8 
REMARK       I    between atoms: C7_8  and  N2_10 
REMARK    4  A    between atoms: N2_10  and  C8_12 
REMARK    5  A    between atoms: C8_12  and  N3_14 
REMARK    6  A    between atoms: N3_14  and  C9_16 
REMARK    7  A    between atoms: C9_16  and  C10_17 
REMARK    8  A    between atoms: C9_16  and  C13_26 
REMARK    9  A    between atoms: C12_20  and  N4_21 
REMARK   10  A    between atoms: C13_26  and  O2_28 
REMARK   11  A    between atoms: O2_28  and  C15_29 
ROOT
HETATM    1  C9  UNL     1       3.015  -9.232 -28.208  1.00  0.00     0.163 C 
ENDROOT
BRANCH   1   2
HETATM    2  N3  UNL     1       2.081 -10.318 -28.266  1.00  0.00    -0.354 N 
ATOM      3  H3  UNL     1       1.577 -10.508 -29.132  1.00  0.00     0.162 HD
BRANCH   2   4
HETATM    4  C8  UNL     1       1.856 -11.124 -27.130  1.00  0.00     0.176 C 
HETATM    5  S1  UNL     1       2.496 -12.613 -26.993  1.00  0.00    -0.041 SA
BRANCH   4   6
HETATM    6  N2  UNL     1       1.049 -10.628 -26.076  1.00  0.00    -0.285 N 
HETATM    7  C7  UNL     1      -0.218 -10.049 -26.337  1.00  0.00     0.324 C 
HETATM    8  N1  UNL     1      -1.048  -9.545 -25.315  1.00  0.00    -0.331 N 
HETATM    9  O1  UNL     1      -0.676  -9.956 -27.524  1.00  0.00    -0.247 OA
ATOM     10  H2  UNL     1       1.385 -10.689 -25.115  1.00  0.00     0.173 HD
BRANCH   8  11
HETATM   11  C4  UNL     1      -2.339  -8.973 -25.616  1.00  0.00     0.154 C 
BRANCH  11  12
HETATM   12  C3  UNL     1      -2.326  -7.494 -25.584  1.00  0.00    -0.011 C 
HETATM   13  C2  UNL     1      -3.148  -6.744 -26.301  1.00  0.00    -0.033 C 
HETATM   14  C1  UNL     1      -3.105  -5.258 -26.243  1.00  0.00     0.036 C 
ENDBRANCH  11  12
ENDBRANCH   8  11
BRANCH   8  15
HETATM   15  C5  UNL     1      -0.624  -9.579 -23.940  1.00  0.00     0.123 C 
HETATM   16  C6  UNL     1      -1.243 -10.726 -23.172  1.00  0.00     0.026 C 
ENDBRANCH   8  15
ENDBRANCH   4   6
ENDBRANCH   2   4
ENDBRANCH   1   2
BRANCH   1  17
HETATM   17  C10 UNL     1       2.361  -7.910 -28.621  1.00  0.00     0.043 A 
HETATM   18  C11 UNL     1       3.099  -6.937 -29.247  1.00  0.00     0.080 A 
HETATM   19  S2  UNL     1       1.953  -5.703 -29.486  1.00  0.00    -0.064 SA
HETATM   20  C12 UNL     1       0.607  -6.471 -28.787  1.00  0.00     0.142 A 
HETATM   21  N5  UNL     1       1.091  -7.644 -28.398  1.00  0.00    -0.338 N 
ATOM     22  H5  UNL     1       0.490  -8.326 -27.935  1.00  0.00     0.168 HD
BRANCH  20  23
HETATM   23  N4  UNL     1      -0.624  -6.021 -28.657  1.00  0.00    -0.380 N 
ATOM     24  H42 UNL     1      -0.961  -5.069 -28.802  1.00  0.00     0.158 HD
ATOM     25  H41 UNL     1      -1.466  -6.531 -28.388  1.00  0.00     0.158 HD
ENDBRANCH  20  23
ENDBRANCH   1  17
BRANCH   1  26
HETATM   26  C13 UNL     1       4.225  -9.494 -29.110  1.00  0.00     0.156 C 
HETATM   27  C14 UNL     1       5.365 -10.126 -28.353  1.00  0.00     0.042 C 
BRANCH  26  28
HETATM   28  O2  UNL     1       3.865 -10.214 -30.248  1.00  0.00    -0.314 OA
BRANCH  28  29
HETATM   29  C15 UNL     1       4.602 -10.095 -31.407  1.00  0.00     0.255 C 
HETATM   30  C16 UNL     1       4.995  -8.790 -31.971  1.00  0.00     0.126 C 
HETATM   31  O3  UNL     1       4.945 -11.142 -31.997  1.00  0.00    -0.266 OA
ENDBRANCH  28  29
ENDBRANCH  26  28
ENDBRANCH   1  26
TORSDOF 11
ENDMDL
MODEL 4
REMARK VINA RESULT: -6.525576828      3.106      5.207
REMARK  11 active torsions:
REMARK  status: ('A' for Active; 'I' for Inactive)
REMARK    1  A    between atoms: C3_3  and  C4_4 
REMARK    2  A    between atoms: C4_4  and  N1_5 
REMARK    3  A    between atoms: N1_5  and  C5_6 
REMARK       I    between atoms: N1_5  and  C7_8 
REMARK       I    between atoms: C7_8  and  N2_10 
REMARK    4  A    between atoms: N2_10  and  C8_12 
REMARK    5  A    between atoms: C8_12  and  N3_14 
REMARK    6  A    between atoms: N3_14  and  C9_16 
REMARK    7  A    between atoms: C9_16  and  C10_17 
REMARK    8  A    between atoms: C9_16  and  C13_26 
REMARK    9  A    between atoms: C12_20  and  N4_21 
REMARK   10  A    between atoms: C13_26  and  O2_28 
REMARK   11  A    between atoms: O2_28  and  C15_29 
ROOT
HETATM    1  C9  UNL     1       0.268 -12.736 -23.519  1.00  0.00     0.163 C 
ENDROOT
BRANCH   1   2
HETATM    2  N3  UNL     1      -0.245 -12.206 -24.748  1.00  0.00    -0.354 N 
ATOM      3  H3  UNL     1      -1.244 -12.258 -24.945  1.00  0.00     0.162 HD
BRANCH   2   4
HETATM    4  C8  UNL     1       0.627 -11.613 -25.686  1.00  0.00     0.176 C 
HETATM    5  S1  UNL     1       1.730 -12.485 -26.505  1.00  0.00    -0.041 SA
BRANCH   4   6
HETATM    6  N2  UNL     1       0.544 -10.219 -25.925  1.00  0.00    -0.285 N 
HETATM    7  C7  UNL     1      -0.711  -9.576 -26.070  1.00  0.00     0.324 C 
HETATM    8  N1  UNL     1      -0.831  -8.192 -26.309  1.00  0.00    -0.331 N 
HETATM    9  O1  UNL     1      -1.805 -10.226 -25.990  1.00  0.00    -0.247 OA
ATOM     10  H2  UNL     1       1.402  -9.670 -25.993  1.00  0.00     0.173 HD
BRANCH   8  11
HETATM   11  C4  UNL     1      -2.126  -7.568 -26.440  1.00  0.00     0.154 C 
BRANCH  11  12
HETATM   12  C3  UNL     1      -2.199  -6.260 -25.753  1.00  0.00    -0.011 C 
HETATM   13  C2  UNL     1      -2.525  -5.132 -26.366  1.00  0.00    -0.033 C 
HETATM   14  C1  UNL     1      -2.588  -3.836 -25.641  1.00  0.00     0.036 C 
ENDBRANCH  11  12
ENDBRANCH   8  11
BRANCH   8  15
HETATM   15  C5  UNL     1       0.339  -7.363 -26.440  1.00  0.00     0.123 C 
HETATM   16  C6  UNL     1       0.731  -7.143 -27.885  1.00  0.00     0.026 C 
ENDBRANCH   8  15
ENDBRANCH   4   6
ENDBRANCH   2   4
ENDBRANCH   1   2
BRANCH   1  17
HETATM   17  C10 UNL     1       0.401 -14.261 -23.580  1.00  0.00     0.043 A 
HETATM   18  C11 UNL     1       1.306 -14.911 -22.778  1.00  0.00     0.080 A 
HETATM   19  S2  UNL     1       1.077 -16.540 -23.212  1.00  0.00    -0.064 SA
HETATM   20  C12 UNL     1      -0.141 -16.321 -24.377  1.00  0.00     0.142 A 
HETATM   21  N5  UNL     1      -0.324 -15.007 -24.387  1.00  0.00    -0.338 N 
ATOM     22  H5  UNL     1      -1.013 -14.583 -25.009  1.00  0.00     0.168 HD
BRANCH  20  23
HETATM   23  N4  UNL     1      -0.762 -17.229 -25.102  1.00  0.00    -0.380 N 
ATOM     24  H42 UNL     1      -1.469 -17.898 -24.796  1.00  0.00     0.158 HD
ATOM     25  H41 UNL     1      -0.656 -17.435 -26.096  1.00  0.00     0.158 HD
ENDBRANCH  20  23
ENDBRANCH   1  17
BRANCH   1  26
HETATM   26  C13 UNL     1      -0.630 -12.361 -22.336  1.00  0.00     0.156 C 
HETATM   27  C14 UNL     1      -0.956 -10.889 -22.322  1.00  0.00     0.042 C 
BRANCH  26  28
HETATM   28  O2  UNL     1      -1.766 -13.168 -22.284  1.00  0.00    -0.314 OA
BRANCH  28  29
HETATM   29  C15 UNL     1      -2.305 -13.529 -21.068  1.00  0.00     0.255 C 
HETATM   30  C16 UNL     1      -1.712 -14.573 -20.211  1.00  0.00     0.126 C 
HETATM   31  O3  UNL     1      -3.341 -12.944 -20.685  1.00  0.00    -0.266 OA
ENDBRANCH  28  29
ENDBRANCH  26  28
ENDBRANCH   1  26
TORSDOF 11
ENDMDL
MODEL 5
REMARK VINA RESULT: -6.463207125      3.029      4.746
REMARK  11 active torsions:
REMARK  status: ('A' for Active; 'I' for Inactive)
REMARK    1  A    between atoms: C3_3  and  C4_4 
REMARK    2  A    between atoms: C4_4  and  N1_5 
REMARK    3  A    between atoms: N1_5  and  C5_6 
REMARK       I    between atoms: N1_5  and  C7_8 
REMARK       I    between atoms: C7_8  and  N2_10 
REMARK    4  A    between atoms: N2_10  and  C8_12 
REMARK    5  A    between atoms: C8_12  and  N3_14 
REMARK    6  A    between atoms: N3_14  and  C9_16 
REMARK    7  A    between atoms: C9_16  and  C10_17 
REMARK    8  A    between atoms: C9_16  and  C13_26 
REMARK    9  A    between atoms: C12_20  and  N4_21 
REMARK   10  A    between atoms: C13_26  and  O2_28 
REMARK   11  A    between atoms: O2_28  and  C15_29 
ROOT
HETATM    1  C9  UNL     1      -0.281  -6.272 -27.201  1.00  0.00     0.163 C 
ENDROOT
BRANCH   1   2
HETATM    2  N3  UNL     1       0.099  -6.737 -28.503  1.00  0.00    -0.354 N 
ATOM      3  H3  UNL     1      -0.583  -7.219 -29.088  1.00  0.00     0.162 HD
BRANCH   2   4
HETATM    4  C8  UNL     1       1.411  -6.532 -28.977  1.00  0.00     0.176 C 
HETATM    5  S1  UNL     1       1.792  -5.272 -29.933  1.00  0.00    -0.041 SA
BRANCH   4   6
HETATM    6  N2  UNL     1       2.431  -7.446 -28.615  1.00  0.00    -0.285 N 
HETATM    7  C7  UNL     1       2.173  -8.838 -28.543  1.00  0.00     0.324 C 
HETATM    8  N1  UNL     1       3.162  -9.777 -28.186  1.00  0.00    -0.331 N 
HETATM    9  O1  UNL     1       1.019  -9.315 -28.804  1.00  0.00    -0.247 OA
ATOM     10  H2  UNL     1       3.366  -7.097 -28.402  1.00  0.00     0.173 HD
BRANCH   8  11
HETATM   11  C4  UNL     1       2.866 -11.189 -28.136  1.00  0.00     0.154 C 
BRANCH  11  12
HETATM   12  C3  UNL     1       2.676 -11.681 -26.753  1.00  0.00    -0.011 C 
HETATM   13  C2  UNL     1       1.872 -11.098 -25.878  1.00  0.00    -0.033 C 
HETATM   14  C1  UNL     1       1.707 -11.622 -24.496  1.00  0.00     0.036 C 
ENDBRANCH  11  12
ENDBRANCH   8  11
BRANCH   8  15
HETATM   15  C5  UNL     1       4.495  -9.349 -27.850  1.00  0.00     0.123 C 
HETATM   16  C6  UNL     1       5.551 -10.044 -28.683  1.00  0.00     0.026 C 
ENDBRANCH   8  15
ENDBRANCH   4   6
ENDBRANCH   2   4
ENDBRANCH   1   2
BRANCH   1  17
HETATM   17  C10 UNL     1      -0.796  -7.419 -26.326  1.00  0.00     0.043 A 
HETATM   18  C11 UNL     1      -1.064  -7.210 -24.996  1.00  0.00     0.080 A 
HETATM   19  S2  UNL     1      -1.590  -8.744 -24.482  1.00  0.00    -0.064 SA
HETATM   20  C12 UNL     1      -1.446  -9.568 -25.962  1.00  0.00     0.142 A 
HETATM   21  N5  UNL     1      -1.000  -8.634 -26.792  1.00  0.00    -0.338 N 
ATOM     22  H5  UNL     1      -0.818  -8.852 -27.771  1.00  0.00     0.168 HD
BRANCH  20  23
HETATM   23  N4  UNL     1      -1.709 -10.830 -26.233  1.00  0.00    -0.380 N 
ATOM     24  H42 UNL     1      -1.736 -11.282 -27.147  1.00  0.00     0.158 HD
ATOM     25  H41 UNL     1      -1.935 -11.588 -25.588  1.00  0.00     0.158 HD
ENDBRANCH  20  23
ENDBRANCH   1  17
BRANCH   1  26
HETATM   26  C13 UNL     1      -1.361  -5.190 -27.293  1.00  0.00     0.156 C 
HETATM   27  C14 UNL     1      -0.800  -3.813 -27.050  1.00  0.00     0.042 C 
BRANCH  26  28
HETATM   28  O2  UNL     1      -2.072  -5.282 -28.489  1.00  0.00    -0.314 OA
BRANCH  28  29
HETATM   29  C15 UNL     1      -3.388  -5.696 -28.485  1.00  0.00     0.255 C 
HETATM   30  C16 UNL     1      -4.073  -6.160 -27.264  1.00  0.00     0.126 C 
HETATM   31  O3  UNL     1      -4.016  -5.674 -29.565  1.00  0.00    -0.266 OA
ENDBRANCH  28  29
ENDBRANCH  26  28
ENDBRANCH   1  26
TORSDOF 11
ENDMDL
