MODEL 1
REMARK VINA RESULT: -7.811481172      0.000      0.000
REMARK  13 active torsions:
REMARK  status: ('A' for Active; 'I' for Inactive)
REMARK    1  A    between atoms: C2_2  and  C3_3 
REMARK    2  A    between atoms: C3_3  and  C4_4 
REMARK    3  A    between atoms: C4_4  and  C5_5 
REMARK    4  A    between atoms: C5_5  and  C6_6 
REMARK    5  A    between atoms: C6_6  and  C7_7 
REMARK    6  A    between atoms: C8_9  and  O2_10 
REMARK    7  A    between atoms: C9_12  and  C10_13 
REMARK    8  A    between atoms: C10_13  and  C11_14 
REMARK    9  A    between atoms: C11_14  and  C12_15 
REMARK   10  A    between atoms: C15_21  and  C16_22 
REMARK   11  A    between atoms: C16_22  and  N2_23 
REMARK   12  A    between atoms: C16_22  and  C17_27 
REMARK   13  A    between atoms: C17_27  and  C18_28 
ROOT
HETATM    1  C7  UNL     1      12.411  42.516  -8.196  1.00  0.00     0.216 C 
HETATM    2  O1  UNL     1      11.864  41.527  -8.971  1.00  0.00    -0.345 OA
HETATM    3  C8  UNL     1      12.738  41.055  -9.937  1.00  0.00     0.280 C 
HETATM    4  C9  UNL     1      13.744  40.075  -9.496  1.00  0.00     0.139 C 
HETATM    5  N1  UNL     1      13.341  39.141  -8.465  1.00  0.00    -0.350 N 
ATOM      6  H1  UNL     1      14.077  38.497  -8.179  1.00  0.00     0.163 HD
HETATM    7  C14 UNL     1      12.151  38.960  -7.798  1.00  0.00     0.243 C 
HETATM    8  O3  UNL     1      11.531  37.846  -8.025  1.00  0.00    -0.271 OA
HETATM    9  C15 UNL     1      11.425  39.829  -6.841  1.00  0.00     0.206 C 
HETATM   10  N3  UNL     1      12.225  40.856  -6.261  1.00  0.00    -0.344 N 
ATOM     11  H3  UNL     1      12.320  40.844  -5.245  1.00  0.00     0.163 HD
HETATM   12  C25 UNL     1      12.896  41.883  -6.944  1.00  0.00     0.247 C 
HETATM   13  O4  UNL     1      13.985  42.307  -6.477  1.00  0.00    -0.271 OA
ENDROOT
BRANCH   9  14
HETATM   14  C16 UNL     1      10.888  38.912  -5.720  1.00  0.00     0.215 C 
BRANCH  14  15
HETATM   15  N2  UNL     1      12.005  38.098  -5.320  1.00  0.00    -0.073 N 
ATOM     16  H23 UNL     1      11.913  37.117  -5.584  1.00  0.00     0.274 HD
ATOM     17  H22 UNL     1      12.858  38.285  -5.847  1.00  0.00     0.274 HD
ATOM     18  H21 UNL     1      12.104  38.245  -4.315  1.00  0.00     0.274 HD
ENDBRANCH  14  15
BRANCH  14  19
HETATM   19  C17 UNL     1      10.223  39.686  -4.648  1.00  0.00     0.040 C 
BRANCH  19  20
HETATM   20  C18 UNL     1       9.823  38.885  -3.439  1.00  0.00    -0.012 C 
HETATM   21  C19 UNL     1       8.681  39.583  -2.733  1.00  0.00     0.005 C 
HETATM   22  C20 UNL     1       9.165  40.416  -1.567  1.00  0.00     0.001 C 
HETATM   23  C21 UNL     1       9.828  39.559  -0.510  1.00  0.00     0.004 C 
HETATM   24  C22 UNL     1      10.462  38.336  -1.079  1.00  0.00    -0.018 C 
HETATM   25  C23 UNL     1       9.594  37.112  -0.982  1.00  0.00     0.010 C 
HETATM   26  C24 UNL     1      10.957  38.584  -2.491  1.00  0.00     0.009 C 
ENDBRANCH  19  20
ENDBRANCH  14  19
ENDBRANCH   9  14
BRANCH   4  27
HETATM   27  C10 UNL     1      14.107  39.198 -10.705  1.00  0.00     0.030 C 
BRANCH  27  28
HETATM   28  C11 UNL     1      14.218  37.743 -10.373  1.00  0.00     0.002 C 
BRANCH  28  29
HETATM   29  C12 UNL     1      13.399  36.998 -11.447  1.00  0.00    -0.004 C 
HETATM   30  C13 UNL     1      13.767  37.550 -12.808  1.00  0.00     0.005 C 
ENDBRANCH  28  29
ENDBRANCH  27  28
ENDBRANCH   4  27
BRANCH   1  31
HETATM   31  C6  UNL     1      11.315  43.545  -7.883  1.00  0.00     0.042 C 
BRANCH  31  32
HETATM   32  C5  UNL     1      10.235  43.458  -8.934  1.00  0.00     0.003 C 
BRANCH  32  33
HETATM   33  C4  UNL     1       9.018  44.205  -8.460  1.00  0.00     0.000 C 
BRANCH  33  34
HETATM   34  C3  UNL     1       9.078  44.550  -6.991  1.00  0.00    -0.000 C 
BRANCH  34  35
HETATM   35  C2  UNL     1       7.868  43.940  -6.312  1.00  0.00    -0.005 C 
HETATM   36  C1  UNL     1       8.332  42.931  -5.294  1.00  0.00     0.005 C 
ENDBRANCH  34  35
ENDBRANCH  33  34
ENDBRANCH  32  33
ENDBRANCH  31  32
ENDBRANCH   1  31
BRANCH   3  37
HETATM   37  O2  UNL     1      13.445  42.170 -10.453  1.00  0.00    -0.369 OA
ATOM     38  H2  UNL     1      13.191  42.275 -11.363  1.00  0.00     0.212 HD
ENDBRANCH   3  37
TORSDOF 13
ENDMDL
MODEL 2
REMARK VINA RESULT: -7.677165185      1.327      2.460
REMARK  13 active torsions:
REMARK  status: ('A' for Active; 'I' for Inactive)
REMARK    1  A    between atoms: C2_2  and  C3_3 
REMARK    2  A    between atoms: C3_3  and  C4_4 
REMARK    3  A    between atoms: C4_4  and  C5_5 
REMARK    4  A    between atoms: C5_5  and  C6_6 
REMARK    5  A    between atoms: C6_6  and  C7_7 
REMARK    6  A    between atoms: C8_9  and  O2_10 
REMARK    7  A    between atoms: C9_12  and  C10_13 
REMARK    8  A    between atoms: C10_13  and  C11_14 
REMARK    9  A    between atoms: C11_14  and  C12_15 
REMARK   10  A    between atoms: C15_21  and  C16_22 
REMARK   11  A    between atoms: C16_22  and  N2_23 
REMARK   12  A    between atoms: C16_22  and  C17_27 
REMARK   13  A    between atoms: C17_27  and  C18_28 
ROOT
HETATM    1  C7  UNL     1      12.399  42.502  -8.273  1.00  0.00     0.216 C 
HETATM    2  O1  UNL     1      11.898  41.488  -9.047  1.00  0.00    -0.345 OA
HETATM    3  C8  UNL     1      12.806  41.027  -9.987  1.00  0.00     0.280 C 
HETATM    4  C9  UNL     1      13.827  40.081  -9.508  1.00  0.00     0.139 C 
HETATM    5  N1  UNL     1      13.426  39.151  -8.474  1.00  0.00    -0.350 N 
ATOM      6  H1  UNL     1      14.173  38.531  -8.162  1.00  0.00     0.163 HD
HETATM    7  C14 UNL     1      12.227  38.946  -7.832  1.00  0.00     0.243 C 
HETATM    8  O3  UNL     1      11.643  37.812  -8.056  1.00  0.00    -0.271 OA
HETATM    9  C15 UNL     1      11.456  39.807  -6.903  1.00  0.00     0.206 C 
HETATM   10  N3  UNL     1      12.214  40.864  -6.320  1.00  0.00    -0.344 N 
ATOM     11  H3  UNL     1      12.286  40.868  -5.303  1.00  0.00     0.163 HD
HETATM   12  C25 UNL     1      12.873  41.900  -7.002  1.00  0.00     0.247 C 
HETATM   13  O4  UNL     1      13.939  42.359  -6.517  1.00  0.00    -0.271 OA
ENDROOT
BRANCH   9  14
HETATM   14  C16 UNL     1      10.918  38.891  -5.782  1.00  0.00     0.215 C 
BRANCH  14  15
HETATM   15  N2  UNL     1      12.039  38.086  -5.372  1.00  0.00    -0.073 N 
ATOM     16  H23 UNL     1      12.868  38.212  -5.954  1.00  0.00     0.274 HD
ATOM     17  H22 UNL     1      12.461  38.387  -4.494  1.00  0.00     0.274 HD
ATOM     18  H21 UNL     1      11.693  37.126  -5.353  1.00  0.00     0.274 HD
ENDBRANCH  14  15
BRANCH  14  19
HETATM   19  C17 UNL     1      10.243  39.665  -4.717  1.00  0.00     0.040 C 
BRANCH  19  20
HETATM   20  C18 UNL     1       9.875  38.874  -3.491  1.00  0.00    -0.012 C 
HETATM   21  C19 UNL     1       8.686  39.524  -2.816  1.00  0.00     0.005 C 
HETATM   22  C20 UNL     1       9.108  40.413  -1.667  1.00  0.00     0.001 C 
HETATM   23  C21 UNL     1       9.805  39.623  -0.581  1.00  0.00     0.004 C 
HETATM   24  C22 UNL     1      10.516  38.424  -1.111  1.00  0.00    -0.018 C 
HETATM   25  C23 UNL     1       9.717  37.155  -0.991  1.00  0.00     0.010 C 
HETATM   26  C24 UNL     1      11.012  38.663  -2.524  1.00  0.00     0.009 C 
ENDBRANCH  19  20
ENDBRANCH  14  19
ENDBRANCH   9  14
BRANCH   4  27
HETATM   27  C10 UNL     1      14.242  39.198 -10.697  1.00  0.00     0.030 C 
BRANCH  27  28
HETATM   28  C11 UNL     1      13.536  37.878 -10.733  1.00  0.00     0.002 C 
BRANCH  28  29
HETATM   29  C12 UNL     1      13.589  37.408 -12.201  1.00  0.00    -0.004 C 
HETATM   30  C13 UNL     1      13.260  35.930 -12.248  1.00  0.00     0.005 C 
ENDBRANCH  28  29
ENDBRANCH  27  28
ENDBRANCH   4  27
BRANCH   1  31
HETATM   31  C6  UNL     1      11.269  43.504  -8.000  1.00  0.00     0.042 C 
BRANCH  31  32
HETATM   32  C5  UNL     1      11.861  44.878  -7.791  1.00  0.00     0.003 C 
BRANCH  32  33
HETATM   33  C4  UNL     1      12.932  45.119  -8.820  1.00  0.00     0.000 C 
BRANCH  33  34
HETATM   34  C3  UNL     1      14.259  45.499  -8.206  1.00  0.00    -0.000 C 
BRANCH  34  35
HETATM   35  C2  UNL     1      15.358  44.817  -8.996  1.00  0.00    -0.005 C 
HETATM   36  C1  UNL     1      16.344  44.203  -8.036  1.00  0.00     0.005 C 
ENDBRANCH  34  35
ENDBRANCH  33  34
ENDBRANCH  32  33
ENDBRANCH  31  32
ENDBRANCH   1  31
BRANCH   3  37
HETATM   37  O2  UNL     1      13.494  42.154 -10.502  1.00  0.00    -0.369 OA
ATOM     38  H2  UNL     1      14.179  41.833 -11.077  1.00  0.00     0.212 HD
ENDBRANCH   3  37
TORSDOF 13
ENDMDL
MODEL 3
REMARK VINA RESULT: -7.650782602      1.129      1.469
REMARK  13 active torsions:
REMARK  status: ('A' for Active; 'I' for Inactive)
REMARK    1  A    between atoms: C2_2  and  C3_3 
REMARK    2  A    between atoms: C3_3  and  C4_4 
REMARK    3  A    between atoms: C4_4  and  C5_5 
REMARK    4  A    between atoms: C5_5  and  C6_6 
REMARK    5  A    between atoms: C6_6  and  C7_7 
REMARK    6  A    between atoms: C8_9  and  O2_10 
REMARK    7  A    between atoms: C9_12  and  C10_13 
REMARK    8  A    between atoms: C10_13  and  C11_14 
REMARK    9  A    between atoms: C11_14  and  C12_15 
REMARK   10  A    between atoms: C15_21  and  C16_22 
REMARK   11  A    between atoms: C16_22  and  N2_23 
REMARK   12  A    between atoms: C16_22  and  C17_27 
REMARK   13  A    between atoms: C17_27  and  C18_28 
ROOT
HETATM    1  C7  UNL     1      12.347  42.512  -8.268  1.00  0.00     0.216 C 
HETATM    2  O1  UNL     1      11.857  41.492  -9.042  1.00  0.00    -0.345 OA
HETATM    3  C8  UNL     1      12.767  41.048  -9.987  1.00  0.00     0.280 C 
HETATM    4  C9  UNL     1      13.806  40.117  -9.517  1.00  0.00     0.139 C 
HETATM    5  N1  UNL     1      13.424  39.178  -8.483  1.00  0.00    -0.350 N 
ATOM      6  H1  UNL     1      14.182  38.568  -8.176  1.00  0.00     0.163 HD
HETATM    7  C14 UNL     1      12.231  38.952  -7.835  1.00  0.00     0.243 C 
HETATM    8  O3  UNL     1      11.664  37.811  -8.060  1.00  0.00    -0.271 OA
HETATM    9  C15 UNL     1      11.452  39.799  -6.901  1.00  0.00     0.206 C 
HETATM   10  N3  UNL     1      12.197  40.866  -6.319  1.00  0.00    -0.344 N 
ATOM     11  H3  UNL     1      12.274  40.869  -5.301  1.00  0.00     0.163 HD
HETATM   12  C25 UNL     1      12.836  41.914  -7.001  1.00  0.00     0.247 C 
HETATM   13  O4  UNL     1      13.897  42.389  -6.520  1.00  0.00    -0.271 OA
ENDROOT
BRANCH   9  14
HETATM   14  C16 UNL     1      10.934  38.872  -5.779  1.00  0.00     0.215 C 
BRANCH  14  15
HETATM   15  N2  UNL     1      12.064  38.071  -5.390  1.00  0.00    -0.073 N 
ATOM     16  H23 UNL     1      12.943  38.369  -5.814  1.00  0.00     0.274 HD
ATOM     17  H22 UNL     1      12.347  38.205  -4.419  1.00  0.00     0.274 HD
ATOM     18  H21 UNL     1      11.806  37.109  -5.613  1.00  0.00     0.274 HD
ENDBRANCH  14  15
BRANCH  14  19
HETATM   19  C17 UNL     1      10.268  39.635  -4.700  1.00  0.00     0.040 C 
BRANCH  19  20
HETATM   20  C18 UNL     1       9.901  38.828  -3.484  1.00  0.00    -0.012 C 
HETATM   21  C19 UNL     1       8.697  39.456  -2.813  1.00  0.00     0.005 C 
HETATM   22  C20 UNL     1       9.097  40.341  -1.654  1.00  0.00     0.001 C 
HETATM   23  C21 UNL     1       9.797  39.552  -0.569  1.00  0.00     0.004 C 
HETATM   24  C22 UNL     1      10.529  38.368  -1.102  1.00  0.00    -0.018 C 
HETATM   25  C23 UNL     1       9.748  37.087  -0.999  1.00  0.00     0.010 C 
HETATM   26  C24 UNL     1      11.034  38.626  -2.509  1.00  0.00     0.009 C 
ENDBRANCH  19  20
ENDBRANCH  14  19
ENDBRANCH   9  14
BRANCH   4  27
HETATM   27  C10 UNL     1      14.228  39.243 -10.709  1.00  0.00     0.030 C 
BRANCH  27  28
HETATM   28  C11 UNL     1      13.553  37.907 -10.738  1.00  0.00     0.002 C 
BRANCH  28  29
HETATM   29  C12 UNL     1      13.589  37.443 -12.208  1.00  0.00    -0.004 C 
HETATM   30  C13 UNL     1      13.261  35.965 -12.259  1.00  0.00     0.005 C 
ENDBRANCH  28  29
ENDBRANCH  27  28
ENDBRANCH   4  27
BRANCH   1  31
HETATM   31  C6  UNL     1      11.203  43.496  -7.986  1.00  0.00     0.042 C 
BRANCH  31  32
HETATM   32  C5  UNL     1      11.466  44.789  -8.721  1.00  0.00     0.003 C 
BRANCH  32  33
HETATM   33  C4  UNL     1      10.890  44.699 -10.108  1.00  0.00     0.000 C 
BRANCH  33  34
HETATM   34  C3  UNL     1       9.417  44.362 -10.111  1.00  0.00    -0.000 C 
BRANCH  34  35
HETATM   35  C2  UNL     1       8.641  45.635 -10.383  1.00  0.00    -0.005 C 
HETATM   36  C1  UNL     1       7.941  46.063  -9.120  1.00  0.00     0.005 C 
ENDBRANCH  34  35
ENDBRANCH  33  34
ENDBRANCH  32  33
ENDBRANCH  31  32
ENDBRANCH   1  31
BRANCH   3  37
HETATM   37  O2  UNL     1      13.436  42.187 -10.503  1.00  0.00    -0.369 OA
ATOM     38  H2  UNL     1      12.841  42.620 -11.105  1.00  0.00     0.212 HD
ENDBRANCH   3  37
TORSDOF 13
ENDMDL
MODEL 4
REMARK VINA RESULT: -7.281541905      5.885      8.710
REMARK  13 active torsions:
REMARK  status: ('A' for Active; 'I' for Inactive)
REMARK    1  A    between atoms: C2_2  and  C3_3 
REMARK    2  A    between atoms: C3_3  and  C4_4 
REMARK    3  A    between atoms: C4_4  and  C5_5 
REMARK    4  A    between atoms: C5_5  and  C6_6 
REMARK    5  A    between atoms: C6_6  and  C7_7 
REMARK    6  A    between atoms: C8_9  and  O2_10 
REMARK    7  A    between atoms: C9_12  and  C10_13 
REMARK    8  A    between atoms: C10_13  and  C11_14 
REMARK    9  A    between atoms: C11_14  and  C12_15 
REMARK   10  A    between atoms: C15_21  and  C16_22 
REMARK   11  A    between atoms: C16_22  and  N2_23 
REMARK   12  A    between atoms: C16_22  and  C17_27 
REMARK   13  A    between atoms: C17_27  and  C18_28 
ROOT
HETATM    1  C7  UNL     1      16.685  38.090 -15.030  1.00  0.00     0.216 C 
HETATM    2  O1  UNL     1      15.375  38.090 -15.432  1.00  0.00    -0.345 OA
HETATM    3  C8  UNL     1      15.207  37.614 -16.722  1.00  0.00     0.280 C 
HETATM    4  C9  UNL     1      15.199  36.151 -16.890  1.00  0.00     0.139 C 
HETATM    5  N1  UNL     1      14.609  35.372 -15.822  1.00  0.00    -0.350 N 
ATOM      6  H1  UNL     1      14.646  34.364 -15.975  1.00  0.00     0.163 HD
HETATM    7  C14 UNL     1      14.007  35.735 -14.639  1.00  0.00     0.243 C 
HETATM    8  O3  UNL     1      12.743  35.477 -14.537  1.00  0.00    -0.271 OA
HETATM    9  C15 UNL     1      14.554  36.385 -13.424  1.00  0.00     0.206 C 
HETATM   10  N3  UNL     1      15.975  36.329 -13.320  1.00  0.00    -0.344 N 
ATOM     11  H3  UNL     1      16.356  35.853 -12.502  1.00  0.00     0.163 HD
HETATM   12  C25 UNL     1      16.905  36.861 -14.228  1.00  0.00     0.247 C 
HETATM   13  O4  UNL     1      18.003  36.268 -14.385  1.00  0.00    -0.271 OA
ENDROOT
BRANCH   9  14
HETATM   14  C16 UNL     1      13.929  35.665 -12.209  1.00  0.00     0.215 C 
BRANCH  14  15
HETATM   15  N2  UNL     1      15.011  34.946 -11.589  1.00  0.00    -0.073 N 
ATOM     16  H23 UNL     1      15.932  35.335 -11.793  1.00  0.00     0.274 HD
ATOM     17  H22 UNL     1      15.053  35.060 -10.577  1.00  0.00     0.274 HD
ATOM     18  H21 UNL     1      14.901  33.976 -11.888  1.00  0.00     0.274 HD
ENDBRANCH  14  15
BRANCH  14  19
HETATM   19  C17 UNL     1      13.181  36.601 -11.340  1.00  0.00     0.040 C 
BRANCH  19  20
HETATM   20  C18 UNL     1      14.000  37.720 -10.757  1.00  0.00    -0.012 C 
HETATM   21  C19 UNL     1      14.000  37.605  -9.248  1.00  0.00     0.005 C 
HETATM   22  C20 UNL     1      12.973  38.516  -8.614  1.00  0.00     0.001 C 
HETATM   23  C21 UNL     1      13.268  39.972  -8.906  1.00  0.00     0.004 C 
HETATM   24  C22 UNL     1      13.976  40.164 -10.204  1.00  0.00    -0.018 C 
HETATM   25  C23 UNL     1      15.467  40.287 -10.059  1.00  0.00     0.010 C 
HETATM   26  C24 UNL     1      13.579  39.097 -11.206  1.00  0.00     0.009 C 
ENDBRANCH  19  20
ENDBRANCH  14  19
ENDBRANCH   9  14
BRANCH   4  27
HETATM   27  C10 UNL     1      14.354  35.826 -18.132  1.00  0.00     0.030 C 
BRANCH  27  28
HETATM   28  C11 UNL     1      13.887  34.404 -18.179  1.00  0.00     0.002 C 
BRANCH  28  29
HETATM   29  C12 UNL     1      15.008  33.612 -18.882  1.00  0.00    -0.004 C 
HETATM   30  C13 UNL     1      15.446  32.481 -17.974  1.00  0.00     0.005 C 
ENDBRANCH  28  29
ENDBRANCH  27  28
ENDBRANCH   4  27
BRANCH   1  31
HETATM   31  C6  UNL     1      16.926  39.339 -14.170  1.00  0.00     0.042 C 
BRANCH  31  32
HETATM   32  C5  UNL     1      15.619  40.070 -13.977  1.00  0.00     0.003 C 
BRANCH  32  33
HETATM   33  C4  UNL     1      15.867  41.554 -14.027  1.00  0.00     0.000 C 
BRANCH  33  34
HETATM   34  C3  UNL     1      14.927  42.336 -13.140  1.00  0.00    -0.000 C 
BRANCH  34  35
HETATM   35  C2  UNL     1      13.506  41.971 -13.520  1.00  0.00    -0.005 C 
HETATM   36  C1  UNL     1      12.554  42.642 -12.564  1.00  0.00     0.005 C 
ENDBRANCH  34  35
ENDBRANCH  33  34
ENDBRANCH  32  33
ENDBRANCH  31  32
ENDBRANCH   1  31
BRANCH   3  37
HETATM   37  O2  UNL     1      16.278  38.115 -17.504  1.00  0.00    -0.369 OA
ATOM     38  H2  UNL     1      16.959  37.452 -17.515  1.00  0.00     0.212 HD
ENDBRANCH   3  37
TORSDOF 13
ENDMDL
MODEL 5
REMARK VINA RESULT: -7.106719061      5.891      8.963
REMARK  13 active torsions:
REMARK  status: ('A' for Active; 'I' for Inactive)
REMARK    1  A    between atoms: C2_2  and  C3_3 
REMARK    2  A    between atoms: C3_3  and  C4_4 
REMARK    3  A    between atoms: C4_4  and  C5_5 
REMARK    4  A    between atoms: C5_5  and  C6_6 
REMARK    5  A    between atoms: C6_6  and  C7_7 
REMARK    6  A    between atoms: C8_9  and  O2_10 
REMARK    7  A    between atoms: C9_12  and  C10_13 
REMARK    8  A    between atoms: C10_13  and  C11_14 
REMARK    9  A    between atoms: C11_14  and  C12_15 
REMARK   10  A    between atoms: C15_21  and  C16_22 
REMARK   11  A    between atoms: C16_22  and  N2_23 
REMARK   12  A    between atoms: C16_22  and  C17_27 
REMARK   13  A    between atoms: C17_27  and  C18_28 
ROOT
HETATM    1  C7  UNL     1      16.684  38.105 -15.089  1.00  0.00     0.216 C 
HETATM    2  O1  UNL     1      15.367  38.106 -15.467  1.00  0.00    -0.345 OA
HETATM    3  C8  UNL     1      15.175  37.631 -16.755  1.00  0.00     0.280 C 
HETATM    4  C9  UNL     1      15.164  36.169 -16.924  1.00  0.00     0.139 C 
HETATM    5  N1  UNL     1      14.592  35.389 -15.845  1.00  0.00    -0.350 N 
ATOM      6  H1  UNL     1      14.626  34.382 -16.000  1.00  0.00     0.163 HD
HETATM    7  C14 UNL     1      14.012  35.751 -14.652  1.00  0.00     0.243 C 
HETATM    8  O3  UNL     1      12.750  35.495 -14.527  1.00  0.00    -0.271 OA
HETATM    9  C15 UNL     1      14.581  36.400 -13.446  1.00  0.00     0.206 C 
HETATM   10  N3  UNL     1      16.004  36.343 -13.368  1.00  0.00    -0.344 N 
ATOM     11  H3  UNL     1      16.399  35.866 -12.557  1.00  0.00     0.163 HD
HETATM   12  C25 UNL     1      16.917  36.875 -14.292  1.00  0.00     0.247 C 
HETATM   13  O4  UNL     1      18.012  36.282 -14.469  1.00  0.00    -0.271 OA
ENDROOT
BRANCH   9  14
HETATM   14  C16 UNL     1      13.978  35.680 -12.220  1.00  0.00     0.215 C 
BRANCH  14  15
HETATM   15  N2  UNL     1      15.080  35.003 -11.590  1.00  0.00    -0.073 N 
ATOM     16  H23 UNL     1      15.422  34.199 -12.117  1.00  0.00     0.274 HD
ATOM     17  H22 UNL     1      15.950  35.535 -11.604  1.00  0.00     0.274 HD
ATOM     18  H21 UNL     1      14.757  34.770 -10.651  1.00  0.00     0.274 HD
ENDBRANCH  14  15
BRANCH  14  19
HETATM   19  C17 UNL     1      13.202  36.606 -11.366  1.00  0.00     0.040 C 
BRANCH  19  20
HETATM   20  C18 UNL     1      14.001  37.719 -10.745  1.00  0.00    -0.012 C 
HETATM   21  C19 UNL     1      13.951  37.589  -9.238  1.00  0.00     0.005 C 
HETATM   22  C20 UNL     1      12.903  38.494  -8.629  1.00  0.00     0.001 C 
HETATM   23  C21 UNL     1      13.207  39.953  -8.897  1.00  0.00     0.004 C 
HETATM   24  C22 UNL     1      13.957  40.158 -10.169  1.00  0.00    -0.018 C 
HETATM   25  C23 UNL     1      15.443  40.280  -9.973  1.00  0.00     0.010 C 
HETATM   26  C24 UNL     1      13.593  39.100 -11.194  1.00  0.00     0.009 C 
ENDBRANCH  19  20
ENDBRANCH  14  19
ENDBRANCH   9  14
BRANCH   4  27
HETATM   27  C10 UNL     1      14.296  35.845 -18.150  1.00  0.00     0.030 C 
BRANCH  27  28
HETATM   28  C11 UNL     1      13.862  34.414 -18.212  1.00  0.00     0.002 C 
BRANCH  28  29
HETATM   29  C12 UNL     1      15.015  33.648 -18.891  1.00  0.00    -0.004 C 
HETATM   30  C13 UNL     1      15.442  32.511 -17.986  1.00  0.00     0.005 C 
ENDBRANCH  28  29
ENDBRANCH  27  28
ENDBRANCH   4  27
BRANCH   1  31
HETATM   31  C6  UNL     1      16.941  39.353 -14.233  1.00  0.00     0.042 C 
BRANCH  31  32
HETATM   32  C5  UNL     1      15.640  40.092 -14.025  1.00  0.00     0.003 C 
BRANCH  32  33
HETATM   33  C4  UNL     1      15.927  41.452 -13.450  1.00  0.00     0.000 C 
BRANCH  33  34
HETATM   34  C3  UNL     1      17.391  41.661 -13.141  1.00  0.00    -0.000 C 
BRANCH  34  35
HETATM   35  C2  UNL     1      17.496  42.588 -11.947  1.00  0.00    -0.005 C 
HETATM   36  C1  UNL     1      18.572  42.081 -11.024  1.00  0.00     0.005 C 
ENDBRANCH  34  35
ENDBRANCH  33  34
ENDBRANCH  32  33
ENDBRANCH  31  32
ENDBRANCH   1  31
BRANCH   3  37
HETATM   37  O2  UNL     1      16.233  38.132 -17.556  1.00  0.00    -0.369 OA
ATOM     38  H2  UNL     1      15.850  38.465 -18.359  1.00  0.00     0.212 HD
ENDBRANCH   3  37
TORSDOF 13
ENDMDL
