MODEL 1
REMARK VINA RESULT: -8.107681197      0.000      0.000
REMARK  13 active torsions:
REMARK  status: ('A' for Active; 'I' for Inactive)
REMARK    1  A    between atoms: N1_2  and  C2_4 
REMARK    2  A    between atoms: C2_4  and  C3_8 
REMARK    3  A    between atoms: C6_11  and  C7_12 
REMARK    4  A    between atoms: C8_15  and  C9_16 
REMARK    5  A    between atoms: N4_19  and  C12_20 
REMARK    6  A    between atoms: C15_23  and  C16_24 
REMARK    7  A    between atoms: C16_24  and  N5_25 
REMARK    8  A    between atoms: C16_24  and  C17_29 
REMARK    9  A    between atoms: C17_29  and  C18_30 
REMARK   10  A    between atoms: C18_30  and  C19_31 
REMARK   11  A    between atoms: C19_31  and  C20_32 
REMARK   12  A    between atoms: C20_32  and  C21_33 
REMARK   13  A    between atoms: C21_33  and  N6_34 
ROOT
HETATM    1  C9  UNL     1      10.310  38.564  -4.444  1.00  0.00     0.074 C 
HETATM    2  C10 UNL     1      10.902  38.872  -3.087  1.00  0.00     0.034 C 
HETATM    3  C11 UNL     1       9.614  39.080  -2.275  1.00  0.00     0.124 C 
HETATM    4  N4  UNL     1       8.877  39.942  -3.173  1.00  0.00    -0.380 N 
HETATM    5  C24 UNL     1       9.032  39.385  -4.497  1.00  0.00     0.135 C 
ENDROOT
BRANCH   1   6
HETATM    6  C8  UNL     1      11.227  38.982  -5.556  1.00  0.00     0.103 A 
HETATM    7  N3  UNL     1      11.675  38.225  -6.575  1.00  0.00    -0.329 N 
HETATM    8  C7  UNL     1      12.470  38.939  -7.374  1.00  0.00     0.131 A 
ATOM      9  H3  UNL     1      11.439  37.243  -6.716  1.00  0.00     0.168 HD
HETATM   10  N8  UNL     1      12.523  40.176  -6.844  1.00  0.00    -0.283 N 
HETATM   11  N7  UNL     1      11.778  40.205  -5.753  1.00  0.00    -0.287 N 
ATOM     12  H8  UNL     1      13.051  40.962  -7.223  1.00  0.00     0.188 HD
ATOM     13  H7  UNL     1      11.640  41.018  -5.153  1.00  0.00     0.188 HD
BRANCH   8  14
HETATM   14  C6  UNL     1      13.164  38.519  -8.597  1.00  0.00     0.009 A 
HETATM   15  C5  UNL     1      13.144  39.301  -9.722  1.00  0.00     0.016 A 
HETATM   16  C4  UNL     1      13.817  38.841 -10.850  1.00  0.00     0.016 A 
HETATM   17  C3  UNL     1      14.494  37.643 -10.875  1.00  0.00     0.007 A 
HETATM   18  C26 UNL     1      14.488  36.892  -9.727  1.00  0.00     0.016 A 
HETATM   19  C25 UNL     1      13.844  37.301  -8.601  1.00  0.00     0.016 A 
BRANCH  17  20
HETATM   20  C2  UNL     1      15.200  37.158 -12.064  1.00  0.00     0.104 C 
HETATM   21  N2  UNL     1      16.176  37.758 -12.611  1.00  0.00    -0.385 N 
ATOM     22  H22 UNL     1      16.667  37.421 -13.439  1.00  0.00     0.157 HD
ATOM     23  H21 UNL     1      16.478  38.634 -12.186  1.00  0.00     0.157 HD
BRANCH  20  24
HETATM   24  N1  UNL     1      14.777  35.932 -12.659  1.00  0.00    -0.380 N 
HETATM   25  C1  UNL     1      13.441  35.876 -13.209  1.00  0.00     0.147 C 
ATOM     26  H1  UNL     1      15.396  35.122 -12.695  1.00  0.00     0.160 HD
ENDBRANCH  20  24
ENDBRANCH  17  20
ENDBRANCH   8  14
ENDBRANCH   1   6
BRANCH   4  27
HETATM   27  C12 UNL     1       8.143  41.098  -2.816  1.00  0.00     0.030 A 
HETATM   28  C13 UNL     1       8.594  41.963  -1.859  1.00  0.00     0.030 A 
HETATM   29  C14 UNL     1       7.855  43.110  -1.520  1.00  0.00     0.012 A 
HETATM   30  C15 UNL     1       6.670  43.392  -2.135  1.00  0.00    -0.024 A 
HETATM   31  C22 UNL     1       6.214  42.520  -3.102  1.00  0.00     0.012 A 
HETATM   32  C23 UNL     1       6.933  41.392  -3.441  1.00  0.00     0.030 A 
BRANCH  30  33
HETATM   33  C16 UNL     1       5.824  44.616  -1.812  1.00  0.00     0.239 C 
BRANCH  33  34
HETATM   34  N5  UNL     1       6.619  45.819  -2.116  1.00  0.00    -0.068 N 
ATOM     35  H53 UNL     1       7.593  45.729  -1.826  1.00  0.00     0.275 HD
ATOM     36  H52 UNL     1       6.783  45.939  -3.115  1.00  0.00     0.275 HD
ATOM     37  H51 UNL     1       6.155  46.623  -1.693  1.00  0.00     0.275 HD
ENDBRANCH  33  34
BRANCH  33  38
HETATM   38  C17 UNL     1       4.615  44.656  -2.617  1.00  0.00     0.010 C 
BRANCH  38  39
HETATM   39  C18 UNL     1       3.288  44.505  -2.061  1.00  0.00    -0.002 C 
BRANCH  39  40
HETATM   40  C19 UNL     1       2.380  43.396  -2.052  1.00  0.00    -0.003 C 
BRANCH  40  41
HETATM   41  C20 UNL     1       2.517  42.022  -2.495  1.00  0.00     0.000 C 
BRANCH  41  42
HETATM   42  C21 UNL     1       2.424  41.623  -3.902  1.00  0.00     0.257 C 
BRANCH  42  43
HETATM   43  N6  UNL     1       1.079  41.546  -4.423  1.00  0.00    -0.076 N 
ATOM     44  H63 UNL     1       0.930  40.649  -4.885  1.00  0.00     0.274 HD
ATOM     45  H62 UNL     1       0.408  41.464  -3.659  1.00  0.00     0.274 HD
ATOM     46  H61 UNL     1       0.816  42.312  -5.043  1.00  0.00     0.274 HD
ENDBRANCH  42  43
ENDBRANCH  41  42
ENDBRANCH  40  41
ENDBRANCH  39  40
ENDBRANCH  38  39
ENDBRANCH  33  38
ENDBRANCH  30  33
ENDBRANCH   4  27
TORSDOF 13
ENDMDL
MODEL 2
REMARK VINA RESULT: -8.028124280      2.263      3.039
REMARK  13 active torsions:
REMARK  status: ('A' for Active; 'I' for Inactive)
REMARK    1  A    between atoms: N1_2  and  C2_4 
REMARK    2  A    between atoms: C2_4  and  C3_8 
REMARK    3  A    between atoms: C6_11  and  C7_12 
REMARK    4  A    between atoms: C8_15  and  C9_16 
REMARK    5  A    between atoms: N4_19  and  C12_20 
REMARK    6  A    between atoms: C15_23  and  C16_24 
REMARK    7  A    between atoms: C16_24  and  N5_25 
REMARK    8  A    between atoms: C16_24  and  C17_29 
REMARK    9  A    between atoms: C17_29  and  C18_30 
REMARK   10  A    between atoms: C18_30  and  C19_31 
REMARK   11  A    between atoms: C19_31  and  C20_32 
REMARK   12  A    between atoms: C20_32  and  C21_33 
REMARK   13  A    between atoms: C21_33  and  N6_34 
ROOT
HETATM    1  C9  UNL     1      10.202  38.387  -3.690  1.00  0.00     0.074 C 
HETATM    2  C10 UNL     1      10.891  39.021  -2.503  1.00  0.00     0.034 C 
HETATM    3  C11 UNL     1       9.665  39.448  -1.680  1.00  0.00     0.124 C 
HETATM    4  N4  UNL     1       8.860  40.064  -2.712  1.00  0.00    -0.380 N 
HETATM    5  C24 UNL     1       8.920  39.186  -3.859  1.00  0.00     0.135 C 
ENDROOT
BRANCH   1   6
HETATM    6  C8  UNL     1      11.033  38.495  -4.935  1.00  0.00     0.103 A 
HETATM    7  N3  UNL     1      11.025  39.491  -5.840  1.00  0.00    -0.329 N 
HETATM    8  C7  UNL     1      11.903  39.246  -6.814  1.00  0.00     0.131 A 
ATOM      9  H3  UNL     1      10.430  40.319  -5.788  1.00  0.00     0.168 HD
HETATM   10  N8  UNL     1      12.478  38.066  -6.514  1.00  0.00    -0.283 N 
HETATM   11  N7  UNL     1      11.958  37.613  -5.387  1.00  0.00    -0.287 N 
ATOM     12  H8  UNL     1      13.197  37.599  -7.066  1.00  0.00     0.188 HD
ATOM     13  H7  UNL     1      12.212  36.738  -4.929  1.00  0.00     0.188 HD
BRANCH   8  14
HETATM   14  C6  UNL     1      12.225  40.063  -7.990  1.00  0.00     0.009 A 
HETATM   15  C5  UNL     1      13.125  39.624  -8.927  1.00  0.00     0.016 A 
HETATM   16  C4  UNL     1      13.389  40.450 -10.016  1.00  0.00     0.016 A 
HETATM   17  C3  UNL     1      12.787  41.676 -10.183  1.00  0.00     0.007 A 
HETATM   18  C26 UNL     1      11.893  42.075  -9.222  1.00  0.00     0.016 A 
HETATM   19  C25 UNL     1      11.603  41.302  -8.142  1.00  0.00     0.016 A 
BRANCH  17  20
HETATM   20  C2  UNL     1      13.069  42.546 -11.329  1.00  0.00     0.104 C 
HETATM   21  N2  UNL     1      14.227  42.736 -11.815  1.00  0.00    -0.385 N 
ATOM     22  H22 UNL     1      14.423  43.341 -12.612  1.00  0.00     0.157 HD
ATOM     23  H21 UNL     1      15.003  42.246 -11.370  1.00  0.00     0.157 HD
BRANCH  20  24
HETATM   24  N1  UNL     1      11.983  43.230 -11.951  1.00  0.00    -0.380 N 
HETATM   25  C1  UNL     1      12.025  44.675 -11.976  1.00  0.00     0.147 C 
ATOM     26  H1  UNL     1      11.204  42.718 -12.365  1.00  0.00     0.160 HD
ENDBRANCH  20  24
ENDBRANCH  17  20
ENDBRANCH   8  14
ENDBRANCH   1   6
BRANCH   4  27
HETATM   27  C12 UNL     1       8.150  41.283  -2.610  1.00  0.00     0.030 A 
HETATM   28  C13 UNL     1       8.454  42.209  -1.652  1.00  0.00     0.030 A 
HETATM   29  C14 UNL     1       7.741  43.418  -1.567  1.00  0.00     0.012 A 
HETATM   30  C15 UNL     1       6.728  43.701  -2.437  1.00  0.00    -0.024 A 
HETATM   31  C22 UNL     1       6.420  42.767  -3.406  1.00  0.00     0.012 A 
HETATM   32  C23 UNL     1       7.115  41.578  -3.495  1.00  0.00     0.030 A 
BRANCH  30  33
HETATM   33  C16 UNL     1       5.920  44.991  -2.397  1.00  0.00     0.239 C 
BRANCH  33  34
HETATM   34  N5  UNL     1       5.492  45.310  -3.769  1.00  0.00    -0.068 N 
ATOM     35  H53 UNL     1       5.498  44.494  -4.382  1.00  0.00     0.275 HD
ATOM     36  H52 UNL     1       4.496  45.521  -3.831  1.00  0.00     0.275 HD
ATOM     37  H51 UNL     1       6.077  46.068  -4.118  1.00  0.00     0.275 HD
ENDBRANCH  33  34
BRANCH  33  38
HETATM   38  C17 UNL     1       4.732  44.849  -1.572  1.00  0.00     0.010 C 
BRANCH  38  39
HETATM   39  C18 UNL     1       3.417  44.585  -2.114  1.00  0.00    -0.002 C 
BRANCH  39  40
HETATM   40  C19 UNL     1       2.663  43.373  -2.238  1.00  0.00    -0.003 C 
BRANCH  40  41
HETATM   41  C20 UNL     1       2.894  42.155  -2.990  1.00  0.00     0.000 C 
BRANCH  41  42
HETATM   42  C21 UNL     1       1.820  41.233  -3.368  1.00  0.00     0.257 C 
BRANCH  42  43
HETATM   43  N6  UNL     1       1.051  41.639  -4.521  1.00  0.00    -0.076 N 
ATOM     44  H63 UNL     1       0.508  40.852  -4.878  1.00  0.00     0.274 HD
ATOM     45  H62 UNL     1       0.295  42.262  -4.240  1.00  0.00     0.274 HD
ATOM     46  H61 UNL     1       1.597  42.062  -5.272  1.00  0.00     0.274 HD
ENDBRANCH  42  43
ENDBRANCH  41  42
ENDBRANCH  40  41
ENDBRANCH  39  40
ENDBRANCH  38  39
ENDBRANCH  33  38
ENDBRANCH  30  33
ENDBRANCH   4  27
TORSDOF 13
ENDMDL
MODEL 3
REMARK VINA RESULT: -8.006900532      2.226      2.716
REMARK  13 active torsions:
REMARK  status: ('A' for Active; 'I' for Inactive)
REMARK    1  A    between atoms: N1_2  and  C2_4 
REMARK    2  A    between atoms: C2_4  and  C3_8 
REMARK    3  A    between atoms: C6_11  and  C7_12 
REMARK    4  A    between atoms: C8_15  and  C9_16 
REMARK    5  A    between atoms: N4_19  and  C12_20 
REMARK    6  A    between atoms: C15_23  and  C16_24 
REMARK    7  A    between atoms: C16_24  and  N5_25 
REMARK    8  A    between atoms: C16_24  and  C17_29 
REMARK    9  A    between atoms: C17_29  and  C18_30 
REMARK   10  A    between atoms: C18_30  and  C19_31 
REMARK   11  A    between atoms: C19_31  and  C20_32 
REMARK   12  A    between atoms: C20_32  and  C21_33 
REMARK   13  A    between atoms: C21_33  and  N6_34 
ROOT
HETATM    1  C9  UNL     1      10.223  38.399  -3.687  1.00  0.00     0.074 C 
HETATM    2  C10 UNL     1      10.915  39.038  -2.505  1.00  0.00     0.034 C 
HETATM    3  C11 UNL     1       9.693  39.454  -1.672  1.00  0.00     0.124 C 
HETATM    4  N4  UNL     1       8.875  40.064  -2.697  1.00  0.00    -0.380 N 
HETATM    5  C24 UNL     1       8.933  39.188  -3.845  1.00  0.00     0.135 C 
ENDROOT
BRANCH   1   6
HETATM    6  C8  UNL     1      11.043  38.516  -4.938  1.00  0.00     0.103 A 
HETATM    7  N3  UNL     1      11.010  39.506  -5.848  1.00  0.00    -0.329 N 
HETATM    8  C7  UNL     1      11.886  39.272  -6.827  1.00  0.00     0.131 A 
ATOM      9  H3  UNL     1      10.400  40.323  -5.797  1.00  0.00     0.168 HD
HETATM   10  N8  UNL     1      12.485  38.105  -6.525  1.00  0.00    -0.283 N 
HETATM   11  N7  UNL     1      11.981  37.648  -5.391  1.00  0.00    -0.287 N 
ATOM     12  H8  UNL     1      13.209  37.648  -7.079  1.00  0.00     0.188 HD
ATOM     13  H7  UNL     1      12.255  36.780  -4.930  1.00  0.00     0.188 HD
BRANCH   8  14
HETATM   14  C6  UNL     1      12.184  40.087  -8.011  1.00  0.00     0.009 A 
HETATM   15  C5  UNL     1      11.588  41.308  -8.193  1.00  0.00     0.016 A 
HETATM   16  C4  UNL     1      11.909  42.028  -9.340  1.00  0.00     0.016 A 
HETATM   17  C3  UNL     1      12.794  41.562 -10.286  1.00  0.00     0.007 A 
HETATM   18  C26 UNL     1      13.368  40.336 -10.064  1.00  0.00     0.016 A 
HETATM   19  C25 UNL     1      13.084  39.598  -8.957  1.00  0.00     0.016 A 
BRANCH  17  20
HETATM   20  C2  UNL     1      13.130  42.320 -11.495  1.00  0.00     0.104 C 
HETATM   21  N2  UNL     1      12.282  42.692 -12.365  1.00  0.00    -0.385 N 
ATOM     22  H22 UNL     1      12.516  43.219 -13.206  1.00  0.00     0.157 HD
ATOM     23  H21 UNL     1      11.308  42.440 -12.200  1.00  0.00     0.157 HD
BRANCH  20  24
HETATM   24  N1  UNL     1      14.493  42.672 -11.725  1.00  0.00    -0.380 N 
HETATM   25  C1  UNL     1      15.147  42.111 -12.887  1.00  0.00     0.147 C 
ATOM     26  H1  UNL     1      14.990  43.299 -11.092  1.00  0.00     0.160 HD
ENDBRANCH  20  24
ENDBRANCH  17  20
ENDBRANCH   8  14
ENDBRANCH   1   6
BRANCH   4  27
HETATM   27  C12 UNL     1       8.155  41.278  -2.588  1.00  0.00     0.030 A 
HETATM   28  C13 UNL     1       8.454  42.201  -1.627  1.00  0.00     0.030 A 
HETATM   29  C14 UNL     1       7.732  43.404  -1.535  1.00  0.00     0.012 A 
HETATM   30  C15 UNL     1       6.715  43.683  -2.401  1.00  0.00    -0.024 A 
HETATM   31  C22 UNL     1       6.412  42.751  -3.373  1.00  0.00     0.012 A 
HETATM   32  C23 UNL     1       7.116  41.568  -3.469  1.00  0.00     0.030 A 
BRANCH  30  33
HETATM   33  C16 UNL     1       5.896  44.966  -2.353  1.00  0.00     0.239 C 
BRANCH  33  34
HETATM   34  N5  UNL     1       5.459  45.285  -3.723  1.00  0.00    -0.068 N 
ATOM     35  H53 UNL     1       4.759  44.632  -4.074  1.00  0.00     0.275 HD
ATOM     36  H52 UNL     1       4.892  46.132  -3.767  1.00  0.00     0.275 HD
ATOM     37  H51 UNL     1       6.286  45.334  -4.318  1.00  0.00     0.275 HD
ENDBRANCH  33  34
BRANCH  33  38
HETATM   38  C17 UNL     1       4.714  44.813  -1.523  1.00  0.00     0.010 C 
BRANCH  38  39
HETATM   39  C18 UNL     1       3.395  44.562  -2.061  1.00  0.00    -0.002 C 
BRANCH  39  40
HETATM   40  C19 UNL     1       2.645  43.351  -2.220  1.00  0.00    -0.003 C 
BRANCH  40  41
HETATM   41  C20 UNL     1       2.883  42.155  -3.005  1.00  0.00     0.000 C 
BRANCH  41  42
HETATM   42  C21 UNL     1       1.815  41.233  -3.399  1.00  0.00     0.257 C 
BRANCH  42  43
HETATM   43  N6  UNL     1       1.028  41.664  -4.530  1.00  0.00    -0.076 N 
ATOM     44  H63 UNL     1       0.526  42.523  -4.304  1.00  0.00     0.274 HD
ATOM     45  H62 UNL     1       1.637  42.006  -5.274  1.00  0.00     0.274 HD
ATOM     46  H61 UNL     1       0.384  40.963  -4.895  1.00  0.00     0.274 HD
ENDBRANCH  42  43
ENDBRANCH  41  42
ENDBRANCH  40  41
ENDBRANCH  39  40
ENDBRANCH  38  39
ENDBRANCH  33  38
ENDBRANCH  30  33
ENDBRANCH   4  27
TORSDOF 13
ENDMDL
MODEL 4
REMARK VINA RESULT: -7.832546907      1.616      3.163
REMARK  13 active torsions:
REMARK  status: ('A' for Active; 'I' for Inactive)
REMARK    1  A    between atoms: N1_2  and  C2_4 
REMARK    2  A    between atoms: C2_4  and  C3_8 
REMARK    3  A    between atoms: C6_11  and  C7_12 
REMARK    4  A    between atoms: C8_15  and  C9_16 
REMARK    5  A    between atoms: N4_19  and  C12_20 
REMARK    6  A    between atoms: C15_23  and  C16_24 
REMARK    7  A    between atoms: C16_24  and  N5_25 
REMARK    8  A    between atoms: C16_24  and  C17_29 
REMARK    9  A    between atoms: C17_29  and  C18_30 
REMARK   10  A    between atoms: C18_30  and  C19_31 
REMARK   11  A    between atoms: C19_31  and  C20_32 
REMARK   12  A    between atoms: C20_32  and  C21_33 
REMARK   13  A    between atoms: C21_33  and  N6_34 
ROOT
HETATM    1  C9  UNL     1      10.308  38.589  -4.459  1.00  0.00     0.074 C 
HETATM    2  C10 UNL     1      10.909  38.870  -3.100  1.00  0.00     0.034 C 
HETATM    3  C11 UNL     1       9.627  39.096  -2.283  1.00  0.00     0.124 C 
HETATM    4  N4  UNL     1       8.907  39.983  -3.169  1.00  0.00    -0.380 N 
HETATM    5  C24 UNL     1       9.047  39.438  -4.500  1.00  0.00     0.135 C 
ENDROOT
BRANCH   1   6
HETATM    6  C8  UNL     1      11.232  39.001  -5.568  1.00  0.00     0.103 A 
HETATM    7  N3  UNL     1      11.668  38.244  -6.591  1.00  0.00    -0.329 N 
HETATM    8  C7  UNL     1      12.474  38.951  -7.385  1.00  0.00     0.131 A 
ATOM      9  H3  UNL     1      11.417  37.266  -6.739  1.00  0.00     0.168 HD
HETATM   10  N8  UNL     1      12.546  40.183  -6.848  1.00  0.00    -0.283 N 
HETATM   11  N7  UNL     1      11.801  40.216  -5.756  1.00  0.00    -0.287 N 
ATOM     12  H8  UNL     1      13.086  40.963  -7.221  1.00  0.00     0.188 HD
ATOM     13  H7  UNL     1      11.675  41.028  -5.152  1.00  0.00     0.188 HD
BRANCH   8  14
HETATM   14  C6  UNL     1      13.162  38.527  -8.611  1.00  0.00     0.009 A 
HETATM   15  C5  UNL     1      13.142  39.311  -9.736  1.00  0.00     0.016 A 
HETATM   16  C4  UNL     1      13.810  38.848 -10.866  1.00  0.00     0.016 A 
HETATM   17  C3  UNL     1      14.480  37.646 -10.894  1.00  0.00     0.007 A 
HETATM   18  C26 UNL     1      14.474  36.894  -9.746  1.00  0.00     0.016 A 
HETATM   19  C25 UNL     1      13.836  37.306  -8.619  1.00  0.00     0.016 A 
BRANCH  17  20
HETATM   20  C2  UNL     1      15.180  37.158 -12.086  1.00  0.00     0.104 C 
HETATM   21  N2  UNL     1      16.127  37.778 -12.663  1.00  0.00    -0.385 N 
ATOM     22  H22 UNL     1      16.613  37.438 -13.493  1.00  0.00     0.157 HD
ATOM     23  H21 UNL     1      16.409  38.672 -12.262  1.00  0.00     0.157 HD
BRANCH  20  24
HETATM   24  N1  UNL     1      14.785  35.908 -12.647  1.00  0.00    -0.380 N 
HETATM   25  C1  UNL     1      13.432  35.789 -13.142  1.00  0.00     0.147 C 
ATOM     26  H1  UNL     1      15.436  35.124 -12.698  1.00  0.00     0.160 HD
ENDBRANCH  20  24
ENDBRANCH  17  20
ENDBRANCH   8  14
ENDBRANCH   1   6
BRANCH   4  27
HETATM   27  C12 UNL     1       8.198  41.150  -2.798  1.00  0.00     0.030 A 
HETATM   28  C13 UNL     1       8.646  41.971  -1.802  1.00  0.00     0.030 A 
HETATM   29  C14 UNL     1       7.933  43.130  -1.449  1.00  0.00     0.012 A 
HETATM   30  C15 UNL     1       6.776  43.467  -2.089  1.00  0.00    -0.024 A 
HETATM   31  C22 UNL     1       6.322  42.640  -3.096  1.00  0.00     0.012 A 
HETATM   32  C23 UNL     1       7.017  41.500  -3.448  1.00  0.00     0.030 A 
BRANCH  30  33
HETATM   33  C16 UNL     1       5.958  44.707  -1.752  1.00  0.00     0.239 C 
BRANCH  33  34
HETATM   34  N5  UNL     1       4.545  44.424  -2.054  1.00  0.00    -0.068 N 
ATOM     35  H53 UNL     1       4.381  43.443  -2.284  1.00  0.00     0.275 HD
ATOM     36  H52 UNL     1       3.949  44.473  -1.228  1.00  0.00     0.275 HD
ATOM     37  H51 UNL     1       4.243  45.057  -2.794  1.00  0.00     0.275 HD
ENDBRANCH  33  34
BRANCH  33  38
HETATM   38  C17 UNL     1       6.062  45.048  -0.344  1.00  0.00     0.010 C 
BRANCH  38  39
HETATM   39  C18 UNL     1       6.845  46.161   0.147  1.00  0.00    -0.002 C 
BRANCH  39  40
HETATM   40  C19 UNL     1       8.184  46.584  -0.139  1.00  0.00    -0.003 C 
BRANCH  40  41
HETATM   41  C20 UNL     1       8.711  47.646  -0.975  1.00  0.00     0.000 C 
BRANCH  41  42
HETATM   42  C21 UNL     1       9.595  47.399  -2.117  1.00  0.00     0.257 C 
BRANCH  42  43
HETATM   43  N6  UNL     1       9.718  46.012  -2.500  1.00  0.00    -0.076 N 
ATOM     44  H63 UNL     1       8.914  45.480  -2.163  1.00  0.00     0.274 HD
ATOM     45  H62 UNL     1       9.587  45.911  -3.506  1.00  0.00     0.274 HD
ATOM     46  H61 UNL     1      10.586  45.563  -2.209  1.00  0.00     0.274 HD
ENDBRANCH  42  43
ENDBRANCH  41  42
ENDBRANCH  40  41
ENDBRANCH  39  40
ENDBRANCH  38  39
ENDBRANCH  33  38
ENDBRANCH  30  33
ENDBRANCH   4  27
TORSDOF 13
ENDMDL
MODEL 5
REMARK VINA RESULT: -7.783040786      3.522     11.755
REMARK  13 active torsions:
REMARK  status: ('A' for Active; 'I' for Inactive)
REMARK    1  A    between atoms: N1_2  and  C2_4 
REMARK    2  A    between atoms: C2_4  and  C3_8 
REMARK    3  A    between atoms: C6_11  and  C7_12 
REMARK    4  A    between atoms: C8_15  and  C9_16 
REMARK    5  A    between atoms: N4_19  and  C12_20 
REMARK    6  A    between atoms: C15_23  and  C16_24 
REMARK    7  A    between atoms: C16_24  and  N5_25 
REMARK    8  A    between atoms: C16_24  and  C17_29 
REMARK    9  A    between atoms: C17_29  and  C18_30 
REMARK   10  A    between atoms: C18_30  and  C19_31 
REMARK   11  A    between atoms: C19_31  and  C20_32 
REMARK   12  A    between atoms: C20_32  and  C21_33 
REMARK   13  A    between atoms: C21_33  and  N6_34 
ROOT
HETATM    1  C9  UNL     1       8.984  45.590  -8.302  1.00  0.00     0.074 C 
HETATM    2  C10 UNL     1       9.994  45.835  -7.204  1.00  0.00     0.034 C 
HETATM    3  C11 UNL     1      11.238  45.191  -7.835  1.00  0.00     0.124 C 
HETATM    4  N4  UNL     1      10.675  43.943  -8.303  1.00  0.00    -0.380 N 
HETATM    5  C24 UNL     1       9.410  44.269  -8.923  1.00  0.00     0.135 C 
ENDROOT
BRANCH   1   6
HETATM    6  C8  UNL     1       7.592  45.466  -7.756  1.00  0.00     0.103 A 
HETATM    7  N3  UNL     1       7.107  44.490  -6.967  1.00  0.00    -0.329 N 
HETATM    8  C7  UNL     1       5.825  44.718  -6.676  1.00  0.00     0.131 A 
ATOM      9  H3  UNL     1       7.645  43.689  -6.637  1.00  0.00     0.168 HD
HETATM   10  N8  UNL     1       5.496  45.865  -7.298  1.00  0.00    -0.283 N 
HETATM   11  N7  UNL     1       6.554  46.317  -7.947  1.00  0.00    -0.287 N 
ATOM     12  H8  UNL     1       4.579  46.313  -7.273  1.00  0.00     0.188 HD
ATOM     13  H7  UNL     1       6.585  47.171  -8.504  1.00  0.00     0.188 HD
BRANCH   8  14
HETATM   14  C6  UNL     1       4.913  43.920  -5.847  1.00  0.00     0.009 A 
HETATM   15  C5  UNL     1       5.387  43.169  -4.802  1.00  0.00     0.016 A 
HETATM   16  C4  UNL     1       4.469  42.430  -4.060  1.00  0.00     0.016 A 
HETATM   17  C3  UNL     1       3.121  42.427  -4.336  1.00  0.00     0.007 A 
HETATM   18  C26 UNL     1       2.691  43.192  -5.390  1.00  0.00     0.016 A 
HETATM   19  C25 UNL     1       3.550  43.930  -6.143  1.00  0.00     0.016 A 
BRANCH  17  20
HETATM   20  C2  UNL     1       2.156  41.646  -3.555  1.00  0.00     0.104 C 
HETATM   21  N2  UNL     1       1.305  40.851  -4.060  1.00  0.00    -0.385 N 
ATOM     22  H22 UNL     1       0.634  40.308  -3.517  1.00  0.00     0.157 HD
ATOM     23  H21 UNL     1       1.301  40.759  -5.075  1.00  0.00     0.157 HD
BRANCH  20  24
HETATM   24  N1  UNL     1       2.162  41.775  -2.135  1.00  0.00    -0.380 N 
HETATM   25  C1  UNL     1       1.721  43.031  -1.571  1.00  0.00     0.147 C 
ATOM     26  H1  UNL     1       2.466  41.007  -1.537  1.00  0.00     0.160 HD
ENDBRANCH  20  24
ENDBRANCH  17  20
ENDBRANCH   8  14
ENDBRANCH   1   6
BRANCH   4  27
HETATM   27  C12 UNL     1      11.257  42.659  -8.182  1.00  0.00     0.030 A 
HETATM   28  C13 UNL     1      11.987  42.107  -9.196  1.00  0.00     0.030 A 
HETATM   29  C14 UNL     1      12.563  40.833  -9.057  1.00  0.00     0.012 A 
HETATM   30  C15 UNL     1      12.410  40.112  -7.909  1.00  0.00    -0.024 A 
HETATM   31  C22 UNL     1      11.674  40.668  -6.883  1.00  0.00     0.012 A 
HETATM   32  C23 UNL     1      11.105  41.919  -7.012  1.00  0.00     0.030 A 
BRANCH  30  33
HETATM   33  C16 UNL     1      13.008  38.727  -7.698  1.00  0.00     0.239 C 
BRANCH  33  34
HETATM   34  N5  UNL     1      12.394  38.138  -6.495  1.00  0.00    -0.068 N 
ATOM     35  H53 UNL     1      12.913  37.333  -6.143  1.00  0.00     0.275 HD
ATOM     36  H52 UNL     1      12.489  38.734  -5.674  1.00  0.00     0.275 HD
ATOM     37  H51 UNL     1      11.422  37.915  -6.710  1.00  0.00     0.275 HD
ENDBRANCH  33  34
BRANCH  33  38
HETATM   38  C17 UNL     1      12.733  37.851  -8.823  1.00  0.00     0.010 C 
BRANCH  38  39
HETATM   39  C18 UNL     1      13.751  37.409  -9.751  1.00  0.00    -0.002 C 
BRANCH  39  40
HETATM   40  C19 UNL     1      14.025  37.771 -11.110  1.00  0.00    -0.003 C 
BRANCH  40  41
HETATM   41  C20 UNL     1      13.554  37.238 -12.374  1.00  0.00     0.000 C 
BRANCH  41  42
HETATM   42  C21 UNL     1      14.153  36.067 -13.019  1.00  0.00     0.257 C 
BRANCH  42  43
HETATM   43  N6  UNL     1      13.837  34.803 -12.397  1.00  0.00    -0.076 N 
ATOM     44  H63 UNL     1      14.692  34.285 -12.195  1.00  0.00     0.274 HD
ATOM     45  H62 UNL     1      13.494  34.953 -11.448  1.00  0.00     0.274 HD
ATOM     46  H61 UNL     1      13.184  34.219 -12.920  1.00  0.00     0.274 HD
ENDBRANCH  42  43
ENDBRANCH  41  42
ENDBRANCH  40  41
ENDBRANCH  39  40
ENDBRANCH  38  39
ENDBRANCH  33  38
ENDBRANCH  30  33
ENDBRANCH   4  27
TORSDOF 13
ENDMDL
