MODEL 1
REMARK VINA RESULT: -7.444551932      0.000      0.000
REMARK  12 active torsions:
REMARK  status: ('A' for Active; 'I' for Inactive)
REMARK    1  A    between atoms: O1_2  and  C2_3 
REMARK    2  A    between atoms: C2_3  and  C3_4 
REMARK    3  A    between atoms: C3_4  and  O2_5 
REMARK    4  A    between atoms: O2_5  and  C4_6 
REMARK    5  A    between atoms: C7_9  and  O3_10 
REMARK    6  A    between atoms: O3_10  and  C8_11 
REMARK    7  A    between atoms: C8_11  and  C9_12 
REMARK    8  A    between atoms: C9_12  and  N1_13 
REMARK    9  A    between atoms: N1_13  and  C10_16 
REMARK   10  A    between atoms: C10_16  and  C11_17 
REMARK   11  A    between atoms: C12_18  and  C13_19 
REMARK   12  A    between atoms: C20_35  and  N6_36 
ROOT
HETATM    1  C11 UNL     1      12.964  39.689  -8.548  1.00  0.00     0.008 A 
HETATM    2  C12 UNL     1      13.542  38.439  -8.910  1.00  0.00     0.024 A 
HETATM    3  N2  UNL     1      13.278  37.618  -7.909  1.00  0.00    -0.344 N 
ATOM      4  H2  UNL     1      13.575  36.643  -7.876  1.00  0.00     0.167 HD
HETATM    5  C18 UNL     1      12.564  38.231  -6.929  1.00  0.00     0.136 A 
HETATM    6  N3  UNL     1      11.972  37.801  -5.777  1.00  0.00    -0.176 N 
ATOM      7  H3  UNL     1      12.139  36.840  -5.478  1.00  0.00     0.186 HD
HETATM    8  C19 UNL     1      11.184  38.571  -5.020  1.00  0.00     0.679 A 
HETATM    9  N4  UNL     1      10.680  38.110  -3.891  1.00  0.00    -0.234 N 
ATOM     10  H41 UNL     1      10.080  38.697  -3.314  1.00  0.00     0.174 HD
ATOM     11  H42 UNL     1      10.847  37.146  -3.602  1.00  0.00     0.174 HD
HETATM   12  N5  UNL     1      10.959  39.870  -5.410  1.00  0.00    -0.176 N 
ATOM     13  H5  UNL     1      10.364  40.477  -4.847  1.00  0.00     0.186 HD
HETATM   14  C20 UNL     1      11.531  40.342  -6.542  1.00  0.00     0.129 A 
HETATM   15  C21 UNL     1      12.362  39.528  -7.336  1.00  0.00     0.062 A 
ENDROOT
BRANCH   1  16
HETATM   16  C10 UNL     1      12.977  40.798  -9.483  1.00  0.00     0.274 C 
BRANCH  16  17
HETATM   17  N1  UNL     1      13.969  41.830  -8.946  1.00  0.00    -0.069 N 
ATOM     18  H12 UNL     1      14.298  41.711  -7.987  1.00  0.00     0.277 HD
ATOM     19  H11 UNL     1      13.616  42.769  -8.763  1.00  0.00     0.277 HD
BRANCH  17  20
HETATM   20  C9  UNL     1      15.000  41.669 -10.073  1.00  0.00     0.259 C 
BRANCH  20  21
HETATM   21  C8  UNL     1      14.269  41.766 -11.403  1.00  0.00     0.203 C 
BRANCH  21  22
HETATM   22  O3  UNL     1      15.342  41.660 -12.371  1.00  0.00    -0.349 OA
BRANCH  22  23
HETATM   23  C7  UNL     1      15.377  40.429 -13.042  1.00  0.00     0.069 A 
HETATM   24  C6  UNL     1      14.364  40.145 -13.909  1.00  0.00     0.039 A 
HETATM   25  C5  UNL     1      14.285  38.968 -14.615  1.00  0.00     0.040 A 
HETATM   26  C4  UNL     1      15.298  38.019 -14.434  1.00  0.00     0.074 A 
HETATM   27  C23 UNL     1      16.359  38.293 -13.525  1.00  0.00    -0.026 A 
HETATM   28  C22 UNL     1      16.356  39.483 -12.877  1.00  0.00     0.046 A 
HETATM   29  C24 UNL     1      17.325  37.185 -13.275  1.00  0.00     0.051 C 
BRANCH  26  30
HETATM   30  O2  UNL     1      15.277  36.908 -15.096  1.00  0.00    -0.349 OA
BRANCH  30  31
HETATM   31  C3  UNL     1      14.987  35.923 -15.901  1.00  0.00     0.201 C 
BRANCH  31  32
HETATM   32  C2  UNL     1      13.513  35.495 -15.940  1.00  0.00     0.193 C 
BRANCH  32  33
HETATM   33  O1  UNL     1      12.838  35.916 -17.060  1.00  0.00    -0.394 OA
HETATM   34  C1  UNL     1      13.599  36.165 -18.178  1.00  0.00     0.201 C 
ENDBRANCH  32  33
ENDBRANCH  31  32
ENDBRANCH  30  31
ENDBRANCH  26  30
ENDBRANCH  22  23
ENDBRANCH  21  22
ENDBRANCH  20  21
ENDBRANCH  17  20
ENDBRANCH  16  17
ENDBRANCH   1  16
BRANCH   2  35
HETATM   35  C13 UNL     1      14.310  38.191 -10.164  1.00  0.00     0.036 C 
HETATM   36  C14 UNL     1      13.263  38.012 -11.295  1.00  0.00     0.011 C 
HETATM   37  C15 UNL     1      13.154  36.578 -11.566  1.00  0.00     0.001 C 
HETATM   38  C16 UNL     1      14.423  35.925 -11.077  1.00  0.00     0.001 C 
HETATM   39  C17 UNL     1      15.149  36.967 -10.272  1.00  0.00     0.011 C 
ENDBRANCH   2  35
BRANCH  14  40
HETATM   40  N6  UNL     1      11.221  41.496  -6.970  1.00  0.00    -0.384 N 
ATOM     41  H62 UNL     1      11.331  42.294  -6.345  1.00  0.00     0.157 HD
ATOM     42  H61 UNL     1      10.965  41.620  -7.949  1.00  0.00     0.157 HD
ENDBRANCH  14  40
TORSDOF 12
ENDMDL
MODEL 2
REMARK VINA RESULT: -6.952606548      3.015      5.584
REMARK  12 active torsions:
REMARK  status: ('A' for Active; 'I' for Inactive)
REMARK    1  A    between atoms: O1_2  and  C2_3 
REMARK    2  A    between atoms: C2_3  and  C3_4 
REMARK    3  A    between atoms: C3_4  and  O2_5 
REMARK    4  A    between atoms: O2_5  and  C4_6 
REMARK    5  A    between atoms: C7_9  and  O3_10 
REMARK    6  A    between atoms: O3_10  and  C8_11 
REMARK    7  A    between atoms: C8_11  and  C9_12 
REMARK    8  A    between atoms: C9_12  and  N1_13 
REMARK    9  A    between atoms: N1_13  and  C10_16 
REMARK   10  A    between atoms: C10_16  and  C11_17 
REMARK   11  A    between atoms: C12_18  and  C13_19 
REMARK   12  A    between atoms: C20_35  and  N6_36 
ROOT
HETATM    1  C11 UNL     1      11.973  43.039  -9.062  1.00  0.00     0.008 A 
HETATM    2  C12 UNL     1      13.345  43.275  -9.364  1.00  0.00     0.024 A 
HETATM    3  N2  UNL     1      13.349  44.103 -10.394  1.00  0.00    -0.344 N 
ATOM      4  H2  UNL     1      14.195  44.450 -10.845  1.00  0.00     0.167 HD
HETATM    5  C18 UNL     1      12.088  44.434 -10.779  1.00  0.00     0.136 A 
HETATM    6  N3  UNL     1      11.575  45.311 -11.690  1.00  0.00    -0.176 N 
ATOM      7  H3  UNL     1      12.222  45.788 -12.318  1.00  0.00     0.186 HD
HETATM    8  C19 UNL     1      10.271  45.579 -11.804  1.00  0.00     0.679 A 
HETATM    9  N4  UNL     1       9.834  46.401 -12.739  1.00  0.00    -0.234 N 
ATOM     10  H41 UNL     1       8.839  46.605 -12.826  1.00  0.00     0.174 HD
ATOM     11  H42 UNL     1      10.488  46.879 -13.359  1.00  0.00     0.174 HD
HETATM   12  N5  UNL     1       9.389  44.935 -10.968  1.00  0.00    -0.176 N 
ATOM     13  H5  UNL     1       8.389  45.122 -11.037  1.00  0.00     0.186 HD
HETATM   14  C20 UNL     1       9.852  44.052 -10.053  1.00  0.00     0.129 A 
HETATM   15  C21 UNL     1      11.228  43.772  -9.937  1.00  0.00     0.062 A 
ENDROOT
BRANCH   1  16
HETATM   16  C10 UNL     1      11.606  42.248  -7.904  1.00  0.00     0.274 C 
BRANCH  16  17
HETATM   17  N1  UNL     1      11.268  40.844  -8.404  1.00  0.00    -0.069 N 
ATOM     18  H12 UNL     1      11.514  40.617  -9.368  1.00  0.00     0.277 HD
ATOM     19  H11 UNL     1      10.283  40.621  -8.548  1.00  0.00     0.277 HD
BRANCH  17  20
HETATM   20  C9  UNL     1      12.007  40.090  -7.289  1.00  0.00     0.259 C 
BRANCH  20  21
HETATM   21  C8  UNL     1      12.631  38.841  -7.892  1.00  0.00     0.203 C 
BRANCH  21  22
HETATM   22  O3  UNL     1      13.593  39.380  -8.832  1.00  0.00    -0.349 OA
BRANCH  22  23
HETATM   23  C7  UNL     1      13.605  38.717 -10.068  1.00  0.00     0.069 A 
HETATM   24  C6  UNL     1      13.307  37.386 -10.082  1.00  0.00     0.039 A 
HETATM   25  C5  UNL     1      13.298  36.629 -11.230  1.00  0.00     0.040 A 
HETATM   26  C4  UNL     1      13.605  37.260 -12.441  1.00  0.00     0.074 A 
HETATM   27  C23 UNL     1      13.928  38.647 -12.445  1.00  0.00    -0.026 A 
HETATM   28  C22 UNL     1      13.907  39.312 -11.265  1.00  0.00     0.046 A 
HETATM   29  C24 UNL     1      14.382  39.221 -13.744  1.00  0.00     0.051 C 
BRANCH  26  30
HETATM   30  O2  UNL     1      13.584  36.592 -13.549  1.00  0.00    -0.349 OA
BRANCH  30  31
HETATM   31  C3  UNL     1      13.342  35.734 -14.500  1.00  0.00     0.201 C 
BRANCH  31  32
HETATM   32  C2  UNL     1      13.882  36.097 -15.891  1.00  0.00     0.193 C 
BRANCH  32  33
HETATM   33  O1  UNL     1      12.988  35.883 -16.911  1.00  0.00    -0.394 OA
HETATM   34  C1  UNL     1      13.503  35.390 -18.087  1.00  0.00     0.201 C 
ENDBRANCH  32  33
ENDBRANCH  31  32
ENDBRANCH  30  31
ENDBRANCH  26  30
ENDBRANCH  22  23
ENDBRANCH  21  22
ENDBRANCH  20  21
ENDBRANCH  17  20
ENDBRANCH  16  17
ENDBRANCH   1  16
BRANCH   2  35
HETATM   35  C13 UNL     1      14.491  42.648  -8.646  1.00  0.00     0.036 C 
HETATM   36  C14 UNL     1      14.979  43.686  -7.602  1.00  0.00     0.011 C 
HETATM   37  C15 UNL     1      16.190  44.309  -8.140  1.00  0.00     0.001 C 
HETATM   38  C16 UNL     1      16.771  43.365  -9.163  1.00  0.00     0.001 C 
HETATM   39  C17 UNL     1      15.727  42.311  -9.404  1.00  0.00     0.011 C 
ENDBRANCH   2  35
BRANCH  14  40
HETATM   40  N6  UNL     1       9.057  43.558  -9.197  1.00  0.00    -0.384 N 
ATOM     41  H62 UNL     1       8.592  42.676  -9.414  1.00  0.00     0.157 HD
ATOM     42  H61 UNL     1       8.970  43.991  -8.278  1.00  0.00     0.157 HD
ENDBRANCH  14  40
TORSDOF 12
ENDMDL
MODEL 3
REMARK VINA RESULT: -6.923643377      4.245      8.788
REMARK  12 active torsions:
REMARK  status: ('A' for Active; 'I' for Inactive)
REMARK    1  A    between atoms: O1_2  and  C2_3 
REMARK    2  A    between atoms: C2_3  and  C3_4 
REMARK    3  A    between atoms: C3_4  and  O2_5 
REMARK    4  A    between atoms: O2_5  and  C4_6 
REMARK    5  A    between atoms: C7_9  and  O3_10 
REMARK    6  A    between atoms: O3_10  and  C8_11 
REMARK    7  A    between atoms: C8_11  and  C9_12 
REMARK    8  A    between atoms: C9_12  and  N1_13 
REMARK    9  A    between atoms: N1_13  and  C10_16 
REMARK   10  A    between atoms: C10_16  and  C11_17 
REMARK   11  A    between atoms: C12_18  and  C13_19 
REMARK   12  A    between atoms: C20_35  and  N6_36 
ROOT
HETATM    1  C11 UNL     1      14.291  37.816 -11.408  1.00  0.00     0.008 A 
HETATM    2  C12 UNL     1      14.278  39.218 -11.660  1.00  0.00     0.024 A 
HETATM    3  N2  UNL     1      14.274  39.346 -12.974  1.00  0.00    -0.344 N 
ATOM      4  H2  UNL     1      14.273  40.243 -13.461  1.00  0.00     0.167 HD
HETATM    5  C18 UNL     1      14.270  38.140 -13.600  1.00  0.00     0.136 A 
HETATM    6  N3  UNL     1      14.160  37.747 -14.902  1.00  0.00    -0.176 N 
ATOM      7  H3  UNL     1      14.171  38.466 -15.625  1.00  0.00     0.186 HD
HETATM    8  C19 UNL     1      14.038  36.471 -15.280  1.00  0.00     0.679 A 
HETATM    9  N4  UNL     1      13.984  36.154 -16.560  1.00  0.00    -0.234 N 
ATOM     10  H41 UNL     1      13.892  35.180 -16.849  1.00  0.00     0.174 HD
ATOM     11  H42 UNL     1      13.989  36.879 -17.277  1.00  0.00     0.174 HD
HETATM   12  N5  UNL     1      14.031  35.494 -14.314  1.00  0.00    -0.176 N 
ATOM     13  H5  UNL     1      13.941  34.513 -14.578  1.00  0.00     0.186 HD
HETATM   14  C20 UNL     1      14.144  35.836 -13.009  1.00  0.00     0.129 A 
HETATM   15  C21 UNL     1      14.274  37.182 -12.614  1.00  0.00     0.062 A 
ENDROOT
BRANCH   1  16
HETATM   16  C10 UNL     1      14.192  37.316 -10.051  1.00  0.00     0.274 C 
BRANCH  16  17
HETATM   17  N1  UNL     1      12.835  37.760  -9.503  1.00  0.00    -0.069 N 
ATOM     18  H12 UNL     1      12.037  37.149  -9.675  1.00  0.00     0.277 HD
ATOM     19  H11 UNL     1      12.387  38.559  -9.951  1.00  0.00     0.277 HD
BRANCH  17  20
HETATM   20  C9  UNL     1      13.294  37.933  -8.048  1.00  0.00     0.259 C 
BRANCH  20  21
HETATM   21  C8  UNL     1      12.240  38.742  -7.309  1.00  0.00     0.203 C 
BRANCH  21  22
HETATM   22  O3  UNL     1      11.729  39.625  -8.337  1.00  0.00    -0.349 OA
BRANCH  22  23
HETATM   23  C7  UNL     1      11.976  40.983  -8.087  1.00  0.00     0.069 A 
HETATM   24  C6  UNL     1      11.047  41.889  -8.506  1.00  0.00     0.039 A 
HETATM   25  C5  UNL     1      11.185  43.245  -8.327  1.00  0.00     0.040 A 
HETATM   26  C4  UNL     1      12.334  43.714  -7.681  1.00  0.00     0.074 A 
HETATM   27  C23 UNL     1      13.320  42.784  -7.244  1.00  0.00    -0.026 A 
HETATM   28  C22 UNL     1      13.096  41.465  -7.460  1.00  0.00     0.046 A 
HETATM   29  C24 UNL     1      14.580  43.359  -6.692  1.00  0.00     0.051 C 
BRANCH  26  30
HETATM   30  O2  UNL     1      12.493  44.980  -7.469  1.00  0.00    -0.349 OA
BRANCH  30  31
HETATM   31  C3  UNL     1      12.328  46.245  -7.200  1.00  0.00     0.201 C 
BRANCH  31  32
HETATM   32  C2  UNL     1      13.396  46.892  -6.307  1.00  0.00     0.193 C 
BRANCH  32  33
HETATM   33  O1  UNL     1      13.519  46.308  -5.070  1.00  0.00    -0.394 OA
HETATM   34  C1  UNL     1      13.203  47.093  -3.986  1.00  0.00     0.201 C 
ENDBRANCH  32  33
ENDBRANCH  31  32
ENDBRANCH  30  31
ENDBRANCH  26  30
ENDBRANCH  22  23
ENDBRANCH  21  22
ENDBRANCH  20  21
ENDBRANCH  17  20
ENDBRANCH  16  17
ENDBRANCH   1  16
BRANCH   2  35
HETATM   35  C13 UNL     1      14.306  40.269 -10.603  1.00  0.00     0.036 C 
HETATM   36  C14 UNL     1      13.707  41.551 -11.239  1.00  0.00     0.011 C 
HETATM   37  C15 UNL     1      14.825  42.436 -11.570  1.00  0.00     0.001 C 
HETATM   38  C16 UNL     1      15.994  42.035 -10.706  1.00  0.00     0.001 C 
HETATM   39  C17 UNL     1      15.616  40.727 -10.068  1.00  0.00     0.011 C 
ENDBRANCH   2  35
BRANCH  14  40
HETATM   40  N6  UNL     1      14.007  34.949 -12.112  1.00  0.00    -0.384 N 
ATOM     41  H62 UNL     1      13.635  35.226 -11.204  1.00  0.00     0.157 HD
ATOM     42  H61 UNL     1      14.174  33.969 -12.340  1.00  0.00     0.157 HD
ENDBRANCH  14  40
TORSDOF 12
ENDMDL
MODEL 4
REMARK VINA RESULT: -6.876436908      1.328      1.818
REMARK  12 active torsions:
REMARK  status: ('A' for Active; 'I' for Inactive)
REMARK    1  A    between atoms: O1_2  and  C2_3 
REMARK    2  A    between atoms: C2_3  and  C3_4 
REMARK    3  A    between atoms: C3_4  and  O2_5 
REMARK    4  A    between atoms: O2_5  and  C4_6 
REMARK    5  A    between atoms: C7_9  and  O3_10 
REMARK    6  A    between atoms: O3_10  and  C8_11 
REMARK    7  A    between atoms: C8_11  and  C9_12 
REMARK    8  A    between atoms: C9_12  and  N1_13 
REMARK    9  A    between atoms: N1_13  and  C10_16 
REMARK   10  A    between atoms: C10_16  and  C11_17 
REMARK   11  A    between atoms: C12_18  and  C13_19 
REMARK   12  A    between atoms: C20_35  and  N6_36 
ROOT
HETATM    1  C11 UNL     1      13.551  39.419  -9.345  1.00  0.00     0.008 A 
HETATM    2  C12 UNL     1      13.914  38.075  -9.645  1.00  0.00     0.024 A 
HETATM    3  N2  UNL     1      13.568  37.365  -8.586  1.00  0.00    -0.344 N 
ATOM      4  H2  UNL     1      13.712  36.359  -8.501  1.00  0.00     0.167 HD
HETATM    5  C18 UNL     1      12.997  38.138  -7.625  1.00  0.00     0.136 A 
HETATM    6  N3  UNL     1      12.393  37.873  -6.430  1.00  0.00    -0.176 N 
ATOM      7  H3  UNL     1      12.422  36.917  -6.076  1.00  0.00     0.186 HD
HETATM    8  C19 UNL     1      11.765  38.799  -5.699  1.00  0.00     0.679 A 
HETATM    9  N4  UNL     1      11.243  38.488  -4.528  1.00  0.00    -0.234 N 
ATOM     10  H41 UNL     1      10.764  39.195  -3.970  1.00  0.00     0.174 HD
ATOM     11  H42 UNL     1      11.270  37.529  -4.184  1.00  0.00     0.174 HD
HETATM   12  N5  UNL     1      11.728  40.093  -6.163  1.00  0.00    -0.176 N 
ATOM     13  H5  UNL     1      11.257  40.817  -5.622  1.00  0.00     0.186 HD
HETATM   14  C20 UNL     1      12.319  40.403  -7.340  1.00  0.00     0.129 A 
HETATM   15  C21 UNL     1      12.982  39.425  -8.107  1.00  0.00     0.062 A 
ENDROOT
BRANCH   1  16
HETATM   16  C10 UNL     1      13.697  40.457 -10.348  1.00  0.00     0.274 C 
BRANCH  16  17
HETATM   17  N1  UNL     1      14.675  41.490  -9.790  1.00  0.00    -0.069 N 
ATOM     18  H12 UNL     1      14.661  41.655  -8.783  1.00  0.00     0.277 HD
ATOM     19  H11 UNL     1      14.496  42.471 -10.005  1.00  0.00     0.277 HD
BRANCH  17  20
HETATM   20  C9  UNL     1      15.941  40.856 -10.385  1.00  0.00     0.259 C 
BRANCH  20  21
HETATM   21  C8  UNL     1      15.968  41.155 -11.875  1.00  0.00     0.203 C 
BRANCH  21  22
HETATM   22  O3  UNL     1      17.062  40.332 -12.352  1.00  0.00    -0.349 OA
BRANCH  22  23
HETATM   23  C7  UNL     1      16.664  39.331 -13.250  1.00  0.00     0.069 A 
HETATM   24  C6  UNL     1      17.343  38.149 -13.231  1.00  0.00     0.039 A 
HETATM   25  C5  UNL     1      17.052  37.100 -14.070  1.00  0.00     0.040 A 
HETATM   26  C4  UNL     1      16.005  37.256 -14.985  1.00  0.00     0.074 A 
HETATM   27  C23 UNL     1      15.289  38.487 -15.027  1.00  0.00    -0.026 A 
HETATM   28  C22 UNL     1      15.645  39.463 -14.157  1.00  0.00     0.046 A 
HETATM   29  C24 UNL     1      14.283  38.636 -16.117  1.00  0.00     0.051 C 
BRANCH  26  30
HETATM   30  O2  UNL     1      15.680  36.286 -15.778  1.00  0.00    -0.349 OA
BRANCH  30  31
HETATM   31  C3  UNL     1      15.680  35.261 -16.584  1.00  0.00     0.201 C 
BRANCH  31  32
HETATM   32  C2  UNL     1      14.303  34.707 -16.974  1.00  0.00     0.193 C 
BRANCH  32  33
HETATM   33  O1  UNL     1      14.353  33.524 -17.670  1.00  0.00    -0.394 OA
HETATM   34  C1  UNL     1      15.575  32.895 -17.725  1.00  0.00     0.201 C 
ENDBRANCH  32  33
ENDBRANCH  31  32
ENDBRANCH  30  31
ENDBRANCH  26  30
ENDBRANCH  22  23
ENDBRANCH  21  22
ENDBRANCH  20  21
ENDBRANCH  17  20
ENDBRANCH  16  17
ENDBRANCH   1  16
BRANCH   2  35
HETATM   35  C13 UNL     1      14.582  37.638 -10.904  1.00  0.00     0.036 C 
HETATM   36  C14 UNL     1      13.493  37.647 -12.008  1.00  0.00     0.011 C 
HETATM   37  C15 UNL     1      13.085  36.259 -12.229  1.00  0.00     0.001 C 
HETATM   38  C16 UNL     1      14.204  35.373 -11.743  1.00  0.00     0.001 C 
HETATM   39  C17 UNL     1      15.149  36.265 -10.987  1.00  0.00     0.011 C 
ENDBRANCH   2  35
BRANCH  14  40
HETATM   40  N6  UNL     1      12.174  41.565  -7.830  1.00  0.00    -0.384 N 
ATOM     41  H62 UNL     1      11.232  41.948  -7.907  1.00  0.00     0.157 HD
ATOM     42  H61 UNL     1      12.996  42.129  -8.045  1.00  0.00     0.157 HD
ENDBRANCH  14  40
TORSDOF 12
ENDMDL
MODEL 5
REMARK VINA RESULT: -6.857357895      3.031      5.647
REMARK  12 active torsions:
REMARK  status: ('A' for Active; 'I' for Inactive)
REMARK    1  A    between atoms: O1_2  and  C2_3 
REMARK    2  A    between atoms: C2_3  and  C3_4 
REMARK    3  A    between atoms: C3_4  and  O2_5 
REMARK    4  A    between atoms: O2_5  and  C4_6 
REMARK    5  A    between atoms: C7_9  and  O3_10 
REMARK    6  A    between atoms: O3_10  and  C8_11 
REMARK    7  A    between atoms: C8_11  and  C9_12 
REMARK    8  A    between atoms: C9_12  and  N1_13 
REMARK    9  A    between atoms: N1_13  and  C10_16 
REMARK   10  A    between atoms: C10_16  and  C11_17 
REMARK   11  A    between atoms: C12_18  and  C13_19 
REMARK   12  A    between atoms: C20_35  and  N6_36 
ROOT
HETATM    1  C11 UNL     1      12.056  42.963  -9.084  1.00  0.00     0.008 A 
HETATM    2  C12 UNL     1      13.419  43.191  -9.429  1.00  0.00     0.024 A 
HETATM    3  N2  UNL     1      13.395  44.017 -10.459  1.00  0.00    -0.344 N 
ATOM      4  H2  UNL     1      14.228  44.360 -10.936  1.00  0.00     0.167 HD
HETATM    5  C18 UNL     1      12.125  44.355 -10.806  1.00  0.00     0.136 A 
HETATM    6  N3  UNL     1      11.588  45.232 -11.703  1.00  0.00    -0.176 N 
ATOM      7  H3  UNL     1      12.218  45.704 -12.352  1.00  0.00     0.186 HD
HETATM    8  C19 UNL     1      10.282  45.506 -11.777  1.00  0.00     0.679 A 
HETATM    9  N4  UNL     1       9.821  46.328 -12.700  1.00  0.00    -0.234 N 
ATOM     10  H41 UNL     1       8.825  46.537 -12.757  1.00  0.00     0.174 HD
ATOM     11  H42 UNL     1      10.458  46.802 -13.341  1.00  0.00     0.174 HD
HETATM   12  N5  UNL     1       9.424  44.868 -10.913  1.00  0.00    -0.176 N 
ATOM     13  H5  UNL     1       8.423  45.059 -10.952  1.00  0.00     0.186 HD
HETATM   14  C20 UNL     1       9.910  43.985 -10.011  1.00  0.00     0.129 A 
HETATM   15  C21 UNL     1      11.288  43.697  -9.937  1.00  0.00     0.062 A 
ENDROOT
BRANCH   1  16
HETATM   16  C10 UNL     1      11.720  42.176  -7.913  1.00  0.00     0.274 C 
BRANCH  16  17
HETATM   17  N1  UNL     1      11.299  40.791  -8.405  1.00  0.00    -0.069 N 
ATOM     18  H12 UNL     1      11.488  40.562  -9.382  1.00  0.00     0.277 HD
ATOM     19  H11 UNL     1      10.300  40.610  -8.502  1.00  0.00     0.277 HD
BRANCH  17  20
HETATM   20  C9  UNL     1      12.060  39.997  -7.333  1.00  0.00     0.259 C 
BRANCH  20  21
HETATM   21  C8  UNL     1      12.157  38.550  -7.790  1.00  0.00     0.203 C 
BRANCH  21  22
HETATM   22  O3  UNL     1      13.519  38.452  -8.273  1.00  0.00    -0.349 OA
BRANCH  22  23
HETATM   23  C7  UNL     1      13.613  38.258  -9.659  1.00  0.00     0.069 A 
HETATM   24  C6  UNL     1      13.925  39.333 -10.436  1.00  0.00     0.039 A 
HETATM   25  C5  UNL     1      14.035  39.267 -11.804  1.00  0.00     0.040 A 
HETATM   26  C4  UNL     1      13.817  38.033 -12.426  1.00  0.00     0.074 A 
HETATM   27  C23 UNL     1      13.481  36.899 -11.633  1.00  0.00    -0.026 A 
HETATM   28  C22 UNL     1      13.399  37.059 -10.290  1.00  0.00     0.046 A 
HETATM   29  C24 UNL     1      13.124  35.653 -12.370  1.00  0.00     0.051 C 
BRANCH  26  30
HETATM   30  O2  UNL     1      13.934  37.919 -13.710  1.00  0.00    -0.349 OA
BRANCH  30  31
HETATM   31  C3  UNL     1      14.339  37.960 -14.949  1.00  0.00     0.201 C 
BRANCH  31  32
HETATM   32  C2  UNL     1      15.224  36.793 -15.410  1.00  0.00     0.193 C 
BRANCH  32  33
HETATM   33  O1  UNL     1      14.549  35.608 -15.570  1.00  0.00    -0.394 OA
HETATM   34  C1  UNL     1      13.455  35.632 -16.403  1.00  0.00     0.201 C 
ENDBRANCH  32  33
ENDBRANCH  31  32
ENDBRANCH  30  31
ENDBRANCH  26  30
ENDBRANCH  22  23
ENDBRANCH  21  22
ENDBRANCH  20  21
ENDBRANCH  17  20
ENDBRANCH  16  17
ENDBRANCH   1  16
BRANCH   2  35
HETATM   35  C13 UNL     1      14.583  42.560  -8.745  1.00  0.00     0.036 C 
HETATM   36  C14 UNL     1      14.991  43.516  -7.594  1.00  0.00     0.011 C 
HETATM   37  C15 UNL     1      16.176  44.253  -8.038  1.00  0.00     0.001 C 
HETATM   38  C16 UNL     1      16.830  43.445  -9.131  1.00  0.00     0.001 C 
HETATM   39  C17 UNL     1      15.851  42.366  -9.499  1.00  0.00     0.011 C 
ENDBRANCH   2  35
BRANCH  14  40
HETATM   40  N6  UNL     1       9.139  43.495  -9.130  1.00  0.00    -0.384 N 
ATOM     41  H62 UNL     1       8.140  43.690  -9.193  1.00  0.00     0.157 HD
ATOM     42  H61 UNL     1       9.510  42.843  -8.440  1.00  0.00     0.157 HD
ENDBRANCH  14  40
TORSDOF 12
ENDMDL
