MODEL 1
REMARK VINA RESULT: -6.958858592      0.000      0.000
REMARK  17 active torsions:
REMARK  status: ('A' for Active; 'I' for Inactive)
REMARK    1  A    between atoms: C2_2  and  C3_3 
REMARK    2  A    between atoms: C3_3  and  C4_4 
REMARK    3  A    between atoms: C4_4  and  C5_5 
REMARK    4  A    between atoms: C5_5  and  C6_6 
REMARK    5  A    between atoms: C6_6  and  O1_7 
REMARK    6  A    between atoms: C6_6  and  C7_9 
REMARK    7  A    between atoms: C8_10  and  C9_11 
REMARK    8  A    between atoms: C12_14  and  C13_15 
REMARK    9  A    between atoms: C14_16  and  C15_17 
REMARK   10  A    between atoms: C15_17  and  O2_18 
REMARK   11  A    between atoms: C15_17  and  C16_20 
REMARK   12  A    between atoms: C16_20  and  C17_21 
REMARK   13  A    between atoms: C17_21  and  O3_23 
REMARK   14  A    between atoms: C22_27  and  O4_28 
REMARK   15  A    between atoms: C22_27  and  C23_30 
REMARK   16  A    between atoms: C23_30  and  O5_31 
REMARK   17  A    between atoms: C25_34  and  O6_35 
ROOT
HETATM    1  C9  UNL     1      14.231  42.203 -10.854  1.00  0.00    -0.073 C 
HETATM    2  C10 UNL     1      12.909  41.608 -11.239  1.00  0.00     0.035 C 
HETATM    3  C11 UNL     1      12.052  41.464 -10.002  1.00  0.00     0.013 C 
HETATM    4  C12 UNL     1      12.905  40.864  -8.906  1.00  0.00     0.013 C 
HETATM    5  C20 UNL     1      13.796  41.873  -8.367  1.00  0.00     0.007 C 
HETATM    6  C21 UNL     1      13.304  42.783  -7.299  1.00  0.00     0.046 C 
HETATM    7  C22 UNL     1      14.359  43.806  -6.959  1.00  0.00     0.082 C 
HETATM    8  C24 UNL     1      15.646  43.687  -7.680  1.00  0.00     0.072 C 
HETATM    9  C25 UNL     1      15.563  43.452  -9.149  1.00  0.00     0.129 C 
HETATM   10  C26 UNL     1      14.269  42.784  -9.486  1.00  0.00     0.048 C 
ENDROOT
BRANCH   1  11
HETATM   11  C8  UNL     1      15.384  41.399 -11.264  1.00  0.00     0.002 C 
HETATM   12  C7  UNL     1      15.543  40.675 -12.342  1.00  0.00     0.005 C 
BRANCH  12  13
HETATM   13  C6  UNL     1      14.548  40.501 -13.430  1.00  0.00     0.141 C 
BRANCH  13  14
HETATM   14  C5  UNL     1      14.275  39.036 -13.596  1.00  0.00     0.036 C 
BRANCH  14  15
HETATM   15  C4  UNL     1      14.613  38.124 -12.496  1.00  0.00     0.003 C 
BRANCH  15  16
HETATM   16  C3  UNL     1      13.508  37.228 -12.013  1.00  0.00    -0.000 C 
BRANCH  16  17
HETATM   17  C2  UNL     1      13.167  37.567 -10.550  1.00  0.00    -0.005 C 
HETATM   18  C1  UNL     1      14.317  37.228  -9.655  1.00  0.00     0.005 C 
ENDBRANCH  16  17
ENDBRANCH  15  16
ENDBRANCH  14  15
ENDBRANCH  13  14
BRANCH  13  19
HETATM   19  O1  UNL     1      15.066  41.027 -14.587  1.00  0.00    -0.392 OA
ATOM     20  H1  UNL     1      15.879  41.485 -14.409  1.00  0.00     0.210 HD
ENDBRANCH  13  19
ENDBRANCH  12  13
ENDBRANCH   1  11
BRANCH   9  21
HETATM   21  O6  UNL     1      16.684  42.694  -9.496  1.00  0.00    -0.395 OA
ATOM     22  H6  UNL     1      16.375  41.810  -9.659  1.00  0.00     0.210 HD
ENDBRANCH   9  21
BRANCH   4  23
HETATM   23  C13 UNL     1      12.065  40.074  -8.009  1.00  0.00    -0.023 C 
HETATM   24  C14 UNL     1      12.398  39.171  -7.143  1.00  0.00     0.001 C 
BRANCH  24  25
HETATM   25  C15 UNL     1      11.352  38.487  -6.327  1.00  0.00     0.143 C 
BRANCH  25  26
HETATM   26  O2  UNL     1      11.808  37.296  -5.774  1.00  0.00    -0.392 OA
ATOM     27  H2  UNL     1      11.201  36.938  -5.136  1.00  0.00     0.210 HD
ENDBRANCH  25  26
BRANCH  25  28
HETATM   28  C16 UNL     1      10.832  39.351  -5.217  1.00  0.00     0.067 C 
BRANCH  28  29
HETATM   29  C17 UNL     1       9.695  38.700  -4.464  1.00  0.00     0.119 C 
HETATM   30  C18 UNL     1       8.902  39.689  -3.664  1.00  0.00     0.039 C 
BRANCH  29  31
HETATM   31  O3  UNL     1      10.272  37.777  -3.593  1.00  0.00    -0.391 OA
HETATM   32  C19 UNL     1       9.396  37.425  -2.598  1.00  0.00     0.202 C 
ENDBRANCH  29  31
ENDBRANCH  28  29
ENDBRANCH  25  28
ENDBRANCH  24  25
ENDBRANCH   4  23
BRANCH   7  33
HETATM   33  O4  UNL     1      14.704  43.714  -5.575  1.00  0.00    -0.388 OA
ATOM     34  H4  UNL     1      15.288  44.425  -5.336  1.00  0.00     0.210 HD
ENDBRANCH   7  33
BRANCH   7  35
HETATM   35  C23 UNL     1      13.838  45.241  -7.087  1.00  0.00     0.201 C 
BRANCH  35  36
HETATM   36  O5  UNL     1      13.602  45.739  -5.803  1.00  0.00    -0.398 OA
ATOM     37  H5  UNL     1      12.833  46.296  -5.835  1.00  0.00     0.209 HD
ENDBRANCH  35  36
ENDBRANCH   7  35
TORSDOF 17
ENDMDL
MODEL 2
REMARK VINA RESULT: -6.930550323      2.260      5.693
REMARK  17 active torsions:
REMARK  status: ('A' for Active; 'I' for Inactive)
REMARK    1  A    between atoms: C2_2  and  C3_3 
REMARK    2  A    between atoms: C3_3  and  C4_4 
REMARK    3  A    between atoms: C4_4  and  C5_5 
REMARK    4  A    between atoms: C5_5  and  C6_6 
REMARK    5  A    between atoms: C6_6  and  O1_7 
REMARK    6  A    between atoms: C6_6  and  C7_9 
REMARK    7  A    between atoms: C8_10  and  C9_11 
REMARK    8  A    between atoms: C12_14  and  C13_15 
REMARK    9  A    between atoms: C14_16  and  C15_17 
REMARK   10  A    between atoms: C15_17  and  O2_18 
REMARK   11  A    between atoms: C15_17  and  C16_20 
REMARK   12  A    between atoms: C16_20  and  C17_21 
REMARK   13  A    between atoms: C17_21  and  O3_23 
REMARK   14  A    between atoms: C22_27  and  O4_28 
REMARK   15  A    between atoms: C22_27  and  C23_30 
REMARK   16  A    between atoms: C23_30  and  O5_31 
REMARK   17  A    between atoms: C25_34  and  O6_35 
ROOT
HETATM    1  C9  UNL     1      15.131  40.043 -11.235  1.00  0.00    -0.073 C 
HETATM    2  C10 UNL     1      15.331  40.359  -9.783  1.00  0.00     0.035 C 
HETATM    3  C11 UNL     1      14.615  39.321  -8.948  1.00  0.00     0.013 C 
HETATM    4  C12 UNL     1      13.237  39.115  -9.534  1.00  0.00     0.013 C 
HETATM    5  C20 UNL     1      13.328  38.315 -10.740  1.00  0.00     0.007 C 
HETATM    6  C21 UNL     1      13.353  36.833 -10.629  1.00  0.00     0.046 C 
HETATM    7  C22 UNL     1      13.547  36.211 -11.990  1.00  0.00     0.082 C 
HETATM    8  C24 UNL     1      13.620  37.148 -13.135  1.00  0.00     0.072 C 
HETATM    9  C25 UNL     1      14.479  38.351 -12.953  1.00  0.00     0.129 C 
HETATM   10  C26 UNL     1      14.590  38.684 -11.500  1.00  0.00     0.048 C 
ENDROOT
BRANCH   1  11
HETATM   11  C8  UNL     1      14.558  41.147 -12.007  1.00  0.00     0.002 C 
HETATM   12  C7  UNL     1      14.975  42.383 -12.115  1.00  0.00     0.005 C 
BRANCH  12  13
HETATM   13  C6  UNL     1      16.169  42.960 -11.447  1.00  0.00     0.141 C 
BRANCH  13  14
HETATM   14  C5  UNL     1      15.734  44.144 -10.637  1.00  0.00     0.036 C 
BRANCH  14  15
HETATM   15  C4  UNL     1      14.924  43.920  -9.433  1.00  0.00     0.003 C 
BRANCH  15  16
HETATM   16  C3  UNL     1      15.680  43.694  -8.155  1.00  0.00    -0.000 C 
BRANCH  16  17
HETATM   17  C2  UNL     1      14.692  43.403  -7.011  1.00  0.00    -0.005 C 
HETATM   18  C1  UNL     1      13.506  42.650  -7.526  1.00  0.00     0.005 C 
ENDBRANCH  16  17
ENDBRANCH  15  16
ENDBRANCH  14  15
ENDBRANCH  13  14
BRANCH  13  19
HETATM   19  O1  UNL     1      17.068  43.342 -12.411  1.00  0.00    -0.392 OA
ATOM     20  H1  UNL     1      16.789  43.037 -13.265  1.00  0.00     0.210 HD
ENDBRANCH  13  19
ENDBRANCH  12  13
ENDBRANCH   1  11
BRANCH   9  21
HETATM   21  O6  UNL     1      13.904  39.371 -13.714  1.00  0.00    -0.395 OA
ATOM     22  H6  UNL     1      13.583  40.021 -13.099  1.00  0.00     0.210 HD
ENDBRANCH   9  21
BRANCH   4  23
HETATM   23  C13 UNL     1      12.305  38.739  -8.474  1.00  0.00    -0.023 C 
HETATM   24  C14 UNL     1      12.351  38.986  -7.203  1.00  0.00     0.001 C 
BRANCH  24  25
HETATM   25  C15 UNL     1      11.270  38.493  -6.300  1.00  0.00     0.143 C 
BRANCH  25  26
HETATM   26  O2  UNL     1      11.628  37.324  -5.637  1.00  0.00    -0.392 OA
ATOM     27  H2  UNL     1      10.981  37.063  -4.992  1.00  0.00     0.210 HD
ENDBRANCH  25  26
BRANCH  25  28
HETATM   28  C16 UNL     1      10.871  39.511  -5.274  1.00  0.00     0.067 C 
BRANCH  28  29
HETATM   29  C17 UNL     1       9.807  38.993  -4.332  1.00  0.00     0.119 C 
HETATM   30  C18 UNL     1       8.911  40.085  -3.830  1.00  0.00     0.039 C 
BRANCH  29  31
HETATM   31  O3  UNL     1      10.478  38.428  -3.248  1.00  0.00    -0.391 OA
HETATM   32  C19 UNL     1       9.665  37.559  -2.566  1.00  0.00     0.202 C 
ENDBRANCH  29  31
ENDBRANCH  28  29
ENDBRANCH  25  28
ENDBRANCH  24  25
ENDBRANCH   4  23
BRANCH   7  33
HETATM   33  O4  UNL     1      12.453  35.344 -12.295  1.00  0.00    -0.388 OA
ATOM     34  H4  UNL     1      12.220  35.422 -13.213  1.00  0.00     0.210 HD
ENDBRANCH   7  33
BRANCH   7  35
HETATM   35  C23 UNL     1      14.753  35.268 -12.031  1.00  0.00     0.201 C 
BRANCH  35  36
HETATM   36  O5  UNL     1      14.284  33.953 -11.970  1.00  0.00    -0.398 OA
ATOM     37  H5  UNL     1      14.715  33.451 -12.652  1.00  0.00     0.209 HD
ENDBRANCH  35  36
ENDBRANCH   7  35
TORSDOF 17
ENDMDL
MODEL 3
REMARK VINA RESULT: -6.864924164      2.341      8.061
REMARK  17 active torsions:
REMARK  status: ('A' for Active; 'I' for Inactive)
REMARK    1  A    between atoms: C2_2  and  C3_3 
REMARK    2  A    between atoms: C3_3  and  C4_4 
REMARK    3  A    between atoms: C4_4  and  C5_5 
REMARK    4  A    between atoms: C5_5  and  C6_6 
REMARK    5  A    between atoms: C6_6  and  O1_7 
REMARK    6  A    between atoms: C6_6  and  C7_9 
REMARK    7  A    between atoms: C8_10  and  C9_11 
REMARK    8  A    between atoms: C12_14  and  C13_15 
REMARK    9  A    between atoms: C14_16  and  C15_17 
REMARK   10  A    between atoms: C15_17  and  O2_18 
REMARK   11  A    between atoms: C15_17  and  C16_20 
REMARK   12  A    between atoms: C16_20  and  C17_21 
REMARK   13  A    between atoms: C17_21  and  O3_23 
REMARK   14  A    between atoms: C22_27  and  O4_28 
REMARK   15  A    between atoms: C22_27  and  C23_30 
REMARK   16  A    between atoms: C23_30  and  O5_31 
REMARK   17  A    between atoms: C25_34  and  O6_35 
ROOT
HETATM    1  C9  UNL     1      12.746  39.297  -7.307  1.00  0.00    -0.073 C 
HETATM    2  C10 UNL     1      13.092  37.839  -7.229  1.00  0.00     0.035 C 
HETATM    3  C11 UNL     1      13.781  37.425  -8.510  1.00  0.00     0.013 C 
HETATM    4  C12 UNL     1      12.997  37.995  -9.670  1.00  0.00     0.013 C 
HETATM    5  C20 UNL     1      13.264  39.414  -9.797  1.00  0.00     0.007 C 
HETATM    6  C21 UNL     1      14.459  39.864 -10.560  1.00  0.00     0.046 C 
HETATM    7  C22 UNL     1      14.592  41.364 -10.481  1.00  0.00     0.082 C 
HETATM    8  C24 UNL     1      13.530  42.080  -9.739  1.00  0.00     0.072 C 
HETATM    9  C25 UNL     1      13.128  41.496  -8.429  1.00  0.00     0.129 C 
HETATM   10  C26 UNL     1      13.413  40.029  -8.417  1.00  0.00     0.048 C 
ENDROOT
BRANCH   1  11
HETATM   11  C8  UNL     1      11.327  39.581  -7.085  1.00  0.00     0.002 C 
HETATM   12  C7  UNL     1      10.562  39.228  -6.083  1.00  0.00     0.005 C 
BRANCH  12  13
HETATM   13  C6  UNL     1      10.983  38.428  -4.905  1.00  0.00     0.141 C 
BRANCH  13  14
HETATM   14  C5  UNL     1       9.754  37.963  -4.183  1.00  0.00     0.036 C 
BRANCH  14  15
HETATM   15  C4  UNL     1       9.714  38.061  -2.718  1.00  0.00     0.003 C 
BRANCH  15  16
HETATM   16  C3  UNL     1       9.386  36.797  -1.976  1.00  0.00    -0.000 C 
BRANCH  16  17
HETATM   17  C2  UNL     1       9.059  37.126  -0.508  1.00  0.00    -0.005 C 
HETATM   18  C1  UNL     1       9.870  38.294  -0.043  1.00  0.00     0.005 C 
ENDBRANCH  16  17
ENDBRANCH  15  16
ENDBRANCH  14  15
ENDBRANCH  13  14
BRANCH  13  19
HETATM   19  O1  UNL     1      11.750  39.220  -4.088  1.00  0.00    -0.392 OA
ATOM     20  H1  UNL     1      12.361  39.734  -4.602  1.00  0.00     0.210 HD
ENDBRANCH  13  19
ENDBRANCH  12  13
ENDBRANCH   1  11
BRANCH   9  21
HETATM   21  O6  UNL     1      11.776  41.800  -8.254  1.00  0.00    -0.395 OA
ATOM     22  H6  UNL     1      11.742  42.638  -7.806  1.00  0.00     0.210 HD
ENDBRANCH   9  21
BRANCH   4  23
HETATM   23  C13 UNL     1      13.134  37.117 -10.831  1.00  0.00    -0.023 C 
HETATM   24  C14 UNL     1      14.057  36.254 -11.113  1.00  0.00     0.001 C 
BRANCH  24  25
HETATM   25  C15 UNL     1      13.986  35.459 -12.374  1.00  0.00     0.143 C 
BRANCH  25  26
HETATM   26  O2  UNL     1      13.211  34.313 -12.232  1.00  0.00    -0.392 OA
ATOM     27  H2  UNL     1      12.664  34.151 -12.993  1.00  0.00     0.210 HD
ENDBRANCH  25  26
BRANCH  25  28
HETATM   28  C16 UNL     1      13.444  36.253 -13.524  1.00  0.00     0.067 C 
BRANCH  28  29
HETATM   29  C17 UNL     1      14.514  37.063 -14.220  1.00  0.00     0.119 C 
HETATM   30  C18 UNL     1      14.275  38.539 -14.105  1.00  0.00     0.039 C 
BRANCH  29  31
HETATM   31  O3  UNL     1      14.472  36.704 -15.566  1.00  0.00    -0.391 OA
HETATM   32  C19 UNL     1      15.422  35.757 -15.852  1.00  0.00     0.202 C 
ENDBRANCH  29  31
ENDBRANCH  28  29
ENDBRANCH  25  28
ENDBRANCH  24  25
ENDBRANCH   4  23
BRANCH   7  33
HETATM   33  O4  UNL     1      14.567  41.929 -11.794  1.00  0.00    -0.388 OA
ATOM     34  H4  UNL     1      15.450  42.004 -12.135  1.00  0.00     0.210 HD
ENDBRANCH   7  33
BRANCH   7  35
HETATM   35  C23 UNL     1      15.961  41.798  -9.949  1.00  0.00     0.201 C 
BRANCH  35  36
HETATM   36  O5  UNL     1      16.886  40.793 -10.243  1.00  0.00    -0.398 OA
ATOM     37  H5  UNL     1      16.908  40.185  -9.513  1.00  0.00     0.209 HD
ENDBRANCH  35  36
ENDBRANCH   7  35
TORSDOF 17
ENDMDL
MODEL 4
REMARK VINA RESULT: -6.679022166      2.989      8.800
REMARK  17 active torsions:
REMARK  status: ('A' for Active; 'I' for Inactive)
REMARK    1  A    between atoms: C2_2  and  C3_3 
REMARK    2  A    between atoms: C3_3  and  C4_4 
REMARK    3  A    between atoms: C4_4  and  C5_5 
REMARK    4  A    between atoms: C5_5  and  C6_6 
REMARK    5  A    between atoms: C6_6  and  O1_7 
REMARK    6  A    between atoms: C6_6  and  C7_9 
REMARK    7  A    between atoms: C8_10  and  C9_11 
REMARK    8  A    between atoms: C12_14  and  C13_15 
REMARK    9  A    between atoms: C14_16  and  C15_17 
REMARK   10  A    between atoms: C15_17  and  O2_18 
REMARK   11  A    between atoms: C15_17  and  C16_20 
REMARK   12  A    between atoms: C16_20  and  C17_21 
REMARK   13  A    between atoms: C17_21  and  O3_23 
REMARK   14  A    between atoms: C22_27  and  O4_28 
REMARK   15  A    between atoms: C22_27  and  C23_30 
REMARK   16  A    between atoms: C23_30  and  O5_31 
REMARK   17  A    between atoms: C25_34  and  O6_35 
ROOT
HETATM    1  C9  UNL     1      13.161  40.075  -9.924  1.00  0.00    -0.073 C 
HETATM    2  C10 UNL     1      13.221  41.287 -10.805  1.00  0.00     0.035 C 
HETATM    3  C11 UNL     1      14.019  40.957 -12.046  1.00  0.00     0.013 C 
HETATM    4  C12 UNL     1      15.270  40.221 -11.619  1.00  0.00     0.013 C 
HETATM    5  C20 UNL     1      14.942  38.853 -11.271  1.00  0.00     0.007 C 
HETATM    6  C21 UNL     1      14.869  37.826 -12.345  1.00  0.00     0.046 C 
HETATM    7  C22 UNL     1      14.423  36.504 -11.773  1.00  0.00     0.082 C 
HETATM    8  C24 UNL     1      14.202  36.463 -10.309  1.00  0.00     0.072 C 
HETATM    9  C25 UNL     1      13.440  37.601  -9.722  1.00  0.00     0.129 C 
HETATM   10  C26 UNL     1      13.589  38.813 -10.584  1.00  0.00     0.048 C 
ENDROOT
BRANCH   1  11
HETATM   11  C8  UNL     1      13.646  40.308  -8.562  1.00  0.00     0.002 C 
HETATM   12  C7  UNL     1      13.088  40.987  -7.593  1.00  0.00     0.005 C 
BRANCH  12  13
HETATM   13  C6  UNL     1      11.788  41.702  -7.665  1.00  0.00     0.141 C 
BRANCH  13  14
HETATM   14  C5  UNL     1      12.055  43.145  -7.969  1.00  0.00     0.036 C 
BRANCH  14  15
HETATM   15  C4  UNL     1      13.308  43.749  -7.496  1.00  0.00     0.003 C 
BRANCH  15  16
HETATM   16  C3  UNL     1      14.291  44.156  -8.556  1.00  0.00    -0.000 C 
BRANCH  16  17
HETATM   17  C2  UNL     1      15.690  43.622  -8.200  1.00  0.00    -0.005 C 
HETATM   18  C1  UNL     1      16.307  42.948  -9.384  1.00  0.00     0.005 C 
ENDBRANCH  16  17
ENDBRANCH  15  16
ENDBRANCH  14  15
ENDBRANCH  13  14
BRANCH  13  19
HETATM   19  O1  UNL     1      11.150  41.575  -6.457  1.00  0.00    -0.392 OA
ATOM     20  H1  UNL     1      10.360  41.057  -6.551  1.00  0.00     0.210 HD
ENDBRANCH  13  19
ENDBRANCH  12  13
ENDBRANCH   1  11
BRANCH   9  21
HETATM   21  O6  UNL     1      13.925  37.779  -8.424  1.00  0.00    -0.395 OA
ATOM     22  H6  UNL     1      14.305  38.650  -8.394  1.00  0.00     0.210 HD
ENDBRANCH   9  21
BRANCH   4  23
HETATM   23  C13 UNL     1      16.348  40.499 -12.566  1.00  0.00    -0.023 C 
HETATM   24  C14 UNL     1      17.591  40.787 -12.345  1.00  0.00     0.001 C 
BRANCH  24  25
HETATM   25  C15 UNL     1      18.522  41.034 -13.485  1.00  0.00     0.143 C 
BRANCH  25  26
HETATM   26  O2  UNL     1      19.843  40.750 -13.159  1.00  0.00    -0.392 OA
ATOM     27  H2  UNL     1      20.224  41.410 -12.591  1.00  0.00     0.210 HD
ENDBRANCH  25  26
BRANCH  25  28
HETATM   28  C16 UNL     1      18.158  40.242 -14.705  1.00  0.00     0.067 C 
BRANCH  28  29
HETATM   29  C17 UNL     1      19.093  39.077 -14.935  1.00  0.00     0.119 C 
HETATM   30  C18 UNL     1      18.972  38.514 -16.320  1.00  0.00     0.039 C 
BRANCH  29  31
HETATM   31  O3  UNL     1      18.732  38.092 -14.017  1.00  0.00    -0.391 OA
HETATM   32  C19 UNL     1      17.799  37.240 -14.551  1.00  0.00     0.202 C 
ENDBRANCH  29  31
ENDBRANCH  28  29
ENDBRANCH  25  28
ENDBRANCH  24  25
ENDBRANCH   4  23
BRANCH   7  33
HETATM   33  O4  UNL     1      15.411  35.502 -12.023  1.00  0.00    -0.388 OA
ATOM     34  H4  UNL     1      15.086  34.650 -11.757  1.00  0.00     0.210 HD
ENDBRANCH   7  33
BRANCH   7  35
HETATM   35  C23 UNL     1      13.186  35.951 -12.487  1.00  0.00     0.201 C 
BRANCH  35  36
HETATM   36  O5  UNL     1      13.194  34.559 -12.364  1.00  0.00    -0.398 OA
ATOM     37  H5  UNL     1      12.743  34.190 -13.114  1.00  0.00     0.209 HD
ENDBRANCH  35  36
ENDBRANCH   7  35
TORSDOF 17
ENDMDL
MODEL 5
REMARK VINA RESULT: -6.637709405      3.005      9.190
REMARK  17 active torsions:
REMARK  status: ('A' for Active; 'I' for Inactive)
REMARK    1  A    between atoms: C2_2  and  C3_3 
REMARK    2  A    between atoms: C3_3  and  C4_4 
REMARK    3  A    between atoms: C4_4  and  C5_5 
REMARK    4  A    between atoms: C5_5  and  C6_6 
REMARK    5  A    between atoms: C6_6  and  O1_7 
REMARK    6  A    between atoms: C6_6  and  C7_9 
REMARK    7  A    between atoms: C8_10  and  C9_11 
REMARK    8  A    between atoms: C12_14  and  C13_15 
REMARK    9  A    between atoms: C14_16  and  C15_17 
REMARK   10  A    between atoms: C15_17  and  O2_18 
REMARK   11  A    between atoms: C15_17  and  C16_20 
REMARK   12  A    between atoms: C16_20  and  C17_21 
REMARK   13  A    between atoms: C17_21  and  O3_23 
REMARK   14  A    between atoms: C22_27  and  O4_28 
REMARK   15  A    between atoms: C22_27  and  C23_30 
REMARK   16  A    between atoms: C23_30  and  O5_31 
REMARK   17  A    between atoms: C25_34  and  O6_35 
ROOT
HETATM    1  C9  UNL     1      13.355  38.928 -10.405  1.00  0.00    -0.073 C 
HETATM    2  C10 UNL     1      13.427  40.414 -10.596  1.00  0.00     0.035 C 
HETATM    3  C11 UNL     1      14.305  40.718 -11.790  1.00  0.00     0.013 C 
HETATM    4  C12 UNL     1      15.551  39.868 -11.685  1.00  0.00     0.013 C 
HETATM    5  C20 UNL     1      15.248  38.499 -12.053  1.00  0.00     0.007 C 
HETATM    6  C21 UNL     1      15.269  38.110 -13.488  1.00  0.00     0.046 C 
HETATM    7  C22 UNL     1      14.832  36.675 -13.646  1.00  0.00     0.082 C 
HETATM    8  C24 UNL     1      14.530  35.940 -12.397  1.00  0.00     0.072 C 
HETATM    9  C25 UNL     1      13.700  36.659 -11.389  1.00  0.00     0.129 C 
HETATM   10  C26 UNL     1      13.860  38.135 -11.557  1.00  0.00     0.048 C 
ENDROOT
BRANCH   1  11
HETATM   11  C8  UNL     1      13.755  38.483  -9.069  1.00  0.00     0.002 C 
HETATM   12  C7  UNL     1      13.095  38.563  -7.941  1.00  0.00     0.005 C 
BRANCH  12  13
HETATM   13  C6  UNL     1      11.743  39.149  -7.762  1.00  0.00     0.141 C 
BRANCH  13  14
HETATM   14  C5  UNL     1      11.845  40.298  -6.805  1.00  0.00     0.036 C 
BRANCH  14  15
HETATM   15  C4  UNL     1      12.125  41.639  -7.336  1.00  0.00     0.003 C 
BRANCH  15  16
HETATM   16  C3  UNL     1      13.482  42.204  -7.029  1.00  0.00    -0.000 C 
BRANCH  16  17
HETATM   17  C2  UNL     1      13.902  43.181  -8.143  1.00  0.00    -0.005 C 
HETATM   18  C1  UNL     1      15.308  42.906  -8.574  1.00  0.00     0.005 C 
ENDBRANCH  16  17
ENDBRANCH  15  16
ENDBRANCH  14  15
ENDBRANCH  13  14
BRANCH  13  19
HETATM   19  O1  UNL     1      10.908  38.181  -7.263  1.00  0.00    -0.392 OA
ATOM     20  H1  UNL     1      11.218  37.317  -7.506  1.00  0.00     0.210 HD
ENDBRANCH  13  19
ENDBRANCH  12  13
ENDBRANCH   1  11
BRANCH   9  21
HETATM   21  O6  UNL     1      14.105  36.195 -10.135  1.00  0.00    -0.395 OA
ATOM     22  H6  UNL     1      13.324  35.879  -9.697  1.00  0.00     0.210 HD
ENDBRANCH   9  21
BRANCH   4  23
HETATM   23  C13 UNL     1      16.672  40.565 -12.312  1.00  0.00    -0.023 C 
HETATM   24  C14 UNL     1      17.863  40.796 -11.858  1.00  0.00     0.001 C 
BRANCH  24  25
HETATM   25  C15 UNL     1      18.856  41.538 -12.690  1.00  0.00     0.143 C 
BRANCH  25  26
HETATM   26  O2  UNL     1      20.165  41.167 -12.405  1.00  0.00    -0.392 OA
ATOM     27  H2  UNL     1      20.688  41.060 -13.191  1.00  0.00     0.210 HD
ENDBRANCH  25  26
BRANCH  25  28
HETATM   28  C16 UNL     1      18.624  41.356 -14.160  1.00  0.00     0.067 C 
BRANCH  28  29
HETATM   29  C17 UNL     1      19.740  40.585 -14.827  1.00  0.00     0.119 C 
HETATM   30  C18 UNL     1      19.798  40.832 -16.305  1.00  0.00     0.039 C 
BRANCH  29  31
HETATM   31  O3  UNL     1      19.476  39.233 -14.608  1.00  0.00    -0.391 OA
HETATM   32  C19 UNL     1      18.378  38.825 -15.323  1.00  0.00     0.202 C 
ENDBRANCH  29  31
ENDBRANCH  28  29
ENDBRANCH  25  28
ENDBRANCH  24  25
ENDBRANCH   4  23
BRANCH   7  33
HETATM   33  O4  UNL     1      15.864  35.915 -14.278  1.00  0.00    -0.388 OA
ATOM     34  H4  UNL     1      15.736  35.910 -15.220  1.00  0.00     0.210 HD
ENDBRANCH   7  33
BRANCH   7  35
HETATM   35  C23 UNL     1      13.656  36.529 -14.616  1.00  0.00     0.201 C 
BRANCH  35  36
HETATM   36  O5  UNL     1      13.181  35.218 -14.537  1.00  0.00    -0.398 OA
ATOM     37  H5  UNL     1      12.923  34.941 -15.408  1.00  0.00     0.209 HD
ENDBRANCH  35  36
ENDBRANCH   7  35
TORSDOF 17
ENDMDL
