MODEL 1
REMARK VINA RESULT: -6.993179697      0.000      0.000
REMARK  16 active torsions:
REMARK  status: ('A' for Active; 'I' for Inactive)
REMARK    1  A    between atoms: C2_2  and  C3_3 
REMARK    2  A    between atoms: C3_3  and  C4_4 
REMARK    3  A    between atoms: C4_4  and  C5_5 
REMARK    4  A    between atoms: C5_5  and  C6_6 
REMARK    5  A    between atoms: C6_6  and  C7_7 
REMARK    6  A    between atoms: C7_7  and  C8_8 
REMARK    7  A    between atoms: C9_9  and  C10_10 
REMARK    8  A    between atoms: C10_10  and  C11_11 
REMARK    9  A    between atoms: C11_11  and  O1_12 
REMARK   10  A    between atoms: C12_15  and  C13_16 
REMARK   11  A    between atoms: C13_16  and  C15_18 
REMARK   12  A    between atoms: C15_18  and  O3_19 
REMARK   13  A    between atoms: C15_18  and  C16_21 
REMARK   14  A    between atoms: C16_21  and  O4_22 
REMARK   15  A    between atoms: C20_27  and  O5_28 
REMARK   16  A    between atoms: C25_34  and  O6_36 
ROOT
HETATM    1  C8  UNL     1      14.261  38.677 -10.954  1.00  0.00     0.049 C 
HETATM    2  C9  UNL     1      13.671  37.721 -11.952  1.00  0.00     0.131 C 
HETATM    3  O2  UNL     1      14.515  37.381 -12.982  1.00  0.00    -0.379 OA
HETATM    4  C12 UNL     1      15.660  38.103 -13.121  1.00  0.00     0.139 C 
HETATM    5  C22 UNL     1      15.260  39.561 -13.069  1.00  0.00     0.010 C 
HETATM    6  C23 UNL     1      16.364  40.512 -13.441  1.00  0.00     0.020 C 
HETATM    7  C24 UNL     1      14.105  39.811 -13.928  1.00  0.00     0.020 C 
HETATM    8  C25 UNL     1      15.040  39.785 -11.557  1.00  0.00     0.069 C 
HETATM    9  C26 UNL     1      14.671  41.179 -11.237  1.00  0.00     0.047 C 
ENDROOT
BRANCH   4  10
HETATM   10  C13 UNL     1      16.568  37.722 -14.237  1.00  0.00     0.043 C 
HETATM   11  C14 UNL     1      18.023  38.066 -14.029  1.00  0.00     0.015 C 
BRANCH  10  12
HETATM   12  C15 UNL     1      16.047  37.695 -15.601  1.00  0.00     0.158 C 
BRANCH  12  13
HETATM   13  O3  UNL     1      17.122  38.121 -16.445  1.00  0.00    -0.392 OA
ATOM     14  H3  UNL     1      17.555  38.828 -15.982  1.00  0.00     0.210 HD
ENDBRANCH  12  13
BRANCH  12  15
HETATM   15  C16 UNL     1      15.401  36.580 -16.269  1.00  0.00     0.086 C 
HETATM   16  C17 UNL     1      16.192  35.880 -17.356  1.00  0.00     0.041 C 
HETATM   17  C18 UNL     1      15.347  35.022 -18.258  1.00  0.00     0.006 C 
HETATM   18  C19 UNL     1      14.327  34.310 -17.395  1.00  0.00     0.032 C 
HETATM   19  C20 UNL     1      13.400  35.265 -16.705  1.00  0.00     0.121 C 
HETATM   20  C21 UNL     1      13.947  36.686 -16.625  1.00  0.00     0.072 C 
BRANCH  15  21
HETATM   21  O4  UNL     1      15.339  35.566 -15.235  1.00  0.00    -0.387 OA
ATOM     22  H4  UNL     1      16.253  35.420 -15.020  1.00  0.00     0.210 HD
ENDBRANCH  15  21
BRANCH  19  23
HETATM   23  O5  UNL     1      13.049  34.784 -15.450  1.00  0.00    -0.395 OA
ATOM     24  H5  UNL     1      12.159  34.452 -15.456  1.00  0.00     0.210 HD
ENDBRANCH  19  23
ENDBRANCH  12  15
ENDBRANCH  10  12
ENDBRANCH   4  10
BRANCH   2  25
HETATM   25  C10 UNL     1      13.207  36.411 -11.345  1.00  0.00     0.058 C 
BRANCH  25  26
HETATM   26  C11 UNL     1      13.890  35.262 -12.076  1.00  0.00     0.166 C 
BRANCH  26  27
HETATM   27  O1  UNL     1      12.974  34.292 -12.413  1.00  0.00    -0.401 OA
ATOM     28  H1  UNL     1      13.148  33.960 -13.286  1.00  0.00     0.209 HD
ENDBRANCH  26  27
ENDBRANCH  25  26
ENDBRANCH   2  25
BRANCH   8  29
HETATM   29  O6  UNL     1      16.381  39.656 -11.073  1.00  0.00    -0.389 OA
ATOM     30  H6  UNL     1      16.855  39.138 -11.713  1.00  0.00     0.210 HD
ENDBRANCH   8  29
BRANCH   1  31
HETATM   31  C7  UNL     1      13.210  39.063  -9.958  1.00  0.00     0.010 C 
BRANCH  31  32
HETATM   32  C6  UNL     1      13.448  38.653  -8.550  1.00  0.00     0.001 C 
BRANCH  32  33
HETATM   33  C5  UNL     1      12.410  39.365  -7.670  1.00  0.00     0.000 C 
BRANCH  33  34
HETATM   34  C4  UNL     1      12.234  40.782  -8.173  1.00  0.00     0.000 C 
BRANCH  34  35
HETATM   35  C3  UNL     1      12.802  41.766  -7.202  1.00  0.00    -0.000 C 
BRANCH  35  36
HETATM   36  C2  UNL     1      13.880  42.628  -7.785  1.00  0.00    -0.005 C 
HETATM   37  C1  UNL     1      14.510  43.423  -6.661  1.00  0.00     0.005 C 
ENDBRANCH  35  36
ENDBRANCH  34  35
ENDBRANCH  33  34
ENDBRANCH  32  33
ENDBRANCH  31  32
ENDBRANCH   1  31
TORSDOF 16
ENDMDL
MODEL 2
REMARK VINA RESULT: -6.971029535      4.378      8.592
REMARK  16 active torsions:
REMARK  status: ('A' for Active; 'I' for Inactive)
REMARK    1  A    between atoms: C2_2  and  C3_3 
REMARK    2  A    between atoms: C3_3  and  C4_4 
REMARK    3  A    between atoms: C4_4  and  C5_5 
REMARK    4  A    between atoms: C5_5  and  C6_6 
REMARK    5  A    between atoms: C6_6  and  C7_7 
REMARK    6  A    between atoms: C7_7  and  C8_8 
REMARK    7  A    between atoms: C9_9  and  C10_10 
REMARK    8  A    between atoms: C10_10  and  C11_11 
REMARK    9  A    between atoms: C11_11  and  O1_12 
REMARK   10  A    between atoms: C12_15  and  C13_16 
REMARK   11  A    between atoms: C13_16  and  C15_18 
REMARK   12  A    between atoms: C15_18  and  O3_19 
REMARK   13  A    between atoms: C15_18  and  C16_21 
REMARK   14  A    between atoms: C16_21  and  O4_22 
REMARK   15  A    between atoms: C20_27  and  O5_28 
REMARK   16  A    between atoms: C25_34  and  O6_36 
ROOT
HETATM    1  C8  UNL     1      13.478  39.508  -9.293  1.00  0.00     0.049 C 
HETATM    2  C9  UNL     1      12.752  39.738  -7.997  1.00  0.00     0.131 C 
HETATM    3  O2  UNL     1      11.943  40.848  -7.988  1.00  0.00    -0.379 OA
HETATM    4  C12 UNL     1      12.065  41.725  -9.022  1.00  0.00     0.139 C 
HETATM    5  C22 UNL     1      13.544  42.004  -9.177  1.00  0.00     0.010 C 
HETATM    6  C23 UNL     1      13.858  43.134 -10.119  1.00  0.00     0.020 C 
HETATM    7  C24 UNL     1      14.156  42.282  -7.879  1.00  0.00     0.020 C 
HETATM    8  C25 UNL     1      14.042  40.736  -9.902  1.00  0.00     0.069 C 
HETATM    9  C26 UNL     1      15.486  40.786 -10.210  1.00  0.00     0.047 C 
ENDROOT
BRANCH   4  10
HETATM   10  C13 UNL     1      11.181  42.921  -9.003  1.00  0.00     0.043 C 
HETATM   11  C14 UNL     1      10.371  43.104  -7.742  1.00  0.00     0.015 C 
BRANCH  10  12
HETATM   12  C15 UNL     1      10.633  43.421 -10.261  1.00  0.00     0.158 C 
BRANCH  12  13
HETATM   13  O3  UNL     1       9.463  42.639 -10.523  1.00  0.00    -0.392 OA
ATOM     14  H3  UNL     1       9.759  41.875 -11.002  1.00  0.00     0.210 HD
ENDBRANCH  12  13
BRANCH  12  15
HETATM   15  C16 UNL     1      10.304  44.796 -10.587  1.00  0.00     0.086 C 
HETATM   16  C17 UNL     1      11.167  45.875  -9.964  1.00  0.00     0.041 C 
HETATM   17  C18 UNL     1      10.548  47.245 -10.014  1.00  0.00     0.006 C 
HETATM   18  C19 UNL     1       9.884  47.403 -11.365  1.00  0.00     0.032 C 
HETATM   19  C20 UNL     1       8.776  46.414 -11.573  1.00  0.00     0.121 C 
HETATM   20  C21 UNL     1       8.862  45.208 -10.645  1.00  0.00     0.072 C 
BRANCH  15  21
HETATM   21  O4  UNL     1      10.656  44.897 -11.990  1.00  0.00    -0.387 OA
ATOM     22  H4  UNL     1      10.106  45.606 -12.302  1.00  0.00     0.210 HD
ENDBRANCH  15  21
BRANCH  19  23
HETATM   23  O5  UNL     1       8.710  46.028 -12.905  1.00  0.00    -0.395 OA
ATOM     24  H5  UNL     1       8.869  45.095 -12.991  1.00  0.00     0.210 HD
ENDBRANCH  19  23
ENDBRANCH  12  15
ENDBRANCH  10  12
ENDBRANCH   4  10
BRANCH   2  25
HETATM   25  C10 UNL     1      11.871  38.578  -7.575  1.00  0.00     0.058 C 
BRANCH  25  26
HETATM   26  C11 UNL     1      11.232  38.910  -6.232  1.00  0.00     0.166 C 
BRANCH  26  27
HETATM   27  O1  UNL     1      10.093  38.163  -6.042  1.00  0.00    -0.401 OA
ATOM     28  H1  UNL     1      10.279  37.404  -5.502  1.00  0.00     0.209 HD
ENDBRANCH  26  27
ENDBRANCH  25  26
ENDBRANCH   2  25
BRANCH   8  29
HETATM   29  O6  UNL     1      13.407  40.893 -11.176  1.00  0.00    -0.389 OA
ATOM     30  H6  UNL     1      14.088  40.813 -11.833  1.00  0.00     0.210 HD
ENDBRANCH   8  29
BRANCH   1  31
HETATM   31  C7  UNL     1      14.414  38.348  -9.136  1.00  0.00     0.010 C 
BRANCH  31  32
HETATM   32  C6  UNL     1      13.978  37.058  -9.731  1.00  0.00     0.001 C 
BRANCH  32  33
HETATM   33  C5  UNL     1      13.113  37.375 -10.959  1.00  0.00     0.000 C 
BRANCH  33  34
HETATM   34  C4  UNL     1      13.361  36.321 -12.016  1.00  0.00     0.000 C 
BRANCH  34  35
HETATM   35  C3  UNL     1      13.821  36.947 -13.294  1.00  0.00    -0.000 C 
BRANCH  35  36
HETATM   36  C2  UNL     1      14.590  38.217 -13.095  1.00  0.00    -0.005 C 
HETATM   37  C1  UNL     1      14.150  39.207 -14.153  1.00  0.00     0.005 C 
ENDBRANCH  35  36
ENDBRANCH  34  35
ENDBRANCH  33  34
ENDBRANCH  32  33
ENDBRANCH  31  32
ENDBRANCH   1  31
TORSDOF 16
ENDMDL
MODEL 3
REMARK VINA RESULT: -6.832586660      1.182      1.913
REMARK  16 active torsions:
REMARK  status: ('A' for Active; 'I' for Inactive)
REMARK    1  A    between atoms: C2_2  and  C3_3 
REMARK    2  A    between atoms: C3_3  and  C4_4 
REMARK    3  A    between atoms: C4_4  and  C5_5 
REMARK    4  A    between atoms: C5_5  and  C6_6 
REMARK    5  A    between atoms: C6_6  and  C7_7 
REMARK    6  A    between atoms: C7_7  and  C8_8 
REMARK    7  A    between atoms: C9_9  and  C10_10 
REMARK    8  A    between atoms: C10_10  and  C11_11 
REMARK    9  A    between atoms: C11_11  and  O1_12 
REMARK   10  A    between atoms: C12_15  and  C13_16 
REMARK   11  A    between atoms: C13_16  and  C15_18 
REMARK   12  A    between atoms: C15_18  and  O3_19 
REMARK   13  A    between atoms: C15_18  and  C16_21 
REMARK   14  A    between atoms: C16_21  and  O4_22 
REMARK   15  A    between atoms: C20_27  and  O5_28 
REMARK   16  A    between atoms: C25_34  and  O6_36 
ROOT
HETATM    1  C8  UNL     1      14.299  38.715 -11.022  1.00  0.00     0.049 C 
HETATM    2  C9  UNL     1      13.699  37.738 -11.994  1.00  0.00     0.131 C 
HETATM    3  O2  UNL     1      14.536  37.369 -13.019  1.00  0.00    -0.379 OA
HETATM    4  C12 UNL     1      15.684  38.081 -13.182  1.00  0.00     0.139 C 
HETATM    5  C22 UNL     1      15.291  39.542 -13.163  1.00  0.00     0.010 C 
HETATM    6  C23 UNL     1      16.397  40.479 -13.564  1.00  0.00     0.020 C 
HETATM    7  C24 UNL     1      14.133  39.777 -14.022  1.00  0.00     0.020 C 
HETATM    8  C25 UNL     1      15.080  39.804 -11.656  1.00  0.00     0.069 C 
HETATM    9  C26 UNL     1      14.720  41.207 -11.367  1.00  0.00     0.047 C 
ENDROOT
BRANCH   4  10
HETATM   10  C13 UNL     1      16.584  37.669 -14.293  1.00  0.00     0.043 C 
HETATM   11  C14 UNL     1      18.046  37.982 -14.087  1.00  0.00     0.015 C 
BRANCH  10  12
HETATM   12  C15 UNL     1      16.063  37.641 -15.658  1.00  0.00     0.158 C 
BRANCH  12  13
HETATM   13  O3  UNL     1      17.157  38.005 -16.507  1.00  0.00    -0.392 OA
ATOM     14  H3  UNL     1      17.729  37.247 -16.538  1.00  0.00     0.210 HD
ENDBRANCH  12  13
BRANCH  12  15
HETATM   15  C16 UNL     1      15.370  36.544 -16.307  1.00  0.00     0.086 C 
HETATM   16  C17 UNL     1      16.112  35.824 -17.416  1.00  0.00     0.041 C 
HETATM   17  C18 UNL     1      15.220  34.989 -18.294  1.00  0.00     0.006 C 
HETATM   18  C19 UNL     1      14.207  34.303 -17.403  1.00  0.00     0.032 C 
HETATM   19  C20 UNL     1      13.325  35.282 -16.687  1.00  0.00     0.121 C 
HETATM   20  C21 UNL     1      13.910  36.687 -16.622  1.00  0.00     0.072 C 
BRANCH  15  21
HETATM   21  O4  UNL     1      15.311  35.530 -15.272  1.00  0.00    -0.387 OA
ATOM     22  H4  UNL     1      14.478  35.104 -15.433  1.00  0.00     0.210 HD
ENDBRANCH  15  21
BRANCH  19  23
HETATM   23  O5  UNL     1      12.996  34.809 -15.423  1.00  0.00    -0.395 OA
ATOM     24  H5  UNL     1      13.693  34.263 -15.078  1.00  0.00     0.210 HD
ENDBRANCH  19  23
ENDBRANCH  12  15
ENDBRANCH  10  12
ENDBRANCH   4  10
BRANCH   2  25
HETATM   25  C10 UNL     1      13.232  36.445 -11.353  1.00  0.00     0.058 C 
BRANCH  25  26
HETATM   26  C11 UNL     1      13.889  35.274 -12.073  1.00  0.00     0.166 C 
BRANCH  26  27
HETATM   27  O1  UNL     1      12.958  34.304 -12.364  1.00  0.00    -0.401 OA
ATOM     28  H1  UNL     1      13.382  33.532 -12.721  1.00  0.00     0.209 HD
ENDBRANCH  26  27
ENDBRANCH  25  26
ENDBRANCH   2  25
BRANCH   8  29
HETATM   29  O6  UNL     1      16.423  39.680 -11.176  1.00  0.00    -0.389 OA
ATOM     30  H6  UNL     1      16.440  40.069 -10.309  1.00  0.00     0.210 HD
ENDBRANCH   8  29
BRANCH   1  31
HETATM   31  C7  UNL     1      13.255  39.130 -10.030  1.00  0.00     0.010 C 
BRANCH  31  32
HETATM   32  C6  UNL     1      13.479  38.719  -8.620  1.00  0.00     0.001 C 
BRANCH  32  33
HETATM   33  C5  UNL     1      12.437  39.436  -7.750  1.00  0.00     0.000 C 
BRANCH  33  34
HETATM   34  C4  UNL     1      11.907  38.460  -6.721  1.00  0.00     0.000 C 
BRANCH  34  35
HETATM   35  C3  UNL     1      10.984  39.145  -5.764  1.00  0.00    -0.000 C 
BRANCH  35  36
HETATM   36  C2  UNL     1      10.732  38.360  -4.513  1.00  0.00    -0.005 C 
HETATM   37  C1  UNL     1       9.260  38.475  -4.172  1.00  0.00     0.005 C 
ENDBRANCH  35  36
ENDBRANCH  34  35
ENDBRANCH  33  34
ENDBRANCH  32  33
ENDBRANCH  31  32
ENDBRANCH   1  31
TORSDOF 16
ENDMDL
MODEL 4
REMARK VINA RESULT: -6.737337269      3.692      8.541
REMARK  16 active torsions:
REMARK  status: ('A' for Active; 'I' for Inactive)
REMARK    1  A    between atoms: C2_2  and  C3_3 
REMARK    2  A    between atoms: C3_3  and  C4_4 
REMARK    3  A    between atoms: C4_4  and  C5_5 
REMARK    4  A    between atoms: C5_5  and  C6_6 
REMARK    5  A    between atoms: C6_6  and  C7_7 
REMARK    6  A    between atoms: C7_7  and  C8_8 
REMARK    7  A    between atoms: C9_9  and  C10_10 
REMARK    8  A    between atoms: C10_10  and  C11_11 
REMARK    9  A    between atoms: C11_11  and  O1_12 
REMARK   10  A    between atoms: C12_15  and  C13_16 
REMARK   11  A    between atoms: C13_16  and  C15_18 
REMARK   12  A    between atoms: C15_18  and  O3_19 
REMARK   13  A    between atoms: C15_18  and  C16_21 
REMARK   14  A    between atoms: C16_21  and  O4_22 
REMARK   15  A    between atoms: C20_27  and  O5_28 
REMARK   16  A    between atoms: C25_34  and  O6_36 
ROOT
HETATM    1  C8  UNL     1      14.017  40.096 -11.472  1.00  0.00     0.049 C 
HETATM    2  C9  UNL     1      14.231  39.551 -10.088  1.00  0.00     0.131 C 
HETATM    3  O2  UNL     1      13.709  40.331  -9.083  1.00  0.00    -0.379 OA
HETATM    4  C12 UNL     1      13.288  41.583  -9.413  1.00  0.00     0.139 C 
HETATM    5  C22 UNL     1      14.406  42.218 -10.209  1.00  0.00     0.010 C 
HETATM    6  C23 UNL     1      14.219  43.689 -10.461  1.00  0.00     0.020 C 
HETATM    7  C24 UNL     1      15.694  42.007  -9.551  1.00  0.00     0.020 C 
HETATM    8  C25 UNL     1      14.238  41.556 -11.594  1.00  0.00     0.069 C 
HETATM    9  C26 UNL     1      15.214  42.055 -12.584  1.00  0.00     0.047 C 
ENDROOT
BRANCH   4  10
HETATM   10  C13 UNL     1      12.721  42.415  -8.318  1.00  0.00     0.043 C 
HETATM   11  C14 UNL     1      13.394  42.260  -6.975  1.00  0.00     0.015 C 
BRANCH  10  12
HETATM   12  C15 UNL     1      11.302  42.764  -8.350  1.00  0.00     0.158 C 
BRANCH  12  13
HETATM   13  O3  UNL     1      10.840  42.668  -6.998  1.00  0.00    -0.392 OA
ATOM     14  H3  UNL     1      11.180  41.848  -6.662  1.00  0.00     0.210 HD
ENDBRANCH  12  13
BRANCH  12  15
HETATM   15  C16 UNL     1      10.707  43.960  -8.917  1.00  0.00     0.086 C 
HETATM   16  C17 UNL     1      11.507  45.242  -8.807  1.00  0.00     0.041 C 
HETATM   17  C18 UNL     1      10.690  46.484  -9.043  1.00  0.00     0.006 C 
HETATM   18  C19 UNL     1       9.743  46.201 -10.190  1.00  0.00     0.032 C 
HETATM   19  C20 UNL     1       8.780  45.097  -9.873  1.00  0.00     0.121 C 
HETATM   20  C21 UNL     1       9.240  44.206  -8.725  1.00  0.00     0.072 C 
BRANCH  15  21
HETATM   21  O4  UNL     1      10.740  43.702 -10.343  1.00  0.00    -0.387 OA
ATOM     22  H4  UNL     1      10.413  44.511 -10.718  1.00  0.00     0.210 HD
ENDBRANCH  15  21
BRANCH  19  23
HETATM   23  O5  UNL     1       8.497  44.354 -11.012  1.00  0.00    -0.395 OA
ATOM     24  H5  UNL     1       7.562  44.339 -11.178  1.00  0.00     0.210 HD
ENDBRANCH  19  23
ENDBRANCH  12  15
ENDBRANCH  10  12
ENDBRANCH   4  10
BRANCH   2  25
HETATM   25  C10 UNL     1      13.653  38.164  -9.879  1.00  0.00     0.058 C 
BRANCH  25  26
HETATM   26  C11 UNL     1      13.313  37.990  -8.404  1.00  0.00     0.166 C 
BRANCH  26  27
HETATM   27  O1  UNL     1      11.952  38.049  -8.213  1.00  0.00    -0.401 OA
ATOM     28  H1  UNL     1      11.691  38.923  -7.947  1.00  0.00     0.209 HD
ENDBRANCH  26  27
ENDBRANCH  25  26
ENDBRANCH   2  25
BRANCH   8  29
HETATM   29  O6  UNL     1      12.993  42.128 -12.010  1.00  0.00    -0.389 OA
ATOM     30  H6  UNL     1      13.026  43.050 -11.784  1.00  0.00     0.210 HD
ENDBRANCH   8  29
BRANCH   1  31
HETATM   31  C7  UNL     1      14.734  39.227 -12.461  1.00  0.00     0.010 C 
BRANCH  31  32
HETATM   32  C6  UNL     1      13.967  38.825 -13.668  1.00  0.00     0.001 C 
BRANCH  32  33
HETATM   33  C5  UNL     1      14.892  37.976 -14.552  1.00  0.00     0.000 C 
BRANCH  33  34
HETATM   34  C4  UNL     1      14.899  36.556 -14.028  1.00  0.00     0.000 C 
BRANCH  34  35
HETATM   35  C3  UNL     1      13.505  36.036 -13.881  1.00  0.00    -0.000 C 
BRANCH  35  36
HETATM   36  C2  UNL     1      13.226  35.451 -12.530  1.00  0.00    -0.005 C 
HETATM   37  C1  UNL     1      14.530  35.394 -11.761  1.00  0.00     0.005 C 
ENDBRANCH  35  36
ENDBRANCH  34  35
ENDBRANCH  33  34
ENDBRANCH  32  33
ENDBRANCH  31  32
ENDBRANCH   1  31
TORSDOF 16
ENDMDL
MODEL 5
REMARK VINA RESULT: -6.654660591      3.349      6.294
REMARK  16 active torsions:
REMARK  status: ('A' for Active; 'I' for Inactive)
REMARK    1  A    between atoms: C2_2  and  C3_3 
REMARK    2  A    between atoms: C3_3  and  C4_4 
REMARK    3  A    between atoms: C4_4  and  C5_5 
REMARK    4  A    between atoms: C5_5  and  C6_6 
REMARK    5  A    between atoms: C6_6  and  C7_7 
REMARK    6  A    between atoms: C7_7  and  C8_8 
REMARK    7  A    between atoms: C9_9  and  C10_10 
REMARK    8  A    between atoms: C10_10  and  C11_11 
REMARK    9  A    between atoms: C11_11  and  O1_12 
REMARK   10  A    between atoms: C12_15  and  C13_16 
REMARK   11  A    between atoms: C13_16  and  C15_18 
REMARK   12  A    between atoms: C15_18  and  O3_19 
REMARK   13  A    between atoms: C15_18  and  C16_21 
REMARK   14  A    between atoms: C16_21  and  O4_22 
REMARK   15  A    between atoms: C20_27  and  O5_28 
REMARK   16  A    between atoms: C25_34  and  O6_36 
ROOT
HETATM    1  C8  UNL     1      12.474  39.729  -7.324  1.00  0.00     0.049 C 
HETATM    2  C9  UNL     1      12.965  39.242  -8.658  1.00  0.00     0.131 C 
HETATM    3  O2  UNL     1      13.954  40.015  -9.217  1.00  0.00    -0.379 OA
HETATM    4  C12 UNL     1      14.204  41.226  -8.647  1.00  0.00     0.139 C 
HETATM    5  C22 UNL     1      12.864  41.909  -8.483  1.00  0.00     0.010 C 
HETATM    6  C23 UNL     1      12.959  43.356  -8.085  1.00  0.00     0.020 C 
HETATM    7  C24 UNL     1      12.076  41.804  -9.710  1.00  0.00     0.020 C 
HETATM    8  C25 UNL     1      12.283  41.196  -7.243  1.00  0.00     0.069 C 
HETATM    9  C26 UNL     1      10.963  41.728  -6.848  1.00  0.00     0.047 C 
ENDROOT
BRANCH   4  10
HETATM   10  C13 UNL     1      15.279  42.052  -9.259  1.00  0.00     0.043 C 
HETATM   11  C14 UNL     1      15.680  43.275  -8.469  1.00  0.00     0.015 C 
BRANCH  10  12
HETATM   12  C15 UNL     1      15.408  42.090 -10.713  1.00  0.00     0.158 C 
BRANCH  12  13
HETATM   13  O3  UNL     1      15.647  43.459 -11.055  1.00  0.00    -0.392 OA
ATOM     14  H3  UNL     1      15.457  43.536 -11.982  1.00  0.00     0.210 HD
ENDBRANCH  12  13
BRANCH  12  15
HETATM   15  C16 UNL     1      16.297  41.288 -11.534  1.00  0.00     0.086 C 
HETATM   16  C17 UNL     1      17.785  41.529 -11.371  1.00  0.00     0.041 C 
HETATM   17  C18 UNL     1      18.612  40.976 -12.500  1.00  0.00     0.006 C 
HETATM   18  C19 UNL     1      18.034  39.629 -12.877  1.00  0.00     0.032 C 
HETATM   19  C20 UNL     1      16.625  39.735 -13.378  1.00  0.00     0.121 C 
HETATM   20  C21 UNL     1      15.934  41.029 -12.966  1.00  0.00     0.072 C 
BRANCH  15  21
HETATM   21  O4  UNL     1      16.143  39.955 -10.984  1.00  0.00    -0.387 OA
ATOM     22  H4  UNL     1      16.884  39.484 -11.347  1.00  0.00     0.210 HD
ENDBRANCH  15  21
BRANCH  19  23
HETATM   23  O5  UNL     1      15.887  38.621 -12.999  1.00  0.00    -0.395 OA
ATOM     24  H5  UNL     1      15.696  38.647 -12.068  1.00  0.00     0.210 HD
ENDBRANCH  19  23
ENDBRANCH  12  15
ENDBRANCH  10  12
ENDBRANCH   4  10
BRANCH   2  25
HETATM   25  C10 UNL     1      13.511  37.827  -8.630  1.00  0.00     0.058 C 
BRANCH  25  26
HETATM   26  C11 UNL     1      13.643  37.323 -10.063  1.00  0.00     0.166 C 
BRANCH  26  27
HETATM   27  O1  UNL     1      14.958  37.357 -10.466  1.00  0.00    -0.401 OA
ATOM     28  H1  UNL     1      15.354  38.190 -10.239  1.00  0.00     0.209 HD
ENDBRANCH  26  27
ENDBRANCH  25  26
ENDBRANCH   2  25
BRANCH   8  29
HETATM   29  O6  UNL     1      13.172  41.672  -6.226  1.00  0.00    -0.389 OA
ATOM     30  H6  UNL     1      12.806  41.397  -5.393  1.00  0.00     0.210 HD
ENDBRANCH   8  29
BRANCH   1  31
HETATM   31  C7  UNL     1      11.322  38.879  -6.881  1.00  0.00     0.010 C 
BRANCH  31  32
HETATM   32  C6  UNL     1      11.417  38.289  -5.521  1.00  0.00     0.001 C 
BRANCH  32  33
HETATM   33  C5  UNL     1      10.180  38.735  -4.727  1.00  0.00     0.000 C 
BRANCH  33  34
HETATM   34  C4  UNL     1      10.451  38.542  -3.251  1.00  0.00     0.000 C 
BRANCH  34  35
HETATM   35  C3  UNL     1       9.443  37.622  -2.640  1.00  0.00    -0.000 C 
BRANCH  35  36
HETATM   36  C2  UNL     1       9.773  37.226  -1.233  1.00  0.00    -0.005 C 
HETATM   37  C1  UNL     1       9.287  35.808  -1.015  1.00  0.00     0.005 C 
ENDBRANCH  35  36
ENDBRANCH  34  35
ENDBRANCH  33  34
ENDBRANCH  32  33
ENDBRANCH  31  32
ENDBRANCH   1  31
TORSDOF 16
ENDMDL
