MODEL 1
REMARK VINA RESULT: -8.190924713      0.000      0.000
REMARK  12 active torsions:
REMARK  status: ('A' for Active; 'I' for Inactive)
REMARK    1  A    between atoms: C2_2  and  C28_37 
REMARK    2  A    between atoms: C3_3  and  C4_4 
REMARK    3  A    between atoms: C4_4  and  C5_5 
REMARK    4  A    between atoms: C6_6  and  C7_7 
REMARK    5  A    between atoms: C7_7  and  N1_8 
REMARK    6  A    between atoms: C16_18  and  N3_19 
REMARK       I    between atoms: N3_19  and  C17_21 
REMARK    7  A    between atoms: N5_23  and  C18_25 
REMARK    8  A    between atoms: C18_25  and  C19_26 
REMARK    9  A    between atoms: C19_26  and  C20_27 
REMARK   10  A    between atoms: C23_32  and  C24_33 
REMARK   11  A    between atoms: C28_37  and  C29_38 
REMARK   12  A    between atoms: C29_38  and  N7_39 
ROOT
HETATM    1  C5  UNL     1      11.252  38.686  20.711  1.00  0.00    -0.020 A 
HETATM    2  C6  UNL     1       9.931  38.139  20.654  1.00  0.00    -0.001 A 
HETATM    3  C15 UNL     1       9.725  36.884  20.147  1.00  0.00     0.062 A 
HETATM    4  C16 UNL     1      10.818  36.174  19.695  1.00  0.00     0.108 A 
HETATM    5  N6  UNL     1      12.034  36.708  19.758  1.00  0.00    -0.345 N 
ATOM      6  H6  UNL     1      12.815  36.150  19.413  1.00  0.00     0.167 HD
HETATM    7  C23 UNL     1      12.313  37.956  20.254  1.00  0.00     0.026 A 
ENDROOT
BRANCH   1   8
HETATM    8  C4  UNL     1      11.389  40.012  21.285  1.00  0.00     0.068 C 
BRANCH   8   9
HETATM    9  C3  UNL     1      11.274  41.182  20.383  1.00  0.00    -0.020 C 
HETATM   10  C2  UNL     1      10.854  42.364  20.798  1.00  0.00    -0.086 C 
HETATM   11  C1  UNL     1      10.449  42.702  22.183  1.00  0.00     0.043 C 
BRANCH  10  12
HETATM   12  C28 UNL     1      10.769  43.486  19.805  1.00  0.00     0.053 C 
BRANCH  12  13
HETATM   13  C29 UNL     1      12.086  44.273  19.814  1.00  0.00     0.137 C 
BRANCH  13  14
HETATM   14  N7  UNL     1      12.237  45.019  18.583  1.00  0.00    -0.309 N 
HETATM   15  C30 UNL     1      11.222  45.221  17.729  1.00  0.00     0.101 A 
HETATM   16  C31 UNL     1      11.453  45.945  16.579  1.00  0.00     0.092 A 
HETATM   17  C32 UNL     1      12.715  46.465  16.289  1.00  0.00     0.250 A 
HETATM   18  O1  UNL     1      12.904  47.127  15.223  1.00  0.00    -0.268 OA
HETATM   19  N8  UNL     1      13.685  46.228  17.179  1.00  0.00    -0.275 N 
HETATM   20  C33 UNL     1      13.452  45.523  18.299  1.00  0.00     0.329 A 
ATOM     21  H8  UNL     1      14.622  46.592  17.005  1.00  0.00     0.173 HD
HETATM   22  O2  UNL     1      14.442  45.357  19.078  1.00  0.00    -0.246 OA
ENDBRANCH  13  14
ENDBRANCH  12  13
ENDBRANCH  10  12
ENDBRANCH   8   9
ENDBRANCH   1   8
BRANCH   2  23
HETATM   23  C7  UNL     1       8.827  38.980  21.076  1.00  0.00     0.214 C 
BRANCH  23  24
HETATM   24  N1  UNL     1       7.977  39.644  20.159  1.00  0.00    -0.041 N 
HETATM   25  C8  UNL     1       7.498  40.949  20.546  1.00  0.00     0.271 C 
HETATM   26  C9  UNL     1       6.031  41.116  20.071  1.00  0.00     0.265 C 
HETATM   27  N2  UNL     1       6.018  40.459  18.770  1.00  0.00    -0.066 N 
HETATM   28  C10 UNL     1       5.007  41.044  17.964  1.00  0.00     0.272 C 
HETATM   29  C11 UNL     1       5.817  39.048  19.079  1.00  0.00     0.265 C 
HETATM   30  C13 UNL     1       7.310  40.572  18.084  1.00  0.00     0.265 C 
HETATM   31  C12 UNL     1       6.742  38.725  20.199  1.00  0.00     0.271 C 
HETATM   32  C14 UNL     1       8.307  39.629  18.779  1.00  0.00     0.271 C 
ENDBRANCH  23  24
ENDBRANCH   2  23
BRANCH   7  33
HETATM   33  C24 UNL     1      13.694  38.446  20.273  1.00  0.00    -0.008 C 
HETATM   34  C25 UNL     1      14.576  37.244  19.826  1.00  0.00     0.021 C 
HETATM   35  C26 UNL     1      14.257  38.700  21.667  1.00  0.00     0.021 C 
HETATM   36  C27 UNL     1      14.074  39.475  19.269  1.00  0.00     0.021 C 
ENDBRANCH   7  33
BRANCH   4  37
HETATM   37  N3  UNL     1      10.592  35.013  19.225  1.00  0.00    -0.317 N 
HETATM   38  C17 UNL     1      11.227  33.791  19.571  1.00  0.00     0.193 C 
HETATM   39  N4  UNL     1      10.356  32.779  20.075  1.00  0.00    -0.063 NA
HETATM   40  N5  UNL     1      12.454  33.582  19.455  1.00  0.00    -0.344 N 
ATOM     41  H5  UNL     1      12.923  34.407  19.081  1.00  0.00     0.167 HD
ATOM     42  H3  UNL     1       9.864  34.953  18.513  1.00  0.00     0.170 HD
BRANCH  40  43
HETATM   43  C18 UNL     1      13.368  32.565  19.681  1.00  0.00     0.064 C 
BRANCH  43  44
HETATM   44  C19 UNL     1      13.851  31.914  18.412  1.00  0.00     0.048 C 
BRANCH  44  45
HETATM   45  C20 UNL     1      13.238  30.522  18.247  1.00  0.00    -0.018 C 
HETATM   46  C21 UNL     1      12.696  30.064  19.585  1.00  0.00     0.010 C 
HETATM   47  C22 UNL     1      12.095  30.630  17.285  1.00  0.00     0.010 C 
ENDBRANCH  44  45
ENDBRANCH  43  44
ENDBRANCH  40  43
ENDBRANCH   4  37
TORSDOF 12
ENDMDL
MODEL 2
REMARK VINA RESULT: -8.083299513      3.557     10.481
REMARK  12 active torsions:
REMARK  status: ('A' for Active; 'I' for Inactive)
REMARK    1  A    between atoms: C2_2  and  C28_37 
REMARK    2  A    between atoms: C3_3  and  C4_4 
REMARK    3  A    between atoms: C4_4  and  C5_5 
REMARK    4  A    between atoms: C6_6  and  C7_7 
REMARK    5  A    between atoms: C7_7  and  N1_8 
REMARK    6  A    between atoms: C16_18  and  N3_19 
REMARK       I    between atoms: N3_19  and  C17_21 
REMARK    7  A    between atoms: N5_23  and  C18_25 
REMARK    8  A    between atoms: C18_25  and  C19_26 
REMARK    9  A    between atoms: C19_26  and  C20_27 
REMARK   10  A    between atoms: C23_32  and  C24_33 
REMARK   11  A    between atoms: C28_37  and  C29_38 
REMARK   12  A    between atoms: C29_38  and  N7_39 
ROOT
HETATM    1  C5  UNL     1      11.315  38.621  19.375  1.00  0.00    -0.020 A 
HETATM    2  C6  UNL     1      12.376  39.169  20.163  1.00  0.00    -0.001 A 
HETATM    3  C15 UNL     1      12.303  40.459  20.617  1.00  0.00     0.062 A 
HETATM    4  C16 UNL     1      11.189  41.206  20.290  1.00  0.00     0.108 A 
HETATM    5  N6  UNL     1      10.219  40.671  19.555  1.00  0.00    -0.345 N 
ATOM      6  H6  UNL     1       9.413  41.257  19.336  1.00  0.00     0.167 HD
HETATM    7  C23 UNL     1      10.225  39.389  19.070  1.00  0.00     0.026 A 
ENDROOT
BRANCH   1   8
HETATM    8  C4  UNL     1      11.455  37.240  18.955  1.00  0.00     0.068 C 
BRANCH   8   9
HETATM    9  C3  UNL     1      11.287  36.177  19.973  1.00  0.00    -0.020 C 
HETATM   10  C2  UNL     1      10.401  35.204  19.851  1.00  0.00    -0.086 C 
HETATM   11  C1  UNL     1       9.468  35.021  18.714  1.00  0.00     0.043 C 
BRANCH  10  12
HETATM   12  C28 UNL     1      10.306  34.176  20.940  1.00  0.00     0.053 C 
BRANCH  12  13
HETATM   13  C29 UNL     1      11.716  33.704  21.318  1.00  0.00     0.137 C 
BRANCH  13  14
HETATM   14  N7  UNL     1      12.131  32.613  20.464  1.00  0.00    -0.309 N 
HETATM   15  C30 UNL     1      11.448  31.461  20.378  1.00  0.00     0.101 A 
HETATM   16  C31 UNL     1      11.913  30.472  19.537  1.00  0.00     0.092 A 
HETATM   17  C32 UNL     1      13.073  30.647  18.781  1.00  0.00     0.250 A 
HETATM   18  O1  UNL     1      13.481  29.722  18.014  1.00  0.00    -0.268 OA
HETATM   19  N8  UNL     1      13.707  31.817  18.911  1.00  0.00    -0.275 N 
HETATM   20  C33 UNL     1      13.248  32.776  19.732  1.00  0.00     0.329 A 
ATOM     21  H8  UNL     1      14.559  31.985  18.376  1.00  0.00     0.173 HD
HETATM   22  O2  UNL     1      13.926  33.850  19.781  1.00  0.00    -0.246 OA
ENDBRANCH  13  14
ENDBRANCH  12  13
ENDBRANCH  10  12
ENDBRANCH   8   9
ENDBRANCH   1   8
BRANCH   2  23
HETATM   23  C7  UNL     1      13.546  38.346  20.395  1.00  0.00     0.214 C 
BRANCH  23  24
HETATM   24  N1  UNL     1      13.958  37.948  21.690  1.00  0.00    -0.041 N 
HETATM   25  C8  UNL     1      14.822  38.857  22.404  1.00  0.00     0.271 C 
HETATM   26  C9  UNL     1      15.869  38.042  23.206  1.00  0.00     0.265 C 
HETATM   27  N2  UNL     1      15.111  36.894  23.687  1.00  0.00    -0.066 N 
HETATM   28  C10 UNL     1      15.697  36.422  24.891  1.00  0.00     0.272 C 
HETATM   29  C11 UNL     1      15.142  35.949  22.577  1.00  0.00     0.265 C 
HETATM   30  C13 UNL     1      13.704  37.227  23.932  1.00  0.00     0.265 C 
HETATM   31  C12 UNL     1      14.836  36.730  21.348  1.00  0.00     0.271 C 
HETATM   32  C14 UNL     1      13.002  37.380  22.572  1.00  0.00     0.271 C 
ENDBRANCH  23  24
ENDBRANCH   2  23
BRANCH   7  33
HETATM   33  C24 UNL     1       9.100  38.903  18.265  1.00  0.00    -0.008 C 
HETATM   34  C25 UNL     1       8.349  40.175  17.777  1.00  0.00     0.021 C 
HETATM   35  C26 UNL     1       7.997  38.219  19.066  1.00  0.00     0.021 C 
HETATM   36  C27 UNL     1       9.413  38.236  16.973  1.00  0.00     0.021 C 
ENDBRANCH   7  33
BRANCH   4  37
HETATM   37  N3  UNL     1      11.155  42.402  20.723  1.00  0.00    -0.317 N 
HETATM   38  C17 UNL     1      10.988  43.598  19.975  1.00  0.00     0.193 C 
HETATM   39  N4  UNL     1       9.854  44.384  20.339  1.00  0.00    -0.063 NA
HETATM   40  N5  UNL     1      11.757  43.966  19.061  1.00  0.00    -0.344 N 
ATOM     41  H5  UNL     1      12.510  43.291  18.935  1.00  0.00     0.167 HD
ATOM     42  H3  UNL     1      11.262  42.516  21.731  1.00  0.00     0.170 HD
BRANCH  40  43
HETATM   43  C18 UNL     1      11.894  45.018  18.169  1.00  0.00     0.064 C 
BRANCH  43  44
HETATM   44  C19 UNL     1      13.229  45.707  18.270  1.00  0.00     0.048 C 
BRANCH  44  45
HETATM   45  C20 UNL     1      13.445  46.653  17.087  1.00  0.00    -0.018 C 
HETATM   46  C21 UNL     1      12.321  46.455  16.091  1.00  0.00     0.010 C 
HETATM   47  C22 UNL     1      13.381  48.058  17.600  1.00  0.00     0.010 C 
ENDBRANCH  44  45
ENDBRANCH  43  44
ENDBRANCH  40  43
ENDBRANCH   4  37
TORSDOF 12
ENDMDL
MODEL 3
REMARK VINA RESULT: -8.081763581      7.002     10.962
REMARK  12 active torsions:
REMARK  status: ('A' for Active; 'I' for Inactive)
REMARK    1  A    between atoms: C2_2  and  C28_37 
REMARK    2  A    between atoms: C3_3  and  C4_4 
REMARK    3  A    between atoms: C4_4  and  C5_5 
REMARK    4  A    between atoms: C6_6  and  C7_7 
REMARK    5  A    between atoms: C7_7  and  N1_8 
REMARK    6  A    between atoms: C16_18  and  N3_19 
REMARK       I    between atoms: N3_19  and  C17_21 
REMARK    7  A    between atoms: N5_23  and  C18_25 
REMARK    8  A    between atoms: C18_25  and  C19_26 
REMARK    9  A    between atoms: C19_26  and  C20_27 
REMARK   10  A    between atoms: C23_32  and  C24_33 
REMARK   11  A    between atoms: C28_37  and  C29_38 
REMARK   12  A    between atoms: C29_38  and  N7_39 
ROOT
HETATM    1  C5  UNL     1       7.380  45.512  17.783  1.00  0.00    -0.020 A 
HETATM    2  C6  UNL     1       8.303  46.577  18.032  1.00  0.00    -0.001 A 
HETATM    3  C15 UNL     1       9.652  46.350  17.967  1.00  0.00     0.062 A 
HETATM    4  C16 UNL     1      10.088  45.076  17.662  1.00  0.00     0.108 A 
HETATM    5  N6  UNL     1       9.207  44.106  17.437  1.00  0.00    -0.345 N 
ATOM      6  H6  UNL     1       9.570  43.179  17.214  1.00  0.00     0.167 HD
HETATM    7  C23 UNL     1       7.846  44.262  17.483  1.00  0.00     0.026 A 
ENDROOT
BRANCH   1   8
HETATM    8  C4  UNL     1       5.968  45.840  17.846  1.00  0.00     0.068 C 
BRANCH   8   9
HETATM    9  C3  UNL     1       5.292  46.271  16.600  1.00  0.00    -0.020 C 
HETATM   10  C2  UNL     1       4.107  45.814  16.235  1.00  0.00    -0.086 C 
HETATM   11  C1  UNL     1       3.288  44.835  16.988  1.00  0.00     0.043 C 
BRANCH  10  12
HETATM   12  C28 UNL     1       3.508  46.311  14.952  1.00  0.00     0.053 C 
BRANCH  12  13
HETATM   13  C29 UNL     1       4.094  45.519  13.776  1.00  0.00     0.137 C 
BRANCH  13  14
HETATM   14  N7  UNL     1       4.834  46.395  12.895  1.00  0.00    -0.309 N 
HETATM   15  C30 UNL     1       4.578  47.709  12.798  1.00  0.00     0.101 A 
HETATM   16  C31 UNL     1       5.333  48.473  11.933  1.00  0.00     0.092 A 
HETATM   17  C32 UNL     1       6.350  47.908  11.163  1.00  0.00     0.250 A 
HETATM   18  O1  UNL     1       7.031  48.631  10.373  1.00  0.00    -0.268 OA
HETATM   19  N8  UNL     1       6.555  46.593  11.305  1.00  0.00    -0.275 N 
HETATM   20  C33 UNL     1       5.816  45.855  12.150  1.00  0.00     0.329 A 
ATOM     21  H8  UNL     1       7.289  46.141  10.760  1.00  0.00     0.173 HD
HETATM   22  O2  UNL     1       6.094  44.617  12.210  1.00  0.00    -0.246 OA
ENDBRANCH  13  14
ENDBRANCH  12  13
ENDBRANCH  10  12
ENDBRANCH   8   9
ENDBRANCH   1   8
BRANCH   2  23
HETATM   23  C7  UNL     1       7.766  47.865  18.424  1.00  0.00     0.214 C 
BRANCH  23  24
HETATM   24  N1  UNL     1       7.722  48.298  19.772  1.00  0.00    -0.041 N 
HETATM   25  C8  UNL     1       6.417  48.385  20.382  1.00  0.00     0.271 C 
HETATM   26  C9  UNL     1       6.372  49.623  21.315  1.00  0.00     0.265 C 
HETATM   27  N2  UNL     1       7.696  49.640  21.923  1.00  0.00    -0.066 N 
HETATM   28  C10 UNL     1       7.616  50.266  23.195  1.00  0.00     0.272 C 
HETATM   29  C11 UNL     1       8.532  50.333  20.950  1.00  0.00     0.265 C 
HETATM   30  C13 UNL     1       8.246  48.289  22.082  1.00  0.00     0.265 C 
HETATM   31  C12 UNL     1       8.202  49.753  19.620  1.00  0.00     0.271 C 
HETATM   32  C14 UNL     1       8.664  47.774  20.694  1.00  0.00     0.271 C 
ENDBRANCH  23  24
ENDBRANCH   2  23
BRANCH   7  33
HETATM   33  C24 UNL     1       6.966  43.119  17.220  1.00  0.00    -0.008 C 
HETATM   34  C25 UNL     1       7.884  41.862  17.254  1.00  0.00     0.021 C 
HETATM   35  C26 UNL     1       6.440  43.040  15.791  1.00  0.00     0.021 C 
HETATM   36  C27 UNL     1       5.958  42.771  18.256  1.00  0.00     0.021 C 
ENDBRANCH   7  33
BRANCH   4  37
HETATM   37  N3  UNL     1      11.347  44.898  17.615  1.00  0.00    -0.317 N 
HETATM   38  C17 UNL     1      12.344  45.815  17.190  1.00  0.00     0.193 C 
HETATM   39  N4  UNL     1      13.328  46.135  18.173  1.00  0.00    -0.063 NA
HETATM   40  N5  UNL     1      12.388  46.324  16.049  1.00  0.00    -0.344 N 
ATOM     41  H5  UNL     1      11.614  45.987  15.478  1.00  0.00     0.167 HD
ATOM     42  H3  UNL     1      11.680  43.984  17.920  1.00  0.00     0.170 HD
BRANCH  40  43
HETATM   43  C18 UNL     1      13.175  47.207  15.327  1.00  0.00     0.064 C 
BRANCH  43  44
HETATM   44  C19 UNL     1      12.639  48.615  15.337  1.00  0.00     0.048 C 
BRANCH  44  45
HETATM   45  C20 UNL     1      12.960  49.310  16.661  1.00  0.00    -0.018 C 
HETATM   46  C21 UNL     1      13.496  50.697  16.369  1.00  0.00     0.010 C 
HETATM   47  C22 UNL     1      11.684  49.449  17.433  1.00  0.00     0.010 C 
ENDBRANCH  44  45
ENDBRANCH  43  44
ENDBRANCH  40  43
ENDBRANCH   4  37
TORSDOF 12
ENDMDL
MODEL 4
REMARK VINA RESULT: -8.019223539      1.578      2.364
REMARK  12 active torsions:
REMARK  status: ('A' for Active; 'I' for Inactive)
REMARK    1  A    between atoms: C2_2  and  C28_37 
REMARK    2  A    between atoms: C3_3  and  C4_4 
REMARK    3  A    between atoms: C4_4  and  C5_5 
REMARK    4  A    between atoms: C6_6  and  C7_7 
REMARK    5  A    between atoms: C7_7  and  N1_8 
REMARK    6  A    between atoms: C16_18  and  N3_19 
REMARK       I    between atoms: N3_19  and  C17_21 
REMARK    7  A    between atoms: N5_23  and  C18_25 
REMARK    8  A    between atoms: C18_25  and  C19_26 
REMARK    9  A    between atoms: C19_26  and  C20_27 
REMARK   10  A    between atoms: C23_32  and  C24_33 
REMARK   11  A    between atoms: C28_37  and  C29_38 
REMARK   12  A    between atoms: C29_38  and  N7_39 
ROOT
HETATM    1  C5  UNL     1      11.209  38.659  20.718  1.00  0.00    -0.020 A 
HETATM    2  C6  UNL     1       9.891  38.107  20.662  1.00  0.00    -0.001 A 
HETATM    3  C15 UNL     1       9.689  36.851  20.157  1.00  0.00     0.062 A 
HETATM    4  C16 UNL     1      10.785  36.144  19.704  1.00  0.00     0.108 A 
HETATM    5  N6  UNL     1      11.999  36.683  19.766  1.00  0.00    -0.345 N 
ATOM      6  H6  UNL     1      12.782  36.128  19.421  1.00  0.00     0.167 HD
HETATM    7  C23 UNL     1      12.273  37.932  20.260  1.00  0.00     0.026 A 
ENDROOT
BRANCH   1   8
HETATM    8  C4  UNL     1      11.342  39.985  21.290  1.00  0.00     0.068 C 
BRANCH   8   9
HETATM    9  C3  UNL     1      11.221  41.154  20.388  1.00  0.00    -0.020 C 
HETATM   10  C2  UNL     1      10.861  42.352  20.815  1.00  0.00    -0.086 C 
HETATM   11  C1  UNL     1      10.536  42.710  22.216  1.00  0.00     0.043 C 
BRANCH  10  12
HETATM   12  C28 UNL     1      10.764  43.471  19.820  1.00  0.00     0.053 C 
BRANCH  12  13
HETATM   13  C29 UNL     1      12.067  44.281  19.838  1.00  0.00     0.137 C 
BRANCH  13  14
HETATM   14  N7  UNL     1      12.221  45.019  18.603  1.00  0.00    -0.309 N 
HETATM   15  C30 UNL     1      11.204  45.227  17.753  1.00  0.00     0.101 A 
HETATM   16  C31 UNL     1      11.437  45.943  16.598  1.00  0.00     0.092 A 
HETATM   17  C32 UNL     1      12.703  46.449  16.300  1.00  0.00     0.250 A 
HETATM   18  O1  UNL     1      12.894  47.104  15.230  1.00  0.00    -0.268 OA
HETATM   19  N8  UNL     1      13.674  46.207  17.188  1.00  0.00    -0.275 N 
HETATM   20  C33 UNL     1      13.439  45.509  18.311  1.00  0.00     0.329 A 
ATOM     21  H8  UNL     1      14.614  46.560  17.008  1.00  0.00     0.173 HD
HETATM   22  O2  UNL     1      14.431  45.337  19.087  1.00  0.00    -0.246 OA
ENDBRANCH  13  14
ENDBRANCH  12  13
ENDBRANCH  10  12
ENDBRANCH   8   9
ENDBRANCH   1   8
BRANCH   2  23
HETATM   23  C7  UNL     1       8.784  38.944  21.084  1.00  0.00     0.214 C 
BRANCH  23  24
HETATM   24  N1  UNL     1       8.077  38.727  22.291  1.00  0.00    -0.041 N 
HETATM   25  C8  UNL     1       6.779  38.107  22.179  1.00  0.00     0.271 C 
HETATM   26  C9  UNL     1       5.818  38.743  23.217  1.00  0.00     0.265 C 
HETATM   27  N2  UNL     1       6.665  38.944  24.386  1.00  0.00    -0.066 N 
HETATM   28  C10 UNL     1       5.860  38.909  25.555  1.00  0.00     0.272 C 
HETATM   29  C11 UNL     1       7.330  40.217  24.136  1.00  0.00     0.265 C 
HETATM   30  C13 UNL     1       7.712  37.922  24.489  1.00  0.00     0.265 C 
HETATM   31  C12 UNL     1       7.803  40.178  22.726  1.00  0.00     0.271 C 
HETATM   32  C14 UNL     1       8.775  38.212  23.414  1.00  0.00     0.271 C 
ENDBRANCH  23  24
ENDBRANCH   2  23
BRANCH   7  33
HETATM   33  C24 UNL     1      13.653  38.428  20.278  1.00  0.00    -0.008 C 
HETATM   34  C25 UNL     1      14.539  37.229  19.832  1.00  0.00     0.021 C 
HETATM   35  C26 UNL     1      14.216  38.686  21.672  1.00  0.00     0.021 C 
HETATM   36  C27 UNL     1      14.028  39.457  19.273  1.00  0.00     0.021 C 
ENDBRANCH   7  33
BRANCH   4  37
HETATM   37  N3  UNL     1      10.563  34.982  19.235  1.00  0.00    -0.317 N 
HETATM   38  C17 UNL     1      11.211  33.765  19.573  1.00  0.00     0.193 C 
HETATM   39  N4  UNL     1      10.354  32.745  20.085  1.00  0.00    -0.063 NA
HETATM   40  N5  UNL     1      12.439  33.565  19.444  1.00  0.00    -0.344 N 
ATOM     41  H5  UNL     1      12.897  34.394  19.066  1.00  0.00     0.167 HD
ATOM     42  H3  UNL     1       9.828  34.917  18.531  1.00  0.00     0.170 HD
BRANCH  40  43
HETATM   43  C18 UNL     1      13.363  32.555  19.659  1.00  0.00     0.064 C 
BRANCH  43  44
HETATM   44  C19 UNL     1      13.834  31.906  18.384  1.00  0.00     0.048 C 
BRANCH  44  45
HETATM   45  C20 UNL     1      13.250  30.499  18.242  1.00  0.00    -0.018 C 
HETATM   46  C21 UNL     1      12.728  30.048  19.590  1.00  0.00     0.010 C 
HETATM   47  C22 UNL     1      12.098  30.570  17.287  1.00  0.00     0.010 C 
ENDBRANCH  44  45
ENDBRANCH  43  44
ENDBRANCH  40  43
ENDBRANCH   4  37
TORSDOF 12
ENDMDL
MODEL 5
REMARK VINA RESULT: -7.985047220      2.045      5.238
REMARK  12 active torsions:
REMARK  status: ('A' for Active; 'I' for Inactive)
REMARK    1  A    between atoms: C2_2  and  C28_37 
REMARK    2  A    between atoms: C3_3  and  C4_4 
REMARK    3  A    between atoms: C4_4  and  C5_5 
REMARK    4  A    between atoms: C6_6  and  C7_7 
REMARK    5  A    between atoms: C7_7  and  N1_8 
REMARK    6  A    between atoms: C16_18  and  N3_19 
REMARK       I    between atoms: N3_19  and  C17_21 
REMARK    7  A    between atoms: N5_23  and  C18_25 
REMARK    8  A    between atoms: C18_25  and  C19_26 
REMARK    9  A    between atoms: C19_26  and  C20_27 
REMARK   10  A    between atoms: C23_32  and  C24_33 
REMARK   11  A    between atoms: C28_37  and  C29_38 
REMARK   12  A    between atoms: C29_38  and  N7_39 
ROOT
HETATM    1  C5  UNL     1      10.831  40.034  19.892  1.00  0.00    -0.020 A 
HETATM    2  C6  UNL     1      11.741  38.963  19.627  1.00  0.00    -0.001 A 
HETATM    3  C15 UNL     1      11.327  37.863  18.924  1.00  0.00     0.062 A 
HETATM    4  C16 UNL     1      10.018  37.819  18.488  1.00  0.00     0.108 A 
HETATM    5  N6  UNL     1       9.193  38.829  18.751  1.00  0.00    -0.345 N 
ATOM      6  H6  UNL     1       8.234  38.758  18.411  1.00  0.00     0.167 HD
HETATM    7  C23 UNL     1       9.540  39.959  19.446  1.00  0.00     0.026 A 
ENDROOT
BRANCH   1   8
HETATM    8  C4  UNL     1      11.354  41.174  20.621  1.00  0.00     0.068 C 
BRANCH   8   9
HETATM    9  C3  UNL     1      12.032  42.245  19.854  1.00  0.00    -0.020 C 
HETATM   10  C2  UNL     1      11.835  43.530  20.091  1.00  0.00    -0.086 C 
HETATM   11  C1  UNL     1      10.938  44.089  21.131  1.00  0.00     0.043 C 
BRANCH  10  12
HETATM   12  C28 UNL     1      12.568  44.537  19.257  1.00  0.00     0.053 C 
BRANCH  12  13
HETATM   13  C29 UNL     1      11.596  45.175  18.257  1.00  0.00     0.137 C 
BRANCH  13  14
HETATM   14  N7  UNL     1      11.968  46.548  17.995  1.00  0.00    -0.309 N 
HETATM   15  C30 UNL     1      13.240  46.930  17.802  1.00  0.00     0.101 A 
HETATM   16  C31 UNL     1      13.507  48.260  17.556  1.00  0.00     0.092 A 
HETATM   17  C32 UNL     1      12.485  49.209  17.506  1.00  0.00     0.250 A 
HETATM   18  O1  UNL     1      12.755  50.428  17.280  1.00  0.00    -0.268 OA
HETATM   19  N8  UNL     1      11.239  48.765  17.707  1.00  0.00    -0.275 N 
HETATM   20  C33 UNL     1      10.986  47.467  17.945  1.00  0.00     0.329 A 
ATOM     21  H8  UNL     1      10.463  49.427  17.679  1.00  0.00     0.173 HD
HETATM   22  O2  UNL     1       9.768  47.152  18.122  1.00  0.00    -0.246 OA
ENDBRANCH  13  14
ENDBRANCH  12  13
ENDBRANCH  10  12
ENDBRANCH   8   9
ENDBRANCH   1   8
BRANCH   2  23
HETATM   23  C7  UNL     1      13.076  39.049  20.187  1.00  0.00     0.214 C 
BRANCH  23  24
HETATM   24  N1  UNL     1      13.655  38.007  20.950  1.00  0.00    -0.041 N 
HETATM   25  C8  UNL     1      12.754  37.207  21.744  1.00  0.00     0.271 C 
HETATM   26  C9  UNL     1      13.439  36.851  23.090  1.00  0.00     0.265 C 
HETATM   27  N2  UNL     1      14.825  36.607  22.711  1.00  0.00    -0.066 N 
HETATM   28  C10 UNL     1      15.407  35.700  23.636  1.00  0.00     0.272 C 
HETATM   29  C11 UNL     1      15.432  37.933  22.688  1.00  0.00     0.265 C 
HETATM   30  C13 UNL     1      14.937  36.057  21.356  1.00  0.00     0.265 C 
HETATM   31  C12 UNL     1      14.483  38.820  21.961  1.00  0.00     0.271 C 
HETATM   32  C14 UNL     1      14.647  37.186  20.353  1.00  0.00     0.271 C 
ENDBRANCH  23  24
ENDBRANCH   2  23
BRANCH   7  33
HETATM   33  C24 UNL     1       8.546  41.011  19.681  1.00  0.00    -0.008 C 
HETATM   34  C25 UNL     1       7.175  40.394  19.281  1.00  0.00     0.021 C 
HETATM   35  C26 UNL     1       8.620  42.181  18.705  1.00  0.00     0.021 C 
HETATM   36  C27 UNL     1       8.286  41.412  21.089  1.00  0.00     0.021 C 
ENDBRANCH   7  33
BRANCH   4  37
HETATM   37  N3  UNL     1       9.663  36.782  17.843  1.00  0.00    -0.317 N 
HETATM   38  C17 UNL     1       9.399  35.483  18.352  1.00  0.00     0.193 C 
HETATM   39  N4  UNL     1       8.081  34.994  18.102  1.00  0.00    -0.063 NA
HETATM   40  N5  UNL     1      10.232  34.792  18.976  1.00  0.00    -0.344 N 
ATOM     41  H5  UNL     1      11.117  35.292  19.063  1.00  0.00     0.167 HD
ATOM     42  H3  UNL     1       9.557  36.898  16.835  1.00  0.00     0.170 HD
BRANCH  40  43
HETATM   43  C18 UNL     1      10.315  33.549  19.585  1.00  0.00     0.064 C 
BRANCH  43  44
HETATM   44  C19 UNL     1      11.566  32.795  19.215  1.00  0.00     0.048 C 
BRANCH  44  45
HETATM   45  C20 UNL     1      11.275  31.302  19.059  1.00  0.00    -0.018 C 
HETATM   46  C21 UNL     1      11.705  30.861  17.676  1.00  0.00     0.010 C 
HETATM   47  C22 UNL     1      12.097  30.561  20.069  1.00  0.00     0.010 C 
ENDBRANCH  44  45
ENDBRANCH  43  44
ENDBRANCH  40  43
ENDBRANCH   4  37
TORSDOF 12
ENDMDL
