MODEL 1
REMARK VINA RESULT: -8.571999420      0.000      0.000
REMARK  11 active torsions:
REMARK  status: ('A' for Active; 'I' for Inactive)
REMARK    1  A    between atoms: C2_2  and  C3_3 
REMARK    2  A    between atoms: C5_5  and  C6_6 
REMARK    3  A    between atoms: C6_6  and  C7_7 
REMARK    4  A    between atoms: C7_7  and  C8_8 
REMARK    5  A    between atoms: C8_8  and  C9_9 
REMARK    6  A    between atoms: C9_9  and  N1_10 
REMARK    7  A    between atoms: N2_17  and  C16_18 
REMARK    8  A    between atoms: C20_22  and  S1_23 
REMARK    9  A    between atoms: C22_27  and  C23_28 
REMARK   10  A    between atoms: C27_34  and  C28_35 
REMARK   11  A    between atoms: C28_35  and  C29_36 
ROOT
HETATM    1  C16 UNL     1       8.013  44.197  18.118  1.00  0.00     0.050 A 
HETATM    2  C17 UNL     1       8.046  43.025  17.402  1.00  0.00     0.031 A 
HETATM    3  C18 UNL     1       7.220  42.889  16.276  1.00  0.00     0.004 A 
HETATM    4  C19 UNL     1       6.384  43.925  15.895  1.00  0.00     0.024 A 
HETATM    5  C20 UNL     1       6.355  45.111  16.623  1.00  0.00     0.071 A 
HETATM    6  C22 UNL     1       7.177  45.211  17.722  1.00  0.00     0.015 A 
ENDROOT
BRANCH   1   7
HETATM    7  N2  UNL     1       8.816  44.361  19.263  1.00  0.00    -0.331 N 
HETATM    8  C15 UNL     1      10.152  44.501  19.224  1.00  0.00     0.103 A 
HETATM    9  C5  UNL     1      10.942  44.655  20.364  1.00  0.00    -0.042 A 
HETATM   10  C4  UNL     1      10.337  44.668  21.591  1.00  0.00     0.017 A 
HETATM   11  C3  UNL     1       8.949  44.525  21.663  1.00  0.00    -0.042 A 
HETATM   12  C33 UNL     1       8.263  44.380  20.501  1.00  0.00     0.103 A 
BRANCH   9  13
HETATM   13  C6  UNL     1      12.420  44.797  20.236  1.00  0.00     0.040 C 
BRANCH  13  14
HETATM   14  C7  UNL     1      12.897  44.688  18.829  1.00  0.00     0.006 C 
BRANCH  14  15
HETATM   15  C8  UNL     1      13.493  45.894  18.218  1.00  0.00     0.021 C 
BRANCH  15  16
HETATM   16  C9  UNL     1      13.121  46.199  16.808  1.00  0.00     0.128 C 
BRANCH  16  17
HETATM   17  N1  UNL     1      13.106  47.610  16.488  1.00  0.00    -0.366 N 
HETATM   18  C10 UNL     1      13.514  48.511  17.421  1.00  0.00     0.090 A 
HETATM   19  C11 UNL     1      13.517  49.848  17.195  1.00  0.00     0.017 A 
HETATM   20  C12 UNL     1      13.096  50.341  15.984  1.00  0.00     0.003 A 
HETATM   21  C13 UNL     1      12.677  49.448  15.026  1.00  0.00     0.017 A 
HETATM   22  C14 UNL     1      12.695  48.088  15.309  1.00  0.00     0.090 A 
ENDBRANCH  16  17
ENDBRANCH  15  16
ENDBRANCH  14  15
ENDBRANCH  13  14
ENDBRANCH   9  13
BRANCH  11  23
HETATM   23  C2  UNL     1       8.295  44.540  23.003  1.00  0.00     0.035 C 
HETATM   24  C1  UNL     1       7.089  43.598  22.890  1.00  0.00     0.010 C 
ENDBRANCH  11  23
ENDBRANCH   1   7
BRANCH   6  25
HETATM   25  C23 UNL     1       7.176  46.437  18.495  1.00  0.00     0.045 C 
HETATM   26  C24 UNL     1       8.153  47.326  18.319  1.00  0.00     0.043 A 
HETATM   27  N3  UNL     1       9.211  47.251  17.472  1.00  0.00    -0.365 N 
HETATM   28  C27 UNL     1       8.288  48.527  18.978  1.00  0.00    -0.006 A 
HETATM   29  C25 UNL     1       9.987  48.327  17.567  1.00  0.00     0.089 A 
ATOM     30  H3  UNL     1       9.388  46.469  16.842  1.00  0.00     0.165 HD
HETATM   31  C26 UNL     1       9.424  49.149  18.514  1.00  0.00     0.030 A 
BRANCH  28  32
HETATM   32  C28 UNL     1       7.487  49.020  19.897  1.00  0.00     0.045 C 
BRANCH  32  33
HETATM   33  C29 UNL     1       7.353  50.454  20.126  1.00  0.00     0.059 A 
HETATM   34  N4  UNL     1       6.754  51.384  19.369  1.00  0.00    -0.307 N 
HETATM   35  C30 UNL     1       6.875  52.575  19.975  1.00  0.00     0.325 A 
ATOM     36  H4  UNL     1       6.284  51.215  18.479  1.00  0.00     0.170 HD
HETATM   37  O3  UNL     1       6.403  53.651  19.487  1.00  0.00    -0.247 OA
HETATM   38  N5  UNL     1       7.552  52.445  21.134  1.00  0.00    -0.311 N 
HETATM   39  C31 UNL     1       7.845  51.135  21.225  1.00  0.00     0.036 A 
ATOM     40  H5  UNL     1       7.790  53.181  21.799  1.00  0.00     0.170 HD
HETATM   41  C32 UNL     1       8.582  50.529  22.339  1.00  0.00     0.070 C 
ENDBRANCH  32  33
ENDBRANCH  28  32
ENDBRANCH   6  25
BRANCH   5  42
HETATM   42  S1  UNL     1       5.280  46.388  16.132  1.00  0.00     0.172 S 
HETATM   43  C21 UNL     1       4.324  45.893  14.703  1.00  0.00     0.167 C 
HETATM   44  O1  UNL     1       5.976  47.655  15.795  1.00  0.00    -0.223 OA
HETATM   45  O2  UNL     1       4.261  46.665  17.228  1.00  0.00    -0.223 OA
ENDBRANCH   5  42
TORSDOF 11
ENDMDL
MODEL 2
REMARK VINA RESULT: -8.325297603      1.734      2.591
REMARK  11 active torsions:
REMARK  status: ('A' for Active; 'I' for Inactive)
REMARK    1  A    between atoms: C2_2  and  C3_3 
REMARK    2  A    between atoms: C5_5  and  C6_6 
REMARK    3  A    between atoms: C6_6  and  C7_7 
REMARK    4  A    between atoms: C7_7  and  C8_8 
REMARK    5  A    between atoms: C8_8  and  C9_9 
REMARK    6  A    between atoms: C9_9  and  N1_10 
REMARK    7  A    between atoms: N2_17  and  C16_18 
REMARK    8  A    between atoms: C20_22  and  S1_23 
REMARK    9  A    between atoms: C22_27  and  C23_28 
REMARK   10  A    between atoms: C27_34  and  C28_35 
REMARK   11  A    between atoms: C28_35  and  C29_36 
ROOT
HETATM    1  C16 UNL     1       8.256  43.674  17.671  1.00  0.00     0.050 A 
HETATM    2  C17 UNL     1       7.898  42.815  16.659  1.00  0.00     0.031 A 
HETATM    3  C18 UNL     1       6.845  43.169  15.803  1.00  0.00     0.004 A 
HETATM    4  C19 UNL     1       6.176  44.369  15.978  1.00  0.00     0.024 A 
HETATM    5  C20 UNL     1       6.543  45.236  17.005  1.00  0.00     0.071 A 
HETATM    6  C22 UNL     1       7.580  44.858  17.826  1.00  0.00     0.015 A 
ENDROOT
BRANCH   1   7
HETATM    7  N2  UNL     1       9.297  43.342  18.558  1.00  0.00    -0.331 N 
HETATM    8  C15 UNL     1      10.316  44.167  18.855  1.00  0.00     0.103 A 
HETATM    9  C5  UNL     1      11.349  43.827  19.730  1.00  0.00    -0.042 A 
HETATM   10  C4  UNL     1      11.334  42.595  20.324  1.00  0.00     0.017 A 
HETATM   11  C3  UNL     1      10.287  41.716  20.034  1.00  0.00    -0.042 A 
HETATM   12  C33 UNL     1       9.328  42.132  19.171  1.00  0.00     0.103 A 
BRANCH   9  13
HETATM   13  C6  UNL     1      12.448  44.797  20.001  1.00  0.00     0.040 C 
BRANCH  13  14
HETATM   14  C7  UNL     1      13.550  44.723  19.002  1.00  0.00     0.006 C 
BRANCH  14  15
HETATM   15  C8  UNL     1      13.866  45.954  18.246  1.00  0.00     0.021 C 
BRANCH  15  16
HETATM   16  C9  UNL     1      13.107  46.194  16.987  1.00  0.00     0.128 C 
BRANCH  16  17
HETATM   17  N1  UNL     1      13.036  47.583  16.590  1.00  0.00    -0.366 N 
HETATM   18  C10 UNL     1      13.525  48.541  17.422  1.00  0.00     0.090 A 
HETATM   19  C11 UNL     1      13.484  49.863  17.120  1.00  0.00     0.017 A 
HETATM   20  C12 UNL     1      12.931  50.279  15.934  1.00  0.00     0.003 A 
HETATM   21  C13 UNL     1      12.429  49.328  15.078  1.00  0.00     0.017 A 
HETATM   22  C14 UNL     1      12.497  47.987  15.435  1.00  0.00     0.090 A 
ENDBRANCH  16  17
ENDBRANCH  15  16
ENDBRANCH  14  15
ENDBRANCH  13  14
ENDBRANCH   9  13
BRANCH  11  23
HETATM   23  C2  UNL     1      10.277  40.375  20.685  1.00  0.00     0.035 C 
HETATM   24  C1  UNL     1      11.745  39.931  20.752  1.00  0.00     0.010 C 
ENDBRANCH  11  23
ENDBRANCH   1   7
BRANCH   6  25
HETATM   25  C23 UNL     1       7.991  45.744  18.897  1.00  0.00     0.045 C 
HETATM   26  C24 UNL     1       7.456  45.603  20.109  1.00  0.00     0.043 A 
HETATM   27  N3  UNL     1       6.528  44.699  20.515  1.00  0.00    -0.365 N 
HETATM   28  C27 UNL     1       7.743  46.366  21.218  1.00  0.00    -0.006 A 
HETATM   29  C25 UNL     1       6.226  44.856  21.801  1.00  0.00     0.089 A 
ATOM     30  H3  UNL     1       6.115  43.989  19.911  1.00  0.00     0.165 HD
HETATM   31  C26 UNL     1       6.982  45.905  22.268  1.00  0.00     0.030 A 
BRANCH  28  32
HETATM   32  C28 UNL     1       8.591  47.368  21.293  1.00  0.00     0.045 C 
BRANCH  32  33
HETATM   33  C29 UNL     1       8.207  48.740  20.982  1.00  0.00     0.059 A 
HETATM   34  N4  UNL     1       7.439  49.588  21.682  1.00  0.00    -0.307 N 
HETATM   35  C30 UNL     1       7.359  50.747  21.012  1.00  0.00     0.325 A 
ATOM     36  H4  UNL     1       6.991  49.385  22.576  1.00  0.00     0.170 HD
HETATM   37  O3  UNL     1       6.694  51.746  21.434  1.00  0.00    -0.247 OA
HETATM   38  N5  UNL     1       8.069  50.679  19.868  1.00  0.00    -0.311 N 
HETATM   39  C31 UNL     1       8.592  49.439  19.852  1.00  0.00     0.036 A 
ATOM     40  H5  UNL     1       8.185  51.409  19.165  1.00  0.00     0.170 HD
HETATM   41  C32 UNL     1       9.448  48.916  18.782  1.00  0.00     0.070 C 
ENDBRANCH  32  33
ENDBRANCH  28  32
ENDBRANCH   6  25
BRANCH   5  42
HETATM   42  S1  UNL     1       5.672  46.728  17.213  1.00  0.00     0.172 S 
HETATM   43  C21 UNL     1       4.420  46.910  15.948  1.00  0.00     0.167 C 
HETATM   44  O1  UNL     1       6.538  47.933  17.171  1.00  0.00    -0.223 OA
HETATM   45  O2  UNL     1       4.918  46.713  18.535  1.00  0.00    -0.223 OA
ENDBRANCH   5  42
TORSDOF 11
ENDMDL
MODEL 3
REMARK VINA RESULT: -8.119928384     12.670     15.552
REMARK  11 active torsions:
REMARK  status: ('A' for Active; 'I' for Inactive)
REMARK    1  A    between atoms: C2_2  and  C3_3 
REMARK    2  A    between atoms: C5_5  and  C6_6 
REMARK    3  A    between atoms: C6_6  and  C7_7 
REMARK    4  A    between atoms: C7_7  and  C8_8 
REMARK    5  A    between atoms: C8_8  and  C9_9 
REMARK    6  A    between atoms: C9_9  and  N1_10 
REMARK    7  A    between atoms: N2_17  and  C16_18 
REMARK    8  A    between atoms: C20_22  and  S1_23 
REMARK    9  A    between atoms: C22_27  and  C23_28 
REMARK   10  A    between atoms: C27_34  and  C28_35 
REMARK   11  A    between atoms: C28_35  and  C29_36 
ROOT
HETATM    1  C16 UNL     1      12.433  32.084  22.837  1.00  0.00     0.050 A 
HETATM    2  C17 UNL     1      11.853  30.895  23.210  1.00  0.00     0.031 A 
HETATM    3  C18 UNL     1      11.648  29.902  22.242  1.00  0.00     0.004 A 
HETATM    4  C19 UNL     1      12.028  30.119  20.928  1.00  0.00     0.024 A 
HETATM    5  C20 UNL     1      12.616  31.325  20.555  1.00  0.00     0.071 A 
HETATM    6  C22 UNL     1      12.802  32.279  21.530  1.00  0.00     0.015 A 
ENDROOT
BRANCH   1   7
HETATM    7  N2  UNL     1      12.638  33.109  23.781  1.00  0.00    -0.331 N 
HETATM    8  C15 UNL     1      13.830  33.386  24.336  1.00  0.00     0.103 A 
HETATM    9  C5  UNL     1      14.023  34.399  25.276  1.00  0.00    -0.042 A 
HETATM   10  C4  UNL     1      12.951  35.158  25.659  1.00  0.00     0.017 A 
HETATM   11  C3  UNL     1      11.699  34.893  25.099  1.00  0.00    -0.042 A 
HETATM   12  C33 UNL     1      11.606  33.888  24.193  1.00  0.00     0.103 A 
BRANCH   9  13
HETATM   13  C6  UNL     1      15.377  34.639  25.850  1.00  0.00     0.040 C 
BRANCH  13  14
HETATM   14  C7  UNL     1      16.289  33.470  25.701  1.00  0.00     0.006 C 
BRANCH  14  15
HETATM   15  C8  UNL     1      17.529  33.670  24.924  1.00  0.00     0.021 C 
BRANCH  15  16
HETATM   16  C9  UNL     1      18.705  32.833  25.290  1.00  0.00     0.128 C 
BRANCH  16  17
HETATM   17  N1  UNL     1      18.842  31.623  24.508  1.00  0.00    -0.366 N 
HETATM   18  C10 UNL     1      18.390  30.445  25.015  1.00  0.00     0.090 A 
HETATM   19  C11 UNL     1      18.493  29.271  24.344  1.00  0.00     0.017 A 
HETATM   20  C12 UNL     1      19.074  29.241  23.100  1.00  0.00     0.003 A 
HETATM   21  C13 UNL     1      19.540  30.419  22.567  1.00  0.00     0.017 A 
HETATM   22  C14 UNL     1      19.409  31.594  23.297  1.00  0.00     0.090 A 
ENDBRANCH  16  17
ENDBRANCH  15  16
ENDBRANCH  14  15
ENDBRANCH  13  14
ENDBRANCH   9  13
BRANCH  11  23
HETATM   23  C2  UNL     1      10.535  35.724  25.521  1.00  0.00     0.035 C 
HETATM   24  C1  UNL     1      11.003  36.500  26.760  1.00  0.00     0.010 C 
ENDBRANCH  11  23
ENDBRANCH   1   7
BRANCH   6  25
HETATM   25  C23 UNL     1      13.420  33.540  21.175  1.00  0.00     0.045 C 
HETATM   26  C24 UNL     1      12.669  34.526  20.685  1.00  0.00     0.043 A 
HETATM   27  N3  UNL     1      11.331  34.526  20.456  1.00  0.00    -0.365 N 
HETATM   28  C27 UNL     1      13.112  35.772  20.302  1.00  0.00    -0.006 A 
HETATM   29  C25 UNL     1      10.923  35.689  19.958  1.00  0.00     0.089 A 
ATOM     30  H3  UNL     1      10.717  33.733  20.643  1.00  0.00     0.165 HD
HETATM   31  C26 UNL     1      12.032  36.494  19.851  1.00  0.00     0.030 A 
BRANCH  28  32
HETATM   32  C28 UNL     1      14.347  36.222  20.347  1.00  0.00     0.045 C 
BRANCH  32  33
HETATM   33  C29 UNL     1      14.861  36.978  21.483  1.00  0.00     0.059 A 
HETATM   34  N4  UNL     1      15.590  36.555  22.526  1.00  0.00    -0.307 N 
HETATM   35  C30 UNL     1      15.837  37.601  23.328  1.00  0.00     0.325 A 
ATOM     36  H4  UNL     1      15.905  35.598  22.683  1.00  0.00     0.170 HD
HETATM   37  O3  UNL     1      16.511  37.505  24.403  1.00  0.00    -0.247 OA
HETATM   38  N5  UNL     1      15.277  38.721  22.827  1.00  0.00    -0.311 N 
HETATM   39  C31 UNL     1      14.676  38.333  21.688  1.00  0.00     0.036 A 
ATOM     40  H5  UNL     1      15.304  39.660  23.225  1.00  0.00     0.170 HD
HETATM   41  C32 UNL     1      13.933  39.232  20.798  1.00  0.00     0.070 C 
ENDBRANCH  32  33
ENDBRANCH  28  32
ENDBRANCH   6  25
BRANCH   5  42
HETATM   42  S1  UNL     1      13.064  31.578  18.893  1.00  0.00     0.172 S 
HETATM   43  C21 UNL     1      13.127  30.021  18.013  1.00  0.00     0.167 C 
HETATM   44  O1  UNL     1      14.378  32.247  18.726  1.00  0.00    -0.223 OA
HETATM   45  O2  UNL     1      12.000  32.404  18.184  1.00  0.00    -0.223 OA
ENDBRANCH   5  42
TORSDOF 11
ENDMDL
MODEL 4
REMARK VINA RESULT: -8.063088783     11.492     15.791
REMARK  11 active torsions:
REMARK  status: ('A' for Active; 'I' for Inactive)
REMARK    1  A    between atoms: C2_2  and  C3_3 
REMARK    2  A    between atoms: C5_5  and  C6_6 
REMARK    3  A    between atoms: C6_6  and  C7_7 
REMARK    4  A    between atoms: C7_7  and  C8_8 
REMARK    5  A    between atoms: C8_8  and  C9_9 
REMARK    6  A    between atoms: C9_9  and  N1_10 
REMARK    7  A    between atoms: N2_17  and  C16_18 
REMARK    8  A    between atoms: C20_22  and  S1_23 
REMARK    9  A    between atoms: C22_27  and  C23_28 
REMARK   10  A    between atoms: C27_34  and  C28_35 
REMARK   11  A    between atoms: C28_35  and  C29_36 
ROOT
HETATM    1  C16 UNL     1      12.485  34.347  20.377  1.00  0.00     0.050 A 
HETATM    2  C17 UNL     1      13.592  35.051  20.788  1.00  0.00     0.031 A 
HETATM    3  C18 UNL     1      13.623  36.441  20.608  1.00  0.00     0.004 A 
HETATM    4  C19 UNL     1      12.551  37.094  20.022  1.00  0.00     0.024 A 
HETATM    5  C20 UNL     1      11.432  36.376  19.608  1.00  0.00     0.071 A 
HETATM    6  C22 UNL     1      11.433  35.013  19.799  1.00  0.00     0.015 A 
ENDROOT
BRANCH   1   7
HETATM    7  N2  UNL     1      12.427  32.949  20.527  1.00  0.00    -0.331 N 
HETATM    8  C15 UNL     1      12.073  32.335  21.669  1.00  0.00     0.103 A 
HETATM    9  C5  UNL     1      12.025  30.947  21.812  1.00  0.00    -0.042 A 
HETATM   10  C4  UNL     1      12.353  30.160  20.742  1.00  0.00     0.017 A 
HETATM   11  C3  UNL     1      12.726  30.771  19.542  1.00  0.00    -0.042 A 
HETATM   12  C33 UNL     1      12.744  32.126  19.496  1.00  0.00     0.103 A 
BRANCH   9  13
HETATM   13  C6  UNL     1      11.629  30.343  23.116  1.00  0.00     0.040 C 
BRANCH  13  14
HETATM   14  C7  UNL     1      10.578  29.296  22.977  1.00  0.00     0.006 C 
BRANCH  14  15
HETATM   15  C8  UNL     1       9.170  29.744  22.953  1.00  0.00     0.021 C 
BRANCH  15  16
HETATM   16  C9  UNL     1       8.856  31.037  23.625  1.00  0.00     0.128 C 
BRANCH  16  17
HETATM   17  N1  UNL     1       8.386  30.901  24.986  1.00  0.00    -0.366 N 
HETATM   18  C10 UNL     1       7.351  30.061  25.255  1.00  0.00     0.090 A 
HETATM   19  C11 UNL     1       6.852  29.891  26.505  1.00  0.00     0.017 A 
HETATM   20  C12 UNL     1       7.393  30.584  27.560  1.00  0.00     0.003 A 
HETATM   21  C13 UNL     1       8.439  31.441  27.312  1.00  0.00     0.017 A 
HETATM   22  C14 UNL     1       8.913  31.577  26.013  1.00  0.00     0.090 A 
ENDBRANCH  16  17
ENDBRANCH  15  16
ENDBRANCH  14  15
ENDBRANCH  13  14
ENDBRANCH   9  13
BRANCH  11  23
HETATM   23  C2  UNL     1      13.082  29.908  18.379  1.00  0.00     0.035 C 
HETATM   24  C1  UNL     1      12.257  30.437  17.198  1.00  0.00     0.010 C 
ENDBRANCH  11  23
ENDBRANCH   1   7
BRANCH   6  25
HETATM   25  C23 UNL     1      10.279  34.241  19.387  1.00  0.00     0.045 C 
HETATM   26  C24 UNL     1       9.237  34.125  20.209  1.00  0.00     0.043 A 
HETATM   27  N3  UNL     1       9.086  34.656  21.450  1.00  0.00    -0.365 N 
HETATM   28  C27 UNL     1       8.078  33.426  19.960  1.00  0.00    -0.006 A 
HETATM   29  C25 UNL     1       7.911  34.328  21.979  1.00  0.00     0.089 A 
ATOM     30  H3  UNL     1       9.786  35.232  21.917  1.00  0.00     0.165 HD
HETATM   31  C26 UNL     1       7.255  33.550  21.055  1.00  0.00     0.030 A 
BRANCH  28  32
HETATM   32  C28 UNL     1       7.781  32.746  18.874  1.00  0.00     0.045 C 
BRANCH  32  33
HETATM   33  C29 UNL     1       7.267  33.387  17.669  1.00  0.00     0.059 A 
HETATM   34  N4  UNL     1       7.460  34.636  17.221  1.00  0.00    -0.307 N 
HETATM   35  C30 UNL     1       6.794  34.786  16.067  1.00  0.00     0.325 A 
ATOM     36  H4  UNL     1       8.021  35.353  17.682  1.00  0.00     0.170 HD
HETATM   37  O3  UNL     1       6.791  35.873  15.406  1.00  0.00    -0.247 OA
HETATM   38  N5  UNL     1       6.156  33.644  15.740  1.00  0.00    -0.311 N 
HETATM   39  C31 UNL     1       6.451  32.782  16.731  1.00  0.00     0.036 A 
ATOM     40  H5  UNL     1       5.576  33.470  14.919  1.00  0.00     0.170 HD
HETATM   41  C32 UNL     1       5.967  31.398  16.793  1.00  0.00     0.070 C 
ENDBRANCH  32  33
ENDBRANCH  28  32
ENDBRANCH   6  25
BRANCH   5  42
HETATM   42  S1  UNL     1      10.108  37.220  18.857  1.00  0.00     0.172 S 
HETATM   43  C21 UNL     1      10.569  38.906  18.476  1.00  0.00     0.167 C 
HETATM   44  O1  UNL     1       8.880  37.263  19.691  1.00  0.00    -0.223 OA
HETATM   45  O2  UNL     1       9.769  36.577  17.519  1.00  0.00    -0.223 OA
ENDBRANCH   5  42
TORSDOF 11
ENDMDL
MODEL 5
REMARK VINA RESULT: -8.055639878      5.908      8.874
REMARK  11 active torsions:
REMARK  status: ('A' for Active; 'I' for Inactive)
REMARK    1  A    between atoms: C2_2  and  C3_3 
REMARK    2  A    between atoms: C5_5  and  C6_6 
REMARK    3  A    between atoms: C6_6  and  C7_7 
REMARK    4  A    between atoms: C7_7  and  C8_8 
REMARK    5  A    between atoms: C8_8  and  C9_9 
REMARK    6  A    between atoms: C9_9  and  N1_10 
REMARK    7  A    between atoms: N2_17  and  C16_18 
REMARK    8  A    between atoms: C20_22  and  S1_23 
REMARK    9  A    between atoms: C22_27  and  C23_28 
REMARK   10  A    between atoms: C27_34  and  C28_35 
REMARK   11  A    between atoms: C28_35  and  C29_36 
ROOT
HETATM    1  C16 UNL     1       8.840  41.303  19.372  1.00  0.00     0.050 A 
HETATM    2  C17 UNL     1       7.607  41.527  18.805  1.00  0.00     0.031 A 
HETATM    3  C18 UNL     1       6.957  40.473  18.148  1.00  0.00     0.004 A 
HETATM    4  C19 UNL     1       7.551  39.224  18.072  1.00  0.00     0.024 A 
HETATM    5  C20 UNL     1       8.799  39.003  18.648  1.00  0.00     0.071 A 
HETATM    6  C22 UNL     1       9.411  40.058  19.286  1.00  0.00     0.015 A 
ENDROOT
BRANCH   1   7
HETATM    7  N2  UNL     1       9.528  42.343  20.025  1.00  0.00    -0.331 N 
HETATM    8  C15 UNL     1      10.214  43.304  19.383  1.00  0.00     0.103 A 
HETATM    9  C5  UNL     1      10.900  44.327  20.039  1.00  0.00    -0.042 A 
HETATM   10  C4  UNL     1      10.879  44.366  21.407  1.00  0.00     0.017 A 
HETATM   11  C3  UNL     1      10.174  43.381  22.102  1.00  0.00    -0.042 A 
HETATM   12  C33 UNL     1       9.537  42.425  21.380  1.00  0.00     0.103 A 
BRANCH   9  13
HETATM   13  C6  UNL     1      11.645  45.351  19.253  1.00  0.00     0.040 C 
BRANCH  13  14
HETATM   14  C7  UNL     1      13.101  45.055  19.142  1.00  0.00     0.006 C 
BRANCH  14  15
HETATM   15  C8  UNL     1      13.868  45.794  18.117  1.00  0.00     0.021 C 
BRANCH  15  16
HETATM   16  C9  UNL     1      13.157  46.147  16.857  1.00  0.00     0.128 C 
BRANCH  16  17
HETATM   17  N1  UNL     1      13.082  47.567  16.593  1.00  0.00    -0.366 N 
HETATM   18  C10 UNL     1      12.565  48.000  15.412  1.00  0.00     0.090 A 
HETATM   19  C11 UNL     1      12.472  49.315  15.091  1.00  0.00     0.017 A 
HETATM   20  C12 UNL     1      12.910  50.269  15.976  1.00  0.00     0.003 A 
HETATM   21  C13 UNL     1      13.438  49.855  17.176  1.00  0.00     0.017 A 
HETATM   22  C14 UNL     1      13.510  48.496  17.454  1.00  0.00     0.090 A 
ENDBRANCH  16  17
ENDBRANCH  15  16
ENDBRANCH  14  15
ENDBRANCH  13  14
ENDBRANCH   9  13
BRANCH  11  23
HETATM   23  C2  UNL     1      10.155  43.429  23.592  1.00  0.00     0.035 C 
HETATM   24  C1  UNL     1      10.479  42.004  24.061  1.00  0.00     0.010 C 
ENDBRANCH  11  23
ENDBRANCH   1   7
BRANCH   6  25
HETATM   25  C23 UNL     1      10.705  39.856  19.903  1.00  0.00     0.045 C 
HETATM   26  C24 UNL     1      10.777  39.315  21.119  1.00  0.00     0.043 A 
HETATM   27  N3  UNL     1       9.756  38.898  21.912  1.00  0.00    -0.365 N 
HETATM   28  C27 UNL     1      11.928  39.066  21.831  1.00  0.00    -0.006 A 
HETATM   29  C25 UNL     1      10.205  38.409  23.064  1.00  0.00     0.089 A 
ATOM     30  H3  UNL     1       8.771  38.953  21.656  1.00  0.00     0.165 HD
HETATM   31  C26 UNL     1      11.576  38.504  23.037  1.00  0.00     0.030 A 
BRANCH  28  32
HETATM   32  C28 UNL     1      13.163  39.311  21.452  1.00  0.00     0.045 C 
BRANCH  32  33
HETATM   33  C29 UNL     1      14.309  38.624  22.036  1.00  0.00     0.059 A 
HETATM   34  N4  UNL     1      15.069  38.976  23.082  1.00  0.00    -0.307 N 
HETATM   35  C30 UNL     1      16.013  38.039  23.262  1.00  0.00     0.325 A 
ATOM     36  H4  UNL     1      14.951  39.817  23.648  1.00  0.00     0.170 HD
HETATM   37  O3  UNL     1      16.885  38.104  24.186  1.00  0.00    -0.247 OA
HETATM   38  N5  UNL     1      15.887  37.062  22.342  1.00  0.00    -0.311 N 
HETATM   39  C31 UNL     1      14.834  37.426  21.587  1.00  0.00     0.036 A 
ATOM     40  H5  UNL     1      16.464  36.228  22.239  1.00  0.00     0.170 HD
HETATM   41  C32 UNL     1      14.325  36.650  20.450  1.00  0.00     0.070 C 
ENDBRANCH  32  33
ENDBRANCH  28  32
ENDBRANCH   6  25
BRANCH   5  42
HETATM   42  S1  UNL     1       9.530  37.429  18.520  1.00  0.00     0.172 S 
HETATM   43  C21 UNL     1       8.705  36.449  17.271  1.00  0.00     0.167 C 
HETATM   44  O1  UNL     1       9.510  36.659  19.788  1.00  0.00    -0.223 OA
HETATM   45  O2  UNL     1      10.973  37.559  18.050  1.00  0.00    -0.223 OA
ENDBRANCH   5  42
TORSDOF 11
ENDMDL
