MODEL 1
REMARK VINA RESULT: -9.559330851      0.000      0.000
REMARK  13 active torsions:
REMARK  status: ('A' for Active; 'I' for Inactive)
REMARK    1  A    between atoms: C4_5  and  C5_6 
REMARK    2  A    between atoms: C5_6  and  C6_7 
REMARK    3  A    between atoms: C11_12  and  N1_13 
REMARK    4  A    between atoms: N1_13  and  C12_15 
REMARK    5  A    between atoms: C12_15  and  C13_16 
REMARK    6  A    between atoms: C18_21  and  C19_22 
REMARK    7  A    between atoms: C19_22  and  N2_23 
REMARK    8  A    between atoms: N3_29  and  C25_30 
REMARK    9  A    between atoms: C26_31  and  C27_32 
REMARK   10  A    between atoms: C29_36  and  N5_37 
REMARK   11  A    between atoms: N7_47  and  C33_48 
REMARK   12  A    between atoms: C33_48  and  C34_49 
REMARK   13  A    between atoms: C34_49  and  C35_50 
ROOT
HETATM    1  C1  UNL     1       7.635  -1.886   1.917  1.00  0.00     0.041 C 
HETATM    2  C2  UNL     1       8.865  -2.667   1.745  1.00  0.00     0.155 C 
HETATM    3  C3  UNL     1      10.080  -1.962   1.302  1.00  0.00     0.172 C 
HETATM    4  O1  UNL     1      10.711  -2.711   0.500  1.00  0.00    -0.293 OA
HETATM    5  C4  UNL     1      10.835  -0.648   1.484  1.00  0.00     0.168 C 
HETATM    6  N3  UNL     1      10.960  -0.369   2.862  1.00  0.00    -0.308 N 
HETATM    7  C31 UNL     1      10.523  -1.305   3.956  1.00  0.00     0.316 C 
HETATM    8  O2  UNL     1      10.484  -0.750   5.103  1.00  0.00    -0.262 OA
HETATM    9  C32 UNL     1      10.151  -2.666   3.913  1.00  0.00     0.312 C 
HETATM   10  O3  UNL     1      10.653  -3.432   4.832  1.00  0.00    -0.262 OA
HETATM   11  N7  UNL     1       9.292  -3.324   2.978  1.00  0.00    -0.332 N 
ENDROOT
BRANCH   5  12
HETATM   12  C5  UNL     1      10.145   0.279   0.503  1.00  0.00     0.074 C 
BRANCH  12  13
HETATM   13  C6  UNL     1      11.004   1.276  -0.175  1.00  0.00    -0.029 A 
HETATM   14  C7  UNL     1      11.877   0.542  -1.068  1.00  0.00     0.009 A 
HETATM   15  C8  UNL     1      12.854   1.198  -1.745  1.00  0.00     0.001 A 
HETATM   16  C9  UNL     1      13.004   2.545  -1.572  1.00  0.00     0.002 A 
HETATM   17  C10 UNL     1      12.191   3.249  -0.737  1.00  0.00     0.030 A 
HETATM   18  C11 UNL     1      11.169   2.624  -0.029  1.00  0.00     0.038 A 
BRANCH  18  19
HETATM   19  N1  UNL     1      10.251   3.376   0.723  1.00  0.00    -0.365 N 
ATOM     20  H1  UNL     1       9.335   2.957   0.887  1.00  0.00     0.165 HD
BRANCH  19  21
HETATM   21  C12 UNL     1      10.473   4.651   1.270  1.00  0.00     0.100 C 
BRANCH  21  22
HETATM   22  C13 UNL     1       9.961   5.920   0.934  1.00  0.00    -0.013 A 
HETATM   23  C14 UNL     1       9.116   6.266  -0.056  1.00  0.00     0.013 A 
HETATM   24  C15 UNL     1       8.720   7.536  -0.407  1.00  0.00     0.001 A 
HETATM   25  C16 UNL     1       9.206   8.580   0.294  1.00  0.00     0.001 A 
HETATM   26  C17 UNL     1      10.100   8.305   1.337  1.00  0.00     0.010 A 
HETATM   27  C18 UNL     1      10.477   7.034   1.656  1.00  0.00    -0.028 A 
BRANCH  27  28
HETATM   28  C19 UNL     1      11.472   6.831   2.749  1.00  0.00     0.167 C 
BRANCH  28  29
HETATM   29  N2  UNL     1      12.710   7.535   2.348  1.00  0.00    -0.362 N 
HETATM   30  C20 UNL     1      13.369   7.352   1.220  1.00  0.00     0.090 A 
HETATM   31  C21 UNL     1      14.607   7.930   0.967  1.00  0.00     0.017 A 
HETATM   32  C22 UNL     1      15.128   8.708   1.943  1.00  0.00     0.003 A 
HETATM   33  C23 UNL     1      14.454   8.909   3.117  1.00  0.00     0.017 A 
HETATM   34  C24 UNL     1      13.230   8.325   3.337  1.00  0.00     0.090 A 
ENDBRANCH  28  29
ENDBRANCH  27  28
ENDBRANCH  21  22
ENDBRANCH  19  21
ENDBRANCH  18  19
ENDBRANCH  12  13
ENDBRANCH   5  12
BRANCH   6  35
HETATM   35  C25 UNL     1      11.403   0.779   3.551  1.00  0.00     0.096 C 
HETATM   36  C26 UNL     1      12.765   1.238   3.556  1.00  0.00     0.031 C 
BRANCH  36  37
HETATM   37  C27 UNL     1      13.596   1.965   2.652  1.00  0.00    -0.003 A 
HETATM   38  C28 UNL     1      13.607   3.388   2.808  1.00  0.00     0.119 A 
HETATM   39  N4  UNL     1      14.422   4.168   2.124  1.00  0.00    -0.201 N 
HETATM   40  C29 UNL     1      15.297   3.685   1.241  1.00  0.00     0.675 A 
ATOM     41  H4  UNL     1      14.381   5.176   2.276  1.00  0.00     0.183 HD
HETATM   42  N6  UNL     1      15.333   2.342   1.048  1.00  0.00    -0.201 N 
HETATM   43  C30 UNL     1      14.496   1.516   1.739  1.00  0.00     0.119 A 
ATOM     44  H6  UNL     1      15.994   1.946   0.380  1.00  0.00     0.183 HD
BRANCH  40  45
HETATM   45  N5  UNL     1      16.078   4.468   0.591  1.00  0.00    -0.234 N 
ATOM     46  H52 UNL     1      15.795   5.420   0.358  1.00  0.00     0.174 HD
ATOM     47  H51 UNL     1      17.004   4.157   0.297  1.00  0.00     0.174 HD
ENDBRANCH  40  45
ENDBRANCH  36  37
ENDBRANCH   6  35
BRANCH  11  48
HETATM   48  C33 UNL     1       9.009  -4.672   3.298  1.00  0.00     0.132 C 
BRANCH  48  49
HETATM   49  C34 UNL     1       9.543  -5.577   2.207  1.00  0.00     0.061 C 
BRANCH  49  50
HETATM   50  C35 UNL     1      10.639  -6.390   2.753  1.00  0.00    -0.029 A 
HETATM   51  C36 UNL     1      10.434  -7.664   3.329  1.00  0.00     0.096 A 
HETATM   52  N8  UNL     1      11.610  -8.082   3.726  1.00  0.00    -0.365 N 
HETATM   53  C37 UNL     1      12.560  -7.184   3.455  1.00  0.00     0.042 A 
ATOM     54  H8  UNL     1      11.778  -8.979   4.183  1.00  0.00     0.165 HD
HETATM   55  C38 UNL     1      13.931  -7.213   3.657  1.00  0.00     0.030 A 
HETATM   56  C42 UNL     1      11.971  -6.089   2.839  1.00  0.00    -0.002 A 
HETATM   57  C39 UNL     1      14.678  -6.149   3.237  1.00  0.00     0.002 A 
HETATM   58  C40 UNL     1      14.124  -5.050   2.624  1.00  0.00     0.001 A 
HETATM   59  C41 UNL     1      12.749  -5.039   2.435  1.00  0.00     0.014 A 
ENDBRANCH  49  50
ENDBRANCH  48  49
ENDBRANCH  11  48
TORSDOF 13
ENDMDL
MODEL 2
REMARK VINA RESULT: -9.539820443      1.860      3.277
REMARK  13 active torsions:
REMARK  status: ('A' for Active; 'I' for Inactive)
REMARK    1  A    between atoms: C4_5  and  C5_6 
REMARK    2  A    between atoms: C5_6  and  C6_7 
REMARK    3  A    between atoms: C11_12  and  N1_13 
REMARK    4  A    between atoms: N1_13  and  C12_15 
REMARK    5  A    between atoms: C12_15  and  C13_16 
REMARK    6  A    between atoms: C18_21  and  C19_22 
REMARK    7  A    between atoms: C19_22  and  N2_23 
REMARK    8  A    between atoms: N3_29  and  C25_30 
REMARK    9  A    between atoms: C26_31  and  C27_32 
REMARK   10  A    between atoms: C29_36  and  N5_37 
REMARK   11  A    between atoms: N7_47  and  C33_48 
REMARK   12  A    between atoms: C33_48  and  C34_49 
REMARK   13  A    between atoms: C34_49  and  C35_50 
ROOT
HETATM    1  C1  UNL     1       9.451  -2.141   1.209  1.00  0.00     0.041 C 
HETATM    2  C2  UNL     1      10.615  -2.615   1.965  1.00  0.00     0.155 C 
HETATM    3  C3  UNL     1      11.559  -1.613   2.491  1.00  0.00     0.172 C 
HETATM    4  O1  UNL     1      12.735  -2.068   2.378  1.00  0.00    -0.293 OA
HETATM    5  C4  UNL     1      11.600  -0.227   3.128  1.00  0.00     0.168 C 
HETATM    6  N3  UNL     1      10.672  -0.174   4.190  1.00  0.00    -0.308 N 
HETATM    7  C31 UNL     1       9.878  -1.355   4.678  1.00  0.00     0.316 C 
HETATM    8  O2  UNL     1       8.922  -1.029   5.457  1.00  0.00    -0.262 OA
HETATM    9  C32 UNL     1      10.017  -2.735   4.410  1.00  0.00     0.312 C 
HETATM   10  O3  UNL     1       9.937  -3.533   5.430  1.00  0.00    -0.262 OA
HETATM   11  N7  UNL     1      10.242  -3.378   3.154  1.00  0.00    -0.332 N 
ENDROOT
BRANCH   5  12
HETATM   12  C5  UNL     1      11.550   0.698   1.929  1.00  0.00     0.074 C 
BRANCH  12  13
HETATM   13  C6  UNL     1      12.626   1.711   1.834  1.00  0.00    -0.029 A 
HETATM   14  C7  UNL     1      13.717   1.245   2.667  1.00  0.00     0.009 A 
HETATM   15  C8  UNL     1      14.804   2.035   2.857  1.00  0.00     0.001 A 
HETATM   16  C9  UNL     1      14.855   3.264   2.262  1.00  0.00     0.002 A 
HETATM   17  C10 UNL     1      13.840   3.716   1.477  1.00  0.00     0.030 A 
HETATM   18  C11 UNL     1      12.708   2.940   1.244  1.00  0.00     0.038 A 
BRANCH  18  19
HETATM   19  N1  UNL     1      11.729   3.354   0.325  1.00  0.00    -0.365 N 
ATOM     20  H1  UNL     1      10.811   2.915   0.399  1.00  0.00     0.165 HD
BRANCH  19  21
HETATM   21  C12 UNL     1      11.893   4.316  -0.685  1.00  0.00     0.100 C 
BRANCH  21  22
HETATM   22  C13 UNL     1      11.244   5.544  -0.929  1.00  0.00    -0.013 A 
HETATM   23  C14 UNL     1       9.987   5.776  -1.353  1.00  0.00     0.013 A 
HETATM   24  C15 UNL     1       9.426   6.992  -1.671  1.00  0.00     0.001 A 
HETATM   25  C16 UNL     1      10.186   8.101  -1.558  1.00  0.00     0.001 A 
HETATM   26  C17 UNL     1      11.511   7.942  -1.131  1.00  0.00     0.010 A 
HETATM   27  C18 UNL     1      12.037   6.722  -0.828  1.00  0.00    -0.028 A 
BRANCH  27  28
HETATM   28  C19 UNL     1      13.472   6.635  -0.429  1.00  0.00     0.167 C 
BRANCH  28  29
HETATM   29  N2  UNL     1      13.586   7.227   0.921  1.00  0.00    -0.362 N 
HETATM   30  C20 UNL     1      12.676   7.154   1.873  1.00  0.00     0.090 A 
HETATM   31  C21 UNL     1      12.774   7.860   3.067  1.00  0.00     0.017 A 
HETATM   32  C22 UNL     1      13.864   8.645   3.224  1.00  0.00     0.003 A 
HETATM   33  C23 UNL     1      14.819   8.727   2.246  1.00  0.00     0.017 A 
HETATM   34  C24 UNL     1      14.693   8.016   1.076  1.00  0.00     0.090 A 
ENDBRANCH  28  29
ENDBRANCH  27  28
ENDBRANCH  21  22
ENDBRANCH  19  21
ENDBRANCH  18  19
ENDBRANCH  12  13
ENDBRANCH   5  12
BRANCH   6  35
HETATM   35  C25 UNL     1      10.200   0.902   4.972  1.00  0.00     0.096 C 
HETATM   36  C26 UNL     1      10.461   2.284   4.678  1.00  0.00     0.031 C 
BRANCH  36  37
HETATM   37  C27 UNL     1       9.928   3.248   3.771  1.00  0.00    -0.003 A 
HETATM   38  C28 UNL     1       8.683   2.912   3.149  1.00  0.00     0.119 A 
HETATM   39  N4  UNL     1       8.020   3.762   2.389  1.00  0.00    -0.201 N 
HETATM   40  C29 UNL     1       8.461   4.999   2.151  1.00  0.00     0.675 A 
ATOM     41  H4  UNL     1       7.140   3.464   1.969  1.00  0.00     0.183 HD
HETATM   42  N6  UNL     1       9.637   5.376   2.713  1.00  0.00    -0.201 N 
HETATM   43  C30 UNL     1      10.343   4.513   3.497  1.00  0.00     0.119 A 
ATOM     44  H6  UNL     1       9.997   6.316   2.548  1.00  0.00     0.183 HD
BRANCH  40  45
HETATM   45  N5  UNL     1       7.794   5.804   1.408  1.00  0.00    -0.234 N 
ATOM     46  H52 UNL     1       7.871   5.770   0.391  1.00  0.00     0.174 HD
ATOM     47  H51 UNL     1       7.166   6.496   1.819  1.00  0.00     0.174 HD
ENDBRANCH  40  45
ENDBRANCH  36  37
ENDBRANCH   6  35
BRANCH  11  48
HETATM   48  C33 UNL     1      10.191  -4.791   3.207  1.00  0.00     0.132 C 
BRANCH  48  49
HETATM   49  C34 UNL     1      11.598  -5.350   3.242  1.00  0.00     0.061 C 
BRANCH  49  50
HETATM   50  C35 UNL     1      11.532  -6.792   3.520  1.00  0.00    -0.029 A 
HETATM   51  C36 UNL     1      10.701  -7.675   2.795  1.00  0.00     0.096 A 
HETATM   52  N8  UNL     1      10.877  -8.861   3.320  1.00  0.00    -0.365 N 
HETATM   53  C37 UNL     1      11.753  -8.821   4.327  1.00  0.00     0.042 A 
ATOM     54  H8  UNL     1      10.405  -9.708   3.001  1.00  0.00     0.165 HD
HETATM   55  C38 UNL     1      12.265  -9.823   5.135  1.00  0.00     0.030 A 
HETATM   56  C42 UNL     1      12.185  -7.511   4.483  1.00  0.00    -0.002 A 
HETATM   57  C39 UNL     1      13.198  -9.492   6.078  1.00  0.00     0.002 A 
HETATM   58  C40 UNL     1      13.646  -8.205   6.257  1.00  0.00     0.001 A 
HETATM   59  C41 UNL     1      13.117  -7.216   5.440  1.00  0.00     0.014 A 
ENDBRANCH  49  50
ENDBRANCH  48  49
ENDBRANCH  11  48
TORSDOF 13
ENDMDL
MODEL 3
REMARK VINA RESULT: -9.391839789      1.964      3.288
REMARK  13 active torsions:
REMARK  status: ('A' for Active; 'I' for Inactive)
REMARK    1  A    between atoms: C4_5  and  C5_6 
REMARK    2  A    between atoms: C5_6  and  C6_7 
REMARK    3  A    between atoms: C11_12  and  N1_13 
REMARK    4  A    between atoms: N1_13  and  C12_15 
REMARK    5  A    between atoms: C12_15  and  C13_16 
REMARK    6  A    between atoms: C18_21  and  C19_22 
REMARK    7  A    between atoms: C19_22  and  N2_23 
REMARK    8  A    between atoms: N3_29  and  C25_30 
REMARK    9  A    between atoms: C26_31  and  C27_32 
REMARK   10  A    between atoms: C29_36  and  N5_37 
REMARK   11  A    between atoms: N7_47  and  C33_48 
REMARK   12  A    between atoms: C33_48  and  C34_49 
REMARK   13  A    between atoms: C34_49  and  C35_50 
ROOT
HETATM    1  C1  UNL     1      10.268  -3.189  -0.007  1.00  0.00     0.041 C 
HETATM    2  C2  UNL     1      11.072  -3.496   1.182  1.00  0.00     0.155 C 
HETATM    3  C3  UNL     1      11.484  -2.379   2.051  1.00  0.00     0.172 C 
HETATM    4  O1  UNL     1      12.661  -2.599   2.459  1.00  0.00    -0.293 OA
HETATM    5  C4  UNL     1      10.974  -1.061   2.626  1.00  0.00     0.168 C 
HETATM    6  N3  UNL     1       9.694  -1.260   3.187  1.00  0.00    -0.308 N 
HETATM    7  C31 UNL     1       9.021  -2.601   3.300  1.00  0.00     0.316 C 
HETATM    8  O2  UNL     1       7.782  -2.517   3.588  1.00  0.00    -0.262 OA
HETATM    9  C32 UNL     1       9.531  -3.907   3.133  1.00  0.00     0.312 C 
HETATM   10  O3  UNL     1       9.188  -4.780   4.029  1.00  0.00    -0.262 OA
HETATM   11  N7  UNL     1      10.390  -4.402   2.103  1.00  0.00    -0.332 N 
ENDROOT
BRANCH   5  12
HETATM   12  C5  UNL     1      11.254  -0.073   1.512  1.00  0.00     0.074 C 
BRANCH  12  13
HETATM   13  C6  UNL     1      12.298   0.941   1.779  1.00  0.00    -0.029 A 
HETATM   14  C7  UNL     1      13.239   0.344   2.706  1.00  0.00     0.009 A 
HETATM   15  C8  UNL     1      14.250   1.092   3.214  1.00  0.00     0.001 A 
HETATM   16  C9  UNL     1      14.368   2.403   2.847  1.00  0.00     0.002 A 
HETATM   17  C10 UNL     1      13.494   2.979   1.977  1.00  0.00     0.030 A 
HETATM   18  C11 UNL     1      12.446   2.251   1.421  1.00  0.00     0.038 A 
BRANCH  18  19
HETATM   19  N1  UNL     1      11.632   2.812   0.422  1.00  0.00    -0.365 N 
ATOM     20  H1  UNL     1      10.695   2.422   0.317  1.00  0.00     0.165 HD
BRANCH  19  21
HETATM   21  C12 UNL     1      11.985   3.859  -0.444  1.00  0.00     0.100 C 
BRANCH  21  22
HETATM   22  C13 UNL     1      11.390   5.112  -0.697  1.00  0.00    -0.013 A 
HETATM   23  C14 UNL     1      10.170   5.393  -1.193  1.00  0.00     0.013 A 
HETATM   24  C15 UNL     1       9.667   6.633  -1.515  1.00  0.00     0.001 A 
HETATM   25  C16 UNL     1      10.449   7.715  -1.326  1.00  0.00     0.001 A 
HETATM   26  C17 UNL     1      11.740   7.505  -0.821  1.00  0.00     0.010 A 
HETATM   27  C18 UNL     1      12.209   6.262  -0.517  1.00  0.00    -0.028 A 
BRANCH  27  28
HETATM   28  C19 UNL     1      13.612   6.122  -0.030  1.00  0.00     0.167 C 
BRANCH  28  29
HETATM   29  N2  UNL     1      13.694   6.815   1.274  1.00  0.00    -0.362 N 
HETATM   30  C20 UNL     1      12.989   6.517   2.349  1.00  0.00     0.090 A 
HETATM   31  C21 UNL     1      12.998   7.300   3.498  1.00  0.00     0.017 A 
HETATM   32  C22 UNL     1      13.775   8.407   3.476  1.00  0.00     0.003 A 
HETATM   33  C23 UNL     1      14.514   8.726   2.368  1.00  0.00     0.017 A 
HETATM   34  C24 UNL     1      14.485   7.930   1.248  1.00  0.00     0.090 A 
ENDBRANCH  28  29
ENDBRANCH  27  28
ENDBRANCH  21  22
ENDBRANCH  19  21
ENDBRANCH  18  19
ENDBRANCH  12  13
ENDBRANCH   5  12
BRANCH   6  35
HETATM   35  C25 UNL     1       8.731  -0.352   3.676  1.00  0.00     0.096 C 
HETATM   36  C26 UNL     1       9.052   0.918   4.266  1.00  0.00     0.031 C 
BRANCH  36  37
HETATM   37  C27 UNL     1       9.411   2.207   3.769  1.00  0.00    -0.003 A 
HETATM   38  C28 UNL     1       8.624   2.710   2.684  1.00  0.00     0.119 A 
HETATM   39  N4  UNL     1       8.768   3.934   2.214  1.00  0.00    -0.201 N 
HETATM   40  C29 UNL     1       9.655   4.792   2.721  1.00  0.00     0.675 A 
ATOM     41  H4  UNL     1       8.181   4.234   1.436  1.00  0.00     0.183 HD
HETATM   42  N6  UNL     1      10.432   4.373   3.751  1.00  0.00    -0.201 N 
HETATM   43  C30 UNL     1      10.306   3.110   4.250  1.00  0.00     0.119 A 
ATOM     44  H6  UNL     1      11.117   5.009   4.158  1.00  0.00     0.183 HD
BRANCH  40  45
HETATM   45  N5  UNL     1       9.771   5.977   2.243  1.00  0.00    -0.234 N 
ATOM     46  H52 UNL     1       9.129   6.323   1.530  1.00  0.00     0.174 HD
ATOM     47  H51 UNL     1      10.508   6.603   2.570  1.00  0.00     0.174 HD
ENDBRANCH  40  45
ENDBRANCH  36  37
ENDBRANCH   6  35
BRANCH  11  48
HETATM   48  C33 UNL     1      10.604  -5.799   2.146  1.00  0.00     0.132 C 
BRANCH  48  49
HETATM   49  C34 UNL     1      11.912  -6.093   2.851  1.00  0.00     0.061 C 
BRANCH  49  50
HETATM   50  C35 UNL     1      11.841  -7.434   3.450  1.00  0.00    -0.029 A 
HETATM   51  C36 UNL     1      11.035  -8.467   2.921  1.00  0.00     0.096 A 
HETATM   52  N8  UNL     1      11.198  -9.501   3.709  1.00  0.00    -0.365 N 
HETATM   53  C37 UNL     1      12.042  -9.222   4.705  1.00  0.00     0.042 A 
ATOM     54  H8  UNL     1      10.738 -10.402   3.578  1.00  0.00     0.165 HD
HETATM   55  C38 UNL     1      12.532 -10.008   5.736  1.00  0.00     0.030 A 
HETATM   56  C42 UNL     1      12.466  -7.908   4.571  1.00  0.00    -0.002 A 
HETATM   57  C39 UNL     1      13.433  -9.461   6.606  1.00  0.00     0.002 A 
HETATM   58  C40 UNL     1      13.871  -8.163   6.500  1.00  0.00     0.001 A 
HETATM   59  C41 UNL     1      13.366  -7.392   5.462  1.00  0.00     0.014 A 
ENDBRANCH  49  50
ENDBRANCH  48  49
ENDBRANCH  11  48
TORSDOF 13
ENDMDL
MODEL 4
REMARK VINA RESULT: -9.309891905      2.262     11.369
REMARK  13 active torsions:
REMARK  status: ('A' for Active; 'I' for Inactive)
REMARK    1  A    between atoms: C4_5  and  C5_6 
REMARK    2  A    between atoms: C5_6  and  C6_7 
REMARK    3  A    between atoms: C11_12  and  N1_13 
REMARK    4  A    between atoms: N1_13  and  C12_15 
REMARK    5  A    between atoms: C12_15  and  C13_16 
REMARK    6  A    between atoms: C18_21  and  C19_22 
REMARK    7  A    between atoms: C19_22  and  N2_23 
REMARK    8  A    between atoms: N3_29  and  C25_30 
REMARK    9  A    between atoms: C26_31  and  C27_32 
REMARK   10  A    between atoms: C29_36  and  N5_37 
REMARK   11  A    between atoms: N7_47  and  C33_48 
REMARK   12  A    between atoms: C33_48  and  C34_49 
REMARK   13  A    between atoms: C34_49  and  C35_50 
ROOT
HETATM    1  C1  UNL     1      13.653   0.640   2.468  1.00  0.00     0.041 C 
HETATM    2  C2  UNL     1      12.397   1.325   2.143  1.00  0.00     0.155 C 
HETATM    3  C3  UNL     1      11.201   0.502   1.886  1.00  0.00     0.172 C 
HETATM    4  O1  UNL     1      10.541   1.033   0.946  1.00  0.00    -0.293 OA
HETATM    5  C4  UNL     1      10.492  -0.759   2.369  1.00  0.00     0.168 C 
HETATM    6  N3  UNL     1      10.386  -0.725   3.776  1.00  0.00    -0.308 N 
HETATM    7  C31 UNL     1      10.800   0.445   4.626  1.00  0.00     0.316 C 
HETATM    8  O2  UNL     1      10.865   0.164   5.868  1.00  0.00    -0.262 OA
HETATM    9  C32 UNL     1      11.127   1.773   4.273  1.00  0.00     0.312 C 
HETATM   10  O3  UNL     1      10.607   2.710   5.004  1.00  0.00    -0.262 OA
HETATM   11  N7  UNL     1      11.958   2.229   3.203  1.00  0.00    -0.332 N 
ENDROOT
BRANCH   5  12
HETATM   12  C5  UNL     1      11.204  -1.861   1.611  1.00  0.00     0.074 C 
BRANCH  12  13
HETATM   13  C6  UNL     1      10.373  -2.672   0.693  1.00  0.00    -0.029 A 
HETATM   14  C7  UNL     1      10.295  -1.944  -0.558  1.00  0.00     0.009 A 
HETATM   15  C8  UNL     1       9.499  -2.404  -1.556  1.00  0.00     0.001 A 
HETATM   16  C9  UNL     1       8.777  -3.549  -1.368  1.00  0.00     0.002 A 
HETATM   17  C10 UNL     1       8.840  -4.244  -0.200  1.00  0.00     0.030 A 
HETATM   18  C11 UNL     1       9.648  -3.819   0.850  1.00  0.00     0.038 A 
BRANCH  18  19
HETATM   19  N1  UNL     1       9.813  -4.612   1.998  1.00  0.00    -0.365 N 
ATOM     20  H1  UNL     1       9.207  -4.406   2.793  1.00  0.00     0.165 HD
BRANCH  19  21
HETATM   21  C12 UNL     1      10.731  -5.663   2.156  1.00  0.00     0.100 C 
BRANCH  21  22
HETATM   22  C13 UNL     1      12.083  -5.677   2.557  1.00  0.00    -0.013 A 
HETATM   23  C14 UNL     1      13.086  -4.848   2.209  1.00  0.00     0.013 A 
HETATM   24  C15 UNL     1      14.415  -4.959   2.549  1.00  0.00     0.001 A 
HETATM   25  C16 UNL     1      14.798  -5.999   3.318  1.00  0.00     0.001 A 
HETATM   26  C17 UNL     1      13.813  -6.914   3.715  1.00  0.00     0.010 A 
HETATM   27  C18 UNL     1      12.506  -6.777   3.356  1.00  0.00    -0.028 A 
BRANCH  27  28
HETATM   28  C19 UNL     1      11.530  -7.823   3.780  1.00  0.00     0.167 C 
BRANCH  28  29
HETATM   29  N2  UNL     1      12.305  -8.918   4.400  1.00  0.00    -0.362 N 
HETATM   30  C20 UNL     1      12.613  -9.015   5.679  1.00  0.00     0.090 A 
HETATM   31  C21 UNL     1      13.473  -9.987   6.178  1.00  0.00     0.017 A 
HETATM   32  C22 UNL     1      13.998 -10.854   5.283  1.00  0.00     0.003 A 
HETATM   33  C23 UNL     1      13.685 -10.767   3.952  1.00  0.00     0.017 A 
HETATM   34  C24 UNL     1      12.830  -9.795   3.491  1.00  0.00     0.090 A 
ENDBRANCH  28  29
ENDBRANCH  27  28
ENDBRANCH  21  22
ENDBRANCH  19  21
ENDBRANCH  18  19
ENDBRANCH  12  13
ENDBRANCH   5  12
BRANCH   6  35
HETATM   35  C25 UNL     1       9.985  -1.702   4.712  1.00  0.00     0.096 C 
HETATM   36  C26 UNL     1       8.630  -2.154   4.872  1.00  0.00     0.031 C 
BRANCH  36  37
HETATM   37  C27 UNL     1       7.773  -3.060   4.178  1.00  0.00    -0.003 A 
HETATM   38  C28 UNL     1       7.698  -4.389   4.706  1.00  0.00     0.119 A 
HETATM   39  N4  UNL     1       6.853  -5.288   4.239  1.00  0.00    -0.201 N 
HETATM   40  C29 UNL     1       6.004  -5.020   3.244  1.00  0.00     0.675 A 
ATOM     41  H4  UNL     1       6.848  -6.220   4.653  1.00  0.00     0.183 HD
HETATM   42  N6  UNL     1       6.029  -3.776   2.702  1.00  0.00    -0.201 N 
HETATM   43  C30 UNL     1       6.898  -2.833   3.163  1.00  0.00     0.119 A 
ATOM     44  H6  UNL     1       5.391  -3.545   1.941  1.00  0.00     0.183 HD
BRANCH  40  45
HETATM   45  N5  UNL     1       5.193  -5.915   2.812  1.00  0.00    -0.234 N 
ATOM     46  H52 UNL     1       4.692  -5.791   1.932  1.00  0.00     0.174 HD
ATOM     47  H51 UNL     1       5.034  -6.775   3.338  1.00  0.00     0.174 HD
ENDBRANCH  40  45
ENDBRANCH  36  37
ENDBRANCH   6  35
BRANCH  11  48
HETATM   48  C33 UNL     1      12.198   3.623   3.208  1.00  0.00     0.132 C 
BRANCH  48  49
HETATM   49  C34 UNL     1      11.646   4.240   1.939  1.00  0.00     0.061 C 
BRANCH  49  50
HETATM   50  C35 UNL     1      12.591   5.254   1.450  1.00  0.00    -0.029 A 
HETATM   51  C36 UNL     1      13.210   5.175   0.183  1.00  0.00     0.096 A 
HETATM   52  N8  UNL     1      13.995   6.218   0.091  1.00  0.00    -0.365 N 
HETATM   53  C37 UNL     1      13.936   6.968   1.194  1.00  0.00     0.042 A 
ATOM     54  H8  UNL     1      14.577   6.431  -0.720  1.00  0.00     0.165 HD
HETATM   55  C38 UNL     1      14.555   8.163   1.523  1.00  0.00     0.030 A 
HETATM   56  C42 UNL     1      13.052   6.374   2.084  1.00  0.00    -0.002 A 
HETATM   57  C39 UNL     1      14.274   8.736   2.731  1.00  0.00     0.002 A 
HETATM   58  C40 UNL     1      13.404   8.174   3.633  1.00  0.00     0.001 A 
HETATM   59  C41 UNL     1      12.797   6.974   3.287  1.00  0.00     0.014 A 
ENDBRANCH  49  50
ENDBRANCH  48  49
ENDBRANCH  11  48
TORSDOF 13
ENDMDL
MODEL 5
REMARK VINA RESULT: -9.192760507      2.449      4.217
REMARK  13 active torsions:
REMARK  status: ('A' for Active; 'I' for Inactive)
REMARK    1  A    between atoms: C4_5  and  C5_6 
REMARK    2  A    between atoms: C5_6  and  C6_7 
REMARK    3  A    between atoms: C11_12  and  N1_13 
REMARK    4  A    between atoms: N1_13  and  C12_15 
REMARK    5  A    between atoms: C12_15  and  C13_16 
REMARK    6  A    between atoms: C18_21  and  C19_22 
REMARK    7  A    between atoms: C19_22  and  N2_23 
REMARK    8  A    between atoms: N3_29  and  C25_30 
REMARK    9  A    between atoms: C26_31  and  C27_32 
REMARK   10  A    between atoms: C29_36  and  N5_37 
REMARK   11  A    between atoms: N7_47  and  C33_48 
REMARK   12  A    between atoms: C33_48  and  C34_49 
REMARK   13  A    between atoms: C34_49  and  C35_50 
ROOT
HETATM    1  C1  UNL     1      10.620  -3.655  -0.384  1.00  0.00     0.041 C 
HETATM    2  C2  UNL     1      11.161  -3.828   0.969  1.00  0.00     0.155 C 
HETATM    3  C3  UNL     1      11.296  -2.635   1.823  1.00  0.00     0.172 C 
HETATM    4  O1  UNL     1      12.367  -2.735   2.489  1.00  0.00    -0.293 OA
HETATM    5  C4  UNL     1      10.584  -1.333   2.179  1.00  0.00     0.168 C 
HETATM    6  N3  UNL     1       9.228  -1.605   2.464  1.00  0.00    -0.308 N 
HETATM    7  C31 UNL     1       8.639  -2.987   2.526  1.00  0.00     0.316 C 
HETATM    8  O2  UNL     1       7.364  -2.989   2.534  1.00  0.00    -0.262 OA
HETATM    9  C32 UNL     1       9.261  -4.255   2.568  1.00  0.00     0.312 C 
HETATM   10  O3  UNL     1       8.789  -5.102   3.430  1.00  0.00    -0.262 OA
HETATM   11  N7  UNL     1      10.357  -4.734   1.785  1.00  0.00    -0.332 N 
ENDROOT
BRANCH   5  12
HETATM   12  C5  UNL     1      11.034  -0.389   1.082  1.00  0.00     0.074 C 
BRANCH  12  13
HETATM   13  C6  UNL     1      11.391   0.985   1.502  1.00  0.00    -0.029 A 
HETATM   14  C7  UNL     1      12.327   0.860   2.602  1.00  0.00     0.009 A 
HETATM   15  C8  UNL     1      12.743   1.970   3.261  1.00  0.00     0.001 A 
HETATM   16  C9  UNL     1      12.271   3.195   2.882  1.00  0.00     0.002 A 
HETATM   17  C10 UNL     1      11.393   3.330   1.851  1.00  0.00     0.030 A 
HETATM   18  C11 UNL     1      10.944   2.223   1.137  1.00  0.00     0.038 A 
BRANCH  18  19
HETATM   19  N1  UNL     1      10.146   2.382  -0.009  1.00  0.00    -0.365 N 
ATOM     20  H1  UNL     1       9.243   1.908  -0.013  1.00  0.00     0.165 HD
BRANCH  19  21
HETATM   21  C12 UNL     1      10.475   3.131  -1.151  1.00  0.00     0.100 C 
BRANCH  21  22
HETATM   22  C13 UNL     1      10.781   4.496  -1.324  1.00  0.00    -0.013 A 
HETATM   23  C14 UNL     1      10.007   5.578  -1.112  1.00  0.00     0.013 A 
HETATM   24  C15 UNL     1      10.317   6.891  -1.388  1.00  0.00     0.001 A 
HETATM   25  C16 UNL     1      11.520   7.169  -1.929  1.00  0.00     0.001 A 
HETATM   26  C17 UNL     1      12.382   6.094  -2.189  1.00  0.00     0.010 A 
HETATM   27  C18 UNL     1      12.041   4.805  -1.908  1.00  0.00    -0.028 A 
BRANCH  27  28
HETATM   28  C19 UNL     1      12.997   3.715  -2.263  1.00  0.00     0.167 C 
BRANCH  28  29
HETATM   29  N2  UNL     1      13.798   3.426  -1.054  1.00  0.00    -0.362 N 
HETATM   30  C20 UNL     1      14.354   4.326  -0.266  1.00  0.00     0.090 A 
HETATM   31  C21 UNL     1      15.221   3.992   0.768  1.00  0.00     0.017 A 
HETATM   32  C22 UNL     1      15.484   2.677   0.943  1.00  0.00     0.003 A 
HETATM   33  C23 UNL     1      14.912   1.731   0.134  1.00  0.00     0.017 A 
HETATM   34  C24 UNL     1      14.056   2.094  -0.878  1.00  0.00     0.090 A 
ENDBRANCH  28  29
ENDBRANCH  27  28
ENDBRANCH  21  22
ENDBRANCH  19  21
ENDBRANCH  18  19
ENDBRANCH  12  13
ENDBRANCH   5  12
BRANCH   6  35
HETATM   35  C25 UNL     1       8.123  -0.753   2.668  1.00  0.00     0.096 C 
HETATM   36  C26 UNL     1       8.006   0.163   3.770  1.00  0.00     0.031 C 
BRANCH  36  37
HETATM   37  C27 UNL     1       8.532   1.453   4.079  1.00  0.00    -0.003 A 
HETATM   38  C28 UNL     1       7.943   2.559   3.387  1.00  0.00     0.119 A 
HETATM   39  N4  UNL     1       8.246   3.812   3.668  1.00  0.00    -0.201 N 
HETATM   40  C29 UNL     1       9.122   4.136   4.621  1.00  0.00     0.675 A 
ATOM     41  H4  UNL     1       7.797   4.558   3.138  1.00  0.00     0.183 HD
HETATM   42  N6  UNL     1       9.716   3.130   5.312  1.00  0.00    -0.201 N 
HETATM   43  C30 UNL     1       9.422   1.827   5.035  1.00  0.00     0.119 A 
ATOM     44  H6  UNL     1      10.388   3.350   6.046  1.00  0.00     0.183 HD
BRANCH  40  45
HETATM   45  N5  UNL     1       9.397   5.364   4.873  1.00  0.00    -0.234 N 
ATOM     46  H52 UNL     1       8.682   6.088   4.806  1.00  0.00     0.174 HD
ATOM     47  H51 UNL     1      10.339   5.643   5.149  1.00  0.00     0.174 HD
ENDBRANCH  40  45
ENDBRANCH  36  37
ENDBRANCH   6  35
BRANCH  11  48
HETATM   48  C33 UNL     1      10.650  -6.105   1.973  1.00  0.00     0.132 C 
BRANCH  48  49
HETATM   49  C34 UNL     1      11.883  -6.247   2.842  1.00  0.00     0.061 C 
BRANCH  49  50
HETATM   50  C35 UNL     1      11.859  -7.564   3.495  1.00  0.00    -0.029 A 
HETATM   51  C36 UNL     1      11.092  -8.646   3.007  1.00  0.00     0.096 A 
HETATM   52  N8  UNL     1      11.289  -9.640   3.837  1.00  0.00    -0.365 N 
HETATM   53  C37 UNL     1      12.119  -9.291   4.823  1.00  0.00     0.042 A 
ATOM     54  H8  UNL     1      10.862 -10.562   3.742  1.00  0.00     0.165 HD
HETATM   55  C38 UNL     1      12.633 -10.016   5.886  1.00  0.00     0.030 A 
HETATM   56  C42 UNL     1      12.496  -7.969   4.635  1.00  0.00    -0.002 A 
HETATM   57  C39 UNL     1      13.511  -9.402   6.734  1.00  0.00     0.002 A 
HETATM   58  C40 UNL     1      13.903  -8.095   6.576  1.00  0.00     0.001 A 
HETATM   59  C41 UNL     1      13.374  -7.385   5.506  1.00  0.00     0.014 A 
ENDBRANCH  49  50
ENDBRANCH  48  49
ENDBRANCH  11  48
TORSDOF 13
ENDMDL
