MODEL 1
REMARK VINA RESULT: -6.348160641      0.000      0.000
REMARK  11 active torsions:
REMARK  status: ('A' for Active; 'I' for Inactive)
REMARK    1  A    between atoms: C2_2  and  C4_4 
REMARK    2  A    between atoms: C4_4  and  C5_5 
REMARK    3  A    between atoms: C5_5  and  N1_7 
REMARK    4  A    between atoms: N1_7  and  C7_9 
REMARK    5  A    between atoms: C8_11  and  C9_12 
REMARK    6  A    between atoms: C9_12  and  C10_14 
REMARK    7  A    between atoms: C10_14  and  O3_15 
REMARK    8  A    between atoms: C10_14  and  C11_17 
REMARK    9  A    between atoms: C11_17  and  O4_18 
REMARK   10  A    between atoms: C12_20  and  O5_21 
REMARK   11  A    between atoms: C13_23  and  O6_24 
ROOT
HETATM    1  C7  UNL     1      38.936  23.476  41.826  1.00  0.00     0.224 C 
HETATM    2  O1  UNL     1      37.515  23.451  41.741  1.00  0.00    -0.351 OA
HETATM    3  C8  UNL     1      36.993  23.026  42.967  1.00  0.00     0.227 C 
HETATM    4  C12 UNL     1      37.230  21.556  43.136  1.00  0.00     0.183 C 
HETATM    5  C13 UNL     1      38.237  21.092  42.124  1.00  0.00     0.157 C 
HETATM    6  C14 UNL     1      39.406  22.072  42.034  1.00  0.00     0.061 C 
HETATM    7  C15 UNL     1      40.250  21.827  43.237  1.00  0.00     0.017 C 
ENDROOT
BRANCH   1   8
HETATM    8  N1  UNL     1      39.378  24.095  40.654  1.00  0.00    -0.392 N 
ATOM      9  H1  UNL     1      39.027  23.760  39.757  1.00  0.00     0.156 HD
BRANCH   8  10
HETATM   10  C5  UNL     1      40.292  25.167  40.673  1.00  0.00     0.075 C 
HETATM   11  C6  UNL     1      41.232  25.239  41.823  1.00  0.00     0.032 C 
BRANCH  10  12
HETATM   12  C4  UNL     1      39.423  26.443  40.767  1.00  0.00     0.028 C 
BRANCH  12  13
HETATM   13  C2  UNL     1      39.657  27.323  39.564  1.00  0.00    -0.021 C 
HETATM   14  C1  UNL     1      38.616  26.959  38.527  1.00  0.00     0.009 C 
HETATM   15  C3  UNL     1      39.392  28.781  39.945  1.00  0.00     0.009 C 
ENDBRANCH  12  13
ENDBRANCH  10  12
ENDBRANCH   8  10
ENDBRANCH   1   8
BRANCH   3  16
HETATM   16  C9  UNL     1      35.547  23.307  42.952  1.00  0.00     0.188 C 
HETATM   17  O2  UNL     1      34.819  22.662  43.707  1.00  0.00    -0.292 OA
BRANCH  16  18
HETATM   18  C10 UNL     1      34.908  24.325  42.070  1.00  0.00     0.213 C 
BRANCH  18  19
HETATM   19  O3  UNL     1      33.937  25.079  42.662  1.00  0.00    -0.386 OA
ATOM     20  H3  UNL     1      33.538  24.692  43.432  1.00  0.00     0.210 HD
ENDBRANCH  18  19
BRANCH  18  21
HETATM   21  C11 UNL     1      34.420  23.656  40.808  1.00  0.00     0.203 C 
BRANCH  21  22
HETATM   22  O4  UNL     1      34.159  22.301  41.012  1.00  0.00    -0.398 OA
ATOM     23  H4  UNL     1      33.303  22.055  40.682  1.00  0.00     0.209 HD
ENDBRANCH  21  22
ENDBRANCH  18  21
ENDBRANCH  16  18
ENDBRANCH   3  16
BRANCH   5  24
HETATM   24  O6  UNL     1      37.605  20.916  40.905  1.00  0.00    -0.392 OA
ATOM     25  H6  UNL     1      38.250  20.663  40.254  1.00  0.00     0.210 HD
ENDBRANCH   5  24
BRANCH   4  26
HETATM   26  O5  UNL     1      37.638  21.318  44.437  1.00  0.00    -0.390 OA
ATOM     27  H5  UNL     1      37.252  20.503  44.733  1.00  0.00     0.210 HD
ENDBRANCH   4  26
TORSDOF 11
ENDMDL
MODEL 2
REMARK VINA RESULT: -6.178525373      1.220      1.758
REMARK  11 active torsions:
REMARK  status: ('A' for Active; 'I' for Inactive)
REMARK    1  A    between atoms: C2_2  and  C4_4 
REMARK    2  A    between atoms: C4_4  and  C5_5 
REMARK    3  A    between atoms: C5_5  and  N1_7 
REMARK    4  A    between atoms: N1_7  and  C7_9 
REMARK    5  A    between atoms: C8_11  and  C9_12 
REMARK    6  A    between atoms: C9_12  and  C10_14 
REMARK    7  A    between atoms: C10_14  and  O3_15 
REMARK    8  A    between atoms: C10_14  and  C11_17 
REMARK    9  A    between atoms: C11_17  and  O4_18 
REMARK   10  A    between atoms: C12_20  and  O5_21 
REMARK   11  A    between atoms: C13_23  and  O6_24 
ROOT
HETATM    1  C7  UNL     1      39.940  23.498  42.986  1.00  0.00     0.224 C 
HETATM    2  O1  UNL     1      38.811  23.480  42.119  1.00  0.00    -0.351 OA
HETATM    3  C8  UNL     1      37.719  22.939  42.805  1.00  0.00     0.227 C 
HETATM    4  C12 UNL     1      37.901  21.459  42.961  1.00  0.00     0.183 C 
HETATM    5  C13 UNL     1      39.325  21.096  42.653  1.00  0.00     0.157 C 
HETATM    6  C14 UNL     1      40.290  22.082  43.309  1.00  0.00     0.061 C 
HETATM    7  C15 UNL     1      40.334  21.723  44.755  1.00  0.00     0.017 C 
ENDROOT
BRANCH   1   8
HETATM    8  N1  UNL     1      40.925  24.226  42.314  1.00  0.00    -0.392 N 
ATOM      9  H1  UNL     1      41.745  24.542  42.832  1.00  0.00     0.156 HD
BRANCH   8  10
HETATM   10  C5  UNL     1      40.821  24.539  40.943  1.00  0.00     0.075 C 
HETATM   11  C6  UNL     1      41.906  24.051  40.050  1.00  0.00     0.032 C 
BRANCH  10  12
HETATM   12  C4  UNL     1      40.887  26.082  40.871  1.00  0.00     0.028 C 
BRANCH  12  13
HETATM   13  C2  UNL     1      39.495  26.660  40.791  1.00  0.00    -0.021 C 
HETATM   14  C1  UNL     1      39.632  28.121  40.420  1.00  0.00     0.009 C 
HETATM   15  C3  UNL     1      38.737  25.995  39.640  1.00  0.00     0.009 C 
ENDBRANCH  12  13
ENDBRANCH  10  12
ENDBRANCH   8  10
ENDBRANCH   1   8
BRANCH   3  16
HETATM   16  C9  UNL     1      36.513  23.217  42.006  1.00  0.00     0.188 C 
HETATM   17  O2  UNL     1      36.617  23.227  40.779  1.00  0.00    -0.292 OA
BRANCH  16  18
HETATM   18  C10 UNL     1      35.172  23.495  42.595  1.00  0.00     0.213 C 
BRANCH  18  19
HETATM   19  O3  UNL     1      34.733  22.573  43.499  1.00  0.00    -0.386 OA
ATOM     20  H3  UNL     1      35.059  22.688  44.384  1.00  0.00     0.210 HD
ENDBRANCH  18  19
BRANCH  18  21
HETATM   21  C11 UNL     1      34.177  23.721  41.483  1.00  0.00     0.203 C 
BRANCH  21  22
HETATM   22  O4  UNL     1      33.845  22.528  40.839  1.00  0.00    -0.398 OA
ATOM     23  H4  UNL     1      32.993  22.580  40.422  1.00  0.00     0.209 HD
ENDBRANCH  21  22
ENDBRANCH  18  21
ENDBRANCH  16  18
ENDBRANCH   3  16
BRANCH   5  24
HETATM   24  O6  UNL     1      39.489  21.036  41.280  1.00  0.00    -0.392 OA
ATOM     25  H6  UNL     1      40.393  21.239  41.066  1.00  0.00     0.210 HD
ENDBRANCH   5  24
BRANCH   4  26
HETATM   26  O5  UNL     1      37.528  21.099  44.245  1.00  0.00    -0.390 OA
ATOM     27  H5  UNL     1      37.593  20.155  44.327  1.00  0.00     0.210 HD
ENDBRANCH   4  26
TORSDOF 11
ENDMDL
MODEL 3
REMARK VINA RESULT: -6.172909775      3.307      6.486
REMARK  11 active torsions:
REMARK  status: ('A' for Active; 'I' for Inactive)
REMARK    1  A    between atoms: C2_2  and  C4_4 
REMARK    2  A    between atoms: C4_4  and  C5_5 
REMARK    3  A    between atoms: C5_5  and  N1_7 
REMARK    4  A    between atoms: N1_7  and  C7_9 
REMARK    5  A    between atoms: C8_11  and  C9_12 
REMARK    6  A    between atoms: C9_12  and  C10_14 
REMARK    7  A    between atoms: C10_14  and  O3_15 
REMARK    8  A    between atoms: C10_14  and  C11_17 
REMARK    9  A    between atoms: C11_17  and  O4_18 
REMARK   10  A    between atoms: C12_20  and  O5_21 
REMARK   11  A    between atoms: C13_23  and  O6_24 
ROOT
HETATM    1  C7  UNL     1      38.995  24.530  40.552  1.00  0.00     0.224 C 
HETATM    2  O1  UNL     1      39.329  25.913  40.578  1.00  0.00    -0.351 OA
HETATM    3  C8  UNL     1      40.296  26.166  39.599  1.00  0.00     0.227 C 
HETATM    4  C12 UNL     1      41.618  25.611  40.037  1.00  0.00     0.183 C 
HETATM    5  C13 UNL     1      41.409  24.676  41.193  1.00  0.00     0.157 C 
HETATM    6  C14 UNL     1      40.214  23.758  40.939  1.00  0.00     0.061 C 
HETATM    7  C15 UNL     1      40.681  22.726  39.969  1.00  0.00     0.017 C 
ENDROOT
BRANCH   1   8
HETATM    8  N1  UNL     1      37.894  24.388  41.401  1.00  0.00    -0.392 N 
ATOM      9  H1  UNL     1      37.589  25.190  41.952  1.00  0.00     0.156 HD
BRANCH   8  10
HETATM   10  C5  UNL     1      37.193  23.171  41.521  1.00  0.00     0.075 C 
HETATM   11  C6  UNL     1      35.880  23.071  40.830  1.00  0.00     0.032 C 
BRANCH  10  12
HETATM   12  C4  UNL     1      36.880  23.027  43.029  1.00  0.00     0.028 C 
BRANCH  12  13
HETATM   13  C2  UNL     1      37.727  21.936  43.636  1.00  0.00    -0.021 C 
HETATM   14  C1  UNL     1      38.241  21.077  42.501  1.00  0.00     0.009 C 
HETATM   15  C3  UNL     1      38.959  22.560  44.294  1.00  0.00     0.009 C 
ENDBRANCH  12  13
ENDBRANCH  10  12
ENDBRANCH   8  10
ENDBRANCH   1   8
BRANCH   3  16
HETATM   16  C9  UNL     1      40.390  27.628  39.439  1.00  0.00     0.188 C 
HETATM   17  O2  UNL     1      39.878  28.140  38.443  1.00  0.00    -0.292 OA
BRANCH  16  18
HETATM   18  C10 UNL     1      41.075  28.527  40.411  1.00  0.00     0.213 C 
BRANCH  18  19
HETATM   19  O3  UNL     1      40.649  28.417  41.703  1.00  0.00    -0.386 OA
ATOM     20  H3  UNL     1      41.256  28.741  42.358  1.00  0.00     0.210 HD
ENDBRANCH  18  19
BRANCH  18  21
HETATM   21  C11 UNL     1      41.007  29.948  39.908  1.00  0.00     0.203 C 
BRANCH  21  22
HETATM   22  O4  UNL     1      41.799  30.131  38.774  1.00  0.00    -0.398 OA
ATOM     23  H4  UNL     1      42.712  30.265  39.000  1.00  0.00     0.209 HD
ENDBRANCH  21  22
ENDBRANCH  18  21
ENDBRANCH  16  18
ENDBRANCH   3  16
BRANCH   5  24
HETATM   24  O6  UNL     1      41.262  25.417  42.354  1.00  0.00    -0.392 OA
ATOM     25  H6  UNL     1      40.499  25.976  42.270  1.00  0.00     0.210 HD
ENDBRANCH   5  24
BRANCH   4  26
HETATM   26  O5  UNL     1      42.219  24.990  38.956  1.00  0.00    -0.390 OA
ATOM     27  H5  UNL     1      41.819  24.138  38.833  1.00  0.00     0.210 HD
ENDBRANCH   4  26
TORSDOF 11
ENDMDL
MODEL 4
REMARK VINA RESULT: -6.157135131      3.778      6.834
REMARK  11 active torsions:
REMARK  status: ('A' for Active; 'I' for Inactive)
REMARK    1  A    between atoms: C2_2  and  C4_4 
REMARK    2  A    between atoms: C4_4  and  C5_5 
REMARK    3  A    between atoms: C5_5  and  N1_7 
REMARK    4  A    between atoms: N1_7  and  C7_9 
REMARK    5  A    between atoms: C8_11  and  C9_12 
REMARK    6  A    between atoms: C9_12  and  C10_14 
REMARK    7  A    between atoms: C10_14  and  O3_15 
REMARK    8  A    between atoms: C10_14  and  C11_17 
REMARK    9  A    between atoms: C11_17  and  O4_18 
REMARK   10  A    between atoms: C12_20  and  O5_21 
REMARK   11  A    between atoms: C13_23  and  O6_24 
ROOT
HETATM    1  C7  UNL     1      39.747  24.855  40.563  1.00  0.00     0.224 C 
HETATM    2  O1  UNL     1      40.831  25.733  40.280  1.00  0.00    -0.351 OA
HETATM    3  C8  UNL     1      40.321  26.984  39.916  1.00  0.00     0.227 C 
HETATM    4  C12 UNL     1      39.731  26.909  38.540  1.00  0.00     0.183 C 
HETATM    5  C13 UNL     1      39.563  25.470  38.145  1.00  0.00     0.157 C 
HETATM    6  C14 UNL     1      38.976  24.657  39.298  1.00  0.00     0.061 C 
HETATM    7  C15 UNL     1      37.525  24.990  39.347  1.00  0.00     0.017 C 
ENDROOT
BRANCH   1   8
HETATM    8  N1  UNL     1      40.321  23.704  41.108  1.00  0.00    -0.392 N 
ATOM      9  H1  UNL     1      40.510  22.909  40.497  1.00  0.00     0.156 HD
BRANCH   8  10
HETATM   10  C5  UNL     1      40.646  23.605  42.476  1.00  0.00     0.075 C 
HETATM   11  C6  UNL     1      42.081  23.419  42.823  1.00  0.00     0.032 C 
BRANCH  10  12
HETATM   12  C4  UNL     1      39.931  22.327  42.975  1.00  0.00     0.028 C 
BRANCH  12  13
HETATM   13  C2  UNL     1      38.899  22.681  44.018  1.00  0.00    -0.021 C 
HETATM   14  C1  UNL     1      37.639  21.910  43.689  1.00  0.00     0.009 C 
HETATM   15  C3  UNL     1      39.367  22.174  45.384  1.00  0.00     0.009 C 
ENDBRANCH  12  13
ENDBRANCH  10  12
ENDBRANCH   8  10
ENDBRANCH   1   8
BRANCH   3  16
HETATM   16  C9  UNL     1      41.442  27.939  39.935  1.00  0.00     0.188 C 
HETATM   17  O2  UNL     1      42.513  27.592  39.435  1.00  0.00    -0.292 OA
BRANCH  16  18
HETATM   18  C10 UNL     1      41.360  29.304  40.529  1.00  0.00     0.213 C 
BRANCH  18  19
HETATM   19  O3  UNL     1      40.530  29.420  41.606  1.00  0.00    -0.386 OA
ATOM     20  H3  UNL     1      40.903  29.862  42.359  1.00  0.00     0.210 HD
ENDBRANCH  18  19
BRANCH  18  21
HETATM   21  C11 UNL     1      41.028  30.300  39.445  1.00  0.00     0.203 C 
BRANCH  21  22
HETATM   22  O4  UNL     1      41.781  30.077  38.292  1.00  0.00    -0.398 OA
ATOM     23  H4  UNL     1      42.299  30.839  38.057  1.00  0.00     0.209 HD
ENDBRANCH  21  22
ENDBRANCH  18  21
ENDBRANCH  16  18
ENDBRANCH   3  16
BRANCH   5  24
HETATM   24  O6  UNL     1      40.782  24.973  37.719  1.00  0.00    -0.392 OA
ATOM     25  H6  UNL     1      40.642  24.141  37.281  1.00  0.00     0.210 HD
ENDBRANCH   5  24
BRANCH   4  26
HETATM   26  O5  UNL     1      38.534  27.605  38.532  1.00  0.00    -0.390 OA
ATOM     27  H5  UNL     1      38.344  27.873  37.642  1.00  0.00     0.210 HD
ENDBRANCH   4  26
TORSDOF 11
ENDMDL
MODEL 5
REMARK VINA RESULT: -6.144276550      2.944      5.520
REMARK  11 active torsions:
REMARK  status: ('A' for Active; 'I' for Inactive)
REMARK    1  A    between atoms: C2_2  and  C4_4 
REMARK    2  A    between atoms: C4_4  and  C5_5 
REMARK    3  A    between atoms: C5_5  and  N1_7 
REMARK    4  A    between atoms: N1_7  and  C7_9 
REMARK    5  A    between atoms: C8_11  and  C9_12 
REMARK    6  A    between atoms: C9_12  and  C10_14 
REMARK    7  A    between atoms: C10_14  and  O3_15 
REMARK    8  A    between atoms: C10_14  and  C11_17 
REMARK    9  A    between atoms: C11_17  and  O4_18 
REMARK   10  A    between atoms: C12_20  and  O5_21 
REMARK   11  A    between atoms: C13_23  and  O6_24 
ROOT
HETATM    1  C7  UNL     1      38.175  20.582  41.202  1.00  0.00     0.224 C 
HETATM    2  O1  UNL     1      37.087  21.434  41.543  1.00  0.00    -0.351 OA
HETATM    3  C8  UNL     1      37.538  22.758  41.576  1.00  0.00     0.227 C 
HETATM    4  C12 UNL     1      38.379  22.976  42.797  1.00  0.00     0.183 C 
HETATM    5  C13 UNL     1      38.752  21.649  43.391  1.00  0.00     0.157 C 
HETATM    6  C14 UNL     1      39.184  20.669  42.301  1.00  0.00     0.061 C 
HETATM    7  C15 UNL     1      40.564  21.069  41.905  1.00  0.00     0.017 C 
ENDROOT
BRANCH   1   8
HETATM    8  N1  UNL     1      37.619  19.318  40.990  1.00  0.00    -0.392 N 
ATOM      9  H1  UNL     1      36.805  19.039  41.538  1.00  0.00     0.156 HD
BRANCH   8  10
HETATM   10  C5  UNL     1      38.147  18.417  40.043  1.00  0.00     0.075 C 
HETATM   11  C6  UNL     1      37.186  17.777  39.105  1.00  0.00     0.032 C 
BRANCH  10  12
HETATM   12  C4  UNL     1      38.749  17.260  40.873  1.00  0.00     0.028 C 
BRANCH  12  13
HETATM   13  C2  UNL     1      40.197  17.050  40.501  1.00  0.00    -0.021 C 
HETATM   14  C1  UNL     1      40.263  15.831  39.606  1.00  0.00     0.009 C 
HETATM   15  C3  UNL     1      40.677  18.231  39.654  1.00  0.00     0.009 C 
ENDBRANCH  12  13
ENDBRANCH  10  12
ENDBRANCH   8  10
ENDBRANCH   1   8
BRANCH   3  16
HETATM   16  C9  UNL     1      36.349  23.627  41.619  1.00  0.00     0.188 C 
HETATM   17  O2  UNL     1      36.133  24.368  40.659  1.00  0.00    -0.292 OA
BRANCH  16  18
HETATM   18  C10 UNL     1      35.392  23.669  42.761  1.00  0.00     0.213 C 
BRANCH  18  19
HETATM   19  O3  UNL     1      35.052  22.453  43.278  1.00  0.00    -0.386 OA
ATOM     20  H3  UNL     1      35.497  21.709  42.890  1.00  0.00     0.210 HD
ENDBRANCH  18  19
BRANCH  18  21
HETATM   21  C11 UNL     1      34.181  24.478  42.367  1.00  0.00     0.203 C 
BRANCH  21  22
HETATM   22  O4  UNL     1      33.369  23.786  41.467  1.00  0.00    -0.398 OA
ATOM     23  H4  UNL     1      33.684  23.871  40.574  1.00  0.00     0.209 HD
ENDBRANCH  21  22
ENDBRANCH  18  21
ENDBRANCH  16  18
ENDBRANCH   3  16
BRANCH   5  24
HETATM   24  O6  UNL     1      37.685  21.170  44.133  1.00  0.00    -0.392 OA
ATOM     25  H6  UNL     1      37.957  20.387  44.597  1.00  0.00     0.210 HD
ENDBRANCH   5  24
BRANCH   4  26
HETATM   26  O5  UNL     1      39.486  23.728  42.444  1.00  0.00    -0.390 OA
ATOM     27  H5  UNL     1      39.271  24.648  42.535  1.00  0.00     0.210 HD
ENDBRANCH   4  26
TORSDOF 11
ENDMDL
