MODEL 1
REMARK VINA RESULT: -6.372285970      0.000      0.000
REMARK  11 active torsions:
REMARK  status: ('A' for Active; 'I' for Inactive)
REMARK    1  A    between atoms: C2_2  and  O1_3 
REMARK    2  A    between atoms: O1_3  and  C3_4 
REMARK       I    between atoms: C3_4  and  N1_6 
REMARK    3  A    between atoms: N1_6  and  C4_8 
REMARK    4  A    between atoms: C4_8  and  O3_9 
REMARK    5  A    between atoms: C4_8  and  C5_11 
REMARK    6  A    between atoms: C5_11  and  C6_12 
REMARK    7  A    between atoms: C5_11  and  N2_16 
REMARK    8  A    between atoms: C6_12  and  C7_13 
REMARK    9  A    between atoms: N2_16  and  C10_18 
REMARK   10  A    between atoms: C10_18  and  C11_19 
REMARK       I    between atoms: C11_19  and  N3_21 
REMARK       I    between atoms: N3_21  and  C12_23 
REMARK   11  A    between atoms: C12_23  and  O6_25 
ROOT
HETATM    1  C5  UNL     1      37.782  21.583  42.873  1.00  0.00     0.130 C 
ENDROOT
BRANCH   1   2
HETATM    2  C4  UNL     1      38.030  20.953  41.565  1.00  0.00     0.244 C 
BRANCH   2   3
HETATM    3  N1  UNL     1      37.940  19.511  41.608  1.00  0.00    -0.308 N 
HETATM    4  C3  UNL     1      38.055  18.690  40.470  1.00  0.00     0.362 C 
HETATM    5  O2  UNL     1      38.244  19.228  39.358  1.00  0.00    -0.238 OA
ATOM      6  H1  UNL     1      37.786  19.064  42.511  1.00  0.00     0.167 HD
BRANCH   4   7
HETATM    7  O1  UNL     1      37.962  17.333  40.586  1.00  0.00    -0.304 OA
BRANCH   7   8
HETATM    8  C2  UNL     1      38.878  16.443  39.983  1.00  0.00     0.176 C 
HETATM    9  C1  UNL     1      40.261  16.610  40.537  1.00  0.00     0.034 C 
ENDBRANCH   7   8
ENDBRANCH   4   7
ENDBRANCH   2   3
BRANCH   2  10
HETATM   10  O3  UNL     1      37.424  21.543  40.477  1.00  0.00    -0.375 OA
ATOM     11  H3  UNL     1      36.930  22.332  40.670  1.00  0.00     0.212 HD
ENDBRANCH   2  10
ENDBRANCH   1   2
BRANCH   1  12
HETATM   12  C6  UNL     1      38.947  22.538  43.210  1.00  0.00     0.033 C 
BRANCH  12  13
HETATM   13  C7  UNL     1      39.877  21.872  44.215  1.00  0.00    -0.021 C 
HETATM   14  C8  UNL     1      39.489  22.227  45.616  1.00  0.00     0.009 C 
HETATM   15  C9  UNL     1      41.283  22.244  43.875  1.00  0.00     0.009 C 
ENDBRANCH  12  13
ENDBRANCH   1  12
BRANCH   1  16
HETATM   16  N2  UNL     1      36.611  22.236  43.180  1.00  0.00    -0.386 N 
ATOM     17  H2  UNL     1      35.908  21.701  43.688  1.00  0.00     0.159 HD
BRANCH  16  18
HETATM   18  C10 UNL     1      36.290  23.543  42.870  1.00  0.00     0.158 C 
BRANCH  18  19
HETATM   19  C11 UNL     1      34.958  23.575  42.149  1.00  0.00     0.264 C 
HETATM   20  O4  UNL     1      34.002  24.262  42.604  1.00  0.00    -0.267 OA
HETATM   21  N3  UNL     1      34.835  22.813  40.964  1.00  0.00    -0.268 N 
HETATM   22  C12 UNL     1      33.619  22.773  40.208  1.00  0.00     0.367 C 
ATOM     23  H3  UNL     1      35.637  22.274  40.637  1.00  0.00     0.174 HD
HETATM   24  O5  UNL     1      32.604  23.421  40.570  1.00  0.00    -0.238 OA
BRANCH  22  25
HETATM   25  O6  UNL     1      33.531  22.016  39.050  1.00  0.00    -0.309 OA
HETATM   26  C13 UNL     1      34.426  20.926  38.809  1.00  0.00     0.215 C 
ENDBRANCH  22  25
ENDBRANCH  18  19
ENDBRANCH  16  18
ENDBRANCH   1  16
TORSDOF 11
ENDMDL
MODEL 2
REMARK VINA RESULT: -6.081591421      3.553      6.100
REMARK  11 active torsions:
REMARK  status: ('A' for Active; 'I' for Inactive)
REMARK    1  A    between atoms: C2_2  and  O1_3 
REMARK    2  A    between atoms: O1_3  and  C3_4 
REMARK       I    between atoms: C3_4  and  N1_6 
REMARK    3  A    between atoms: N1_6  and  C4_8 
REMARK    4  A    between atoms: C4_8  and  O3_9 
REMARK    5  A    between atoms: C4_8  and  C5_11 
REMARK    6  A    between atoms: C5_11  and  C6_12 
REMARK    7  A    between atoms: C5_11  and  N2_16 
REMARK    8  A    between atoms: C6_12  and  C7_13 
REMARK    9  A    between atoms: N2_16  and  C10_18 
REMARK   10  A    between atoms: C10_18  and  C11_19 
REMARK       I    between atoms: C11_19  and  N3_21 
REMARK       I    between atoms: N3_21  and  C12_23 
REMARK   11  A    between atoms: C12_23  and  O6_25 
ROOT
HETATM    1  C5  UNL     1      36.558  23.914  42.697  1.00  0.00     0.130 C 
ENDROOT
BRANCH   1   2
HETATM    2  C4  UNL     1      35.124  23.767  43.000  1.00  0.00     0.244 C 
BRANCH   2   3
HETATM    3  N1  UNL     1      34.272  24.360  41.994  1.00  0.00    -0.308 N 
HETATM    4  C3  UNL     1      33.734  23.642  40.909  1.00  0.00     0.362 C 
HETATM    5  O2  UNL     1      34.003  22.427  40.800  1.00  0.00    -0.238 OA
ATOM      6  H1  UNL     1      34.048  25.351  42.075  1.00  0.00     0.167 HD
BRANCH   4   7
HETATM    7  O1  UNL     1      32.934  24.268  39.996  1.00  0.00    -0.304 OA
BRANCH   7   8
HETATM    8  C2  UNL     1      32.941  23.951  38.620  1.00  0.00     0.176 C 
HETATM    9  C1  UNL     1      33.314  25.135  37.779  1.00  0.00     0.034 C 
ENDBRANCH   7   8
ENDBRANCH   4   7
ENDBRANCH   2   3
BRANCH   2  10
HETATM   10  O3  UNL     1      34.718  22.530  43.454  1.00  0.00    -0.375 OA
ATOM     11  H3  UNL     1      35.322  21.818  43.276  1.00  0.00     0.212 HD
ENDBRANCH   2  10
ENDBRANCH   1   2
BRANCH   1  12
HETATM   12  C6  UNL     1      37.250  22.539  42.816  1.00  0.00     0.033 C 
BRANCH  12  13
HETATM   13  C7  UNL     1      38.374  22.622  43.842  1.00  0.00    -0.021 C 
HETATM   14  C8  UNL     1      39.681  22.917  43.176  1.00  0.00     0.009 C 
HETATM   15  C9  UNL     1      38.382  21.356  44.634  1.00  0.00     0.009 C 
ENDBRANCH  12  13
ENDBRANCH   1  12
BRANCH   1  16
HETATM   16  N2  UNL     1      37.024  24.512  41.550  1.00  0.00    -0.386 N 
ATOM     17  H2  UNL     1      37.127  25.526  41.572  1.00  0.00     0.159 HD
BRANCH  16  18
HETATM   18  C10 UNL     1      37.367  23.880  40.370  1.00  0.00     0.158 C 
BRANCH  18  19
HETATM   19  C11 UNL     1      37.572  24.918  39.286  1.00  0.00     0.264 C 
HETATM   20  O4  UNL     1      36.984  24.804  38.175  1.00  0.00    -0.267 OA
HETATM   21  N3  UNL     1      38.436  26.002  39.569  1.00  0.00    -0.268 N 
HETATM   22  C12 UNL     1      38.697  27.035  38.613  1.00  0.00     0.367 C 
ATOM     23  H3  UNL     1      38.886  26.049  40.483  1.00  0.00     0.174 HD
HETATM   24  O5  UNL     1      38.164  27.021  37.474  1.00  0.00    -0.238 OA
BRANCH  22  25
HETATM   25  O6  UNL     1      39.549  28.084  38.921  1.00  0.00    -0.309 OA
HETATM   26  C13 UNL     1      39.688  28.554  40.266  1.00  0.00     0.215 C 
ENDBRANCH  22  25
ENDBRANCH  18  19
ENDBRANCH  16  18
ENDBRANCH   1  16
TORSDOF 11
ENDMDL
MODEL 3
REMARK VINA RESULT: -6.051954922      0.814      1.065
REMARK  11 active torsions:
REMARK  status: ('A' for Active; 'I' for Inactive)
REMARK    1  A    between atoms: C2_2  and  O1_3 
REMARK    2  A    between atoms: O1_3  and  C3_4 
REMARK       I    between atoms: C3_4  and  N1_6 
REMARK    3  A    between atoms: N1_6  and  C4_8 
REMARK    4  A    between atoms: C4_8  and  O3_9 
REMARK    5  A    between atoms: C4_8  and  C5_11 
REMARK    6  A    between atoms: C5_11  and  C6_12 
REMARK    7  A    between atoms: C5_11  and  N2_16 
REMARK    8  A    between atoms: C6_12  and  C7_13 
REMARK    9  A    between atoms: N2_16  and  C10_18 
REMARK   10  A    between atoms: C10_18  and  C11_19 
REMARK       I    between atoms: C11_19  and  N3_21 
REMARK       I    between atoms: N3_21  and  C12_23 
REMARK   11  A    between atoms: C12_23  and  O6_25 
ROOT
HETATM    1  C5  UNL     1      37.876  21.434  42.788  1.00  0.00     0.130 C 
ENDROOT
BRANCH   1   2
HETATM    2  C4  UNL     1      37.947  20.776  41.472  1.00  0.00     0.244 C 
BRANCH   2   3
HETATM    3  N1  UNL     1      37.984  19.335  41.563  1.00  0.00    -0.308 N 
HETATM    4  C3  UNL     1      37.970  18.484  40.442  1.00  0.00     0.362 C 
HETATM    5  O2  UNL     1      37.922  18.993  39.302  1.00  0.00    -0.238 OA
ATOM      6  H1  UNL     1      38.023  18.910  42.490  1.00  0.00     0.167 HD
BRANCH   4   7
HETATM    7  O1  UNL     1      38.008  17.128  40.604  1.00  0.00    -0.304 OA
BRANCH   7   8
HETATM    8  C2  UNL     1      39.002  16.310  40.022  1.00  0.00     0.176 C 
HETATM    9  C1  UNL     1      38.458  15.495  38.888  1.00  0.00     0.034 C 
ENDBRANCH   7   8
ENDBRANCH   4   7
ENDBRANCH   2   3
BRANCH   2  10
HETATM   10  O3  UNL     1      37.118  21.278  40.492  1.00  0.00    -0.375 OA
ATOM     11  H3  UNL     1      37.210  20.870  39.639  1.00  0.00     0.212 HD
ENDBRANCH   2  10
ENDBRANCH   1   2
BRANCH   1  12
HETATM   12  C6  UNL     1      39.099  22.358  42.966  1.00  0.00     0.033 C 
BRANCH  12  13
HETATM   13  C7  UNL     1      40.020  21.783  44.035  1.00  0.00    -0.021 C 
HETATM   14  C8  UNL     1      39.532  22.136  45.404  1.00  0.00     0.009 C 
HETATM   15  C9  UNL     1      41.411  22.251  43.759  1.00  0.00     0.009 C 
ENDBRANCH  12  13
ENDBRANCH   1  12
BRANCH   1  16
HETATM   16  N2  UNL     1      36.769  22.128  43.220  1.00  0.00    -0.386 N 
ATOM     17  H2  UNL     1      36.115  21.620  43.815  1.00  0.00     0.159 HD
BRANCH  16  18
HETATM   18  C10 UNL     1      36.453  23.441  42.930  1.00  0.00     0.158 C 
BRANCH  18  19
HETATM   19  C11 UNL     1      35.069  23.500  42.317  1.00  0.00     0.264 C 
HETATM   20  O4  UNL     1      34.054  23.666  43.049  1.00  0.00    -0.267 OA
HETATM   21  N3  UNL     1      34.966  23.362  40.913  1.00  0.00    -0.268 N 
HETATM   22  C12 UNL     1      33.705  23.402  40.236  1.00  0.00     0.367 C 
ATOM     23  H3  UNL     1      35.817  23.230  40.365  1.00  0.00     0.174 HD
HETATM   24  O5  UNL     1      32.630  23.563  40.867  1.00  0.00    -0.238 OA
BRANCH  22  25
HETATM   25  O6  UNL     1      33.638  23.264  38.858  1.00  0.00    -0.309 OA
HETATM   26  C13 UNL     1      33.245  24.359  38.023  1.00  0.00     0.215 C 
ENDBRANCH  22  25
ENDBRANCH  18  19
ENDBRANCH  16  18
ENDBRANCH   1  16
TORSDOF 11
ENDMDL
MODEL 4
REMARK VINA RESULT: -6.006427293      2.057      5.260
REMARK  11 active torsions:
REMARK  status: ('A' for Active; 'I' for Inactive)
REMARK    1  A    between atoms: C2_2  and  O1_3 
REMARK    2  A    between atoms: O1_3  and  C3_4 
REMARK       I    between atoms: C3_4  and  N1_6 
REMARK    3  A    between atoms: N1_6  and  C4_8 
REMARK    4  A    between atoms: C4_8  and  O3_9 
REMARK    5  A    between atoms: C4_8  and  C5_11 
REMARK    6  A    between atoms: C5_11  and  C6_12 
REMARK    7  A    between atoms: C5_11  and  N2_16 
REMARK    8  A    between atoms: C6_12  and  C7_13 
REMARK    9  A    between atoms: N2_16  and  C10_18 
REMARK   10  A    between atoms: C10_18  and  C11_19 
REMARK       I    between atoms: C11_19  and  N3_21 
REMARK       I    between atoms: N3_21  and  C12_23 
REMARK   11  A    between atoms: C12_23  and  O6_25 
ROOT
HETATM    1  C5  UNL     1      36.843  22.864  42.275  1.00  0.00     0.130 C 
ENDROOT
BRANCH   1   2
HETATM    2  C4  UNL     1      35.557  23.357  42.797  1.00  0.00     0.244 C 
BRANCH   2   3
HETATM    3  N1  UNL     1      34.838  24.174  41.846  1.00  0.00    -0.308 N 
HETATM    4  C3  UNL     1      34.014  23.646  40.834  1.00  0.00     0.362 C 
HETATM    5  O2  UNL     1      33.891  22.406  40.744  1.00  0.00    -0.238 OA
ATOM      6  H1  UNL     1      34.932  25.187  41.911  1.00  0.00     0.167 HD
BRANCH   4   7
HETATM    7  O1  UNL     1      33.363  24.480  39.970  1.00  0.00    -0.304 OA
BRANCH   7   8
HETATM    8  C2  UNL     1      33.760  24.659  38.626  1.00  0.00     0.176 C 
HETATM    9  C1  UNL     1      32.695  24.215  37.668  1.00  0.00     0.034 C 
ENDBRANCH   7   8
ENDBRANCH   4   7
ENDBRANCH   2   3
BRANCH   2  10
HETATM   10  O3  UNL     1      34.785  22.444  43.483  1.00  0.00    -0.375 OA
ATOM     11  H3  UNL     1      34.652  22.640  44.403  1.00  0.00     0.212 HD
ENDBRANCH   2  10
ENDBRANCH   1   2
BRANCH   1  12
HETATM   12  C6  UNL     1      37.542  22.011  43.355  1.00  0.00     0.033 C 
BRANCH  12  13
HETATM   13  C7  UNL     1      38.649  22.827  44.010  1.00  0.00    -0.021 C 
HETATM   14  C8  UNL     1      39.710  23.179  43.016  1.00  0.00     0.009 C 
HETATM   15  C9  UNL     1      39.164  22.063  45.186  1.00  0.00     0.009 C 
ENDBRANCH  12  13
ENDBRANCH   1  12
BRANCH   1  16
HETATM   16  N2  UNL     1      36.959  22.192  41.081  1.00  0.00    -0.386 N 
ATOM     17  H2  UNL     1      36.362  22.509  40.317  1.00  0.00     0.159 HD
BRANCH  16  18
HETATM   18  C10 UNL     1      37.799  21.130  40.809  1.00  0.00     0.158 C 
BRANCH  18  19
HETATM   19  C11 UNL     1      37.090  20.149  39.898  1.00  0.00     0.264 C 
HETATM   20  O4  UNL     1      37.487  18.953  39.817  1.00  0.00    -0.267 OA
HETATM   21  N3  UNL     1      35.983  20.623  39.157  1.00  0.00    -0.268 N 
HETATM   22  C12 UNL     1      35.246  19.777  38.267  1.00  0.00     0.367 C 
ATOM     23  H3  UNL     1      35.701  21.598  39.258  1.00  0.00     0.174 HD
HETATM   24  O5  UNL     1      35.555  18.569  38.109  1.00  0.00    -0.238 OA
BRANCH  22  25
HETATM   25  O6  UNL     1      34.165  20.273  37.553  1.00  0.00    -0.309 OA
HETATM   26  C13 UNL     1      34.316  20.732  36.206  1.00  0.00     0.215 C 
ENDBRANCH  22  25
ENDBRANCH  18  19
ENDBRANCH  16  18
ENDBRANCH   1  16
TORSDOF 11
ENDMDL
MODEL 5
REMARK VINA RESULT: -5.981252130      1.818      5.784
REMARK  11 active torsions:
REMARK  status: ('A' for Active; 'I' for Inactive)
REMARK    1  A    between atoms: C2_2  and  O1_3 
REMARK    2  A    between atoms: O1_3  and  C3_4 
REMARK       I    between atoms: C3_4  and  N1_6 
REMARK    3  A    between atoms: N1_6  and  C4_8 
REMARK    4  A    between atoms: C4_8  and  O3_9 
REMARK    5  A    between atoms: C4_8  and  C5_11 
REMARK    6  A    between atoms: C5_11  and  C6_12 
REMARK    7  A    between atoms: C5_11  and  N2_16 
REMARK    8  A    between atoms: C6_12  and  C7_13 
REMARK    9  A    between atoms: N2_16  and  C10_18 
REMARK   10  A    between atoms: C10_18  and  C11_19 
REMARK       I    between atoms: C11_19  and  N3_21 
REMARK       I    between atoms: N3_21  and  C12_23 
REMARK   11  A    between atoms: C12_23  and  O6_25 
ROOT
HETATM    1  C5  UNL     1      36.821  22.659  42.278  1.00  0.00     0.130 C 
ENDROOT
BRANCH   1   2
HETATM    2  C4  UNL     1      35.624  23.366  42.764  1.00  0.00     0.244 C 
BRANCH   2   3
HETATM    3  N1  UNL     1      35.018  24.207  41.757  1.00  0.00    -0.308 N 
HETATM    4  C3  UNL     1      34.080  23.741  40.816  1.00  0.00     0.362 C 
HETATM    5  O2  UNL     1      33.748  22.537  40.844  1.00  0.00    -0.238 OA
ATOM      6  H1  UNL     1      35.283  25.191  41.727  1.00  0.00     0.167 HD
BRANCH   4   7
HETATM    7  O1  UNL     1      33.547  24.595  39.893  1.00  0.00    -0.304 OA
BRANCH   7   8
HETATM    8  C2  UNL     1      34.037  24.705  38.572  1.00  0.00     0.176 C 
HETATM    9  C1  UNL     1      32.964  25.124  37.614  1.00  0.00     0.034 C 
ENDBRANCH   7   8
ENDBRANCH   4   7
ENDBRANCH   2   3
BRANCH   2  10
HETATM   10  O3  UNL     1      34.738  22.624  43.515  1.00  0.00    -0.375 OA
ATOM     11  H3  UNL     1      34.667  21.709  43.267  1.00  0.00     0.212 HD
ENDBRANCH   2  10
ENDBRANCH   1   2
BRANCH   1  12
HETATM   12  C6  UNL     1      37.505  21.939  43.459  1.00  0.00     0.033 C 
BRANCH  12  13
HETATM   13  C7  UNL     1      38.621  22.816  44.013  1.00  0.00    -0.021 C 
HETATM   14  C8  UNL     1      39.619  23.143  42.947  1.00  0.00     0.009 C 
HETATM   15  C9  UNL     1      39.218  22.127  45.196  1.00  0.00     0.009 C 
ENDBRANCH  12  13
ENDBRANCH   1  12
BRANCH   1  16
HETATM   16  N2  UNL     1      36.794  21.781  41.220  1.00  0.00    -0.386 N 
ATOM     17  H2  UNL     1      35.887  21.383  40.978  1.00  0.00     0.159 HD
BRANCH  16  18
HETATM   18  C10 UNL     1      37.870  21.382  40.451  1.00  0.00     0.158 C 
BRANCH  18  19
HETATM   19  C11 UNL     1      38.059  19.885  40.590  1.00  0.00     0.264 C 
HETATM   20  O4  UNL     1      38.843  19.420  41.464  1.00  0.00    -0.267 OA
HETATM   21  N3  UNL     1      37.330  19.047  39.715  1.00  0.00    -0.268 N 
HETATM   22  C12 UNL     1      37.439  17.620  39.764  1.00  0.00     0.367 C 
ATOM     23  H3  UNL     1      36.708  19.471  39.027  1.00  0.00     0.174 HD
HETATM   24  O5  UNL     1      38.191  17.050  40.595  1.00  0.00    -0.238 OA
BRANCH  22  25
HETATM   25  O6  UNL     1      36.711  16.825  38.891  1.00  0.00    -0.309 OA
HETATM   26  C13 UNL     1      35.711  17.389  38.037  1.00  0.00     0.215 C 
ENDBRANCH  22  25
ENDBRANCH  18  19
ENDBRANCH  16  18
ENDBRANCH   1  16
TORSDOF 11
ENDMDL
