MODEL 1
REMARK VINA RESULT: -6.102536305      0.000      0.000
REMARK  10 active torsions:
REMARK  status: ('A' for Active; 'I' for Inactive)
REMARK    1  A    between atoms: C2_2  and  C3_3 
REMARK    2  A    between atoms: C3_3  and  N1_4 
REMARK    3  A    between atoms: N1_4  and  C4_7 
REMARK    4  A    between atoms: C9_12  and  O1_13 
REMARK    5  A    between atoms: O1_13  and  C10_14 
REMARK    6  A    between atoms: C11_16  and  C12_17 
REMARK    7  A    between atoms: C12_17  and  O3_18 
REMARK    8  A    between atoms: C13_20  and  O4_21 
REMARK    9  A    between atoms: C14_23  and  O5_24 
REMARK   10  A    between atoms: C15_26  and  O6_27 
ROOT
HETATM    1  C10 UNL     1      36.223  22.712  42.066  1.00  0.00     0.292 C 
HETATM    2  O2  UNL     1      36.531  22.591  40.729  1.00  0.00    -0.348 OA
HETATM    3  C11 UNL     1      36.466  23.700  39.975  1.00  0.00     0.179 C 
HETATM    4  C13 UNL     1      35.060  24.222  39.955  1.00  0.00     0.180 C 
HETATM    5  C14 UNL     1      34.487  24.397  41.311  1.00  0.00     0.183 C 
HETATM    6  C15 UNL     1      35.112  23.609  42.415  1.00  0.00     0.204 C 
ENDROOT
BRANCH   1   7
HETATM    7  O1  UNL     1      37.426  22.931  42.725  1.00  0.00    -0.351 OA
BRANCH   7   8
HETATM    8  C9  UNL     1      37.857  21.907  43.513  1.00  0.00     0.155 C 
HETATM    9  C4  UNL     1      38.651  20.844  42.777  1.00  0.00     0.215 C 
HETATM   10  C5  UNL     1      39.837  21.412  42.060  1.00  0.00     0.036 C 
HETATM   11  C6  UNL     1      40.506  22.509  42.890  1.00  0.00     0.002 C 
HETATM   12  C7  UNL     1      40.233  22.118  44.332  1.00  0.00     0.003 C 
HETATM   13  C8  UNL     1      38.768  22.446  44.590  1.00  0.00     0.034 C 
BRANCH   9  14
HETATM   14  N1  UNL     1      37.870  20.078  41.844  1.00  0.00    -0.065 N 
ATOM     15  H12 UNL     1      37.222  20.654  41.307  1.00  0.00     0.278 HD
ATOM     16  H11 UNL     1      37.179  19.484  42.302  1.00  0.00     0.278 HD
BRANCH  14  17
HETATM   17  C3  UNL     1      38.784  19.330  41.005  1.00  0.00     0.259 C 
BRANCH  17  18
HETATM   18  C2  UNL     1      38.255  17.949  40.830  1.00  0.00    -0.010 C 
HETATM   19  C1  UNL     1      39.042  16.879  40.819  1.00  0.00     0.008 C 
ENDBRANCH  17  18
ENDBRANCH  14  17
ENDBRANCH   9  14
ENDBRANCH   7   8
ENDBRANCH   1   7
BRANCH   6  20
HETATM   20  O6  UNL     1      35.558  24.508  43.388  1.00  0.00    -0.388 OA
ATOM     21  H6  UNL     1      35.666  25.359  42.982  1.00  0.00     0.210 HD
ENDBRANCH   6  20
BRANCH   3  22
HETATM   22  C12 UNL     1      37.445  24.793  40.289  1.00  0.00     0.198 C 
BRANCH  22  23
HETATM   23  O3  UNL     1      38.737  24.268  40.331  1.00  0.00    -0.398 OA
ATOM     24  H3  UNL     1      39.356  24.921  40.027  1.00  0.00     0.209 HD
ENDBRANCH  22  23
ENDBRANCH   3  22
BRANCH   5  25
HETATM   25  O5  UNL     1      33.098  24.127  41.194  1.00  0.00    -0.390 OA
ATOM     26  H5  UNL     1      32.835  23.723  42.013  1.00  0.00     0.210 HD
ENDBRANCH   5  25
BRANCH   4  27
HETATM   27  O4  UNL     1      34.310  23.364  39.146  1.00  0.00    -0.390 OA
ATOM     28  H4  UNL     1      34.067  23.851  38.368  1.00  0.00     0.210 HD
ENDBRANCH   4  27
TORSDOF 10
ENDMDL
MODEL 2
REMARK VINA RESULT: -5.898043167      2.401      5.852
REMARK  10 active torsions:
REMARK  status: ('A' for Active; 'I' for Inactive)
REMARK    1  A    between atoms: C2_2  and  C3_3 
REMARK    2  A    between atoms: C3_3  and  N1_4 
REMARK    3  A    between atoms: N1_4  and  C4_7 
REMARK    4  A    between atoms: C9_12  and  O1_13 
REMARK    5  A    between atoms: O1_13  and  C10_14 
REMARK    6  A    between atoms: C11_16  and  C12_17 
REMARK    7  A    between atoms: C12_17  and  O3_18 
REMARK    8  A    between atoms: C13_20  and  O4_21 
REMARK    9  A    between atoms: C14_23  and  O5_24 
REMARK   10  A    between atoms: C15_26  and  O6_27 
ROOT
HETATM    1  C10 UNL     1      37.906  23.150  43.096  1.00  0.00     0.292 C 
HETATM    2  O2  UNL     1      39.031  23.491  42.379  1.00  0.00    -0.348 OA
HETATM    3  C11 UNL     1      39.810  22.491  41.936  1.00  0.00     0.179 C 
HETATM    4  C13 UNL     1      40.365  21.723  43.098  1.00  0.00     0.180 C 
HETATM    5  C14 UNL     1      39.321  21.278  44.052  1.00  0.00     0.183 C 
HETATM    6  C15 UNL     1      38.029  22.026  44.035  1.00  0.00     0.204 C 
ENDROOT
BRANCH   1   7
HETATM    7  O1  UNL     1      36.866  23.080  42.178  1.00  0.00    -0.351 OA
BRANCH   7   8
HETATM    8  C9  UNL     1      36.264  24.266  41.882  1.00  0.00     0.155 C 
HETATM    9  C4  UNL     1      36.293  24.631  40.411  1.00  0.00     0.215 C 
HETATM   10  C5  UNL     1      35.682  23.569  39.548  1.00  0.00     0.036 C 
HETATM   11  C6  UNL     1      34.450  22.959  40.218  1.00  0.00     0.002 C 
HETATM   12  C7  UNL     1      33.883  24.081  41.071  1.00  0.00     0.003 C 
HETATM   13  C8  UNL     1      34.808  24.206  42.276  1.00  0.00     0.034 C 
BRANCH   9  14
HETATM   14  N1  UNL     1      37.607  24.931  39.912  1.00  0.00    -0.065 N 
ATOM     15  H12 UNL     1      38.259  24.156  40.028  1.00  0.00     0.278 HD
ATOM     16  H11 UNL     1      38.101  25.613  40.488  1.00  0.00     0.278 HD
BRANCH  14  17
HETATM   17  C3  UNL     1      37.476  25.353  38.531  1.00  0.00     0.259 C 
BRANCH  17  18
HETATM   18  C2  UNL     1      38.541  26.350  38.231  1.00  0.00    -0.010 C 
HETATM   19  C1  UNL     1      38.819  27.363  39.044  1.00  0.00     0.008 C 
ENDBRANCH  17  18
ENDBRANCH  14  17
ENDBRANCH   9  14
ENDBRANCH   7   8
ENDBRANCH   1   7
BRANCH   6  20
HETATM   20  O6  UNL     1      37.005  21.114  43.768  1.00  0.00    -0.388 OA
ATOM     21  H6  UNL     1      36.243  21.359  44.278  1.00  0.00     0.210 HD
ENDBRANCH   6  20
BRANCH   3  22
HETATM   22  C12 UNL     1      39.215  21.568  40.912  1.00  0.00     0.198 C 
BRANCH  22  23
HETATM   23  O3  UNL     1      38.855  22.297  39.778  1.00  0.00    -0.398 OA
ATOM     24  H3  UNL     1      39.434  22.075  39.059  1.00  0.00     0.209 HD
ENDBRANCH  22  23
ENDBRANCH   3  22
BRANCH   5  25
HETATM   25  O5  UNL     1      39.923  21.297  45.337  1.00  0.00    -0.390 OA
ATOM     26  H5  UNL     1      40.071  22.212  45.548  1.00  0.00     0.210 HD
ENDBRANCH   5  25
BRANCH   4  27
HETATM   27  O4  UNL     1      41.350  22.519  43.690  1.00  0.00    -0.390 OA
ATOM     28  H4  UNL     1      41.525  22.158  44.551  1.00  0.00     0.210 HD
ENDBRANCH   4  27
TORSDOF 10
ENDMDL
MODEL 3
REMARK VINA RESULT: -5.731430534      2.244      3.858
REMARK  10 active torsions:
REMARK  status: ('A' for Active; 'I' for Inactive)
REMARK    1  A    between atoms: C2_2  and  C3_3 
REMARK    2  A    between atoms: C3_3  and  N1_4 
REMARK    3  A    between atoms: N1_4  and  C4_7 
REMARK    4  A    between atoms: C9_12  and  O1_13 
REMARK    5  A    between atoms: O1_13  and  C10_14 
REMARK    6  A    between atoms: C11_16  and  C12_17 
REMARK    7  A    between atoms: C12_17  and  O3_18 
REMARK    8  A    between atoms: C13_20  and  O4_21 
REMARK    9  A    between atoms: C14_23  and  O5_24 
REMARK   10  A    between atoms: C15_26  and  O6_27 
ROOT
HETATM    1  C10 UNL     1      36.476  23.719  40.231  1.00  0.00     0.292 C 
HETATM    2  O2  UNL     1      35.735  24.730  40.803  1.00  0.00    -0.348 OA
HETATM    3  C11 UNL     1      34.769  24.378  41.666  1.00  0.00     0.179 C 
HETATM    4  C13 UNL     1      33.733  23.551  40.964  1.00  0.00     0.180 C 
HETATM    5  C14 UNL     1      34.311  22.403  40.226  1.00  0.00     0.183 C 
HETATM    6  C15 UNL     1      35.755  22.495  39.856  1.00  0.00     0.204 C 
ENDROOT
BRANCH   1   7
HETATM    7  O1  UNL     1      37.598  23.556  41.035  1.00  0.00    -0.351 OA
BRANCH   7   8
HETATM    8  C9  UNL     1      38.690  24.285  40.671  1.00  0.00     0.155 C 
HETATM    9  C4  UNL     1      40.010  23.710  41.147  1.00  0.00     0.215 C 
HETATM   10  C5  UNL     1      40.217  22.299  40.687  1.00  0.00     0.036 C 
HETATM   11  C6  UNL     1      39.704  22.107  39.259  1.00  0.00     0.002 C 
HETATM   12  C7  UNL     1      39.878  23.466  38.603  1.00  0.00     0.003 C 
HETATM   13  C8  UNL     1      38.774  24.353  39.165  1.00  0.00     0.034 C 
BRANCH   9  14
HETATM   14  N1  UNL     1      40.187  23.762  42.572  1.00  0.00    -0.065 N 
ATOM     15  H12 UNL     1      39.491  24.347  43.035  1.00  0.00     0.278 HD
ATOM     16  H11 UNL     1      41.015  24.291  42.848  1.00  0.00     0.278 HD
BRANCH  14  17
HETATM   17  C3  UNL     1      40.199  22.401  43.071  1.00  0.00     0.259 C 
BRANCH  17  18
HETATM   18  C2  UNL     1      39.251  22.302  44.217  1.00  0.00    -0.010 C 
HETATM   19  C1  UNL     1      38.075  21.693  44.118  1.00  0.00     0.008 C 
ENDBRANCH  17  18
ENDBRANCH  14  17
ENDBRANCH   9  14
ENDBRANCH   7   8
ENDBRANCH   1   7
BRANCH   6  20
HETATM   20  O6  UNL     1      36.416  21.402  40.421  1.00  0.00    -0.388 OA
ATOM     21  H6  UNL     1      35.913  21.100  41.168  1.00  0.00     0.210 HD
ENDBRANCH   6  20
BRANCH   3  22
HETATM   22  C12 UNL     1      35.206  23.726  42.946  1.00  0.00     0.198 C 
BRANCH  22  23
HETATM   23  O3  UNL     1      34.094  23.491  43.756  1.00  0.00    -0.398 OA
ATOM     24  H3  UNL     1      33.860  22.572  43.717  1.00  0.00     0.209 HD
ENDBRANCH  22  23
ENDBRANCH   3  22
BRANCH   5  25
HETATM   25  O5  UNL     1      33.488  22.209  39.086  1.00  0.00    -0.390 OA
ATOM     26  H5  UNL     1      32.598  22.132  39.410  1.00  0.00     0.210 HD
ENDBRANCH   5  25
BRANCH   4  27
HETATM   27  O4  UNL     1      32.995  24.415  40.151  1.00  0.00    -0.390 OA
ATOM     28  H4  UNL     1      32.200  24.637  40.623  1.00  0.00     0.210 HD
ENDBRANCH   4  27
TORSDOF 10
ENDMDL
MODEL 4
REMARK VINA RESULT: -5.709791825      2.194      3.821
REMARK  10 active torsions:
REMARK  status: ('A' for Active; 'I' for Inactive)
REMARK    1  A    between atoms: C2_2  and  C3_3 
REMARK    2  A    between atoms: C3_3  and  N1_4 
REMARK    3  A    between atoms: N1_4  and  C4_7 
REMARK    4  A    between atoms: C9_12  and  O1_13 
REMARK    5  A    between atoms: O1_13  and  C10_14 
REMARK    6  A    between atoms: C11_16  and  C12_17 
REMARK    7  A    between atoms: C12_17  and  O3_18 
REMARK    8  A    between atoms: C13_20  and  O4_21 
REMARK    9  A    between atoms: C14_23  and  O5_24 
REMARK   10  A    between atoms: C15_26  and  O6_27 
ROOT
HETATM    1  C10 UNL     1      36.484  24.502  40.597  1.00  0.00     0.292 C 
HETATM    2  O2  UNL     1      36.364  25.006  41.873  1.00  0.00    -0.348 OA
HETATM    3  C11 UNL     1      35.650  24.291  42.758  1.00  0.00     0.179 C 
HETATM    4  C13 UNL     1      34.227  24.183  42.297  1.00  0.00     0.180 C 
HETATM    5  C14 UNL     1      34.103  23.691  40.904  1.00  0.00     0.183 C 
HETATM    6  C15 UNL     1      35.298  23.852  40.023  1.00  0.00     0.204 C 
ENDROOT
BRANCH   1   7
HETATM    7  O1  UNL     1      37.663  23.767  40.579  1.00  0.00    -0.351 OA
BRANCH   7   8
HETATM    8  C9  UNL     1      38.801  24.479  40.813  1.00  0.00     0.155 C 
HETATM    9  C4  UNL     1      39.923  23.676  41.442  1.00  0.00     0.215 C 
HETATM   10  C5  UNL     1      40.285  22.470  40.630  1.00  0.00     0.036 C 
HETATM   11  C6  UNL     1      40.239  22.783  39.133  1.00  0.00     0.002 C 
HETATM   12  C7  UNL     1      40.581  24.260  39.040  1.00  0.00     0.003 C 
HETATM   13  C8  UNL     1      39.342  25.013  39.508  1.00  0.00     0.034 C 
BRANCH   9  14
HETATM   14  N1  UNL     1      39.653  23.259  42.791  1.00  0.00    -0.065 N 
ATOM     15  H12 UNL     1      38.732  23.552  43.118  1.00  0.00     0.278 HD
ATOM     16  H11 UNL     1      40.210  23.766  43.479  1.00  0.00     0.278 HD
BRANCH  14  17
HETATM   17  C3  UNL     1      39.843  21.824  42.863  1.00  0.00     0.259 C 
BRANCH  17  18
HETATM   18  C2  UNL     1      39.323  21.335  44.170  1.00  0.00    -0.010 C 
HETATM   19  C1  UNL     1      39.250  22.112  45.244  1.00  0.00     0.008 C 
ENDBRANCH  17  18
ENDBRANCH  14  17
ENDBRANCH   9  14
ENDBRANCH   7   8
ENDBRANCH   1   7
BRANCH   6  20
HETATM   20  O6  UNL     1      35.668  22.586  39.562  1.00  0.00    -0.388 OA
ATOM     21  H6  UNL     1      35.659  21.984  40.296  1.00  0.00     0.210 HD
ENDBRANCH   6  20
BRANCH   3  22
HETATM   22  C12 UNL     1      36.197  22.948  43.144  1.00  0.00     0.198 C 
BRANCH  22  23
HETATM   23  O3  UNL     1      35.180  22.168  43.695  1.00  0.00    -0.398 OA
ATOM     24  H3  UNL     1      35.257  21.275  43.383  1.00  0.00     0.209 HD
ENDBRANCH  22  23
ENDBRANCH   3  22
BRANCH   5  25
HETATM   25  O5  UNL     1      32.958  24.327  40.358  1.00  0.00    -0.390 OA
ATOM     26  H5  UNL     1      32.223  23.752  40.537  1.00  0.00     0.210 HD
ENDBRANCH   5  25
BRANCH   4  27
HETATM   27  O4  UNL     1      33.631  25.432  42.496  1.00  0.00    -0.390 OA
ATOM     28  H4  UNL     1      34.328  26.049  42.687  1.00  0.00     0.210 HD
ENDBRANCH   4  27
TORSDOF 10
ENDMDL
MODEL 5
REMARK VINA RESULT: -5.686593242      3.904      6.400
REMARK  10 active torsions:
REMARK  status: ('A' for Active; 'I' for Inactive)
REMARK    1  A    between atoms: C2_2  and  C3_3 
REMARK    2  A    between atoms: C3_3  and  N1_4 
REMARK    3  A    between atoms: N1_4  and  C4_7 
REMARK    4  A    between atoms: C9_12  and  O1_13 
REMARK    5  A    between atoms: O1_13  and  C10_14 
REMARK    6  A    between atoms: C11_16  and  C12_17 
REMARK    7  A    between atoms: C12_17  and  O3_18 
REMARK    8  A    between atoms: C13_20  and  O4_21 
REMARK    9  A    between atoms: C14_23  and  O5_24 
REMARK   10  A    between atoms: C15_26  and  O6_27 
ROOT
HETATM    1  C10 UNL     1      39.357  27.375  39.374  1.00  0.00     0.292 C 
HETATM    2  O2  UNL     1      40.186  27.095  38.311  1.00  0.00    -0.348 OA
HETATM    3  C11 UNL     1      41.493  27.372  38.454  1.00  0.00     0.179 C 
HETATM    4  C13 UNL     1      41.684  28.845  38.658  1.00  0.00     0.180 C 
HETATM    5  C14 UNL     1      40.842  29.394  39.748  1.00  0.00     0.183 C 
HETATM    6  C15 UNL     1      39.629  28.609  40.124  1.00  0.00     0.204 C 
ENDROOT
BRANCH   1   7
HETATM    7  O1  UNL     1      39.268  26.205  40.117  1.00  0.00    -0.351 OA
BRANCH   7   8
HETATM    8  C9  UNL     1      38.850  25.105  39.430  1.00  0.00     0.155 C 
HETATM    9  C4  UNL     1      38.893  23.816  40.228  1.00  0.00     0.215 C 
HETATM   10  C5  UNL     1      38.101  23.903  41.496  1.00  0.00     0.036 C 
HETATM   11  C6  UNL     1      36.808  24.693  41.281  1.00  0.00     0.002 C 
HETATM   12  C7  UNL     1      36.447  24.449  39.827  1.00  0.00     0.003 C 
HETATM   13  C8  UNL     1      37.414  25.291  39.003  1.00  0.00     0.034 C 
BRANCH   9  14
HETATM   14  N1  UNL     1      40.224  23.374  40.544  1.00  0.00    -0.065 N 
ATOM     15  H12 UNL     1      40.944  23.912  40.063  1.00  0.00     0.278 HD
ATOM     16  H11 UNL     1      40.443  22.462  40.142  1.00  0.00     0.278 HD
BRANCH  14  17
HETATM   17  C3  UNL     1      40.373  23.401  41.986  1.00  0.00     0.259 C 
BRANCH  17  18
HETATM   18  C2  UNL     1      41.656  24.078  42.324  1.00  0.00    -0.010 C 
HETATM   19  C1  UNL     1      42.613  23.482  43.026  1.00  0.00     0.008 C 
ENDBRANCH  17  18
ENDBRANCH  14  17
ENDBRANCH   9  14
ENDBRANCH   7   8
ENDBRANCH   1   7
BRANCH   6  20
HETATM   20  O6  UNL     1      39.727  28.288  41.481  1.00  0.00    -0.388 OA
ATOM     21  H6  UNL     1      39.406  27.403  41.604  1.00  0.00     0.210 HD
ENDBRANCH   6  20
BRANCH   3  22
HETATM   22  C12 UNL     1      42.244  26.580  39.485  1.00  0.00     0.198 C 
BRANCH  22  23
HETATM   23  O3  UNL     1      42.216  25.226  39.149  1.00  0.00    -0.398 OA
ATOM     24  H3  UNL     1      41.940  25.127  38.246  1.00  0.00     0.209 HD
ENDBRANCH  22  23
ENDBRANCH   3  22
BRANCH   5  25
HETATM   25  O5  UNL     1      40.512  30.720  39.365  1.00  0.00    -0.390 OA
ATOM     26  H5  UNL     1      41.334  31.151  39.161  1.00  0.00     0.210 HD
ENDBRANCH   5  25
BRANCH   4  27
HETATM   27  O4  UNL     1      41.464  29.466  37.425  1.00  0.00    -0.390 OA
ATOM     28  H4  UNL     1      41.311  28.779  36.787  1.00  0.00     0.210 HD
ENDBRANCH   4  27
TORSDOF 10
ENDMDL
