MODEL 1
REMARK VINA RESULT: -5.108463933      0.000      0.000
REMARK  11 active torsions:
REMARK  status: ('A' for Active; 'I' for Inactive)
REMARK    1  A    between atoms: O1_2  and  C2_3 
REMARK    2  A    between atoms: C2_3  and  C4_5 
REMARK    3  A    between atoms: C4_5  and  C5_6 
REMARK    4  A    between atoms: C4_5  and  C8_14 
REMARK    5  A    between atoms: C5_6  and  O2_7 
REMARK    6  A    between atoms: C5_6  and  C6_9 
REMARK    7  A    between atoms: C6_9  and  C7_10 
REMARK    8  A    between atoms: C9_15  and  O3_16 
REMARK    9  A    between atoms: C10_18  and  O4_19 
REMARK   10  A    between atoms: C11_21  and  O5_22 
REMARK   11  A    between atoms: C13_25  and  O6_27 
ROOT
HETATM    1  C8  UNL     1      37.149  24.140  40.852  1.00  0.00     0.060 C 
HETATM    2  C9  UNL     1      36.426  23.479  42.043  1.00  0.00     0.157 C 
HETATM    3  C10 UNL     1      35.218  24.322  42.433  1.00  0.00     0.176 C 
HETATM    4  C11 UNL     1      34.328  24.551  41.268  1.00  0.00     0.152 C 
HETATM    5  C12 UNL     1      34.930  24.628  39.946  1.00  0.00     0.072 C 
HETATM    6  C13 UNL     1      36.297  24.050  39.650  1.00  0.00     0.066 C 
HETATM    7  C14 UNL     1      36.035  22.625  39.190  1.00  0.00     0.046 C 
ENDROOT
BRANCH   1   8
HETATM    8  C4  UNL     1      38.598  23.962  40.891  1.00  0.00     0.053 C 
BRANCH   8   9
HETATM    9  C2  UNL     1      39.113  23.264  42.177  1.00  0.00     0.123 C 
HETATM   10  C3  UNL     1      40.463  23.747  42.610  1.00  0.00     0.040 C 
BRANCH   9  11
HETATM   11  O1  UNL     1      38.967  21.939  42.200  1.00  0.00    -0.391 OA
HETATM   12  C1  UNL     1      39.106  21.218  43.328  1.00  0.00     0.202 C 
ENDBRANCH   9  11
ENDBRANCH   8   9
BRANCH   8  13
HETATM   13  C5  UNL     1      39.570  25.061  40.692  1.00  0.00     0.130 C 
BRANCH  13  14
HETATM   14  O2  UNL     1      39.917  24.943  39.234  1.00  0.00    -0.395 OA
ATOM     15  H2  UNL     1      39.761  25.821  38.907  1.00  0.00     0.210 HD
ENDBRANCH  13  14
BRANCH  13  16
HETATM   16  C6  UNL     1      39.088  26.489  40.588  1.00  0.00     0.076 C 
BRANCH  16  17
HETATM   17  C7  UNL     1      39.437  27.128  39.276  1.00  0.00     0.055 C 
HETATM   18  N1  UNL     1      38.561  27.386  38.385  1.00  0.00    -0.411 N 
ATOM     19  H12 UNL     1      37.591  27.142  38.588  1.00  0.00     0.155 HD
ATOM     20  H11 UNL     1      38.797  27.819  37.493  1.00  0.00     0.155 HD
ENDBRANCH  16  17
ENDBRANCH  13  16
ENDBRANCH   8  13
ENDBRANCH   1   8
BRANCH   2  21
HETATM   21  O3  UNL     1      35.936  22.236  41.674  1.00  0.00    -0.392 OA
ATOM     22  H3  UNL     1      36.646  21.606  41.623  1.00  0.00     0.210 HD
ENDBRANCH   2  21
BRANCH   6  23
HETATM   23  O6  UNL     1      36.740  24.843  38.612  1.00  0.00    -0.385 OA
HETATM   24  C15 UNL     1      36.952  24.272  37.399  1.00  0.00     0.202 C 
ENDBRANCH   6  23
BRANCH   3  25
HETATM   25  O4  UNL     1      34.613  23.737  43.529  1.00  0.00    -0.390 OA
ATOM     26  H4  UNL     1      34.177  22.943  43.242  1.00  0.00     0.210 HD
ENDBRANCH   3  25
BRANCH   4  27
HETATM   27  O5  UNL     1      33.314  23.559  41.232  1.00  0.00    -0.393 OA
ATOM     28  H5  UNL     1      33.698  22.709  41.055  1.00  0.00     0.210 HD
ENDBRANCH   4  27
TORSDOF 11
ENDMDL
MODEL 2
REMARK VINA RESULT: -5.070306367      2.262      3.491
REMARK  11 active torsions:
REMARK  status: ('A' for Active; 'I' for Inactive)
REMARK    1  A    between atoms: O1_2  and  C2_3 
REMARK    2  A    between atoms: C2_3  and  C4_5 
REMARK    3  A    between atoms: C4_5  and  C5_6 
REMARK    4  A    between atoms: C4_5  and  C8_14 
REMARK    5  A    between atoms: C5_6  and  O2_7 
REMARK    6  A    between atoms: C5_6  and  C6_9 
REMARK    7  A    between atoms: C6_9  and  C7_10 
REMARK    8  A    between atoms: C9_15  and  O3_16 
REMARK    9  A    between atoms: C10_18  and  O4_19 
REMARK   10  A    between atoms: C11_21  and  O5_22 
REMARK   11  A    between atoms: C13_25  and  O6_27 
ROOT
HETATM    1  C8  UNL     1      36.818  23.802  41.104  1.00  0.00     0.060 C 
HETATM    2  C9  UNL     1      35.757  23.799  42.224  1.00  0.00     0.157 C 
HETATM    3  C10 UNL     1      34.677  24.824  41.899  1.00  0.00     0.176 C 
HETATM    4  C11 UNL     1      34.101  24.585  40.554  1.00  0.00     0.152 C 
HETATM    5  C12 UNL     1      34.962  24.019  39.526  1.00  0.00     0.072 C 
HETATM    6  C13 UNL     1      36.226  23.260  39.866  1.00  0.00     0.066 C 
HETATM    7  C14 UNL     1      35.797  21.805  39.978  1.00  0.00     0.046 C 
ENDROOT
BRANCH   1   8
HETATM    8  C4  UNL     1      38.169  23.541  41.595  1.00  0.00     0.053 C 
BRANCH   8   9
HETATM    9  C2  UNL     1      39.256  24.445  40.959  1.00  0.00     0.123 C 
HETATM   10  C3  UNL     1      38.754  25.810  40.603  1.00  0.00     0.040 C 
BRANCH   9  11
HETATM   11  O1  UNL     1      39.994  23.864  40.013  1.00  0.00    -0.391 OA
HETATM   12  C1  UNL     1      40.466  24.541  38.949  1.00  0.00     0.202 C 
ENDBRANCH   9  11
ENDBRANCH   8   9
BRANCH   8  13
HETATM   13  C5  UNL     1      38.801  22.203  41.597  1.00  0.00     0.130 C 
BRANCH  13  14
HETATM   14  O2  UNL     1      40.033  22.413  42.433  1.00  0.00    -0.395 OA
ATOM     15  H2  UNL     1      40.235  23.330  42.285  1.00  0.00     0.210 HD
ENDBRANCH  13  14
BRANCH  13  16
HETATM   16  C6  UNL     1      38.246  21.103  42.472  1.00  0.00     0.076 C 
BRANCH  16  17
HETATM   17  C7  UNL     1      38.193  21.484  43.923  1.00  0.00     0.055 C 
HETATM   18  N1  UNL     1      38.659  20.735  44.845  1.00  0.00    -0.411 N 
ATOM     19  H12 UNL     1      39.080  19.847  44.569  1.00  0.00     0.155 HD
ATOM     20  H11 UNL     1      38.623  20.993  45.831  1.00  0.00     0.155 HD
ENDBRANCH  16  17
ENDBRANCH  13  16
ENDBRANCH   8  13
ENDBRANCH   1   8
BRANCH   2  21
HETATM   21  O3  UNL     1      35.127  22.566  42.280  1.00  0.00    -0.392 OA
ATOM     22  H3  UNL     1      34.696  22.457  43.120  1.00  0.00     0.210 HD
ENDBRANCH   2  21
BRANCH   6  23
HETATM   23  O6  UNL     1      37.011  23.471  38.753  1.00  0.00    -0.385 OA
HETATM   24  C15 UNL     1      36.675  24.469  37.895  1.00  0.00     0.202 C 
ENDBRANCH   6  23
BRANCH   3  25
HETATM   25  O4  UNL     1      33.764  24.837  42.936  1.00  0.00    -0.390 OA
ATOM     26  H4  UNL     1      33.199  24.078  42.847  1.00  0.00     0.210 HD
ENDBRANCH   3  25
BRANCH   4  27
HETATM   27  O5  UNL     1      32.946  23.767  40.659  1.00  0.00    -0.393 OA
ATOM     28  H5  UNL     1      32.173  24.267  40.427  1.00  0.00     0.210 HD
ENDBRANCH   4  27
TORSDOF 11
ENDMDL
MODEL 3
REMARK VINA RESULT: -5.061048206      2.728      5.573
REMARK  11 active torsions:
REMARK  status: ('A' for Active; 'I' for Inactive)
REMARK    1  A    between atoms: O1_2  and  C2_3 
REMARK    2  A    between atoms: C2_3  and  C4_5 
REMARK    3  A    between atoms: C4_5  and  C5_6 
REMARK    4  A    between atoms: C4_5  and  C8_14 
REMARK    5  A    between atoms: C5_6  and  O2_7 
REMARK    6  A    between atoms: C5_6  and  C6_9 
REMARK    7  A    between atoms: C6_9  and  C7_10 
REMARK    8  A    between atoms: C9_15  and  O3_16 
REMARK    9  A    between atoms: C10_18  and  O4_19 
REMARK   10  A    between atoms: C11_21  and  O5_22 
REMARK   11  A    between atoms: C13_25  and  O6_27 
ROOT
HETATM    1  C8  UNL     1      40.189  26.410  40.125  1.00  0.00     0.060 C 
HETATM    2  C9  UNL     1      39.685  27.814  40.517  1.00  0.00     0.157 C 
HETATM    3  C10 UNL     1      40.877  28.745  40.702  1.00  0.00     0.176 C 
HETATM    4  C11 UNL     1      41.740  28.754  39.496  1.00  0.00     0.152 C 
HETATM    5  C12 UNL     1      41.826  27.538  38.701  1.00  0.00     0.072 C 
HETATM    6  C13 UNL     1      40.769  26.458  38.769  1.00  0.00     0.066 C 
HETATM    7  C14 UNL     1      39.765  26.816  37.685  1.00  0.00     0.046 C 
ENDROOT
BRANCH   1   8
HETATM    8  C4  UNL     1      39.363  25.334  40.668  1.00  0.00     0.053 C 
BRANCH   8   9
HETATM    9  C2  UNL     1      40.162  24.259  41.449  1.00  0.00     0.123 C 
HETATM   10  C3  UNL     1      41.305  24.827  42.232  1.00  0.00     0.040 C 
BRANCH   9  11
HETATM   11  O1  UNL     1      40.459  23.159  40.757  1.00  0.00    -0.391 OA
HETATM   12  C1  UNL     1      41.412  22.294  41.152  1.00  0.00     0.202 C 
ENDBRANCH   9  11
ENDBRANCH   8   9
BRANCH   8  13
HETATM   13  C5  UNL     1      38.419  24.531  39.858  1.00  0.00     0.130 C 
BRANCH  13  14
HETATM   14  O2  UNL     1      37.779  23.633  40.879  1.00  0.00    -0.395 OA
ATOM     15  H2  UNL     1      38.191  22.793  40.712  1.00  0.00     0.210 HD
ENDBRANCH  13  14
BRANCH  13  16
HETATM   16  C6  UNL     1      37.114  25.136  39.392  1.00  0.00     0.076 C 
BRANCH  16  17
HETATM   17  C7  UNL     1      35.942  24.222  39.598  1.00  0.00     0.055 C 
HETATM   18  N1  UNL     1      34.997  24.493  40.411  1.00  0.00    -0.411 N 
ATOM     19  H12 UNL     1      35.055  25.368  40.933  1.00  0.00     0.155 HD
ATOM     20  H11 UNL     1      34.200  23.872  40.552  1.00  0.00     0.155 HD
ENDBRANCH  16  17
ENDBRANCH  13  16
ENDBRANCH   8  13
ENDBRANCH   1   8
BRANCH   2  21
HETATM   21  O3  UNL     1      38.922  28.350  39.492  1.00  0.00    -0.392 OA
ATOM     22  H3  UNL     1      39.377  28.261  38.663  1.00  0.00     0.210 HD
ENDBRANCH   2  21
BRANCH   6  23
HETATM   23  O6  UNL     1      41.479  25.321  38.444  1.00  0.00    -0.385 OA
HETATM   24  C15 UNL     1      42.770  25.219  38.853  1.00  0.00     0.202 C 
ENDBRANCH   6  23
BRANCH   3  25
HETATM   25  O4  UNL     1      40.406  29.983  41.097  1.00  0.00    -0.390 OA
ATOM     26  H4  UNL     1      39.685  30.224  40.527  1.00  0.00     0.210 HD
ENDBRANCH   3  25
BRANCH   4  27
HETATM   27  O5  UNL     1      41.359  29.816  38.635  1.00  0.00    -0.393 OA
ATOM     28  H5  UNL     1      42.127  30.304  38.363  1.00  0.00     0.210 HD
ENDBRANCH   4  27
TORSDOF 11
ENDMDL
MODEL 4
REMARK VINA RESULT: -4.908733692      2.681      5.759
REMARK  11 active torsions:
REMARK  status: ('A' for Active; 'I' for Inactive)
REMARK    1  A    between atoms: O1_2  and  C2_3 
REMARK    2  A    between atoms: C2_3  and  C4_5 
REMARK    3  A    between atoms: C4_5  and  C5_6 
REMARK    4  A    between atoms: C4_5  and  C8_14 
REMARK    5  A    between atoms: C5_6  and  O2_7 
REMARK    6  A    between atoms: C5_6  and  C6_9 
REMARK    7  A    between atoms: C6_9  and  C7_10 
REMARK    8  A    between atoms: C9_15  and  O3_16 
REMARK    9  A    between atoms: C10_18  and  O4_19 
REMARK   10  A    between atoms: C11_21  and  O5_22 
REMARK   11  A    between atoms: C13_25  and  O6_27 
ROOT
HETATM    1  C8  UNL     1      40.143  26.023  39.828  1.00  0.00     0.060 C 
HETATM    2  C9  UNL     1      39.486  27.372  40.185  1.00  0.00     0.157 C 
HETATM    3  C10 UNL     1      40.568  28.376  40.565  1.00  0.00     0.176 C 
HETATM    4  C11 UNL     1      41.588  28.492  39.495  1.00  0.00     0.152 C 
HETATM    5  C12 UNL     1      41.874  27.318  38.685  1.00  0.00     0.072 C 
HETATM    6  C13 UNL     1      40.902  26.164  38.571  1.00  0.00     0.066 C 
HETATM    7  C14 UNL     1      40.035  26.494  37.366  1.00  0.00     0.046 C 
ENDROOT
BRANCH   1   8
HETATM    8  C4  UNL     1      39.332  24.871  40.217  1.00  0.00     0.053 C 
BRANCH   8   9
HETATM    9  C2  UNL     1      37.824  25.189  40.383  1.00  0.00     0.123 C 
HETATM   10  C3  UNL     1      37.174  24.406  41.481  1.00  0.00     0.040 C 
BRANCH   9  11
HETATM   11  O1  UNL     1      37.125  25.233  39.248  1.00  0.00    -0.391 OA
HETATM   12  C1  UNL     1      36.001  24.517  39.066  1.00  0.00     0.202 C 
ENDBRANCH   9  11
ENDBRANCH   8   9
BRANCH   8  13
HETATM   13  C5  UNL     1      39.627  24.012  41.385  1.00  0.00     0.130 C 
BRANCH  13  14
HETATM   14  O2  UNL     1      40.168  22.759  40.755  1.00  0.00    -0.395 OA
ATOM     15  H2  UNL     1      41.108  22.894  40.786  1.00  0.00     0.210 HD
ENDBRANCH  13  14
BRANCH  13  16
HETATM   16  C6  UNL     1      40.857  24.268  42.224  1.00  0.00     0.076 C 
BRANCH  16  17
HETATM   17  C7  UNL     1      42.050  23.481  41.765  1.00  0.00     0.055 C 
HETATM   18  N1  UNL     1      42.897  23.945  40.931  1.00  0.00    -0.411 N 
ATOM     19  H12 UNL     1      42.743  24.888  40.572  1.00  0.00     0.155 HD
ATOM     20  H11 UNL     1      43.707  23.411  40.618  1.00  0.00     0.155 HD
ENDBRANCH  16  17
ENDBRANCH  13  16
ENDBRANCH   8  13
ENDBRANCH   1   8
BRANCH   2  21
HETATM   21  O3  UNL     1      38.835  27.893  39.078  1.00  0.00    -0.392 OA
ATOM     22  H3  UNL     1      38.167  28.510  39.352  1.00  0.00     0.210 HD
ENDBRANCH   2  21
BRANCH   6  23
HETATM   23  O6  UNL     1      41.734  25.094  38.317  1.00  0.00    -0.385 OA
HETATM   24  C15 UNL     1      42.798  25.275  37.494  1.00  0.00     0.202 C 
ENDBRANCH   6  23
BRANCH   3  25
HETATM   25  O4  UNL     1      39.955  29.561  40.924  1.00  0.00    -0.390 OA
ATOM     26  H4  UNL     1      39.205  29.357  41.472  1.00  0.00     0.210 HD
ENDBRANCH   3  25
BRANCH   4  27
HETATM   27  O5  UNL     1      41.252  29.558  38.619  1.00  0.00    -0.393 OA
ATOM     28  H5  UNL     1      41.194  30.371  39.106  1.00  0.00     0.210 HD
ENDBRANCH   4  27
TORSDOF 11
ENDMDL
MODEL 5
REMARK VINA RESULT: -4.807435970      2.259      3.551
REMARK  11 active torsions:
REMARK  status: ('A' for Active; 'I' for Inactive)
REMARK    1  A    between atoms: O1_2  and  C2_3 
REMARK    2  A    between atoms: C2_3  and  C4_5 
REMARK    3  A    between atoms: C4_5  and  C5_6 
REMARK    4  A    between atoms: C4_5  and  C8_14 
REMARK    5  A    between atoms: C5_6  and  O2_7 
REMARK    6  A    between atoms: C5_6  and  C6_9 
REMARK    7  A    between atoms: C6_9  and  C7_10 
REMARK    8  A    between atoms: C9_15  and  O3_16 
REMARK    9  A    between atoms: C10_18  and  O4_19 
REMARK   10  A    between atoms: C11_21  and  O5_22 
REMARK   11  A    between atoms: C13_25  and  O6_27 
ROOT
HETATM    1  C8  UNL     1      39.670  23.384  42.135  1.00  0.00     0.060 C 
HETATM    2  C9  UNL     1      39.908  22.198  43.091  1.00  0.00     0.157 C 
HETATM    3  C10 UNL     1      38.902  22.260  44.234  1.00  0.00     0.176 C 
HETATM    4  C11 UNL     1      37.512  22.321  43.719  1.00  0.00     0.152 C 
HETATM    5  C12 UNL     1      37.277  22.986  42.447  1.00  0.00     0.072 C 
HETATM    6  C13 UNL     1      38.383  23.201  41.437  1.00  0.00     0.066 C 
HETATM    7  C14 UNL     1      38.343  21.976  40.537  1.00  0.00     0.046 C 
ENDROOT
BRANCH   1   8
HETATM    8  C4  UNL     1      40.903  23.897  41.542  1.00  0.00     0.053 C 
BRANCH   8   9
HETATM    9  C2  UNL     1      42.188  23.202  42.060  1.00  0.00     0.123 C 
HETATM   10  C3  UNL     1      42.770  23.865  43.270  1.00  0.00     0.040 C 
BRANCH   9  11
HETATM   11  O1  UNL     1      43.080  22.887  41.121  1.00  0.00    -0.391 OA
HETATM   12  C1  UNL     1      42.868  21.904  40.226  1.00  0.00     0.202 C 
ENDBRANCH   9  11
ENDBRANCH   8   9
BRANCH   8  13
HETATM   13  C5  UNL     1      41.276  25.330  41.526  1.00  0.00     0.130 C 
BRANCH  13  14
HETATM   14  O2  UNL     1      42.262  25.408  40.394  1.00  0.00    -0.395 OA
ATOM     15  H2  UNL     1      43.002  24.911  40.722  1.00  0.00     0.210 HD
ENDBRANCH  13  14
BRANCH  13  16
HETATM   16  C6  UNL     1      40.332  26.353  40.939  1.00  0.00     0.076 C 
BRANCH  16  17
HETATM   17  C7  UNL     1      40.639  27.753  41.385  1.00  0.00     0.055 C 
HETATM   18  N1  UNL     1      39.866  28.736  41.137  1.00  0.00    -0.411 N 
ATOM     19  H12 UNL     1      39.010  28.547  40.614  1.00  0.00     0.155 HD
ATOM     20  H11 UNL     1      40.074  29.687  41.440  1.00  0.00     0.155 HD
ENDBRANCH  16  17
ENDBRANCH  13  16
ENDBRANCH   8  13
ENDBRANCH   1   8
BRANCH   2  21
HETATM   21  O3  UNL     1      39.681  21.000  42.431  1.00  0.00    -0.392 OA
ATOM     22  H3  UNL     1      40.202  20.308  42.821  1.00  0.00     0.210 HD
ENDBRANCH   2  21
BRANCH   6  23
HETATM   23  O6  UNL     1      37.964  24.332  40.769  1.00  0.00    -0.385 OA
HETATM   24  C15 UNL     1      36.641  24.480  40.501  1.00  0.00     0.202 C 
ENDBRANCH   6  23
BRANCH   3  25
HETATM   25  O4  UNL     1      39.162  21.216  45.101  1.00  0.00    -0.390 OA
ATOM     26  H4  UNL     1      38.926  21.491  45.980  1.00  0.00     0.210 HD
ENDBRANCH   3  25
BRANCH   4  27
HETATM   27  O5  UNL     1      36.967  21.013  43.639  1.00  0.00    -0.393 OA
ATOM     28  H5  UNL     1      36.019  21.058  43.612  1.00  0.00     0.210 HD
ENDBRANCH   4  27
TORSDOF 11
ENDMDL
