MODEL 1
REMARK VINA RESULT: -7.831691308      0.000      0.000
REMARK  13 active torsions:
REMARK  status: ('A' for Active; 'I' for Inactive)
REMARK    1  A    between atoms: C2_2  and  C3_3 
REMARK    2  A    between atoms: C3_3  and  C4_4 
REMARK    3  A    between atoms: C4_4  and  C5_5 
REMARK    4  A    between atoms: C5_5  and  C6_6 
REMARK    5  A    between atoms: C6_6  and  N1_7 
REMARK    6  A    between atoms: N1_7  and  C7_9 
REMARK    7  A    between atoms: N3_13  and  C9_15 
REMARK    8  A    between atoms: C9_15  and  C10_16 
REMARK    9  A    between atoms: C10_16  and  C11_17 
REMARK   10  A    between atoms: N6_26  and  C16_27 
REMARK   11  A    between atoms: C19_30  and  N7_31 
REMARK   12  A    between atoms: N7_31  and  C20_33 
REMARK   13  A    between atoms: C20_33  and  C21_34 
ROOT
HETATM    1  C7  UNL     1      11.427  39.850  -5.967  1.00  0.00     0.151 A 
HETATM    2  N2  UNL     1      10.951  41.075  -6.229  1.00  0.00    -0.174 N 
ATOM      3  H2  UNL     1      10.395  41.552  -5.519  1.00  0.00     0.186 HD
HETATM    4  C8  UNL     1      11.186  41.694  -7.398  1.00  0.00     0.681 A 
HETATM    5  N3  UNL     1      10.724  42.872  -7.644  1.00  0.00    -0.226 N 
ATOM      6  H3  UNL     1      10.168  43.342  -6.929  1.00  0.00     0.177 HD
HETATM    7  N4  UNL     1      11.918  41.054  -8.319  1.00  0.00    -0.174 N 
ATOM      8  H4  UNL     1      12.100  41.517  -9.210  1.00  0.00     0.186 HD
HETATM    9  C13 UNL     1      12.430  39.806  -8.109  1.00  0.00     0.155 A 
HETATM   10  C14 UNL     1      12.194  39.179  -6.928  1.00  0.00     0.123 A 
HETATM   11  N5  UNL     1      12.784  37.989  -6.949  1.00  0.00    -0.346 N 
ATOM     12  H5  UNL     1      12.783  37.291  -6.205  1.00  0.00     0.167 HD
HETATM   13  C15 UNL     1      13.388  37.890  -8.163  1.00  0.00     0.185 A 
HETATM   14  N6  UNL     1      13.180  38.993  -8.880  1.00  0.00    -0.322 N 
ENDROOT
BRANCH  14  15
HETATM   15  C16 UNL     1      13.605  39.364 -10.200  1.00  0.00     0.094 C 
HETATM   16  C17 UNL     1      14.749  40.337 -10.067  1.00  0.00     0.028 C 
HETATM   17  C18 UNL     1      15.760  39.990 -11.150  1.00  0.00     0.027 C 
HETATM   18  C19 UNL     1      15.051  38.952 -11.961  1.00  0.00     0.079 C 
HETATM   19  C25 UNL     1      14.290  38.188 -10.912  1.00  0.00     0.050 C 
BRANCH  18  20
HETATM   20  N7  UNL     1      15.870  38.175 -12.805  1.00  0.00    -0.412 N 
ATOM     21  H7  UNL     1      16.526  38.608 -13.454  1.00  0.00     0.153 HD
BRANCH  20  22
HETATM   22  C20 UNL     1      15.744  36.768 -12.714  1.00  0.00     0.171 C 
BRANCH  22  23
HETATM   23  C21 UNL     1      15.000  36.266 -13.892  1.00  0.00     0.026 A 
HETATM   24  C22 UNL     1      13.644  36.044 -13.999  1.00  0.00     0.028 A 
HETATM   25  C23 UNL     1      13.363  35.577 -15.263  1.00  0.00     0.019 A 
HETATM   26  C24 UNL     1      14.555  35.514 -15.928  1.00  0.00     0.088 A 
HETATM   27  N8  UNL     1      15.513  35.932 -15.082  1.00  0.00    -0.368 N 
ATOM     28  H8  UNL     1      16.504  35.986 -15.318  1.00  0.00     0.165 HD
ENDBRANCH  22  23
ENDBRANCH  20  22
ENDBRANCH  18  20
ENDBRANCH  14  15
BRANCH   1  29
HETATM   29  N1  UNL     1      11.176  39.305  -4.844  1.00  0.00    -0.354 N 
ATOM     30  H1  UNL     1      11.882  39.447  -4.122  1.00  0.00     0.166 HD
BRANCH  29  31
HETATM   31  C6  UNL     1      10.063  38.535  -4.457  1.00  0.00     0.062 C 
BRANCH  31  32
HETATM   32  C5  UNL     1       9.897  38.451  -2.985  1.00  0.00     0.044 C 
BRANCH  32  33
HETATM   33  C4  UNL     1       9.406  37.155  -2.473  1.00  0.00     0.005 C 
BRANCH  33  34
HETATM   34  C3  UNL     1       9.711  36.908  -1.034  1.00  0.00     0.000 C 
BRANCH  34  35
HETATM   35  C2  UNL     1      10.236  38.213  -0.393  1.00  0.00    -0.005 C 
HETATM   36  C1  UNL     1       9.531  38.514   0.896  1.00  0.00     0.005 C 
ENDBRANCH  34  35
ENDBRANCH  33  34
ENDBRANCH  32  33
ENDBRANCH  31  32
ENDBRANCH  29  31
ENDBRANCH   1  29
BRANCH   5  37
HETATM   37  C9  UNL     1      10.967  43.553  -8.899  1.00  0.00     0.138 C 
BRANCH  37  38
HETATM   38  C10 UNL     1      12.013  44.634  -8.718  1.00  0.00     0.020 C 
BRANCH  38  39
HETATM   39  C11 UNL     1      13.271  44.206  -9.464  1.00  0.00    -0.003 C 
HETATM   40  C12 UNL     1      14.301  43.759  -8.452  1.00  0.00     0.005 C 
ENDBRANCH  38  39
ENDBRANCH  37  38
ENDBRANCH   5  37
TORSDOF 13
ENDMDL
MODEL 2
REMARK VINA RESULT: -7.818374719      0.848      1.440
REMARK  13 active torsions:
REMARK  status: ('A' for Active; 'I' for Inactive)
REMARK    1  A    between atoms: C2_2  and  C3_3 
REMARK    2  A    between atoms: C3_3  and  C4_4 
REMARK    3  A    between atoms: C4_4  and  C5_5 
REMARK    4  A    between atoms: C5_5  and  C6_6 
REMARK    5  A    between atoms: C6_6  and  N1_7 
REMARK    6  A    between atoms: N1_7  and  C7_9 
REMARK    7  A    between atoms: N3_13  and  C9_15 
REMARK    8  A    between atoms: C9_15  and  C10_16 
REMARK    9  A    between atoms: C10_16  and  C11_17 
REMARK   10  A    between atoms: N6_26  and  C16_27 
REMARK   11  A    between atoms: C19_30  and  N7_31 
REMARK   12  A    between atoms: N7_31  and  C20_33 
REMARK   13  A    between atoms: C20_33  and  C21_34 
ROOT
HETATM    1  C7  UNL     1      11.395  39.880  -5.957  1.00  0.00     0.151 A 
HETATM    2  N2  UNL     1      10.897  41.089  -6.251  1.00  0.00    -0.174 N 
ATOM      3  H2  UNL     1      10.319  41.567  -5.559  1.00  0.00     0.186 HD
HETATM    4  C8  UNL     1      11.136  41.689  -7.428  1.00  0.00     0.681 A 
HETATM    5  N3  UNL     1      10.652  42.852  -7.706  1.00  0.00    -0.226 N 
ATOM      6  H3  UNL     1      10.074  43.323  -7.009  1.00  0.00     0.177 HD
HETATM    7  N4  UNL     1      11.897  41.048  -8.325  1.00  0.00    -0.174 N 
ATOM      8  H4  UNL     1      12.083  41.497  -9.222  1.00  0.00     0.186 HD
HETATM    9  C13 UNL     1      12.434  39.816  -8.082  1.00  0.00     0.155 A 
HETATM   10  C14 UNL     1      12.193  39.208  -6.892  1.00  0.00     0.123 A 
HETATM   11  N5  UNL     1      12.809  38.032  -6.880  1.00  0.00    -0.346 N 
ATOM     12  H5  UNL     1      12.812  37.348  -6.122  1.00  0.00     0.167 HD
HETATM   13  C15 UNL     1      13.435  37.922  -8.082  1.00  0.00     0.185 A 
HETATM   14  N6  UNL     1      13.213  39.005  -8.824  1.00  0.00    -0.322 N 
ENDROOT
BRANCH  14  15
HETATM   15  C16 UNL     1      13.651  39.359 -10.145  1.00  0.00     0.094 C 
HETATM   16  C17 UNL     1      14.788  40.341 -10.013  1.00  0.00     0.028 C 
HETATM   17  C18 UNL     1      15.814  39.984 -11.079  1.00  0.00     0.027 C 
HETATM   18  C19 UNL     1      15.120  38.930 -11.882  1.00  0.00     0.079 C 
HETATM   19  C25 UNL     1      14.351  38.177 -10.831  1.00  0.00     0.050 C 
BRANCH  18  20
HETATM   20  N7  UNL     1      15.953  38.145 -12.706  1.00  0.00    -0.412 N 
ATOM     21  H7  UNL     1      16.639  38.572 -13.328  1.00  0.00     0.153 HD
BRANCH  20  22
HETATM   22  C20 UNL     1      15.798  36.740 -12.633  1.00  0.00     0.171 C 
BRANCH  22  23
HETATM   23  C21 UNL     1      15.052  36.268 -13.821  1.00  0.00     0.026 A 
HETATM   24  C22 UNL     1      13.693  36.063 -13.936  1.00  0.00     0.028 A 
HETATM   25  C23 UNL     1      13.411  35.623 -15.209  1.00  0.00     0.019 A 
HETATM   26  C24 UNL     1      14.603  35.558 -15.872  1.00  0.00     0.088 A 
HETATM   27  N8  UNL     1      15.564  35.950 -15.016  1.00  0.00    -0.368 N 
ATOM     28  H8  UNL     1      16.556  35.998 -15.249  1.00  0.00     0.165 HD
ENDBRANCH  22  23
ENDBRANCH  20  22
ENDBRANCH  18  20
ENDBRANCH  14  15
BRANCH   1  29
HETATM   29  N1  UNL     1      11.139  39.353  -4.827  1.00  0.00    -0.354 N 
ATOM     30  H1  UNL     1      11.828  39.528  -4.096  1.00  0.00     0.166 HD
BRANCH  29  31
HETATM   31  C6  UNL     1      10.039  38.562  -4.443  1.00  0.00     0.062 C 
BRANCH  31  32
HETATM   32  C5  UNL     1       9.873  38.472  -2.971  1.00  0.00     0.044 C 
BRANCH  32  33
HETATM   33  C4  UNL     1       9.318  37.198  -2.471  1.00  0.00     0.005 C 
BRANCH  33  34
HETATM   34  C3  UNL     1       9.863  36.767  -1.150  1.00  0.00     0.000 C 
BRANCH  34  35
HETATM   35  C2  UNL     1       8.950  37.302  -0.024  1.00  0.00    -0.005 C 
HETATM   36  C1  UNL     1       9.568  38.477   0.672  1.00  0.00     0.005 C 
ENDBRANCH  34  35
ENDBRANCH  33  34
ENDBRANCH  32  33
ENDBRANCH  31  32
ENDBRANCH  29  31
ENDBRANCH   1  29
BRANCH   5  37
HETATM   37  C9  UNL     1      10.900  43.512  -8.971  1.00  0.00     0.138 C 
BRANCH  37  38
HETATM   38  C10 UNL     1       9.629  43.567  -9.795  1.00  0.00     0.020 C 
BRANCH  38  39
HETATM   39  C11 UNL     1       9.021  44.956  -9.636  1.00  0.00    -0.003 C 
HETATM   40  C12 UNL     1       8.916  45.593 -11.003  1.00  0.00     0.005 C 
ENDBRANCH  38  39
ENDBRANCH  37  38
ENDBRANCH   5  37
TORSDOF 13
ENDMDL
MODEL 3
REMARK VINA RESULT: -7.811457828      2.384      4.052
REMARK  13 active torsions:
REMARK  status: ('A' for Active; 'I' for Inactive)
REMARK    1  A    between atoms: C2_2  and  C3_3 
REMARK    2  A    between atoms: C3_3  and  C4_4 
REMARK    3  A    between atoms: C4_4  and  C5_5 
REMARK    4  A    between atoms: C5_5  and  C6_6 
REMARK    5  A    between atoms: C6_6  and  N1_7 
REMARK    6  A    between atoms: N1_7  and  C7_9 
REMARK    7  A    between atoms: N3_13  and  C9_15 
REMARK    8  A    between atoms: C9_15  and  C10_16 
REMARK    9  A    between atoms: C10_16  and  C11_17 
REMARK   10  A    between atoms: N6_26  and  C16_27 
REMARK   11  A    between atoms: C19_30  and  N7_31 
REMARK   12  A    between atoms: N7_31  and  C20_33 
REMARK   13  A    between atoms: C20_33  and  C21_34 
ROOT
HETATM    1  C7  UNL     1      10.271  38.585  -3.975  1.00  0.00     0.151 A 
HETATM    2  N2  UNL     1       9.447  39.598  -3.676  1.00  0.00    -0.174 N 
ATOM      3  H2  UNL     1       8.860  39.529  -2.844  1.00  0.00     0.186 HD
HETATM    4  C8  UNL     1       9.370  40.701  -4.437  1.00  0.00     0.681 A 
HETATM    5  N3  UNL     1       8.573  41.672  -4.145  1.00  0.00    -0.226 N 
ATOM      6  H3  UNL     1       7.989  41.594  -3.311  1.00  0.00     0.177 HD
HETATM    7  N4  UNL     1      10.146  40.777  -5.526  1.00  0.00    -0.174 N 
ATOM      8  H4  UNL     1      10.094  41.611  -6.111  1.00  0.00     0.186 HD
HETATM    9  C13 UNL     1      11.007  39.778  -5.881  1.00  0.00     0.155 A 
HETATM   10  C14 UNL     1      11.086  38.662  -5.112  1.00  0.00     0.123 A 
HETATM   11  N5  UNL     1      11.979  37.836  -5.645  1.00  0.00    -0.346 N 
ATOM     12  H5  UNL     1      12.255  36.920  -5.292  1.00  0.00     0.167 HD
HETATM   13  C15 UNL     1      12.452  38.460  -6.758  1.00  0.00     0.185 A 
HETATM   14  N6  UNL     1      11.866  39.646  -6.911  1.00  0.00    -0.322 N 
ENDROOT
BRANCH  14  15
HETATM   15  C16 UNL     1      12.024  40.662  -7.914  1.00  0.00     0.094 C 
HETATM   16  C17 UNL     1      12.990  41.693  -7.387  1.00  0.00     0.028 C 
HETATM   17  C18 UNL     1      13.878  42.111  -8.550  1.00  0.00     0.027 C 
HETATM   18  C19 UNL     1      13.248  41.429  -9.723  1.00  0.00     0.079 C 
HETATM   19  C25 UNL     1      12.791  40.124  -9.131  1.00  0.00     0.050 C 
BRANCH  18  20
HETATM   20  N7  UNL     1      14.058  41.325 -10.873  1.00  0.00    -0.412 N 
ATOM     21  H7  UNL     1      13.855  41.863 -11.715  1.00  0.00     0.153 HD
BRANCH  20  22
HETATM   22  C20 UNL     1      15.163  40.442 -10.810  1.00  0.00     0.171 C 
BRANCH  22  23
HETATM   23  C21 UNL     1      14.828  39.187 -11.520  1.00  0.00     0.026 A 
HETATM   24  C22 UNL     1      14.269  39.052 -12.773  1.00  0.00     0.028 A 
HETATM   25  C23 UNL     1      14.124  37.714 -13.059  1.00  0.00     0.019 A 
HETATM   26  C24 UNL     1      14.596  37.031 -11.974  1.00  0.00     0.088 A 
HETATM   27  N8  UNL     1      15.009  37.938 -11.073  1.00  0.00    -0.368 N 
ATOM     28  H8  UNL     1      15.410  37.705 -10.164  1.00  0.00     0.165 HD
ENDBRANCH  22  23
ENDBRANCH  20  22
ENDBRANCH  18  20
ENDBRANCH  14  15
BRANCH   1  29
HETATM   29  N1  UNL     1      10.307  37.560  -3.222  1.00  0.00    -0.354 N 
ATOM     30  H1  UNL     1      11.191  37.052  -3.216  1.00  0.00     0.166 HD
BRANCH  29  31
HETATM   31  C6  UNL     1       9.299  37.028  -2.395  1.00  0.00     0.062 C 
BRANCH  31  32
HETATM   32  C5  UNL     1       9.762  36.768  -1.009  1.00  0.00     0.044 C 
BRANCH  32  33
HETATM   33  C4  UNL     1      10.526  37.864  -0.377  1.00  0.00     0.005 C 
BRANCH  33  34
HETATM   34  C3  UNL     1       9.785  38.590   0.695  1.00  0.00     0.000 C 
BRANCH  34  35
HETATM   35  C2  UNL     1       8.485  37.822   1.025  1.00  0.00    -0.005 C 
HETATM   36  C1  UNL     1       7.940  38.215   2.366  1.00  0.00     0.005 C 
ENDBRANCH  34  35
ENDBRANCH  33  34
ENDBRANCH  32  33
ENDBRANCH  31  32
ENDBRANCH  29  31
ENDBRANCH   1  29
BRANCH   5  37
HETATM   37  C9  UNL     1       8.477  42.868  -4.956  1.00  0.00     0.138 C 
BRANCH  37  38
HETATM   38  C10 UNL     1       7.026  43.260  -5.147  1.00  0.00     0.020 C 
BRANCH  38  39
HETATM   39  C11 UNL     1       6.167  42.329  -4.299  1.00  0.00    -0.003 C 
HETATM   40  C12 UNL     1       5.434  43.158  -3.269  1.00  0.00     0.005 C 
ENDBRANCH  38  39
ENDBRANCH  37  38
ENDBRANCH   5  37
TORSDOF 13
ENDMDL
MODEL 4
REMARK VINA RESULT: -7.786696760      1.532      4.206
REMARK  13 active torsions:
REMARK  status: ('A' for Active; 'I' for Inactive)
REMARK    1  A    between atoms: C2_2  and  C3_3 
REMARK    2  A    between atoms: C3_3  and  C4_4 
REMARK    3  A    between atoms: C4_4  and  C5_5 
REMARK    4  A    between atoms: C5_5  and  C6_6 
REMARK    5  A    between atoms: C6_6  and  N1_7 
REMARK    6  A    between atoms: N1_7  and  C7_9 
REMARK    7  A    between atoms: N3_13  and  C9_15 
REMARK    8  A    between atoms: C9_15  and  C10_16 
REMARK    9  A    between atoms: C10_16  and  C11_17 
REMARK   10  A    between atoms: N6_26  and  C16_27 
REMARK   11  A    between atoms: C19_30  and  N7_31 
REMARK   12  A    between atoms: N7_31  and  C20_33 
REMARK   13  A    between atoms: C20_33  and  C21_34 
ROOT
HETATM    1  C7  UNL     1      11.672  38.950  -5.734  1.00  0.00     0.151 A 
HETATM    2  N2  UNL     1      12.442  38.056  -6.367  1.00  0.00    -0.174 N 
ATOM      3  H2  UNL     1      12.674  37.180  -5.897  1.00  0.00     0.186 HD
HETATM    4  C8  UNL     1      12.919  38.277  -7.604  1.00  0.00     0.681 A 
HETATM    5  N3  UNL     1      13.661  37.413  -8.207  1.00  0.00    -0.226 N 
ATOM      6  H3  UNL     1      13.888  36.540  -7.729  1.00  0.00     0.177 HD
HETATM    7  N4  UNL     1      12.606  39.430  -8.208  1.00  0.00    -0.174 N 
ATOM      8  H4  UNL     1      12.964  39.607  -9.146  1.00  0.00     0.186 HD
HETATM    9  C13 UNL     1      11.823  40.379  -7.613  1.00  0.00     0.155 A 
HETATM   10  C14 UNL     1      11.341  40.156  -6.364  1.00  0.00     0.123 A 
HETATM   11  N5  UNL     1      10.614  41.205  -5.992  1.00  0.00    -0.346 N 
ATOM     12  H5  UNL     1      10.125  41.328  -5.106  1.00  0.00     0.167 HD
HETATM   13  C15 UNL     1      10.655  42.079  -7.033  1.00  0.00     0.185 A 
HETATM   14  N6  UNL     1      11.390  41.585  -8.028  1.00  0.00    -0.322 N 
ENDROOT
BRANCH  14  15
HETATM   15  C16 UNL     1      11.727  42.121  -9.317  1.00  0.00     0.094 C 
HETATM   16  C17 UNL     1      12.351  43.478  -9.111  1.00  0.00     0.028 C 
HETATM   17  C18 UNL     1      13.498  43.599 -10.104  1.00  0.00     0.027 C 
HETATM   18  C19 UNL     1      13.349  42.375 -10.950  1.00  0.00     0.079 C 
HETATM   19  C25 UNL     1      12.892  41.346  -9.952  1.00  0.00     0.050 C 
BRANCH  18  20
HETATM   20  N7  UNL     1      14.481  42.021 -11.712  1.00  0.00    -0.412 N 
ATOM     21  H7  UNL     1      14.714  42.510 -12.576  1.00  0.00     0.153 HD
BRANCH  20  22
HETATM   22  C20 UNL     1      15.281  40.957 -11.230  1.00  0.00     0.171 C 
BRANCH  22  23
HETATM   23  C21 UNL     1      15.327  39.880 -12.244  1.00  0.00     0.026 A 
HETATM   24  C22 UNL     1      14.379  39.583 -13.201  1.00  0.00     0.028 A 
HETATM   25  C23 UNL     1      14.811  38.508 -13.943  1.00  0.00     0.019 A 
HETATM   26  C24 UNL     1      16.027  38.147 -13.436  1.00  0.00     0.088 A 
HETATM   27  N8  UNL     1      16.307  38.986 -12.422  1.00  0.00    -0.368 N 
ATOM     28  H8  UNL     1      17.158  38.945 -11.861  1.00  0.00     0.165 HD
ENDBRANCH  22  23
ENDBRANCH  20  22
ENDBRANCH  18  20
ENDBRANCH  14  15
BRANCH   1  29
HETATM   29  N1  UNL     1      11.246  38.694  -4.562  1.00  0.00    -0.354 N 
ATOM     30  H1  UNL     1      11.940  38.768  -3.818  1.00  0.00     0.166 HD
BRANCH  29  31
HETATM   31  C6  UNL     1       9.952  38.324  -4.146  1.00  0.00     0.062 C 
BRANCH  31  32
HETATM   32  C5  UNL     1       9.825  38.213  -2.672  1.00  0.00     0.044 C 
BRANCH  32  33
HETATM   33  C4  UNL     1       9.433  36.881  -2.166  1.00  0.00     0.005 C 
BRANCH  33  34
HETATM   34  C3  UNL     1       9.215  36.824  -0.691  1.00  0.00     0.000 C 
BRANCH  34  35
HETATM   35  C2  UNL     1       9.777  38.110  -0.044  1.00  0.00    -0.005 C 
HETATM   36  C1  UNL     1       9.212  38.326   1.329  1.00  0.00     0.005 C 
ENDBRANCH  34  35
ENDBRANCH  33  34
ENDBRANCH  32  33
ENDBRANCH  31  32
ENDBRANCH  29  31
ENDBRANCH   1  29
BRANCH   5  37
HETATM   37  C9  UNL     1      14.183  37.636  -9.540  1.00  0.00     0.138 C 
BRANCH  37  38
HETATM   38  C10 UNL     1      13.296  36.969 -10.572  1.00  0.00     0.020 C 
BRANCH  38  39
HETATM   39  C11 UNL     1      14.139  35.958 -11.340  1.00  0.00    -0.003 C 
HETATM   40  C12 UNL     1      13.318  35.424 -12.491  1.00  0.00     0.005 C 
ENDBRANCH  38  39
ENDBRANCH  37  38
ENDBRANCH   5  37
TORSDOF 13
ENDMDL
MODEL 5
REMARK VINA RESULT: -7.756998937      2.165      5.686
REMARK  13 active torsions:
REMARK  status: ('A' for Active; 'I' for Inactive)
REMARK    1  A    between atoms: C2_2  and  C3_3 
REMARK    2  A    between atoms: C3_3  and  C4_4 
REMARK    3  A    between atoms: C4_4  and  C5_5 
REMARK    4  A    between atoms: C5_5  and  C6_6 
REMARK    5  A    between atoms: C6_6  and  N1_7 
REMARK    6  A    between atoms: N1_7  and  C7_9 
REMARK    7  A    between atoms: N3_13  and  C9_15 
REMARK    8  A    between atoms: C9_15  and  C10_16 
REMARK    9  A    between atoms: C10_16  and  C11_17 
REMARK   10  A    between atoms: N6_26  and  C16_27 
REMARK   11  A    between atoms: C19_30  and  N7_31 
REMARK   12  A    between atoms: N7_31  and  C20_33 
REMARK   13  A    between atoms: C20_33  and  C21_34 
ROOT
HETATM    1  C7  UNL     1      11.814  38.852  -5.973  1.00  0.00     0.151 A 
HETATM    2  N2  UNL     1      12.552  37.929  -6.605  1.00  0.00    -0.174 N 
ATOM      3  H2  UNL     1      12.732  37.037  -6.142  1.00  0.00     0.186 HD
HETATM    4  C8  UNL     1      13.060  38.141  -7.830  1.00  0.00     0.681 A 
HETATM    5  N3  UNL     1      13.770  37.250  -8.432  1.00  0.00    -0.226 N 
ATOM      6  H3  UNL     1      13.947  36.361  -7.961  1.00  0.00     0.177 HD
HETATM    7  N4  UNL     1      12.814  39.316  -8.425  1.00  0.00    -0.174 N 
ATOM      8  H4  UNL     1      13.197  39.486  -9.355  1.00  0.00     0.186 HD
HETATM    9  C13 UNL     1      12.068  40.294  -7.831  1.00  0.00     0.155 A 
HETATM   10  C14 UNL     1      11.553  40.080  -6.593  1.00  0.00     0.123 A 
HETATM   11  N5  UNL     1      10.871  41.158  -6.221  1.00  0.00    -0.346 N 
ATOM     12  H5  UNL     1      10.373  41.295  -5.341  1.00  0.00     0.167 HD
HETATM   13  C15 UNL     1      10.973  42.042  -7.249  1.00  0.00     0.185 A 
HETATM   14  N6  UNL     1      11.700  41.525  -8.238  1.00  0.00    -0.322 N 
ENDROOT
BRANCH  14  15
HETATM   15  C16 UNL     1      12.085  42.059  -9.514  1.00  0.00     0.094 C 
HETATM   16  C17 UNL     1      11.840  43.547  -9.491  1.00  0.00     0.028 C 
HETATM   17  C18 UNL     1      13.002  44.203 -10.223  1.00  0.00     0.027 C 
HETATM   18  C19 UNL     1      13.755  43.039 -10.784  1.00  0.00     0.079 C 
HETATM   19  C25 UNL     1      13.609  42.007  -9.700  1.00  0.00     0.050 C 
BRANCH  18  20
HETATM   20  N7  UNL     1      15.077  43.309 -11.193  1.00  0.00    -0.412 N 
ATOM     21  H7  UNL     1      15.279  43.998 -11.917  1.00  0.00     0.153 HD
BRANCH  20  22
HETATM   22  C20 UNL     1      16.113  42.584 -10.557  1.00  0.00     0.171 C 
BRANCH  22  23
HETATM   23  C21 UNL     1      16.937  43.512  -9.750  1.00  0.00     0.026 A 
HETATM   24  C22 UNL     1      16.598  44.121  -8.560  1.00  0.00     0.028 A 
HETATM   25  C23 UNL     1      17.649  44.906  -8.143  1.00  0.00     0.019 A 
HETATM   26  C24 UNL     1      18.631  44.776  -9.083  1.00  0.00     0.088 A 
HETATM   27  N8  UNL     1      18.175  43.937 -10.030  1.00  0.00    -0.368 N 
ATOM     28  H8  UNL     1      18.706  43.659 -10.856  1.00  0.00     0.165 HD
ENDBRANCH  22  23
ENDBRANCH  20  22
ENDBRANCH  18  20
ENDBRANCH  14  15
BRANCH   1  29
HETATM   29  N1  UNL     1      11.356  38.603  -4.812  1.00  0.00    -0.354 N 
ATOM     30  H1  UNL     1      12.045  38.598  -4.061  1.00  0.00     0.166 HD
BRANCH  29  31
HETATM   31  C6  UNL     1      10.031  38.333  -4.417  1.00  0.00     0.062 C 
BRANCH  31  32
HETATM   32  C5  UNL     1       9.855  38.322  -2.944  1.00  0.00     0.044 C 
BRANCH  32  33
HETATM   33  C4  UNL     1       9.382  37.045  -2.370  1.00  0.00     0.005 C 
BRANCH  33  34
HETATM   34  C3  UNL     1       9.773  36.829  -0.946  1.00  0.00     0.000 C 
BRANCH  34  35
HETATM   35  C2  UNL     1      10.241  38.171  -0.338  1.00  0.00    -0.005 C 
HETATM   36  C1  UNL     1       9.491  38.495   0.919  1.00  0.00     0.005 C 
ENDBRANCH  34  35
ENDBRANCH  33  34
ENDBRANCH  32  33
ENDBRANCH  31  32
ENDBRANCH  29  31
ENDBRANCH   1  29
BRANCH   5  37
HETATM   37  C9  UNL     1      14.326  37.463  -9.752  1.00  0.00     0.138 C 
BRANCH  37  38
HETATM   38  C10 UNL     1      13.473  36.777 -10.801  1.00  0.00     0.020 C 
BRANCH  38  39
HETATM   39  C11 UNL     1      13.612  37.552 -12.106  1.00  0.00    -0.003 C 
HETATM   40  C12 UNL     1      14.090  38.950 -11.786  1.00  0.00     0.005 C 
ENDBRANCH  38  39
ENDBRANCH  37  38
ENDBRANCH   5  37
TORSDOF 13
ENDMDL
