MODEL 1
REMARK VINA RESULT: -7.715054042      0.000      0.000
REMARK  13 active torsions:
REMARK  status: ('A' for Active; 'I' for Inactive)
REMARK    1  A    between atoms: C2_2  and  C3_3 
REMARK    2  A    between atoms: C3_3  and  C4_4 
REMARK    3  A    between atoms: C4_4  and  C5_5 
REMARK    4  A    between atoms: C5_5  and  C6_6 
REMARK    5  A    between atoms: C6_6  and  C7_7 
REMARK    6  A    between atoms: C7_7  and  C8_8 
REMARK    7  A    between atoms: C10_14  and  N3_15 
REMARK    8  A    between atoms: N3_15  and  C11_17 
REMARK    9  A    between atoms: C11_17  and  C12_18 
REMARK   10  A    between atoms: C12_18  and  O1_19 
REMARK   11  A    between atoms: C13_23  and  N5_24 
REMARK   12  A    between atoms: C15_30  and  N7_31 
REMARK   13  A    between atoms: N7_31  and  C16_33 
ROOT
HETATM    1  C8  UNL     1      13.679  38.496  -8.806  1.00  0.00     0.055 A 
HETATM    2  N1  UNL     1      13.245  37.834  -7.731  1.00  0.00    -0.340 N 
ATOM      3  H1  UNL     1      13.540  36.873  -7.562  1.00  0.00     0.167 HD
HETATM    4  C9  UNL     1      12.396  38.463  -6.857  1.00  0.00     0.152 A 
HETATM    5  N2  UNL     1      11.950  37.827  -5.779  1.00  0.00    -0.174 N 
ATOM      6  H2  UNL     1      12.240  36.865  -5.603  1.00  0.00     0.186 HD
HETATM    7  C10 UNL     1      11.112  38.448  -4.909  1.00  0.00     0.681 A 
HETATM    8  N4  UNL     1      10.704  39.696  -5.091  1.00  0.00    -0.175 N 
ATOM      9  H4  UNL     1      10.074  40.137  -4.421  1.00  0.00     0.186 HD
HETATM   10  C13 UNL     1      11.142  40.386  -6.194  1.00  0.00     0.145 A 
HETATM   11  C14 UNL     1      12.000  39.761  -7.088  1.00  0.00     0.123 A 
HETATM   12  N6  UNL     1      12.445  40.437  -8.189  1.00  0.00    -0.335 N 
ATOM     13  H6  UNL     1      12.149  41.398  -8.356  1.00  0.00     0.168 HD
HETATM   14  C15 UNL     1      13.277  39.825  -9.049  1.00  0.00     0.125 A 
ENDROOT
BRANCH   1  15
HETATM   15  C7  UNL     1      14.611  37.898  -9.799  1.00  0.00     0.061 C 
BRANCH  15  16
HETATM   16  C6  UNL     1      14.174  36.548 -10.268  1.00  0.00     0.006 C 
BRANCH  16  17
HETATM   17  C5  UNL     1      13.217  36.702 -11.426  1.00  0.00     0.000 C 
BRANCH  17  18
HETATM   18  C4  UNL     1      13.752  37.751 -12.411  1.00  0.00     0.000 C 
BRANCH  18  19
HETATM   19  C3  UNL     1      14.077  37.110 -13.746  1.00  0.00    -0.000 C 
BRANCH  19  20
HETATM   20  C2  UNL     1      13.336  35.804 -13.901  1.00  0.00    -0.005 C 
HETATM   21  C1  UNL     1      13.260  35.482 -15.375  1.00  0.00     0.005 C 
ENDBRANCH  19  20
ENDBRANCH  18  19
ENDBRANCH  17  18
ENDBRANCH  16  17
ENDBRANCH  15  16
ENDBRANCH   1  15
BRANCH  14  22
HETATM   22  N7  UNL     1      13.710  40.379 -10.066  1.00  0.00    -0.370 N 
ATOM     23  H7  UNL     1      13.227  40.002 -10.881  1.00  0.00     0.161 HD
BRANCH  22  24
HETATM   24  C16 UNL     1      14.623  41.332 -10.484  1.00  0.00     0.083 A 
HETATM   25  C17 UNL     1      15.471  42.144  -9.511  1.00  0.00     0.027 A 
HETATM   26  C18 UNL     1      16.092  41.207 -10.564  1.00  0.00     0.027 A 
ENDBRANCH  22  24
ENDBRANCH  14  22
BRANCH   7  27
HETATM   27  N3  UNL     1      10.713  37.789  -3.882  1.00  0.00    -0.224 N 
ATOM     28  H3  UNL     1      11.085  36.843  -3.800  1.00  0.00     0.177 HD
BRANCH  27  29
HETATM   29  C11 UNL     1       9.833  38.181  -2.849  1.00  0.00     0.164 C 
BRANCH  29  30
HETATM   30  C12 UNL     1      10.701  38.491  -1.620  1.00  0.00     0.184 C 
BRANCH  30  31
HETATM   31  O1  UNL     1      11.779  39.257  -2.021  1.00  0.00    -0.399 OA
ATOM     32  H1  UNL     1      11.668  40.140  -1.686  1.00  0.00     0.209 HD
ENDBRANCH  30  31
ENDBRANCH  29  30
ENDBRANCH  27  29
ENDBRANCH   7  27
BRANCH  10  33
HETATM   33  N5  UNL     1      10.746  41.589  -6.364  1.00  0.00    -0.383 N 
ATOM     34  H52 UNL     1      10.200  42.083  -5.659  1.00  0.00     0.157 HD
ATOM     35  H51 UNL     1      10.984  42.066  -7.233  1.00  0.00     0.157 HD
ENDBRANCH  10  33
TORSDOF 13
ENDMDL
MODEL 2
REMARK VINA RESULT: -7.643021579      1.117      1.558
REMARK  13 active torsions:
REMARK  status: ('A' for Active; 'I' for Inactive)
REMARK    1  A    between atoms: C2_2  and  C3_3 
REMARK    2  A    between atoms: C3_3  and  C4_4 
REMARK    3  A    between atoms: C4_4  and  C5_5 
REMARK    4  A    between atoms: C5_5  and  C6_6 
REMARK    5  A    between atoms: C6_6  and  C7_7 
REMARK    6  A    between atoms: C7_7  and  C8_8 
REMARK    7  A    between atoms: C10_14  and  N3_15 
REMARK    8  A    between atoms: N3_15  and  C11_17 
REMARK    9  A    between atoms: C11_17  and  C12_18 
REMARK   10  A    between atoms: C12_18  and  O1_19 
REMARK   11  A    between atoms: C13_23  and  N5_24 
REMARK   12  A    between atoms: C15_30  and  N7_31 
REMARK   13  A    between atoms: N7_31  and  C16_33 
ROOT
HETATM    1  C8  UNL     1      13.641  38.501  -9.514  1.00  0.00     0.055 A 
HETATM    2  N1  UNL     1      13.296  37.904  -8.370  1.00  0.00    -0.340 N 
ATOM      3  H1  UNL     1      13.573  36.940  -8.186  1.00  0.00     0.167 HD
HETATM    4  C9  UNL     1      12.565  38.605  -7.446  1.00  0.00     0.152 A 
HETATM    5  N2  UNL     1      12.210  38.035  -6.299  1.00  0.00    -0.174 N 
ATOM      6  H2  UNL     1      12.481  37.071  -6.108  1.00  0.00     0.186 HD
HETATM    7  C10 UNL     1      11.487  38.726  -5.380  1.00  0.00     0.681 A 
HETATM    8  N4  UNL     1      11.107  39.981  -5.579  1.00  0.00    -0.175 N 
ATOM      9  H4  UNL     1      10.566  40.476  -4.871  1.00  0.00     0.186 HD
HETATM   10  C13 UNL     1      11.454  40.604  -6.752  1.00  0.00     0.145 A 
HETATM   11  C14 UNL     1      12.193  39.906  -7.697  1.00  0.00     0.123 A 
HETATM   12  N6  UNL     1      12.547  40.515  -8.869  1.00  0.00    -0.335 N 
ATOM     13  H6  UNL     1      12.269  41.478  -9.051  1.00  0.00     0.168 HD
HETATM   14  C15 UNL     1      13.264  39.833  -9.778  1.00  0.00     0.125 A 
ENDROOT
BRANCH   1  15
HETATM   15  C7  UNL     1      14.445  37.823 -10.566  1.00  0.00     0.061 C 
BRANCH  15  16
HETATM   16  C6  UNL     1      14.542  36.346 -10.362  1.00  0.00     0.006 C 
BRANCH  16  17
HETATM   17  C5  UNL     1      14.654  35.659 -11.702  1.00  0.00     0.000 C 
BRANCH  17  18
HETATM   18  C4  UNL     1      13.273  35.582 -12.368  1.00  0.00     0.000 C 
BRANCH  18  19
HETATM   19  C3  UNL     1      13.375  35.911 -13.844  1.00  0.00    -0.000 C 
BRANCH  19  20
HETATM   20  C2  UNL     1      14.601  36.748 -14.119  1.00  0.00    -0.005 C 
HETATM   21  C1  UNL     1      14.164  38.187 -14.250  1.00  0.00     0.005 C 
ENDBRANCH  19  20
ENDBRANCH  18  19
ENDBRANCH  17  18
ENDBRANCH  16  17
ENDBRANCH  15  16
ENDBRANCH   1  15
BRANCH  14  22
HETATM   22  N7  UNL     1      13.610  40.324 -10.858  1.00  0.00    -0.370 N 
ATOM     23  H7  UNL     1      13.901  39.574 -11.486  1.00  0.00     0.161 HD
BRANCH  22  24
HETATM   24  C16 UNL     1      13.741  41.536 -11.513  1.00  0.00     0.083 A 
HETATM   25  C17 UNL     1      13.552  41.684 -13.019  1.00  0.00     0.027 A 
HETATM   26  C18 UNL     1      12.667  42.425 -11.999  1.00  0.00     0.027 A 
ENDBRANCH  22  24
ENDBRANCH  14  22
BRANCH   7  27
HETATM   27  N3  UNL     1      11.172  38.129  -4.287  1.00  0.00    -0.224 N 
ATOM     28  H3  UNL     1      11.859  37.457  -3.945  1.00  0.00     0.177 HD
BRANCH  27  29
HETATM   29  C11 UNL     1      10.014  38.267  -3.490  1.00  0.00     0.164 C 
BRANCH  29  30
HETATM   30  C12 UNL     1      10.493  38.595  -2.067  1.00  0.00     0.184 C 
BRANCH  30  31
HETATM   31  O1  UNL     1      11.754  39.154  -2.141  1.00  0.00    -0.399 OA
ATOM     32  H1  UNL     1      11.914  39.653  -1.347  1.00  0.00     0.209 HD
ENDBRANCH  30  31
ENDBRANCH  29  30
ENDBRANCH  27  29
ENDBRANCH   7  27
BRANCH  10  33
HETATM   33  N5  UNL     1      11.085  41.813  -6.938  1.00  0.00    -0.383 N 
ATOM     34  H52 UNL     1      10.796  42.415  -6.168  1.00  0.00     0.157 HD
ATOM     35  H51 UNL     1      11.081  42.184  -7.889  1.00  0.00     0.157 HD
ENDBRANCH  10  33
TORSDOF 13
ENDMDL
MODEL 3
REMARK VINA RESULT: -7.543881087      1.191      1.471
REMARK  13 active torsions:
REMARK  status: ('A' for Active; 'I' for Inactive)
REMARK    1  A    between atoms: C2_2  and  C3_3 
REMARK    2  A    between atoms: C3_3  and  C4_4 
REMARK    3  A    between atoms: C4_4  and  C5_5 
REMARK    4  A    between atoms: C5_5  and  C6_6 
REMARK    5  A    between atoms: C6_6  and  C7_7 
REMARK    6  A    between atoms: C7_7  and  C8_8 
REMARK    7  A    between atoms: C10_14  and  N3_15 
REMARK    8  A    between atoms: N3_15  and  C11_17 
REMARK    9  A    between atoms: C11_17  and  C12_18 
REMARK   10  A    between atoms: C12_18  and  O1_19 
REMARK   11  A    between atoms: C13_23  and  N5_24 
REMARK   12  A    between atoms: C15_30  and  N7_31 
REMARK   13  A    between atoms: N7_31  and  C16_33 
ROOT
HETATM    1  C8  UNL     1      13.381  38.210  -8.808  1.00  0.00     0.055 A 
HETATM    2  N1  UNL     1      13.004  37.642  -7.659  1.00  0.00    -0.340 N 
ATOM      3  H1  UNL     1      13.278  36.684  -7.442  1.00  0.00     0.167 HD
HETATM    4  C9  UNL     1      12.243  38.363  -6.776  1.00  0.00     0.152 A 
HETATM    5  N2  UNL     1      11.855  37.822  -5.626  1.00  0.00    -0.174 N 
ATOM      6  H2  UNL     1      12.124  36.864  -5.402  1.00  0.00     0.186 HD
HETATM    7  C10 UNL     1      11.103  38.534  -4.747  1.00  0.00     0.681 A 
HETATM    8  N4  UNL     1      10.726  39.781  -4.990  1.00  0.00    -0.175 N 
ATOM      9  H4  UNL     1      10.162  40.292  -4.311  1.00  0.00     0.186 HD
HETATM   10  C13 UNL     1      11.105  40.375  -6.168  1.00  0.00     0.145 A 
HETATM   11  C14 UNL     1      11.874  39.655  -7.072  1.00  0.00     0.123 A 
HETATM   12  N6  UNL     1      12.261  40.235  -8.248  1.00  0.00    -0.335 N 
ATOM     13  H6  UNL     1      11.985  41.192  -8.463  1.00  0.00     0.168 HD
HETATM   14  C15 UNL     1      13.007  39.532  -9.118  1.00  0.00     0.125 A 
ENDROOT
BRANCH   1  15
HETATM   15  C7  UNL     1      14.217  37.507  -9.817  1.00  0.00     0.061 C 
BRANCH  15  16
HETATM   16  C6  UNL     1      13.411  36.705 -10.785  1.00  0.00     0.006 C 
BRANCH  16  17
HETATM   17  C5  UNL     1      14.333  36.031 -11.772  1.00  0.00     0.000 C 
BRANCH  17  18
HETATM   18  C4  UNL     1      13.539  35.574 -13.004  1.00  0.00     0.000 C 
BRANCH  18  19
HETATM   19  C3  UNL     1      13.824  36.479 -14.186  1.00  0.00    -0.000 C 
BRANCH  19  20
HETATM   20  C2  UNL     1      14.801  37.564 -13.801  1.00  0.00    -0.005 C 
HETATM   21  C1  UNL     1      14.138  38.899 -14.047  1.00  0.00     0.005 C 
ENDBRANCH  19  20
ENDBRANCH  18  19
ENDBRANCH  17  18
ENDBRANCH  16  17
ENDBRANCH  15  16
ENDBRANCH   1  15
BRANCH  14  22
HETATM   22  N7  UNL     1      13.384  39.997 -10.199  1.00  0.00    -0.370 N 
ATOM     23  H7  UNL     1      12.857  39.554 -10.952  1.00  0.00     0.161 HD
BRANCH  22  24
HETATM   24  C16 UNL     1      14.271  40.907 -10.746  1.00  0.00     0.083 A 
HETATM   25  C17 UNL     1      15.326  41.630  -9.916  1.00  0.00     0.027 A 
HETATM   26  C18 UNL     1      15.693  40.697 -11.085  1.00  0.00     0.027 A 
ENDBRANCH  22  24
ENDBRANCH  14  22
BRANCH   7  27
HETATM   27  N3  UNL     1      10.758  37.964  -3.649  1.00  0.00    -0.224 N 
ATOM     28  H3  UNL     1      11.519  37.532  -3.125  1.00  0.00     0.177 HD
BRANCH  27  29
HETATM   29  C11 UNL     1       9.479  37.847  -3.060  1.00  0.00     0.164 C 
BRANCH  29  30
HETATM   30  C12 UNL     1       9.612  36.839  -1.909  1.00  0.00     0.184 C 
BRANCH  30  31
HETATM   31  O1  UNL     1       8.483  36.041  -1.886  1.00  0.00    -0.399 OA
ATOM     32  H1  UNL     1       8.568  35.413  -1.177  1.00  0.00     0.209 HD
ENDBRANCH  30  31
ENDBRANCH  29  30
ENDBRANCH  27  29
ENDBRANCH   7  27
BRANCH  10  33
HETATM   33  N5  UNL     1      10.738  41.577  -6.396  1.00  0.00    -0.383 N 
ATOM     34  H52 UNL     1      10.060  41.807  -7.122  1.00  0.00     0.157 HD
ATOM     35  H51 UNL     1      11.139  42.328  -5.834  1.00  0.00     0.157 HD
ENDBRANCH  10  33
TORSDOF 13
ENDMDL
MODEL 4
REMARK VINA RESULT: -7.542699645      0.659      1.091
REMARK  13 active torsions:
REMARK  status: ('A' for Active; 'I' for Inactive)
REMARK    1  A    between atoms: C2_2  and  C3_3 
REMARK    2  A    between atoms: C3_3  and  C4_4 
REMARK    3  A    between atoms: C4_4  and  C5_5 
REMARK    4  A    between atoms: C5_5  and  C6_6 
REMARK    5  A    between atoms: C6_6  and  C7_7 
REMARK    6  A    between atoms: C7_7  and  C8_8 
REMARK    7  A    between atoms: C10_14  and  N3_15 
REMARK    8  A    between atoms: N3_15  and  C11_17 
REMARK    9  A    between atoms: C11_17  and  C12_18 
REMARK   10  A    between atoms: C12_18  and  O1_19 
REMARK   11  A    between atoms: C13_23  and  N5_24 
REMARK   12  A    between atoms: C15_30  and  N7_31 
REMARK   13  A    between atoms: N7_31  and  C16_33 
ROOT
HETATM    1  C8  UNL     1      13.419  38.222  -8.881  1.00  0.00     0.055 A 
HETATM    2  N1  UNL     1      13.028  37.639  -7.744  1.00  0.00    -0.340 N 
ATOM      3  H1  UNL     1      13.290  36.675  -7.541  1.00  0.00     0.167 HD
HETATM    4  C9  UNL     1      12.269  38.354  -6.854  1.00  0.00     0.152 A 
HETATM    5  N2  UNL     1      11.869  37.799  -5.715  1.00  0.00    -0.174 N 
ATOM      6  H2  UNL     1      12.126  36.834  -5.505  1.00  0.00     0.186 HD
HETATM    7  C10 UNL     1      11.119  38.504  -4.829  1.00  0.00     0.681 A 
HETATM    8  N4  UNL     1      10.757  39.760  -5.054  1.00  0.00    -0.175 N 
ATOM      9  H4  UNL     1      10.194  40.265  -4.370  1.00  0.00     0.186 HD
HETATM   10  C13 UNL     1      11.150  40.368  -6.220  1.00  0.00     0.145 A 
HETATM   11  C14 UNL     1      11.917  39.655  -7.131  1.00  0.00     0.123 A 
HETATM   12  N6  UNL     1      12.318  40.250  -8.295  1.00  0.00    -0.335 N 
ATOM     13  H6  UNL     1      12.054  41.214  -8.496  1.00  0.00     0.168 HD
HETATM   14  C15 UNL     1      13.061  39.554  -9.171  1.00  0.00     0.125 A 
ENDROOT
BRANCH   1  15
HETATM   15  C7  UNL     1      14.254  37.527  -9.896  1.00  0.00     0.061 C 
BRANCH  15  16
HETATM   16  C6  UNL     1      13.452  36.675 -10.826  1.00  0.00     0.006 C 
BRANCH  16  17
HETATM   17  C5  UNL     1      14.372  36.021 -11.830  1.00  0.00     0.000 C 
BRANCH  17  18
HETATM   18  C4  UNL     1      13.568  35.562 -13.054  1.00  0.00     0.000 C 
BRANCH  18  19
HETATM   19  C3  UNL     1      13.804  36.495 -14.226  1.00  0.00    -0.000 C 
BRANCH  19  20
HETATM   20  C2  UNL     1      14.820  37.553 -13.866  1.00  0.00    -0.005 C 
HETATM   21  C1  UNL     1      14.159  38.903 -14.010  1.00  0.00     0.005 C 
ENDBRANCH  19  20
ENDBRANCH  18  19
ENDBRANCH  17  18
ENDBRANCH  16  17
ENDBRANCH  15  16
ENDBRANCH   1  15
BRANCH  14  22
HETATM   22  N7  UNL     1      13.450  40.031 -10.243  1.00  0.00    -0.370 N 
ATOM     23  H7  UNL     1      12.900  39.632 -11.003  1.00  0.00     0.161 HD
BRANCH  22  24
HETATM   24  C16 UNL     1      14.371  40.919 -10.771  1.00  0.00     0.083 A 
HETATM   25  C17 UNL     1      15.435  41.606  -9.922  1.00  0.00     0.027 A 
HETATM   26  C18 UNL     1      15.791  40.669 -11.091  1.00  0.00     0.027 A 
ENDBRANCH  22  24
ENDBRANCH  14  22
BRANCH   7  27
HETATM   27  N3  UNL     1      10.761  37.920  -3.743  1.00  0.00    -0.224 N 
ATOM     28  H3  UNL     1      11.227  37.034  -3.551  1.00  0.00     0.177 HD
BRANCH  27  29
HETATM   29  C11 UNL     1       9.815  38.325  -2.775  1.00  0.00     0.164 C 
BRANCH  29  30
HETATM   30  C12 UNL     1      10.609  38.754  -1.532  1.00  0.00     0.184 C 
BRANCH  30  31
HETATM   31  O1  UNL     1      11.823  39.274  -1.938  1.00  0.00    -0.399 OA
ATOM     32  H1  UNL     1      12.414  39.286  -1.194  1.00  0.00     0.209 HD
ENDBRANCH  30  31
ENDBRANCH  29  30
ENDBRANCH  27  29
ENDBRANCH   7  27
BRANCH  10  33
HETATM   33  N5  UNL     1      10.798  41.578  -6.431  1.00  0.00    -0.383 N 
ATOM     34  H52 UNL     1      10.222  42.097  -5.769  1.00  0.00     0.157 HD
ATOM     35  H51 UNL     1      11.103  42.036  -7.290  1.00  0.00     0.157 HD
ENDBRANCH  10  33
TORSDOF 13
ENDMDL
MODEL 5
REMARK VINA RESULT: -7.292810753      1.396      1.649
REMARK  13 active torsions:
REMARK  status: ('A' for Active; 'I' for Inactive)
REMARK    1  A    between atoms: C2_2  and  C3_3 
REMARK    2  A    between atoms: C3_3  and  C4_4 
REMARK    3  A    between atoms: C4_4  and  C5_5 
REMARK    4  A    between atoms: C5_5  and  C6_6 
REMARK    5  A    between atoms: C6_6  and  C7_7 
REMARK    6  A    between atoms: C7_7  and  C8_8 
REMARK    7  A    between atoms: C10_14  and  N3_15 
REMARK    8  A    between atoms: N3_15  and  C11_17 
REMARK    9  A    between atoms: C11_17  and  C12_18 
REMARK   10  A    between atoms: C12_18  and  O1_19 
REMARK   11  A    between atoms: C13_23  and  N5_24 
REMARK   12  A    between atoms: C15_30  and  N7_31 
REMARK   13  A    between atoms: N7_31  and  C16_33 
ROOT
HETATM    1  C8  UNL     1      13.023  38.960  -8.322  1.00  0.00     0.055 A 
HETATM    2  N1  UNL     1      12.729  38.193  -7.269  1.00  0.00    -0.340 N 
ATOM      3  H1  UNL     1      13.142  37.266  -7.174  1.00  0.00     0.167 HD
HETATM    4  C9  UNL     1      11.865  38.669  -6.317  1.00  0.00     0.152 A 
HETATM    5  N2  UNL     1      11.556  37.927  -5.259  1.00  0.00    -0.174 N 
ATOM      6  H2  UNL     1      11.964  36.998  -5.157  1.00  0.00     0.186 HD
HETATM    7  C10 UNL     1      10.703  38.396  -4.312  1.00  0.00     0.681 A 
HETATM    8  N4  UNL     1      10.145  39.596  -4.397  1.00  0.00    -0.175 N 
ATOM      9  H4  UNL     1       9.507  39.922  -3.671  1.00  0.00     0.186 HD
HETATM   10  C13 UNL     1      10.437  40.392  -5.476  1.00  0.00     0.145 A 
HETATM   11  C14 UNL     1      11.309  39.922  -6.449  1.00  0.00     0.123 A 
HETATM   12  N6  UNL     1      11.612  40.705  -7.527  1.00  0.00    -0.335 N 
ATOM     13  H6  UNL     1      11.198  41.632  -7.621  1.00  0.00     0.168 HD
HETATM   14  C15 UNL     1      12.458  40.243  -8.464  1.00  0.00     0.125 A 
ENDROOT
BRANCH   1  15
HETATM   15  C7  UNL     1      13.960  38.530  -9.394  1.00  0.00     0.061 C 
BRANCH  15  16
HETATM   16  C6  UNL     1      13.487  37.319 -10.130  1.00  0.00     0.006 C 
BRANCH  16  17
HETATM   17  C5  UNL     1      14.620  36.327 -10.248  1.00  0.00     0.000 C 
BRANCH  17  18
HETATM   18  C4  UNL     1      14.548  35.611 -11.605  1.00  0.00     0.000 C 
BRANCH  18  19
HETATM   19  C3  UNL     1      13.329  36.065 -12.382  1.00  0.00    -0.000 C 
BRANCH  19  20
HETATM   20  C2  UNL     1      13.713  36.468 -13.785  1.00  0.00    -0.005 C 
HETATM   21  C1  UNL     1      14.087  37.931 -13.765  1.00  0.00     0.005 C 
ENDBRANCH  19  20
ENDBRANCH  18  19
ENDBRANCH  17  18
ENDBRANCH  16  17
ENDBRANCH  15  16
ENDBRANCH   1  15
BRANCH  14  22
HETATM   22  N7  UNL     1      12.767  40.899  -9.464  1.00  0.00    -0.370 N 
ATOM     23  H7  UNL     1      12.261  40.533 -10.270  1.00  0.00     0.161 HD
BRANCH  22  24
HETATM   24  C16 UNL     1      13.560  41.957  -9.873  1.00  0.00     0.083 A 
HETATM   25  C17 UNL     1      14.405  42.777  -8.905  1.00  0.00     0.027 A 
HETATM   26  C18 UNL     1      15.025  41.972 -10.062  1.00  0.00     0.027 A 
ENDBRANCH  22  24
ENDBRANCH  14  22
BRANCH   7  27
HETATM   27  N3  UNL     1      10.440  37.639  -3.308  1.00  0.00    -0.224 N 
ATOM     28  H3  UNL     1      10.920  36.740  -3.304  1.00  0.00     0.177 HD
BRANCH  27  29
HETATM   29  C11 UNL     1       9.584  37.870  -2.209  1.00  0.00     0.164 C 
BRANCH  29  30
HETATM   30  C12 UNL     1       9.536  36.563  -1.403  1.00  0.00     0.184 C 
BRANCH  30  31
HETATM   31  O1  UNL     1       8.446  35.823  -1.821  1.00  0.00    -0.399 OA
ATOM     32  H1  UNL     1       8.731  34.934  -2.001  1.00  0.00     0.209 HD
ENDBRANCH  30  31
ENDBRANCH  29  30
ENDBRANCH  27  29
ENDBRANCH   7  27
BRANCH  10  33
HETATM   33  N5  UNL     1       9.897  41.547  -5.553  1.00  0.00    -0.383 N 
ATOM     34  H52 UNL     1      10.441  42.387  -5.746  1.00  0.00     0.157 HD
ATOM     35  H51 UNL     1       8.889  41.628  -5.416  1.00  0.00     0.157 HD
ENDBRANCH  10  33
TORSDOF 13
ENDMDL
