MODEL 1
REMARK VINA RESULT: -6.956214495      0.000      0.000
REMARK  13 active torsions:
REMARK  status: ('A' for Active; 'I' for Inactive)
REMARK    1  A    between atoms: N1_1  and  C1_4 
REMARK    2  A    between atoms: C3_8  and  C4_9 
REMARK    3  A    between atoms: C5_10  and  C6_11 
REMARK    4  A    between atoms: C6_11  and  C7_12 
REMARK    5  A    between atoms: C7_12  and  C8_13 
REMARK    6  A    between atoms: C8_13  and  C9_14 
REMARK    7  A    between atoms: C9_14  and  N3_15 
REMARK    8  A    between atoms: N3_15  and  C10_18 
REMARK    9  A    between atoms: C10_18  and  C11_19 
REMARK   10  A    between atoms: C11_19  and  C12_20 
REMARK   11  A    between atoms: C12_20  and  C13_21 
REMARK   12  A    between atoms: C13_21  and  N4_22 
REMARK   13  A    between atoms: C17_28  and  N5_29 
ROOT
HETATM    1  C6  UNL     1      12.970  38.473  -8.148  1.00  0.00     0.094 C 
ENDROOT
BRANCH   1   2
HETATM    2  C5  UNL     1      13.167  37.871  -9.466  1.00  0.00    -0.101 C 
HETATM    3  C4  UNL     1      13.338  37.392 -10.563  1.00  0.00    -0.062 C 
BRANCH   3   4
HETATM    4  C3  UNL     1      13.549  36.845 -11.873  1.00  0.00     0.077 A 
HETATM    5  C2  UNL     1      13.431  35.490 -12.149  1.00  0.00     0.130 A 
HETATM    6  N2  UNL     1      13.643  35.037 -13.404  1.00  0.00    -0.201 N 
HETATM    7  C1  UNL     1      13.969  35.848 -14.420  1.00  0.00     0.677 A 
ATOM      8  H2  UNL     1      13.551  34.037 -13.585  1.00  0.00     0.183 HD
HETATM    9  N6  UNL     1      14.089  37.165 -14.175  1.00  0.00    -0.176 N 
HETATM   10  C17 UNL     1      13.886  37.654 -12.939  1.00  0.00     0.135 A 
ATOM     11  H6  UNL     1      14.337  37.799 -14.934  1.00  0.00     0.186 HD
BRANCH   7  12
HETATM   12  N1  UNL     1      14.164  35.363 -15.620  1.00  0.00    -0.234 N 
ATOM     13  H12 UNL     1      14.439  34.391 -15.757  1.00  0.00     0.174 HD
ATOM     14  H11 UNL     1      14.044  35.955 -16.443  1.00  0.00     0.174 HD
ENDBRANCH   7  12
BRANCH  10  15
HETATM   15  N5  UNL     1      14.007  38.925 -12.730  1.00  0.00    -0.384 N 
ATOM     16  H52 UNL     1      13.492  39.359 -11.964  1.00  0.00     0.157 HD
ATOM     17  H51 UNL     1      14.620  39.461 -13.345  1.00  0.00     0.157 HD
ENDBRANCH  10  15
ENDBRANCH   3   4
ENDBRANCH   1   2
BRANCH   1  18
HETATM   18  C7  UNL     1      12.695  39.959  -8.250  1.00  0.00     0.014 C 
BRANCH  18  19
HETATM   19  C8  UNL     1      11.899  40.384  -7.057  1.00  0.00     0.028 C 
BRANCH  19  20
HETATM   20  C9  UNL     1      11.318  39.166  -6.377  1.00  0.00     0.232 C 
BRANCH  20  21
HETATM   21  N3  UNL     1      11.117  39.513  -4.972  1.00  0.00    -0.075 N 
ATOM     22  H32 UNL     1      11.975  39.807  -4.505  1.00  0.00     0.277 HD
ATOM     23  H31 UNL     1      10.596  40.381  -4.843  1.00  0.00     0.277 HD
BRANCH  21  24
HETATM   24  C10 UNL     1      10.473  38.347  -4.326  1.00  0.00     0.232 C 
BRANCH  24  25
HETATM   25  C11 UNL     1       9.768  38.799  -3.080  1.00  0.00     0.029 C 
BRANCH  25  26
HETATM   26  C12 UNL     1       8.423  39.393  -3.370  1.00  0.00     0.022 C 
BRANCH  26  27
HETATM   27  C13 UNL     1       8.386  40.815  -2.929  1.00  0.00     0.127 C 
BRANCH  27  28
HETATM   28  N4  UNL     1       7.649  41.655  -3.900  1.00  0.00    -0.342 N 
HETATM   29  C14 UNL     1       6.236  41.900  -3.888  1.00  0.00     0.137 C 
HETATM   30  C15 UNL     1       6.003  43.383  -4.096  1.00  0.00     0.104 C 
HETATM   31  S1  UNL     1       7.230  43.656  -5.445  1.00  0.00    -0.068 SA
HETATM   32  C16 UNL     1       8.320  42.306  -4.967  1.00  0.00     0.281 C 
HETATM   33  O1  UNL     1       9.411  42.077  -5.519  1.00  0.00    -0.260 OA
ENDBRANCH  27  28
ENDBRANCH  26  27
ENDBRANCH  25  26
ENDBRANCH  24  25
ENDBRANCH  21  24
ENDBRANCH  20  21
ENDBRANCH  19  20
ENDBRANCH  18  19
ENDBRANCH   1  18
TORSDOF 13
ENDMDL
MODEL 2
REMARK VINA RESULT: -6.868401589      3.186      3.799
REMARK  13 active torsions:
REMARK  status: ('A' for Active; 'I' for Inactive)
REMARK    1  A    between atoms: N1_1  and  C1_4 
REMARK    2  A    between atoms: C3_8  and  C4_9 
REMARK    3  A    between atoms: C5_10  and  C6_11 
REMARK    4  A    between atoms: C6_11  and  C7_12 
REMARK    5  A    between atoms: C7_12  and  C8_13 
REMARK    6  A    between atoms: C8_13  and  C9_14 
REMARK    7  A    between atoms: C9_14  and  N3_15 
REMARK    8  A    between atoms: N3_15  and  C10_18 
REMARK    9  A    between atoms: C10_18  and  C11_19 
REMARK   10  A    between atoms: C11_19  and  C12_20 
REMARK   11  A    between atoms: C12_20  and  C13_21 
REMARK   12  A    between atoms: C13_21  and  N4_22 
REMARK   13  A    between atoms: C17_28  and  N5_29 
ROOT
HETATM    1  C6  UNL     1      13.464  38.499  -9.329  1.00  0.00     0.094 C 
ENDROOT
BRANCH   1   2
HETATM    2  C5  UNL     1      13.633  37.989 -10.690  1.00  0.00    -0.101 C 
HETATM    3  C4  UNL     1      13.776  37.588 -11.821  1.00  0.00    -0.062 C 
BRANCH   3   4
HETATM    4  C3  UNL     1      13.949  37.135 -13.172  1.00  0.00     0.077 A 
HETATM    5  C2  UNL     1      14.155  38.005 -14.234  1.00  0.00     0.130 A 
HETATM    6  N2  UNL     1      14.311  37.516 -15.484  1.00  0.00    -0.201 N 
HETATM    7  C1  UNL     1      14.276  36.204 -15.757  1.00  0.00     0.677 A 
ATOM      8  H2  UNL     1      14.461  38.172 -16.251  1.00  0.00     0.183 HD
HETATM    9  N6  UNL     1      14.077  35.344 -14.742  1.00  0.00    -0.176 N 
HETATM   10  C17 UNL     1      13.918  35.792 -13.484  1.00  0.00     0.135 A 
ATOM     11  H6  UNL     1      14.046  34.342 -14.929  1.00  0.00     0.186 HD
BRANCH   7  12
HETATM   12  N1  UNL     1      14.432  35.777 -16.985  1.00  0.00    -0.234 N 
ATOM     13  H12 UNL     1      15.148  35.087 -17.215  1.00  0.00     0.174 HD
ATOM     14  H11 UNL     1      13.838  36.129 -17.735  1.00  0.00     0.174 HD
ENDBRANCH   7  12
BRANCH  10  15
HETATM   15  N5  UNL     1      13.729  34.944 -12.527  1.00  0.00    -0.384 N 
ATOM     16  H52 UNL     1      14.527  34.617 -11.982  1.00  0.00     0.157 HD
ATOM     17  H51 UNL     1      12.778  34.624 -12.343  1.00  0.00     0.157 HD
ENDBRANCH  10  15
ENDBRANCH   3   4
ENDBRANCH   1   2
BRANCH   1  18
HETATM   18  C7  UNL     1      13.414  40.013  -9.303  1.00  0.00     0.014 C 
BRANCH  18  19
HETATM   19  C8  UNL     1      12.221  40.442  -8.511  1.00  0.00     0.028 C 
BRANCH  19  20
HETATM   20  C9  UNL     1      12.676  41.108  -7.233  1.00  0.00     0.232 C 
BRANCH  20  21
HETATM   21  N3  UNL     1      11.885  40.537  -6.145  1.00  0.00    -0.075 N 
ATOM     22  H32 UNL     1      12.382  40.519  -5.254  1.00  0.00     0.277 HD
ATOM     23  H31 UNL     1      11.113  41.136  -5.851  1.00  0.00     0.277 HD
BRANCH  21  24
HETATM   24  C10 UNL     1      11.443  39.196  -6.591  1.00  0.00     0.232 C 
BRANCH  24  25
HETATM   25  C11 UNL     1      11.060  38.378  -5.391  1.00  0.00     0.029 C 
BRANCH  25  26
HETATM   26  C12 UNL     1      10.094  39.095  -4.497  1.00  0.00     0.022 C 
BRANCH  26  27
HETATM   27  C13 UNL     1       9.233  38.112  -3.784  1.00  0.00     0.127 C 
BRANCH  27  28
HETATM   28  N4  UNL     1       9.615  38.006  -2.357  1.00  0.00    -0.342 N 
HETATM   29  C14 UNL     1      10.536  38.866  -1.673  1.00  0.00     0.137 C 
HETATM   30  C15 UNL     1       9.925  39.267  -0.345  1.00  0.00     0.104 C 
HETATM   31  S1  UNL     1       9.271  37.616   0.152  1.00  0.00    -0.068 SA
HETATM   32  C16 UNL     1       9.073  36.993  -1.524  1.00  0.00     0.281 C 
HETATM   33  O1  UNL     1       8.557  35.892  -1.791  1.00  0.00    -0.260 OA
ENDBRANCH  27  28
ENDBRANCH  26  27
ENDBRANCH  25  26
ENDBRANCH  24  25
ENDBRANCH  21  24
ENDBRANCH  20  21
ENDBRANCH  19  20
ENDBRANCH  18  19
ENDBRANCH   1  18
TORSDOF 13
ENDMDL
MODEL 3
REMARK VINA RESULT: -6.865589934      3.172      3.598
REMARK  13 active torsions:
REMARK  status: ('A' for Active; 'I' for Inactive)
REMARK    1  A    between atoms: N1_1  and  C1_4 
REMARK    2  A    between atoms: C3_8  and  C4_9 
REMARK    3  A    between atoms: C5_10  and  C6_11 
REMARK    4  A    between atoms: C6_11  and  C7_12 
REMARK    5  A    between atoms: C7_12  and  C8_13 
REMARK    6  A    between atoms: C8_13  and  C9_14 
REMARK    7  A    between atoms: C9_14  and  N3_15 
REMARK    8  A    between atoms: N3_15  and  C10_18 
REMARK    9  A    between atoms: C10_18  and  C11_19 
REMARK   10  A    between atoms: C11_19  and  C12_20 
REMARK   11  A    between atoms: C12_20  and  C13_21 
REMARK   12  A    between atoms: C13_21  and  N4_22 
REMARK   13  A    between atoms: C17_28  and  N5_29 
ROOT
HETATM    1  C6  UNL     1      13.961  40.447  -9.581  1.00  0.00     0.094 C 
ENDROOT
BRANCH   1   2
HETATM    2  C5  UNL     1      13.902  39.421 -10.623  1.00  0.00    -0.101 C 
HETATM    3  C4  UNL     1      13.833  38.579 -11.488  1.00  0.00    -0.062 C 
BRANCH   3   4
HETATM    4  C3  UNL     1      13.728  37.586 -12.519  1.00  0.00     0.077 A 
HETATM    5  C2  UNL     1      13.343  36.277 -12.264  1.00  0.00     0.130 A 
HETATM    6  N2  UNL     1      13.263  35.388 -13.278  1.00  0.00    -0.201 N 
HETATM    7  C1  UNL     1      13.543  35.714 -14.548  1.00  0.00     0.677 A 
ATOM      8  H2  UNL     1      12.979  34.432 -13.069  1.00  0.00     0.183 HD
HETATM    9  N6  UNL     1      13.918  36.977 -14.818  1.00  0.00    -0.176 N 
HETATM   10  C17 UNL     1      14.010  37.891 -13.835  1.00  0.00     0.135 A 
ATOM     11  H6  UNL     1      14.136  37.245 -15.777  1.00  0.00     0.186 HD
BRANCH   7  12
HETATM   12  N1  UNL     1      13.451  34.819 -15.499  1.00  0.00    -0.234 N 
ATOM     13  H12 UNL     1      13.000  35.039 -16.387  1.00  0.00     0.174 HD
ATOM     14  H11 UNL     1      13.830  33.881 -15.365  1.00  0.00     0.174 HD
ENDBRANCH   7  12
BRANCH  10  15
HETATM   15  N5  UNL     1      14.372  39.099 -14.121  1.00  0.00    -0.384 N 
ATOM     16  H52 UNL     1      13.755  39.876 -13.888  1.00  0.00     0.157 HD
ATOM     17  H51 UNL     1      15.274  39.239 -14.577  1.00  0.00     0.157 HD
ENDBRANCH  10  15
ENDBRANCH   3   4
ENDBRANCH   1   2
BRANCH   1  18
HETATM   18  C7  UNL     1      12.704  41.293  -9.562  1.00  0.00     0.014 C 
BRANCH  18  19
HETATM   19  C8  UNL     1      11.829  40.829  -8.443  1.00  0.00     0.028 C 
BRANCH  19  20
HETATM   20  C9  UNL     1      12.241  41.515  -7.160  1.00  0.00     0.232 C 
BRANCH  20  21
HETATM   21  N3  UNL     1      12.184  40.512  -6.099  1.00  0.00    -0.075 N 
ATOM     22  H32 UNL     1      13.080  40.370  -5.633  1.00  0.00     0.277 HD
ATOM     23  H31 UNL     1      11.660  40.823  -5.280  1.00  0.00     0.277 HD
BRANCH  21  24
HETATM   24  C10 UNL     1      11.640  39.275  -6.703  1.00  0.00     0.232 C 
BRANCH  24  25
HETATM   25  C11 UNL     1      11.134  38.375  -5.613  1.00  0.00     0.029 C 
BRANCH  25  26
HETATM   26  C12 UNL     1      10.161  39.068  -4.707  1.00  0.00     0.022 C 
BRANCH  26  27
HETATM   27  C13 UNL     1       9.353  38.064  -3.962  1.00  0.00     0.127 C 
BRANCH  27  28
HETATM   28  N4  UNL     1       9.739  38.023  -2.533  1.00  0.00    -0.342 N 
HETATM   29  C14 UNL     1      10.691  38.888  -1.901  1.00  0.00     0.137 C 
HETATM   30  C15 UNL     1      10.102  39.379  -0.594  1.00  0.00     0.104 C 
HETATM   31  S1  UNL     1       9.398  37.780  -0.005  1.00  0.00    -0.068 SA
HETATM   32  C16 UNL     1       9.171  37.074  -1.645  1.00  0.00     0.281 C 
HETATM   33  O1  UNL     1       8.618  35.978  -1.850  1.00  0.00    -0.260 OA
ENDBRANCH  27  28
ENDBRANCH  26  27
ENDBRANCH  25  26
ENDBRANCH  24  25
ENDBRANCH  21  24
ENDBRANCH  20  21
ENDBRANCH  19  20
ENDBRANCH  18  19
ENDBRANCH   1  18
TORSDOF 13
ENDMDL
MODEL 4
REMARK VINA RESULT: -6.865408118      3.278      4.050
REMARK  13 active torsions:
REMARK  status: ('A' for Active; 'I' for Inactive)
REMARK    1  A    between atoms: N1_1  and  C1_4 
REMARK    2  A    between atoms: C3_8  and  C4_9 
REMARK    3  A    between atoms: C5_10  and  C6_11 
REMARK    4  A    between atoms: C6_11  and  C7_12 
REMARK    5  A    between atoms: C7_12  and  C8_13 
REMARK    6  A    between atoms: C8_13  and  C9_14 
REMARK    7  A    between atoms: C9_14  and  N3_15 
REMARK    8  A    between atoms: N3_15  and  C10_18 
REMARK    9  A    between atoms: C10_18  and  C11_19 
REMARK   10  A    between atoms: C11_19  and  C12_20 
REMARK   11  A    between atoms: C12_20  and  C13_21 
REMARK   12  A    between atoms: C13_21  and  N4_22 
REMARK   13  A    between atoms: C17_28  and  N5_29 
ROOT
HETATM    1  C6  UNL     1      13.724  38.389 -10.921  1.00  0.00     0.094 C 
ENDROOT
BRANCH   1   2
HETATM    2  C5  UNL     1      13.832  37.565 -12.126  1.00  0.00    -0.101 C 
HETATM    3  C4  UNL     1      13.930  36.901 -13.132  1.00  0.00    -0.062 C 
BRANCH   3   4
HETATM    4  C3  UNL     1      14.055  36.133 -14.337  1.00  0.00     0.077 A 
HETATM    5  C2  UNL     1      12.964  35.572 -14.987  1.00  0.00     0.130 A 
HETATM    6  N2  UNL     1      13.148  34.859 -16.119  1.00  0.00    -0.201 N 
HETATM    7  C1  UNL     1      14.358  34.660 -16.660  1.00  0.00     0.677 A 
ATOM      8  H2  UNL     1      12.333  34.455 -16.581  1.00  0.00     0.183 HD
HETATM    9  N6  UNL     1      15.429  35.194 -16.047  1.00  0.00    -0.176 N 
HETATM   10  C17 UNL     1      15.287  35.911 -14.917  1.00  0.00     0.135 A 
ATOM     11  H6  UNL     1      16.359  35.054 -16.442  1.00  0.00     0.186 HD
BRANCH   7  12
HETATM   12  N1  UNL     1      14.487  33.962 -17.760  1.00  0.00    -0.234 N 
ATOM     13  H12 UNL     1      14.212  32.980 -17.796  1.00  0.00     0.174 HD
ATOM     14  H11 UNL     1      14.868  34.391 -18.603  1.00  0.00     0.174 HD
ENDBRANCH   7  12
BRANCH  10  15
HETATM   15  N5  UNL     1      16.334  36.414 -14.348  1.00  0.00    -0.384 N 
ATOM     16  H52 UNL     1      16.259  36.785 -13.400  1.00  0.00     0.157 HD
ATOM     17  H51 UNL     1      17.210  36.426 -14.869  1.00  0.00     0.157 HD
ENDBRANCH  10  15
ENDBRANCH   3   4
ENDBRANCH   1   2
BRANCH   1  18
HETATM   18  C7  UNL     1      13.030  37.645  -9.799  1.00  0.00     0.014 C 
BRANCH  18  19
HETATM   19  C8  UNL     1      13.704  37.984  -8.508  1.00  0.00     0.028 C 
BRANCH  19  20
HETATM   20  C9  UNL     1      12.661  38.268  -7.451  1.00  0.00     0.232 C 
BRANCH  20  21
HETATM   21  N3  UNL     1      11.986  39.506  -7.835  1.00  0.00    -0.075 N 
ATOM     22  H32 UNL     1      12.607  40.179  -8.284  1.00  0.00     0.277 HD
ATOM     23  H31 UNL     1      11.340  39.385  -8.616  1.00  0.00     0.277 HD
BRANCH  21  24
HETATM   24  C10 UNL     1      11.333  40.037  -6.618  1.00  0.00     0.232 C 
BRANCH  24  25
HETATM   25  C11 UNL     1      10.983  38.896  -5.707  1.00  0.00     0.029 C 
BRANCH  25  26
HETATM   26  C12 UNL     1      10.077  39.315  -4.589  1.00  0.00     0.022 C 
BRANCH  26  27
HETATM   27  C13 UNL     1       9.452  38.118  -3.962  1.00  0.00     0.127 C 
BRANCH  27  28
HETATM   28  N4  UNL     1       9.771  38.046  -2.518  1.00  0.00    -0.342 N 
HETATM   29  C14 UNL     1      10.690  38.898  -1.822  1.00  0.00     0.137 C 
HETATM   30  C15 UNL     1      10.038  39.359  -0.534  1.00  0.00     0.104 C 
HETATM   31  S1  UNL     1       9.311  37.746  -0.015  1.00  0.00    -0.068 SA
HETATM   32  C16 UNL     1       9.163  37.076  -1.679  1.00  0.00     0.281 C 
HETATM   33  O1  UNL     1       8.624  35.985  -1.934  1.00  0.00    -0.260 OA
ENDBRANCH  27  28
ENDBRANCH  26  27
ENDBRANCH  25  26
ENDBRANCH  24  25
ENDBRANCH  21  24
ENDBRANCH  20  21
ENDBRANCH  19  20
ENDBRANCH  18  19
ENDBRANCH   1  18
TORSDOF 13
ENDMDL
MODEL 5
REMARK VINA RESULT: -6.860961856      1.540      2.114
REMARK  13 active torsions:
REMARK  status: ('A' for Active; 'I' for Inactive)
REMARK    1  A    between atoms: N1_1  and  C1_4 
REMARK    2  A    between atoms: C3_8  and  C4_9 
REMARK    3  A    between atoms: C5_10  and  C6_11 
REMARK    4  A    between atoms: C6_11  and  C7_12 
REMARK    5  A    between atoms: C7_12  and  C8_13 
REMARK    6  A    between atoms: C8_13  and  C9_14 
REMARK    7  A    between atoms: C9_14  and  N3_15 
REMARK    8  A    between atoms: N3_15  and  C10_18 
REMARK    9  A    between atoms: C10_18  and  C11_19 
REMARK   10  A    between atoms: C11_19  and  C12_20 
REMARK   11  A    between atoms: C12_20  and  C13_21 
REMARK   12  A    between atoms: C13_21  and  N4_22 
REMARK   13  A    between atoms: C17_28  and  N5_29 
ROOT
HETATM    1  C6  UNL     1      13.164  37.852  -8.800  1.00  0.00     0.094 C 
ENDROOT
BRANCH   1   2
HETATM    2  C5  UNL     1      13.397  37.596 -10.222  1.00  0.00    -0.101 C 
HETATM    3  C4  UNL     1      13.611  37.380 -11.392  1.00  0.00    -0.062 C 
BRANCH   3   4
HETATM    4  C3  UNL     1      13.887  37.116 -12.776  1.00  0.00     0.077 A 
HETATM    5  C2  UNL     1      14.076  38.125 -13.709  1.00  0.00     0.130 A 
HETATM    6  N2  UNL     1      14.333  37.812 -14.998  1.00  0.00    -0.201 N 
HETATM    7  C1  UNL     1      14.416  36.546 -15.431  1.00  0.00     0.677 A 
ATOM      8  H2  UNL     1      14.468  38.569 -15.668  1.00  0.00     0.183 HD
HETATM    9  N6  UNL     1      14.236  35.552 -14.543  1.00  0.00    -0.176 N 
HETATM   10  C17 UNL     1      13.979  35.824 -13.251  1.00  0.00     0.135 A 
ATOM     11  H6  UNL     1      14.296  34.582 -14.852  1.00  0.00     0.186 HD
BRANCH   7  12
HETATM   12  N1  UNL     1      14.668  36.291 -16.690  1.00  0.00    -0.234 N 
ATOM     13  H12 UNL     1      15.554  36.564 -17.116  1.00  0.00     0.174 HD
ATOM     14  H11 UNL     1      13.979  35.811 -17.269  1.00  0.00     0.174 HD
ENDBRANCH   7  12
BRANCH  10  15
HETATM   15  N5  UNL     1      13.810  34.849 -12.418  1.00  0.00    -0.384 N 
ATOM     16  H52 UNL     1      13.921  35.020 -11.418  1.00  0.00     0.157 HD
ATOM     17  H51 UNL     1      13.570  33.931 -12.789  1.00  0.00     0.157 HD
ENDBRANCH  10  15
ENDBRANCH   3   4
ENDBRANCH   1   2
BRANCH   1  18
HETATM   18  C7  UNL     1      12.939  39.326  -8.529  1.00  0.00     0.014 C 
BRANCH  18  19
HETATM   19  C8  UNL     1      12.288  39.474  -7.191  1.00  0.00     0.028 C 
BRANCH  19  20
HETATM   20  C9  UNL     1      11.930  38.110  -6.648  1.00  0.00     0.232 C 
BRANCH  20  21
HETATM   21  N3  UNL     1      11.812  38.242  -5.198  1.00  0.00    -0.075 N 
ATOM     22  H32 UNL     1      12.064  37.391  -4.696  1.00  0.00     0.277 HD
ATOM     23  H31 UNL     1      12.524  38.849  -4.790  1.00  0.00     0.277 HD
BRANCH  21  24
HETATM   24  C10 UNL     1      10.431  38.696  -4.917  1.00  0.00     0.232 C 
BRANCH  24  25
HETATM   25  C11 UNL     1      10.025  38.224  -3.551  1.00  0.00     0.029 C 
BRANCH  25  26
HETATM   26  C12 UNL     1       8.875  39.009  -2.994  1.00  0.00     0.022 C 
BRANCH  26  27
HETATM   27  C13 UNL     1       8.682  40.259  -3.781  1.00  0.00     0.127 C 
BRANCH  27  28
HETATM   28  N4  UNL     1       8.065  41.319  -2.952  1.00  0.00    -0.342 N 
HETATM   29  C14 UNL     1       8.656  41.924  -1.794  1.00  0.00     0.137 C 
HETATM   30  C15 UNL     1       8.481  43.426  -1.893  1.00  0.00     0.104 C 
HETATM   31  S1  UNL     1       6.728  43.450  -2.463  1.00  0.00    -0.068 SA
HETATM   32  C16 UNL     1       6.779  41.836  -3.257  1.00  0.00     0.281 C 
HETATM   33  O1  UNL     1       5.833  41.363  -3.913  1.00  0.00    -0.260 OA
ENDBRANCH  27  28
ENDBRANCH  26  27
ENDBRANCH  25  26
ENDBRANCH  24  25
ENDBRANCH  21  24
ENDBRANCH  20  21
ENDBRANCH  19  20
ENDBRANCH  18  19
ENDBRANCH   1  18
TORSDOF 13
ENDMDL
