MODEL 1
REMARK VINA RESULT: -6.935950482      0.000      0.000
REMARK  14 active torsions:
REMARK  status: ('A' for Active; 'I' for Inactive)
REMARK    1  A    between atoms: O1_1  and  C1_3 
REMARK    2  A    between atoms: C1_3  and  C2_4 
REMARK    3  A    between atoms: C2_4  and  C3_5 
REMARK    4  A    between atoms: C6_8  and  C7_9 
REMARK    5  A    between atoms: C7_9  and  C8_10 
REMARK    6  A    between atoms: C9_11  and  C10_12 
REMARK    7  A    between atoms: C10_12  and  C11_13 
REMARK    8  A    between atoms: C11_13  and  C12_14 
REMARK    9  A    between atoms: C12_14  and  C13_15 
REMARK   10  A    between atoms: C14_16  and  O2_17 
REMARK   11  A    between atoms: C15_20  and  C16_21 
REMARK   12  A    between atoms: C16_21  and  O4_22 
REMARK   13  A    between atoms: C17_24  and  O5_25 
REMARK   14  A    between atoms: C18_27  and  O6_28 
ROOT
HETATM    1  C13 UNL     1      12.583  40.856  -8.883  1.00  0.00     0.072 C 
HETATM    2  C14 UNL     1      11.636  41.506  -7.956  1.00  0.00     0.264 C 
HETATM    3  O3  UNL     1      10.974  40.641  -7.096  1.00  0.00    -0.351 OA
HETATM    4  C15 UNL     1      11.769  39.739  -6.444  1.00  0.00     0.179 C 
HETATM    5  C17 UNL     1      12.294  38.771  -7.463  1.00  0.00     0.178 C 
HETATM    6  C18 UNL     1      12.674  39.357  -8.771  1.00  0.00     0.158 C 
ENDROOT
BRANCH   1   7
HETATM    7  C12 UNL     1      13.963  41.433  -8.954  1.00  0.00     0.012 C 
BRANCH   7   8
HETATM    8  C11 UNL     1      14.290  42.378 -10.010  1.00  0.00     0.004 C 
BRANCH   8   9
HETATM    9  C10 UNL     1      15.804  42.354 -10.267  1.00  0.00     0.027 C 
BRANCH   9  10
HETATM   10  C9  UNL     1      16.354  40.989 -10.287  1.00  0.00    -0.031 C 
HETATM   11  C8  UNL     1      16.404  40.229 -11.348  1.00  0.00    -0.030 C 
BRANCH  11  12
HETATM   12  C7  UNL     1      15.927  40.611 -12.670  1.00  0.00     0.031 C 
BRANCH  12  13
HETATM   13  C6  UNL     1      15.136  39.499 -13.350  1.00  0.00    -0.011 C 
HETATM   14  C5  UNL     1      15.924  38.250 -13.563  1.00  0.00     0.005 C 
HETATM   15  C4  UNL     1      14.905  37.173 -13.743  1.00  0.00     0.005 C 
HETATM   16  C3  UNL     1      13.711  37.619 -12.965  1.00  0.00    -0.012 C 
HETATM   17  C19 UNL     1      13.970  39.043 -12.492  1.00  0.00     0.009 C 
BRANCH  16  18
HETATM   18  C2  UNL     1      13.452  36.721 -11.792  1.00  0.00     0.030 C 
BRANCH  18  19
HETATM   19  C1  UNL     1      13.977  35.340 -12.043  1.00  0.00     0.164 C 
BRANCH  19  20
HETATM   20  O1  UNL     1      12.945  34.456 -12.376  1.00  0.00    -0.401 OA
ATOM     21  H1  UNL     1      12.940  33.699 -11.801  1.00  0.00     0.209 HD
ENDBRANCH  19  20
ENDBRANCH  18  19
ENDBRANCH  16  18
ENDBRANCH  12  13
ENDBRANCH  11  12
ENDBRANCH   9  10
ENDBRANCH   8   9
ENDBRANCH   7   8
ENDBRANCH   1   7
BRANCH   2  22
HETATM   22  O2  UNL     1      12.142  42.553  -7.192  1.00  0.00    -0.371 OA
ATOM     23  H2  UNL     1      11.672  42.755  -6.391  1.00  0.00     0.212 HD
ENDBRANCH   2  22
BRANCH   6  24
HETATM   24  O6  UNL     1      13.976  38.902  -9.091  1.00  0.00    -0.392 OA
ATOM     25  H6  UNL     1      14.183  39.078 -10.001  1.00  0.00     0.210 HD
ENDBRANCH   6  24
BRANCH   5  26
HETATM   26  O5  UNL     1      11.281  37.788  -7.607  1.00  0.00    -0.390 OA
ATOM     27  H5  UNL     1      11.644  37.134  -8.193  1.00  0.00     0.210 HD
ENDBRANCH   5  26
BRANCH   4  28
HETATM   28  C16 UNL     1      10.883  38.972  -5.472  1.00  0.00     0.198 C 
BRANCH  28  29
HETATM   29  O4  UNL     1      11.581  37.911  -4.879  1.00  0.00    -0.398 OA
ATOM     30  H4  UNL     1      11.057  37.485  -4.212  1.00  0.00     0.209 HD
ENDBRANCH  28  29
ENDBRANCH   4  28
TORSDOF 14
ENDMDL
MODEL 2
REMARK VINA RESULT: -6.867663990      1.373      1.946
REMARK  14 active torsions:
REMARK  status: ('A' for Active; 'I' for Inactive)
REMARK    1  A    between atoms: O1_1  and  C1_3 
REMARK    2  A    between atoms: C1_3  and  C2_4 
REMARK    3  A    between atoms: C2_4  and  C3_5 
REMARK    4  A    between atoms: C6_8  and  C7_9 
REMARK    5  A    between atoms: C7_9  and  C8_10 
REMARK    6  A    between atoms: C9_11  and  C10_12 
REMARK    7  A    between atoms: C10_12  and  C11_13 
REMARK    8  A    between atoms: C11_13  and  C12_14 
REMARK    9  A    between atoms: C12_14  and  C13_15 
REMARK   10  A    between atoms: C14_16  and  O2_17 
REMARK   11  A    between atoms: C15_20  and  C16_21 
REMARK   12  A    between atoms: C16_21  and  O4_22 
REMARK   13  A    between atoms: C17_24  and  O5_25 
REMARK   14  A    between atoms: C18_27  and  O6_28 
ROOT
HETATM    1  C13 UNL     1      12.818  40.952  -8.919  1.00  0.00     0.072 C 
HETATM    2  C14 UNL     1      11.807  41.526  -8.010  1.00  0.00     0.264 C 
HETATM    3  O3  UNL     1      11.102  40.595  -7.259  1.00  0.00    -0.351 OA
HETATM    4  C15 UNL     1      11.864  39.653  -6.626  1.00  0.00     0.179 C 
HETATM    5  C17 UNL     1      12.462  38.766  -7.678  1.00  0.00     0.178 C 
HETATM    6  C18 UNL     1      12.918  39.449  -8.912  1.00  0.00     0.158 C 
ENDROOT
BRANCH   1   7
HETATM    7  C12 UNL     1      14.192  41.541  -8.861  1.00  0.00     0.012 C 
BRANCH   7   8
HETATM    8  C11 UNL     1      14.576  42.559  -9.826  1.00  0.00     0.004 C 
BRANCH   8   9
HETATM    9  C10 UNL     1      14.176  42.103 -11.238  1.00  0.00     0.027 C 
BRANCH   9  10
HETATM   10  C9  UNL     1      15.271  41.421 -11.945  1.00  0.00    -0.031 C 
HETATM   11  C8  UNL     1      15.184  40.225 -12.462  1.00  0.00    -0.030 C 
BRANCH  11  12
HETATM   12  C7  UNL     1      13.996  39.384 -12.420  1.00  0.00     0.031 C 
BRANCH  12  13
HETATM   13  C6  UNL     1      14.324  37.901 -12.554  1.00  0.00    -0.011 C 
HETATM   14  C5  UNL     1      13.310  37.007 -11.924  1.00  0.00     0.005 C 
HETATM   15  C4  UNL     1      13.510  35.675 -12.571  1.00  0.00     0.005 C 
HETATM   16  C3  UNL     1      14.044  35.970 -13.934  1.00  0.00    -0.012 C 
HETATM   17  C19 UNL     1      14.334  37.463 -14.007  1.00  0.00     0.009 C 
BRANCH  16  18
HETATM   18  C2  UNL     1      13.069  35.577 -15.004  1.00  0.00     0.030 C 
BRANCH  18  19
HETATM   19  C1  UNL     1      13.778  35.233 -16.279  1.00  0.00     0.164 C 
BRANCH  19  20
HETATM   20  O1  UNL     1      13.546  33.903 -16.646  1.00  0.00    -0.401 OA
ATOM     21  H1  UNL     1      12.635  33.762 -16.876  1.00  0.00     0.209 HD
ENDBRANCH  19  20
ENDBRANCH  18  19
ENDBRANCH  16  18
ENDBRANCH  12  13
ENDBRANCH  11  12
ENDBRANCH   9  10
ENDBRANCH   8   9
ENDBRANCH   7   8
ENDBRANCH   1   7
BRANCH   2  22
HETATM   22  O2  UNL     1      12.252  42.517  -7.141  1.00  0.00    -0.371 OA
ATOM     23  H2  UNL     1      12.900  43.121  -7.487  1.00  0.00     0.212 HD
ENDBRANCH   2  22
BRANCH   6  24
HETATM   24  O6  UNL     1      14.241  39.027  -9.181  1.00  0.00    -0.392 OA
ATOM     25  H6  UNL     1      14.835  39.768  -9.208  1.00  0.00     0.210 HD
ENDBRANCH   6  24
BRANCH   5  26
HETATM   26  O5  UNL     1      11.471  37.790  -7.957  1.00  0.00    -0.390 OA
ATOM     27  H5  UNL     1      11.248  37.911  -8.872  1.00  0.00     0.210 HD
ENDBRANCH   5  26
BRANCH   4  28
HETATM   28  C16 UNL     1      10.928  38.811  -5.770  1.00  0.00     0.198 C 
BRANCH  28  29
HETATM   29  O4  UNL     1      11.606  37.730  -5.190  1.00  0.00    -0.398 OA
ATOM     30  H4  UNL     1      10.999  37.060  -4.899  1.00  0.00     0.209 HD
ENDBRANCH  28  29
ENDBRANCH   4  28
TORSDOF 14
ENDMDL
MODEL 3
REMARK VINA RESULT: -6.781752928      3.441      7.039
REMARK  14 active torsions:
REMARK  status: ('A' for Active; 'I' for Inactive)
REMARK    1  A    between atoms: O1_1  and  C1_3 
REMARK    2  A    between atoms: C1_3  and  C2_4 
REMARK    3  A    between atoms: C2_4  and  C3_5 
REMARK    4  A    between atoms: C6_8  and  C7_9 
REMARK    5  A    between atoms: C7_9  and  C8_10 
REMARK    6  A    between atoms: C9_11  and  C10_12 
REMARK    7  A    between atoms: C10_12  and  C11_13 
REMARK    8  A    between atoms: C11_13  and  C12_14 
REMARK    9  A    between atoms: C12_14  and  C13_15 
REMARK   10  A    between atoms: C14_16  and  O2_17 
REMARK   11  A    between atoms: C15_20  and  C16_21 
REMARK   12  A    between atoms: C16_21  and  O4_22 
REMARK   13  A    between atoms: C17_24  and  O5_25 
REMARK   14  A    between atoms: C18_27  and  O6_28 
ROOT
HETATM    1  C13 UNL     1      13.705  36.752 -12.278  1.00  0.00     0.072 C 
HETATM    2  C14 UNL     1      12.938  35.629 -12.851  1.00  0.00     0.264 C 
HETATM    3  O3  UNL     1      12.939  35.569 -14.238  1.00  0.00    -0.351 OA
HETATM    4  C15 UNL     1      14.167  35.686 -14.829  1.00  0.00     0.179 C 
HETATM    5  C17 UNL     1      14.647  37.092 -14.611  1.00  0.00     0.178 C 
HETATM    6  C18 UNL     1      14.355  37.671 -13.279  1.00  0.00     0.158 C 
ENDROOT
BRANCH   1   7
HETATM    7  C12 UNL     1      14.688  36.418 -11.200  1.00  0.00     0.012 C 
BRANCH   7   8
HETATM    8  C11 UNL     1      14.397  36.794  -9.825  1.00  0.00     0.004 C 
BRANCH   8   9
HETATM    9  C10 UNL     1      13.228  37.790  -9.804  1.00  0.00     0.027 C 
BRANCH   9  10
HETATM   10  C9  UNL     1      13.169  38.569  -8.556  1.00  0.00    -0.031 C 
HETATM   11  C8  UNL     1      12.883  39.842  -8.494  1.00  0.00    -0.030 C 
BRANCH  11  12
HETATM   12  C7  UNL     1      12.579  40.685  -9.641  1.00  0.00     0.031 C 
BRANCH  12  13
HETATM   13  C6  UNL     1      13.707  41.657  -9.969  1.00  0.00    -0.011 C 
HETATM   14  C5  UNL     1      14.499  42.077  -8.775  1.00  0.00     0.005 C 
HETATM   15  C4  UNL     1      15.796  42.573  -9.325  1.00  0.00     0.005 C 
HETATM   16  C3  UNL     1      16.009  41.816 -10.593  1.00  0.00    -0.012 C 
HETATM   17  C19 UNL     1      14.743  41.020 -10.878  1.00  0.00     0.009 C 
BRANCH  16  18
HETATM   18  C2  UNL     1      17.189  40.896 -10.495  1.00  0.00     0.030 C 
BRANCH  18  19
HETATM   19  C1  UNL     1      17.906  40.796 -11.807  1.00  0.00     0.164 C 
BRANCH  19  20
HETATM   20  O1  UNL     1      17.900  39.483 -12.291  1.00  0.00    -0.401 OA
ATOM     21  H1  UNL     1      18.592  39.346 -12.927  1.00  0.00     0.209 HD
ENDBRANCH  19  20
ENDBRANCH  18  19
ENDBRANCH  16  18
ENDBRANCH  12  13
ENDBRANCH  11  12
ENDBRANCH   9  10
ENDBRANCH   8   9
ENDBRANCH   7   8
ENDBRANCH   1   7
BRANCH   2  22
HETATM   22  O2  UNL     1      13.253  34.360 -12.375  1.00  0.00    -0.371 OA
ATOM     23  H2  UNL     1      12.797  33.632 -12.782  1.00  0.00     0.212 HD
ENDBRANCH   2  22
BRANCH   6  24
HETATM   24  O6  UNL     1      15.557  38.212 -12.764  1.00  0.00    -0.392 OA
ATOM     25  H6  UNL     1      16.302  37.946 -13.291  1.00  0.00     0.210 HD
ENDBRANCH   6  24
BRANCH   5  26
HETATM   26  O5  UNL     1      14.062  37.856 -15.653  1.00  0.00    -0.390 OA
ATOM     27  H5  UNL     1      14.638  38.603 -15.772  1.00  0.00     0.210 HD
ENDBRANCH   5  26
BRANCH   4  28
HETATM   28  C16 UNL     1      13.974  35.477 -16.325  1.00  0.00     0.198 C 
BRANCH  28  29
HETATM   29  O4  UNL     1      12.619  35.549 -16.676  1.00  0.00    -0.398 OA
ATOM     30  H4  UNL     1      12.465  36.236 -17.313  1.00  0.00     0.209 HD
ENDBRANCH  28  29
ENDBRANCH   4  28
TORSDOF 14
ENDMDL
MODEL 4
REMARK VINA RESULT: -6.753029372      1.316      1.708
REMARK  14 active torsions:
REMARK  status: ('A' for Active; 'I' for Inactive)
REMARK    1  A    between atoms: O1_1  and  C1_3 
REMARK    2  A    between atoms: C1_3  and  C2_4 
REMARK    3  A    between atoms: C2_4  and  C3_5 
REMARK    4  A    between atoms: C6_8  and  C7_9 
REMARK    5  A    between atoms: C7_9  and  C8_10 
REMARK    6  A    between atoms: C9_11  and  C10_12 
REMARK    7  A    between atoms: C10_12  and  C11_13 
REMARK    8  A    between atoms: C11_13  and  C12_14 
REMARK    9  A    between atoms: C12_14  and  C13_15 
REMARK   10  A    between atoms: C14_16  and  O2_17 
REMARK   11  A    between atoms: C15_20  and  C16_21 
REMARK   12  A    between atoms: C16_21  and  O4_22 
REMARK   13  A    between atoms: C17_24  and  O5_25 
REMARK   14  A    between atoms: C18_27  and  O6_28 
ROOT
HETATM    1  C13 UNL     1      13.482  39.656  -9.798  1.00  0.00     0.072 C 
HETATM    2  C14 UNL     1      12.604  40.801  -9.486  1.00  0.00     0.264 C 
HETATM    3  O3  UNL     1      11.685  40.572  -8.471  1.00  0.00    -0.351 OA
HETATM    4  C15 UNL     1      12.196  40.012  -7.333  1.00  0.00     0.179 C 
HETATM    5  C17 UNL     1      12.605  38.605  -7.659  1.00  0.00     0.178 C 
HETATM    6  C18 UNL     1      13.237  38.411  -8.987  1.00  0.00     0.158 C 
ENDROOT
BRANCH   1   7
HETATM    7  C12 UNL     1      14.952  39.929  -9.858  1.00  0.00     0.012 C 
BRANCH   7   8
HETATM    8  C11 UNL     1      15.642  39.857 -11.137  1.00  0.00     0.004 C 
BRANCH   8   9
HETATM    9  C10 UNL     1      15.667  41.251 -11.783  1.00  0.00     0.027 C 
BRANCH   9  10
HETATM   10  C9  UNL     1      14.530  41.477 -12.689  1.00  0.00    -0.031 C 
HETATM   11  C8  UNL     1      14.494  41.097 -13.938  1.00  0.00    -0.030 C 
BRANCH  11  12
HETATM   12  C7  UNL     1      15.568  40.395 -14.626  1.00  0.00     0.031 C 
BRANCH  12  13
HETATM   13  C6  UNL     1      15.285  38.905 -14.785  1.00  0.00    -0.011 C 
HETATM   14  C5  UNL     1      16.283  38.032 -14.101  1.00  0.00     0.005 C 
HETATM   15  C4  UNL     1      15.595  36.717 -13.930  1.00  0.00     0.005 C 
HETATM   16  C3  UNL     1      14.140  37.036 -13.833  1.00  0.00    -0.012 C 
HETATM   17  C19 UNL     1      13.968  38.518 -14.140  1.00  0.00     0.009 C 
BRANCH  16  18
HETATM   18  C2  UNL     1      13.596  36.721 -12.471  1.00  0.00     0.030 C 
BRANCH  18  19
HETATM   19  C1  UNL     1      13.962  35.329 -12.054  1.00  0.00     0.164 C 
BRANCH  19  20
HETATM   20  O1  UNL     1      12.949  34.419 -12.376  1.00  0.00    -0.401 OA
ATOM     21  H1  UNL     1      12.722  33.876 -11.630  1.00  0.00     0.209 HD
ENDBRANCH  19  20
ENDBRANCH  18  19
ENDBRANCH  16  18
ENDBRANCH  12  13
ENDBRANCH  11  12
ENDBRANCH   9  10
ENDBRANCH   8   9
ENDBRANCH   7   8
ENDBRANCH   1   7
BRANCH   2  22
HETATM   22  O2  UNL     1      13.239  42.009  -9.215  1.00  0.00    -0.371 OA
ATOM     23  H2  UNL     1      12.678  42.731  -8.956  1.00  0.00     0.212 HD
ENDBRANCH   2  22
BRANCH   6  24
HETATM   24  O6  UNL     1      14.437  37.686  -8.797  1.00  0.00    -0.392 OA
ATOM     25  H6  UNL     1      14.255  36.782  -8.569  1.00  0.00     0.210 HD
ENDBRANCH   6  24
BRANCH   5  26
HETATM   26  O5  UNL     1      11.426  37.828  -7.525  1.00  0.00    -0.390 OA
ATOM     27  H5  UNL     1      11.714  36.988  -7.189  1.00  0.00     0.210 HD
ENDBRANCH   5  26
BRANCH   4  28
HETATM   28  C16 UNL     1      11.070  39.953  -6.309  1.00  0.00     0.198 C 
BRANCH  28  29
HETATM   29  O4  UNL     1      11.510  39.395  -5.102  1.00  0.00    -0.398 OA
ATOM     30  H4  UNL     1      10.783  39.228  -4.515  1.00  0.00     0.209 HD
ENDBRANCH  28  29
ENDBRANCH   4  28
TORSDOF 14
ENDMDL
MODEL 5
REMARK VINA RESULT: -6.749087806      1.339      1.710
REMARK  14 active torsions:
REMARK  status: ('A' for Active; 'I' for Inactive)
REMARK    1  A    between atoms: O1_1  and  C1_3 
REMARK    2  A    between atoms: C1_3  and  C2_4 
REMARK    3  A    between atoms: C2_4  and  C3_5 
REMARK    4  A    between atoms: C6_8  and  C7_9 
REMARK    5  A    between atoms: C7_9  and  C8_10 
REMARK    6  A    between atoms: C9_11  and  C10_12 
REMARK    7  A    between atoms: C10_12  and  C11_13 
REMARK    8  A    between atoms: C11_13  and  C12_14 
REMARK    9  A    between atoms: C12_14  and  C13_15 
REMARK   10  A    between atoms: C14_16  and  O2_17 
REMARK   11  A    between atoms: C15_20  and  C16_21 
REMARK   12  A    between atoms: C16_21  and  O4_22 
REMARK   13  A    between atoms: C17_24  and  O5_25 
REMARK   14  A    between atoms: C18_27  and  O6_28 
ROOT
HETATM    1  C13 UNL     1      13.701  39.849  -9.873  1.00  0.00     0.072 C 
HETATM    2  C14 UNL     1      12.814  40.973  -9.516  1.00  0.00     0.264 C 
HETATM    3  O3  UNL     1      11.838  40.670  -8.576  1.00  0.00    -0.351 OA
HETATM    4  C15 UNL     1      12.281  40.011  -7.463  1.00  0.00     0.179 C 
HETATM    5  C17 UNL     1      12.699  38.632  -7.883  1.00  0.00     0.178 C 
HETATM    6  C18 UNL     1      13.404  38.543  -9.184  1.00  0.00     0.158 C 
ENDROOT
BRANCH   1   7
HETATM    7  C12 UNL     1      15.175  40.110  -9.828  1.00  0.00     0.012 C 
BRANCH   7   8
HETATM    8  C11 UNL     1      15.797  40.887 -10.888  1.00  0.00     0.004 C 
BRANCH   8   9
HETATM    9  C10 UNL     1      17.317  40.666 -10.859  1.00  0.00     0.027 C 
BRANCH   9  10
HETATM   10  C9  UNL     1      17.944  40.861 -12.177  1.00  0.00    -0.031 C 
HETATM   11  C8  UNL     1      17.949  39.969 -13.130  1.00  0.00    -0.030 C 
BRANCH  11  12
HETATM   12  C7  UNL     1      17.339  38.650 -13.041  1.00  0.00     0.031 C 
BRANCH  12  13
HETATM   13  C6  UNL     1      15.915  38.625 -13.583  1.00  0.00    -0.011 C 
HETATM   14  C5  UNL     1      15.821  38.148 -14.994  1.00  0.00     0.005 C 
HETATM   15  C4  UNL     1      14.401  37.716 -15.164  1.00  0.00     0.005 C 
HETATM   16  C3  UNL     1      13.949  37.285 -13.809  1.00  0.00    -0.012 C 
HETATM   17  C19 UNL     1      15.045  37.646 -12.816  1.00  0.00     0.009 C 
BRANCH  16  18
HETATM   18  C2  UNL     1      13.672  35.812 -13.763  1.00  0.00     0.030 C 
BRANCH  18  19
HETATM   19  C1  UNL     1      13.355  35.365 -12.368  1.00  0.00     0.164 C 
BRANCH  19  20
HETATM   20  O1  UNL     1      13.001  34.012 -12.336  1.00  0.00    -0.401 OA
ATOM     21  H1  UNL     1      12.103  33.896 -12.046  1.00  0.00     0.209 HD
ENDBRANCH  19  20
ENDBRANCH  18  19
ENDBRANCH  16  18
ENDBRANCH  12  13
ENDBRANCH  11  12
ENDBRANCH   9  10
ENDBRANCH   8   9
ENDBRANCH   7   8
ENDBRANCH   1   7
BRANCH   2  22
HETATM   22  O2  UNL     1      13.440  42.147  -9.109  1.00  0.00    -0.371 OA
ATOM     23  H2  UNL     1      12.888  42.919  -9.048  1.00  0.00     0.212 HD
ENDBRANCH   2  22
BRANCH   6  24
HETATM   24  O6  UNL     1      14.587  37.792  -8.989  1.00  0.00    -0.392 OA
ATOM     25  H6  UNL     1      14.393  36.946  -8.604  1.00  0.00     0.210 HD
ENDBRANCH   6  24
BRANCH   5  26
HETATM   26  O5  UNL     1      11.510  37.859  -7.880  1.00  0.00    -0.390 OA
ATOM     27  H5  UNL     1      11.562  37.318  -7.101  1.00  0.00     0.210 HD
ENDBRANCH   5  26
BRANCH   4  28
HETATM   28  C16 UNL     1      11.098  39.879  -6.512  1.00  0.00     0.198 C 
BRANCH  28  29
HETATM   29  O4  UNL     1      11.507  39.419  -5.254  1.00  0.00    -0.398 OA
ATOM     30  H4  UNL     1      11.010  39.832  -4.558  1.00  0.00     0.209 HD
ENDBRANCH  28  29
ENDBRANCH   4  28
TORSDOF 14
ENDMDL
