MODEL 1
REMARK VINA RESULT: -7.483151483      0.000      0.000
REMARK  14 active torsions:
REMARK  status: ('A' for Active; 'I' for Inactive)
REMARK    1  A    between atoms: O1_1  and  C1_3 
REMARK    2  A    between atoms: C1_3  and  C2_4 
REMARK    3  A    between atoms: C3_5  and  O2_6 
REMARK    4  A    between atoms: C4_8  and  O3_9 
REMARK    5  A    between atoms: C5_11  and  O4_12 
REMARK    6  A    between atoms: N1_15  and  C7_16 
REMARK    7  A    between atoms: C7_16  and  C8_17 
REMARK    8  A    between atoms: C8_17  and  C9_18 
REMARK    9  A    between atoms: C9_18  and  C10_19 
REMARK   10  A    between atoms: C10_19  and  C11_20 
REMARK   11  A    between atoms: C11_20  and  C12_21 
REMARK   12  A    between atoms: C12_21  and  C13_22 
REMARK   13  A    between atoms: C13_22  and  C14_23 
REMARK   14  A    between atoms: C19_28  and  O5_29 
ROOT
HETATM    1  C2  UNL     1       9.972  37.796  -2.239  1.00  0.00     0.277 C 
HETATM    2  C3  UNL     1      10.301  38.927  -1.332  1.00  0.00     0.184 C 
HETATM    3  C4  UNL     1       9.381  40.108  -1.423  1.00  0.00     0.179 C 
HETATM    4  C5  UNL     1       8.957  40.400  -2.824  1.00  0.00     0.177 C 
HETATM    5  C6  UNL     1       8.599  39.203  -3.640  1.00  0.00     0.307 C 
HETATM    6  N1  UNL     1       9.623  38.179  -3.585  1.00  0.00     0.100 N 
ENDROOT
BRANCH   6   7
HETATM    7  C7  UNL     1      10.760  38.680  -4.327  1.00  0.00     0.273 C 
BRANCH   7   8
HETATM    8  C8  UNL     1      10.753  38.365  -5.781  1.00  0.00     0.030 C 
BRANCH   8   9
HETATM    9  C9  UNL     1      11.584  39.291  -6.636  1.00  0.00     0.002 C 
BRANCH   9  10
HETATM   10  C10 UNL     1      12.601  38.489  -7.372  1.00  0.00     0.000 C 
BRANCH  10  11
HETATM   11  C11 UNL     1      12.965  39.167  -8.648  1.00  0.00     0.000 C 
BRANCH  11  12
HETATM   12  C12 UNL     1      14.028  38.408  -9.445  1.00  0.00     0.000 C 
BRANCH  12  13
HETATM   13  C13 UNL     1      13.305  37.240 -10.067  1.00  0.00     0.007 C 
BRANCH  13  14
HETATM   14  C14 UNL     1      13.352  37.234 -11.545  1.00  0.00     0.014 C 
HETATM   15  C15 UNL     1      14.331  38.234 -12.089  1.00  0.00     0.007 C 
HETATM   16  C16 UNL     1      13.991  38.400 -13.573  1.00  0.00     0.001 C 
HETATM   17  C17 UNL     1      14.084  37.084 -14.251  1.00  0.00     0.002 C 
HETATM   18  C18 UNL     1      14.401  35.912 -13.388  1.00  0.00     0.032 C 
HETATM   19  C19 UNL     1      13.615  35.846 -12.113  1.00  0.00     0.122 C 
BRANCH  19  20
HETATM   20  O5  UNL     1      12.468  35.103 -12.297  1.00  0.00    -0.395 OA
ATOM     21  H5  UNL     1      12.634  34.232 -12.638  1.00  0.00     0.210 HD
ENDBRANCH  19  20
ENDBRANCH  13  14
ENDBRANCH  12  13
ENDBRANCH  11  12
ENDBRANCH  10  11
ENDBRANCH   9  10
ENDBRANCH   8   9
ENDBRANCH   7   8
ENDBRANCH   6   7
BRANCH   1  22
HETATM   22  C1  UNL     1       8.980  36.816  -1.660  1.00  0.00     0.202 C 
BRANCH  22  23
HETATM   23  O1  UNL     1       9.542  35.738  -1.025  1.00  0.00    -0.399 OA
ATOM     24  H1  UNL     1       9.039  35.402  -0.292  1.00  0.00     0.209 HD
ENDBRANCH  22  23
ENDBRANCH   1  22
BRANCH   2  25
HETATM   25  O2  UNL     1      10.358  38.445  -0.031  1.00  0.00    -0.391 OA
ATOM     26  H2  UNL     1      11.250  38.532   0.284  1.00  0.00     0.210 HD
ENDBRANCH   2  25
BRANCH   4  27
HETATM   27  O4  UNL     1       7.856  41.258  -2.761  1.00  0.00    -0.391 OA
ATOM     28  H4  UNL     1       7.213  40.945  -3.386  1.00  0.00     0.210 HD
ENDBRANCH   4  27
BRANCH   3  29
HETATM   29  O3  UNL     1      10.138  41.228  -0.999  1.00  0.00    -0.390 OA
ATOM     30  H3  UNL     1       9.528  41.804  -0.552  1.00  0.00     0.210 HD
ENDBRANCH   3  29
TORSDOF 14
ENDMDL
MODEL 2
REMARK VINA RESULT: -7.261002824      1.132      1.513
REMARK  14 active torsions:
REMARK  status: ('A' for Active; 'I' for Inactive)
REMARK    1  A    between atoms: O1_1  and  C1_3 
REMARK    2  A    between atoms: C1_3  and  C2_4 
REMARK    3  A    between atoms: C3_5  and  O2_6 
REMARK    4  A    between atoms: C4_8  and  O3_9 
REMARK    5  A    between atoms: C5_11  and  O4_12 
REMARK    6  A    between atoms: N1_15  and  C7_16 
REMARK    7  A    between atoms: C7_16  and  C8_17 
REMARK    8  A    between atoms: C8_17  and  C9_18 
REMARK    9  A    between atoms: C9_18  and  C10_19 
REMARK   10  A    between atoms: C10_19  and  C11_20 
REMARK   11  A    between atoms: C11_20  and  C12_21 
REMARK   12  A    between atoms: C12_21  and  C13_22 
REMARK   13  A    between atoms: C13_22  and  C14_23 
REMARK   14  A    between atoms: C19_28  and  O5_29 
ROOT
HETATM    1  C2  UNL     1      10.016  37.735  -2.327  1.00  0.00     0.277 C 
HETATM    2  C3  UNL     1      10.274  38.895  -1.435  1.00  0.00     0.184 C 
HETATM    3  C4  UNL     1       9.314  40.038  -1.576  1.00  0.00     0.179 C 
HETATM    4  C5  UNL     1       8.921  40.287  -2.995  1.00  0.00     0.177 C 
HETATM    5  C6  UNL     1       8.633  39.062  -3.797  1.00  0.00     0.307 C 
HETATM    6  N1  UNL     1       9.694  38.078  -3.691  1.00  0.00     0.100 N 
ENDROOT
BRANCH   6   7
HETATM    7  C7  UNL     1      10.833  38.609  -4.409  1.00  0.00     0.273 C 
BRANCH   7   8
HETATM    8  C8  UNL     1      10.689  38.633  -5.890  1.00  0.00     0.030 C 
BRANCH   8   9
HETATM    9  C9  UNL     1      11.981  38.479  -6.655  1.00  0.00     0.002 C 
BRANCH   9  10
HETATM   10  C10 UNL     1      12.251  39.736  -7.409  1.00  0.00     0.000 C 
BRANCH  10  11
HETATM   11  C11 UNL     1      12.974  39.431  -8.675  1.00  0.00     0.000 C 
BRANCH  11  12
HETATM   12  C12 UNL     1      12.940  37.946  -9.040  1.00  0.00     0.000 C 
BRANCH  12  13
HETATM   13  C13 UNL     1      14.322  37.627  -9.552  1.00  0.00     0.007 C 
BRANCH  13  14
HETATM   14  C14 UNL     1      14.341  37.165 -10.957  1.00  0.00     0.014 C 
HETATM   15  C15 UNL     1      13.040  36.539 -11.369  1.00  0.00     0.007 C 
HETATM   16  C16 UNL     1      13.327  35.770 -12.662  1.00  0.00     0.001 C 
HETATM   17  C17 UNL     1      13.859  36.703 -13.684  1.00  0.00     0.002 C 
HETATM   18  C18 UNL     1      14.067  38.114 -13.253  1.00  0.00     0.032 C 
HETATM   19  C19 UNL     1      14.749  38.266 -11.926  1.00  0.00     0.122 C 
BRANCH  19  20
HETATM   20  O5  UNL     1      16.114  38.365 -12.099  1.00  0.00    -0.395 OA
ATOM     21  H5  UNL     1      16.361  38.880 -12.858  1.00  0.00     0.210 HD
ENDBRANCH  19  20
ENDBRANCH  13  14
ENDBRANCH  12  13
ENDBRANCH  11  12
ENDBRANCH  10  11
ENDBRANCH   9  10
ENDBRANCH   8   9
ENDBRANCH   7   8
ENDBRANCH   6   7
BRANCH   1  22
HETATM   22  C1  UNL     1       9.044  36.729  -1.758  1.00  0.00     0.202 C 
BRANCH  22  23
HETATM   23  O1  UNL     1       9.624  35.713  -1.043  1.00  0.00    -0.399 OA
ATOM     24  H1  UNL     1      10.258  35.197  -1.527  1.00  0.00     0.209 HD
ENDBRANCH  22  23
ENDBRANCH   1  22
BRANCH   2  25
HETATM   25  O2  UNL     1      10.310  38.441  -0.122  1.00  0.00    -0.391 OA
ATOM     26  H2  UNL     1       9.455  38.581   0.268  1.00  0.00     0.210 HD
ENDBRANCH   2  25
BRANCH   4  27
HETATM   27  O4  UNL     1       7.788  41.103  -2.982  1.00  0.00    -0.391 OA
ATOM     28  H4  UNL     1       7.274  40.868  -2.218  1.00  0.00     0.210 HD
ENDBRANCH   4  27
BRANCH   3  29
HETATM   29  O3  UNL     1      10.015  41.194  -1.153  1.00  0.00    -0.390 OA
ATOM     30  H3  UNL     1       9.355  41.860  -0.997  1.00  0.00     0.210 HD
ENDBRANCH   3  29
TORSDOF 14
ENDMDL
MODEL 3
REMARK VINA RESULT: -6.958389851      5.680      9.896
REMARK  14 active torsions:
REMARK  status: ('A' for Active; 'I' for Inactive)
REMARK    1  A    between atoms: O1_1  and  C1_3 
REMARK    2  A    between atoms: C1_3  and  C2_4 
REMARK    3  A    between atoms: C3_5  and  O2_6 
REMARK    4  A    between atoms: C4_8  and  O3_9 
REMARK    5  A    between atoms: C5_11  and  O4_12 
REMARK    6  A    between atoms: N1_15  and  C7_16 
REMARK    7  A    between atoms: C7_16  and  C8_17 
REMARK    8  A    between atoms: C8_17  and  C9_18 
REMARK    9  A    between atoms: C9_18  and  C10_19 
REMARK   10  A    between atoms: C10_19  and  C11_20 
REMARK   11  A    between atoms: C11_20  and  C12_21 
REMARK   12  A    between atoms: C12_21  and  C13_22 
REMARK   13  A    between atoms: C13_22  and  C14_23 
REMARK   14  A    between atoms: C19_28  and  O5_29 
ROOT
HETATM    1  C2  UNL     1      15.452  37.273 -12.845  1.00  0.00     0.277 C 
HETATM    2  C3  UNL     1      14.482  36.453 -12.074  1.00  0.00     0.184 C 
HETATM    3  C4  UNL     1      13.738  35.422 -12.870  1.00  0.00     0.179 C 
HETATM    4  C5  UNL     1      13.359  35.910 -14.229  1.00  0.00     0.177 C 
HETATM    5  C6  UNL     1      14.417  36.680 -14.945  1.00  0.00     0.307 C 
HETATM    6  N1  UNL     1      14.973  37.739 -14.124  1.00  0.00     0.100 N 
ENDROOT
BRANCH   6   7
HETATM    7  C7  UNL     1      13.947  38.751 -13.991  1.00  0.00     0.273 C 
BRANCH   7   8
HETATM    8  C8  UNL     1      13.910  39.758 -15.085  1.00  0.00     0.030 C 
BRANCH   8   9
HETATM    9  C9  UNL     1      13.597  41.166 -14.641  1.00  0.00     0.002 C 
BRANCH   9  10
HETATM   10  C10 UNL     1      13.955  41.313 -13.203  1.00  0.00     0.000 C 
BRANCH  10  11
HETATM   11  C11 UNL     1      12.985  42.214 -12.520  1.00  0.00     0.000 C 
BRANCH  11  12
HETATM   12  C12 UNL     1      13.048  42.114 -10.995  1.00  0.00     0.000 C 
BRANCH  12  13
HETATM   13  C13 UNL     1      13.905  40.907 -10.707  1.00  0.00     0.007 C 
BRANCH  13  14
HETATM   14  C14 UNL     1      13.623  40.280  -9.398  1.00  0.00     0.014 C 
HETATM   15  C15 UNL     1      12.307  40.721  -8.825  1.00  0.00     0.007 C 
HETATM   16  C16 UNL     1      12.333  40.329  -7.345  1.00  0.00     0.001 C 
HETATM   17  C17 UNL     1      12.544  38.866  -7.226  1.00  0.00     0.002 C 
HETATM   18  C18 UNL     1      12.751  38.118  -8.497  1.00  0.00     0.032 C 
HETATM   19  C19 UNL     1      13.715  38.761  -9.449  1.00  0.00     0.122 C 
BRANCH  19  20
HETATM   20  O5  UNL     1      14.990  38.282  -9.233  1.00  0.00    -0.395 OA
ATOM     21  H5  UNL     1      15.452  38.067 -10.035  1.00  0.00     0.210 HD
ENDBRANCH  19  20
ENDBRANCH  13  14
ENDBRANCH  12  13
ENDBRANCH  11  12
ENDBRANCH  10  11
ENDBRANCH   9  10
ENDBRANCH   8   9
ENDBRANCH   7   8
ENDBRANCH   6   7
BRANCH   1  22
HETATM   22  C1  UNL     1      16.826  36.655 -12.954  1.00  0.00     0.202 C 
BRANCH  22  23
HETATM   23  O1  UNL     1      17.865  37.539 -12.820  1.00  0.00    -0.399 OA
ATOM     24  H1  UNL     1      17.922  38.193 -13.507  1.00  0.00     0.209 HD
ENDBRANCH  22  23
ENDBRANCH   1  22
BRANCH   2  25
HETATM   25  O2  UNL     1      15.152  35.864 -11.009  1.00  0.00    -0.391 OA
ATOM     26  H2  UNL     1      14.859  34.964 -10.929  1.00  0.00     0.210 HD
ENDBRANCH   2  25
BRANCH   4  27
HETATM   27  O4  UNL     1      13.006  34.796 -14.994  1.00  0.00    -0.391 OA
ATOM     28  H4  UNL     1      13.331  34.025 -14.544  1.00  0.00     0.210 HD
ENDBRANCH   4  27
BRANCH   3  29
HETATM   29  O3  UNL     1      12.523  35.194 -12.179  1.00  0.00    -0.390 OA
ATOM     30  H3  UNL     1      11.881  35.770 -12.579  1.00  0.00     0.210 HD
ENDBRANCH   3  29
TORSDOF 14
ENDMDL
MODEL 4
REMARK VINA RESULT: -6.906525920      1.134      1.642
REMARK  14 active torsions:
REMARK  status: ('A' for Active; 'I' for Inactive)
REMARK    1  A    between atoms: O1_1  and  C1_3 
REMARK    2  A    between atoms: C1_3  and  C2_4 
REMARK    3  A    between atoms: C3_5  and  O2_6 
REMARK    4  A    between atoms: C4_8  and  O3_9 
REMARK    5  A    between atoms: C5_11  and  O4_12 
REMARK    6  A    between atoms: N1_15  and  C7_16 
REMARK    7  A    between atoms: C7_16  and  C8_17 
REMARK    8  A    between atoms: C8_17  and  C9_18 
REMARK    9  A    between atoms: C9_18  and  C10_19 
REMARK   10  A    between atoms: C10_19  and  C11_20 
REMARK   11  A    between atoms: C11_20  and  C12_21 
REMARK   12  A    between atoms: C12_21  and  C13_22 
REMARK   13  A    between atoms: C13_22  and  C14_23 
REMARK   14  A    between atoms: C19_28  and  O5_29 
ROOT
HETATM    1  C2  UNL     1      10.107  37.897  -2.426  1.00  0.00     0.277 C 
HETATM    2  C3  UNL     1      10.393  39.013  -1.487  1.00  0.00     0.184 C 
HETATM    3  C4  UNL     1       9.391  40.129  -1.494  1.00  0.00     0.179 C 
HETATM    4  C5  UNL     1       8.891  40.443  -2.866  1.00  0.00     0.177 C 
HETATM    5  C6  UNL     1       8.584  39.256  -3.716  1.00  0.00     0.307 C 
HETATM    6  N1  UNL     1       9.679  38.305  -3.742  1.00  0.00     0.100 N 
ENDROOT
BRANCH   6   7
HETATM    7  C7  UNL     1      10.747  38.914  -4.504  1.00  0.00     0.273 C 
BRANCH   7   8
HETATM    8  C8  UNL     1      11.187  38.143  -5.699  1.00  0.00     0.030 C 
BRANCH   8   9
HETATM    9  C9  UNL     1      11.430  38.973  -6.936  1.00  0.00     0.002 C 
BRANCH   9  10
HETATM   10  C10 UNL     1      11.684  40.384  -6.531  1.00  0.00     0.000 C 
BRANCH  10  11
HETATM   11  C11 UNL     1      12.692  41.005  -7.435  1.00  0.00     0.000 C 
BRANCH  11  12
HETATM   12  C12 UNL     1      12.409  40.742  -8.915  1.00  0.00     0.000 C 
BRANCH  12  13
HETATM   13  C13 UNL     1      13.721  40.284  -9.500  1.00  0.00     0.007 C 
BRANCH  13  14
HETATM   14  C14 UNL     1      13.572  39.265 -10.561  1.00  0.00     0.014 C 
HETATM   15  C15 UNL     1      14.549  39.463 -11.685  1.00  0.00     0.007 C 
HETATM   16  C16 UNL     1      14.030  38.622 -12.855  1.00  0.00     0.001 C 
HETATM   17  C17 UNL     1      13.926  37.203 -12.434  1.00  0.00     0.002 C 
HETATM   18  C18 UNL     1      14.259  36.905 -11.013  1.00  0.00     0.032 C 
HETATM   19  C19 UNL     1      13.645  37.844 -10.018  1.00  0.00     0.122 C 
BRANCH  19  20
HETATM   20  O5  UNL     1      12.427  37.359  -9.591  1.00  0.00    -0.395 OA
ATOM     21  H5  UNL     1      12.503  36.679  -8.931  1.00  0.00     0.210 HD
ENDBRANCH  19  20
ENDBRANCH  13  14
ENDBRANCH  12  13
ENDBRANCH  11  12
ENDBRANCH  10  11
ENDBRANCH   9  10
ENDBRANCH   8   9
ENDBRANCH   7   8
ENDBRANCH   6   7
BRANCH   1  22
HETATM   22  C1  UNL     1       9.209  36.828  -1.851  1.00  0.00     0.202 C 
BRANCH  22  23
HETATM   23  O1  UNL     1       9.865  35.831  -1.175  1.00  0.00    -0.399 OA
ATOM     24  H1  UNL     1       9.973  35.023  -1.664  1.00  0.00     0.209 HD
ENDBRANCH  22  23
ENDBRANCH   1  22
BRANCH   2  25
HETATM   25  O2  UNL     1      10.535  38.487  -0.209  1.00  0.00    -0.391 OA
ATOM     26  H2  UNL     1       9.728  38.635   0.269  1.00  0.00     0.210 HD
ENDBRANCH   2  25
BRANCH   4  27
HETATM   27  O4  UNL     1       7.737  41.218  -2.727  1.00  0.00    -0.391 OA
ATOM     28  H4  UNL     1       7.225  41.115  -3.521  1.00  0.00     0.210 HD
ENDBRANCH   4  27
BRANCH   3  29
HETATM   29  O3  UNL     1      10.085  41.282  -1.054  1.00  0.00    -0.390 OA
ATOM     30  H3  UNL     1       9.934  41.948  -1.715  1.00  0.00     0.210 HD
ENDBRANCH   3  29
TORSDOF 14
ENDMDL
MODEL 5
REMARK VINA RESULT: -6.862673671      2.749      4.233
REMARK  14 active torsions:
REMARK  status: ('A' for Active; 'I' for Inactive)
REMARK    1  A    between atoms: O1_1  and  C1_3 
REMARK    2  A    between atoms: C1_3  and  C2_4 
REMARK    3  A    between atoms: C3_5  and  O2_6 
REMARK    4  A    between atoms: C4_8  and  O3_9 
REMARK    5  A    between atoms: C5_11  and  O4_12 
REMARK    6  A    between atoms: N1_15  and  C7_16 
REMARK    7  A    between atoms: C7_16  and  C8_17 
REMARK    8  A    between atoms: C8_17  and  C9_18 
REMARK    9  A    between atoms: C9_18  and  C10_19 
REMARK   10  A    between atoms: C10_19  and  C11_20 
REMARK   11  A    between atoms: C11_20  and  C12_21 
REMARK   12  A    between atoms: C12_21  and  C13_22 
REMARK   13  A    between atoms: C13_22  and  C14_23 
REMARK   14  A    between atoms: C19_28  and  O5_29 
ROOT
HETATM    1  C2  UNL     1       9.961  37.740  -2.174  1.00  0.00     0.277 C 
HETATM    2  C3  UNL     1      10.225  38.908  -1.292  1.00  0.00     0.184 C 
HETATM    3  C4  UNL     1       9.314  40.081  -1.493  1.00  0.00     0.179 C 
HETATM    4  C5  UNL     1       8.985  40.315  -2.930  1.00  0.00     0.177 C 
HETATM    5  C6  UNL     1       8.685  39.085  -3.721  1.00  0.00     0.307 C 
HETATM    6  N1  UNL     1       9.704  38.067  -3.555  1.00  0.00     0.100 N 
ENDROOT
BRANCH   6   7
HETATM    7  C7  UNL     1      10.889  38.543  -4.237  1.00  0.00     0.273 C 
BRANCH   7   8
HETATM    8  C8  UNL     1      10.810  38.527  -5.723  1.00  0.00     0.030 C 
BRANCH   8   9
HETATM    9  C9  UNL     1      12.103  38.186  -6.423  1.00  0.00     0.002 C 
BRANCH   9  10
HETATM   10  C10 UNL     1      11.949  38.449  -7.881  1.00  0.00     0.000 C 
BRANCH  10  11
HETATM   11  C11 UNL     1      13.266  38.333  -8.567  1.00  0.00     0.000 C 
BRANCH  11  12
HETATM   12  C12 UNL     1      13.429  39.325  -9.719  1.00  0.00     0.000 C 
BRANCH  12  13
HETATM   13  C13 UNL     1      12.799  40.607  -9.237  1.00  0.00     0.007 C 
BRANCH  13  14
HETATM   14  C14 UNL     1      13.747  41.508  -8.545  1.00  0.00     0.014 C 
HETATM   15  C15 UNL     1      14.444  42.440  -9.494  1.00  0.00     0.007 C 
HETATM   16  C16 UNL     1      15.644  43.008  -8.730  1.00  0.00     0.001 C 
HETATM   17  C17 UNL     1      15.169  43.693  -7.504  1.00  0.00     0.002 C 
HETATM   18  C18 UNL     1      13.705  43.635  -7.234  1.00  0.00     0.032 C 
HETATM   19  C19 UNL     1      13.093  42.277  -7.405  1.00  0.00     0.122 C 
BRANCH  19  20
HETATM   20  O5  UNL     1      13.104  41.593  -6.208  1.00  0.00    -0.395 OA
ATOM     21  H5  UNL     1      12.858  42.132  -5.464  1.00  0.00     0.210 HD
ENDBRANCH  19  20
ENDBRANCH  13  14
ENDBRANCH  12  13
ENDBRANCH  11  12
ENDBRANCH  10  11
ENDBRANCH   9  10
ENDBRANCH   8   9
ENDBRANCH   7   8
ENDBRANCH   6   7
BRANCH   1  22
HETATM   22  C1  UNL     1       8.932  36.780  -1.625  1.00  0.00     0.202 C 
BRANCH  22  23
HETATM   23  O1  UNL     1       9.453  35.698  -0.963  1.00  0.00    -0.399 OA
ATOM     24  H1  UNL     1      10.390  35.581  -1.068  1.00  0.00     0.209 HD
ENDBRANCH  22  23
ENDBRANCH   1  22
BRANCH   2  25
HETATM   25  O2  UNL     1      10.194  38.478   0.028  1.00  0.00    -0.391 OA
ATOM     26  H2  UNL     1      10.966  37.949   0.191  1.00  0.00     0.210 HD
ENDBRANCH   2  25
BRANCH   4  27
HETATM   27  O4  UNL     1       7.883  41.171  -2.977  1.00  0.00    -0.391 OA
ATOM     28  H4  UNL     1       8.169  41.985  -3.376  1.00  0.00     0.210 HD
ENDBRANCH   4  27
BRANCH   3  29
HETATM   29  O3  UNL     1      10.039  41.219  -1.063  1.00  0.00    -0.390 OA
ATOM     30  H3  UNL     1      10.027  41.195  -0.113  1.00  0.00     0.210 HD
ENDBRANCH   3  29
TORSDOF 14
ENDMDL
