MODEL 1
REMARK VINA RESULT: -7.865809697      0.000      0.000
REMARK  17 active torsions:
REMARK  status: ('A' for Active; 'I' for Inactive)
REMARK    1  A    between atoms: C2_2  and  O1_3 
REMARK    2  A    between atoms: C2_2  and  C3_5 
REMARK    3  A    between atoms: C2_2  and  C4_8 
REMARK    4  A    between atoms: C3_5  and  O2_6 
REMARK    5  A    between atoms: C4_8  and  C5_9 
REMARK    6  A    between atoms: C5_9  and  O3_10 
REMARK    7  A    between atoms: C5_9  and  C6_12 
REMARK    8  A    between atoms: C6_12  and  C7_13 
REMARK    9  A    between atoms: C7_13  and  C8_14 
REMARK   10  A    between atoms: C12_18  and  C14_20 
REMARK   11  A    between atoms: C14_20  and  C15_21 
REMARK   12  A    between atoms: C16_22  and  C17_23 
REMARK   13  A    between atoms: C17_23  and  C18_24 
REMARK   14  A    between atoms: C18_24  and  C19_25 
REMARK   15  A    between atoms: C19_25  and  C20_26 
REMARK   16  A    between atoms: C21_27  and  O4_28 
REMARK   17  A    between atoms: C23_32  and  O6_33 
ROOT
HETATM    1  C8  UNL     1      12.972  41.330  -7.430  1.00  0.00     0.168 C 
HETATM    2  C9  UNL     1      12.945  42.778  -7.458  1.00  0.00     0.005 C 
HETATM    3  C10 UNL     1      12.663  43.387  -8.639  1.00  0.00    -0.025 C 
HETATM    4  C11 UNL     1      12.419  42.479  -9.781  1.00  0.00     0.065 C 
HETATM    5  C12 UNL     1      13.545  41.466  -9.708  1.00  0.00     0.065 C 
HETATM    6  C13 UNL     1      14.886  42.163  -9.516  1.00  0.00     0.046 C 
HETATM    7  O7  UNL     1      13.338  40.690  -8.614  1.00  0.00    -0.367 OA
ENDROOT
BRANCH   5   8
HETATM    8  C14 UNL     1      13.647  40.598 -10.916  1.00  0.00     0.065 C 
BRANCH   8   9
HETATM    9  C15 UNL     1      13.553  39.158 -10.745  1.00  0.00    -0.028 C 
HETATM   10  C16 UNL     1      14.500  38.269 -10.536  1.00  0.00    -0.031 C 
BRANCH  10  11
HETATM   11  C17 UNL     1      14.104  36.817 -10.396  1.00  0.00     0.027 C 
BRANCH  11  12
HETATM   12  C18 UNL     1      13.093  36.503 -11.448  1.00  0.00     0.004 C 
BRANCH  12  13
HETATM   13  C19 UNL     1      13.628  35.607 -12.516  1.00  0.00     0.012 C 
BRANCH  13  14
HETATM   14  C20 UNL     1      13.705  36.324 -13.860  1.00  0.00     0.071 C 
HETATM   15  C21 UNL     1      13.526  35.317 -14.954  1.00  0.00     0.150 C 
HETATM   16  C22 UNL     1      14.589  35.661 -15.944  1.00  0.00     0.203 C 
HETATM   17  O5  UNL     1      15.359  36.673 -15.453  1.00  0.00    -0.358 OA
HETATM   18  C23 UNL     1      15.094  36.831 -14.105  1.00  0.00     0.263 C 
BRANCH  15  19
HETATM   19  O4  UNL     1      12.276  35.451 -15.598  1.00  0.00    -0.393 OA
ATOM     20  H4  UNL     1      12.022  34.656 -16.053  1.00  0.00     0.210 HD
ENDBRANCH  15  19
BRANCH  18  21
HETATM   21  O6  UNL     1      15.984  36.127 -13.312  1.00  0.00    -0.371 OA
ATOM     22  H6  UNL     1      16.549  36.739 -12.855  1.00  0.00     0.212 HD
ENDBRANCH  18  21
ENDBRANCH  13  14
ENDBRANCH  12  13
ENDBRANCH  11  12
ENDBRANCH  10  11
ENDBRANCH   8   9
ENDBRANCH   5   8
BRANCH   1  23
HETATM   23  C7  UNL     1      11.749  40.709  -6.839  1.00  0.00     0.011 C 
BRANCH  23  24
HETATM   24  C6  UNL     1      11.454  39.299  -6.873  1.00  0.00     0.035 C 
BRANCH  24  25
HETATM   25  C5  UNL     1      11.004  38.414  -5.826  1.00  0.00     0.064 C 
BRANCH  25  26
HETATM   26  C4  UNL     1      10.644  38.764  -4.464  1.00  0.00     0.049 C 
BRANCH  26  27
HETATM   27  C2  UNL     1       9.287  38.684  -3.918  1.00  0.00     0.096 C 
HETATM   28  C1  UNL     1       8.589  39.979  -3.730  1.00  0.00     0.052 C 
BRANCH  27  29
HETATM   29  O1  UNL     1       8.444  37.861  -4.707  1.00  0.00    -0.384 OA
ATOM     30  H1  UNL     1       8.195  38.365  -5.475  1.00  0.00     0.211 HD
ENDBRANCH  27  29
BRANCH  27  31
HETATM   31  C3  UNL     1       9.272  37.994  -2.538  1.00  0.00     0.205 C 
BRANCH  31  32
HETATM   32  O2  UNL     1      10.073  36.863  -2.678  1.00  0.00    -0.398 OA
ATOM     33  H2  UNL     1      10.820  37.143  -3.195  1.00  0.00     0.209 HD
ENDBRANCH  31  32
ENDBRANCH  27  31
ENDBRANCH  26  27
ENDBRANCH  25  26
BRANCH  25  34
HETATM   34  O3  UNL     1      11.787  37.209  -5.776  1.00  0.00    -0.361 OA
ATOM     35  H3  UNL     1      11.360  36.610  -5.174  1.00  0.00     0.217 HD
ENDBRANCH  25  34
ENDBRANCH  24  25
ENDBRANCH  23  24
ENDBRANCH   1  23
TORSDOF 17
ENDMDL
MODEL 2
REMARK VINA RESULT: -7.789536641      0.896      1.510
REMARK  17 active torsions:
REMARK  status: ('A' for Active; 'I' for Inactive)
REMARK    1  A    between atoms: C2_2  and  O1_3 
REMARK    2  A    between atoms: C2_2  and  C3_5 
REMARK    3  A    between atoms: C2_2  and  C4_8 
REMARK    4  A    between atoms: C3_5  and  O2_6 
REMARK    5  A    between atoms: C4_8  and  C5_9 
REMARK    6  A    between atoms: C5_9  and  O3_10 
REMARK    7  A    between atoms: C5_9  and  C6_12 
REMARK    8  A    between atoms: C6_12  and  C7_13 
REMARK    9  A    between atoms: C7_13  and  C8_14 
REMARK   10  A    between atoms: C12_18  and  C14_20 
REMARK   11  A    between atoms: C14_20  and  C15_21 
REMARK   12  A    between atoms: C16_22  and  C17_23 
REMARK   13  A    between atoms: C17_23  and  C18_24 
REMARK   14  A    between atoms: C18_24  and  C19_25 
REMARK   15  A    between atoms: C19_25  and  C20_26 
REMARK   16  A    between atoms: C21_27  and  O4_28 
REMARK   17  A    between atoms: C23_32  and  O6_33 
ROOT
HETATM    1  C8  UNL     1      12.442  41.751  -7.289  1.00  0.00     0.168 C 
HETATM    2  C9  UNL     1      11.936  42.936  -7.949  1.00  0.00     0.005 C 
HETATM    3  C10 UNL     1      11.922  42.952  -9.308  1.00  0.00    -0.025 C 
HETATM    4  C11 UNL     1      12.441  41.732  -9.963  1.00  0.00     0.065 C 
HETATM    5  C12 UNL     1      13.733  41.427  -9.230  1.00  0.00     0.065 C 
HETATM    6  C13 UNL     1      14.584  42.684  -9.092  1.00  0.00     0.046 C 
HETATM    7  O7  UNL     1      13.413  41.021  -7.974  1.00  0.00    -0.367 OA
ENDROOT
BRANCH   5   8
HETATM    8  C14 UNL     1      14.563  40.379  -9.890  1.00  0.00     0.065 C 
BRANCH   8   9
HETATM    9  C15 UNL     1      14.018  39.038 -10.012  1.00  0.00    -0.028 C 
HETATM   10  C16 UNL     1      13.766  38.323 -11.087  1.00  0.00    -0.031 C 
BRANCH  10  11
HETATM   11  C17 UNL     1      13.188  36.938 -10.910  1.00  0.00     0.027 C 
BRANCH  11  12
HETATM   12  C18 UNL     1      13.938  36.001 -11.800  1.00  0.00     0.004 C 
BRANCH  12  13
HETATM   13  C19 UNL     1      13.310  35.856 -13.147  1.00  0.00     0.012 C 
BRANCH  13  14
HETATM   14  C20 UNL     1      14.323  36.094 -14.262  1.00  0.00     0.071 C 
HETATM   15  C21 UNL     1      14.319  37.550 -14.615  1.00  0.00     0.150 C 
HETATM   16  C22 UNL     1      14.309  37.563 -16.107  1.00  0.00     0.203 C 
HETATM   17  O5  UNL     1      14.216  36.286 -16.575  1.00  0.00    -0.358 OA
HETATM   18  C23 UNL     1      13.863  35.447 -15.534  1.00  0.00     0.263 C 
BRANCH  15  19
HETATM   19  O4  UNL     1      15.496  38.201 -14.184  1.00  0.00    -0.393 OA
ATOM     20  H4  UNL     1      15.796  37.877 -13.342  1.00  0.00     0.210 HD
ENDBRANCH  15  19
BRANCH  18  21
HETATM   21  O6  UNL     1      12.495  35.240 -15.472  1.00  0.00    -0.371 OA
ATOM     22  H6  UNL     1      12.070  35.742 -16.157  1.00  0.00     0.212 HD
ENDBRANCH  18  21
ENDBRANCH  13  14
ENDBRANCH  12  13
ENDBRANCH  11  12
ENDBRANCH  10  11
ENDBRANCH   8   9
ENDBRANCH   5   8
BRANCH   1  23
HETATM   23  C7  UNL     1      11.377  40.853  -6.749  1.00  0.00     0.011 C 
BRANCH  23  24
HETATM   24  C6  UNL     1      11.453  39.414  -6.739  1.00  0.00     0.035 C 
BRANCH  24  25
HETATM   25  C5  UNL     1      10.995  38.461  -5.756  1.00  0.00     0.064 C 
BRANCH  25  26
HETATM   26  C4  UNL     1      10.624  38.722  -4.377  1.00  0.00     0.049 C 
BRANCH  26  27
HETATM   27  C2  UNL     1       9.250  38.699  -3.870  1.00  0.00     0.096 C 
HETATM   28  C1  UNL     1       8.579  40.017  -3.765  1.00  0.00     0.052 C 
BRANCH  27  29
HETATM   29  O1  UNL     1       8.411  37.859  -4.645  1.00  0.00    -0.384 OA
ATOM     30  H1  UNL     1       8.894  37.060  -4.821  1.00  0.00     0.211 HD
ENDBRANCH  27  29
BRANCH  27  31
HETATM   31  C3  UNL     1       9.177  38.077  -2.460  1.00  0.00     0.205 C 
BRANCH  31  32
HETATM   32  O2  UNL     1       8.985  36.712  -2.664  1.00  0.00    -0.398 OA
ATOM     33  H2  UNL     1       9.463  36.280  -1.965  1.00  0.00     0.209 HD
ENDBRANCH  31  32
ENDBRANCH  27  31
ENDBRANCH  26  27
ENDBRANCH  25  26
BRANCH  25  34
HETATM   34  O3  UNL     1      11.780  37.256  -5.779  1.00  0.00    -0.361 OA
ATOM     35  H3  UNL     1      12.337  37.287  -6.549  1.00  0.00     0.217 HD
ENDBRANCH  25  34
ENDBRANCH  24  25
ENDBRANCH  23  24
ENDBRANCH   1  23
TORSDOF 17
ENDMDL
MODEL 3
REMARK VINA RESULT: -7.750864593      1.701     10.158
REMARK  17 active torsions:
REMARK  status: ('A' for Active; 'I' for Inactive)
REMARK    1  A    between atoms: C2_2  and  O1_3 
REMARK    2  A    between atoms: C2_2  and  C3_5 
REMARK    3  A    between atoms: C2_2  and  C4_8 
REMARK    4  A    between atoms: C3_5  and  O2_6 
REMARK    5  A    between atoms: C4_8  and  C5_9 
REMARK    6  A    between atoms: C5_9  and  O3_10 
REMARK    7  A    between atoms: C5_9  and  C6_12 
REMARK    8  A    between atoms: C6_12  and  C7_13 
REMARK    9  A    between atoms: C7_13  and  C8_14 
REMARK   10  A    between atoms: C12_18  and  C14_20 
REMARK   11  A    between atoms: C14_20  and  C15_21 
REMARK   12  A    between atoms: C16_22  and  C17_23 
REMARK   13  A    between atoms: C17_23  and  C18_24 
REMARK   14  A    between atoms: C18_24  and  C19_25 
REMARK   15  A    between atoms: C19_25  and  C20_26 
REMARK   16  A    between atoms: C21_27  and  O4_28 
REMARK   17  A    between atoms: C23_32  and  O6_33 
ROOT
HETATM    1  C8  UNL     1      13.455  38.376 -10.902  1.00  0.00     0.168 C 
HETATM    2  C9  UNL     1      14.512  39.058 -11.618  1.00  0.00     0.005 C 
HETATM    3  C10 UNL     1      15.272  39.953 -10.933  1.00  0.00    -0.025 C 
HETATM    4  C11 UNL     1      14.915  40.130  -9.509  1.00  0.00     0.065 C 
HETATM    5  C12 UNL     1      13.406  40.272  -9.509  1.00  0.00     0.065 C 
HETATM    6  C13 UNL     1      12.958  41.267 -10.574  1.00  0.00     0.046 C 
HETATM    7  O7  UNL     1      12.874  39.068  -9.839  1.00  0.00    -0.367 OA
ENDROOT
BRANCH   5   8
HETATM    8  C14 UNL     1      12.846  40.717  -8.201  1.00  0.00     0.065 C 
BRANCH   8   9
HETATM    9  C15 UNL     1      12.371  39.707  -7.271  1.00  0.00    -0.028 C 
HETATM   10  C16 UNL     1      11.323  39.716  -6.476  1.00  0.00    -0.031 C 
BRANCH  10  11
HETATM   11  C17 UNL     1      11.073  38.509  -5.603  1.00  0.00     0.027 C 
BRANCH  11  12
HETATM   12  C18 UNL     1      10.272  38.944  -4.420  1.00  0.00     0.004 C 
BRANCH  12  13
HETATM   13  C19 UNL     1      10.383  38.001  -3.268  1.00  0.00     0.012 C 
BRANCH  13  14
HETATM   14  C20 UNL     1       9.447  38.398  -2.130  1.00  0.00     0.071 C 
HETATM   15  C21 UNL     1      10.191  39.284  -1.180  1.00  0.00     0.150 C 
HETATM   16  C22 UNL     1       9.834  38.754   0.169  1.00  0.00     0.203 C 
HETATM   17  O5  UNL     1       9.062  37.639   0.031  1.00  0.00    -0.358 OA
HETATM   18  C23 UNL     1       9.121  37.206  -1.281  1.00  0.00     0.263 C 
BRANCH  15  19
HETATM   19  O4  UNL     1       9.749  40.624  -1.249  1.00  0.00    -0.393 OA
ATOM     20  H4  UNL     1      10.192  41.178  -0.616  1.00  0.00     0.210 HD
ENDBRANCH  15  19
BRANCH  18  21
HETATM   21  O6  UNL     1      10.089  36.234  -1.467  1.00  0.00    -0.371 OA
ATOM     22  H6  UNL     1      10.663  36.214  -0.711  1.00  0.00     0.212 HD
ENDBRANCH  18  21
ENDBRANCH  13  14
ENDBRANCH  12  13
ENDBRANCH  11  12
ENDBRANCH  10  11
ENDBRANCH   8   9
ENDBRANCH   5   8
BRANCH   1  23
HETATM   23  C7  UNL     1      13.790  36.974 -10.510  1.00  0.00     0.011 C 
BRANCH  23  24
HETATM   24  C6  UNL     1      14.449  36.023 -11.369  1.00  0.00     0.035 C 
BRANCH  24  25
HETATM   25  C5  UNL     1      14.018  35.434 -12.615  1.00  0.00     0.064 C 
BRANCH  25  26
HETATM   26  C4  UNL     1      13.547  36.122 -13.803  1.00  0.00     0.049 C 
BRANCH  26  27
HETATM   27  C2  UNL     1      14.299  36.221 -15.057  1.00  0.00     0.096 C 
HETATM   28  C1  UNL     1      14.475  37.591 -15.596  1.00  0.00     0.052 C 
BRANCH  27  29
HETATM   29  O1  UNL     1      15.587  35.640 -14.952  1.00  0.00    -0.384 OA
ATOM     30  H1  UNL     1      16.178  36.315 -14.636  1.00  0.00     0.211 HD
ENDBRANCH  27  29
BRANCH  27  31
HETATM   31  C3  UNL     1      13.629  35.409 -16.184  1.00  0.00     0.205 C 
BRANCH  31  32
HETATM   32  O2  UNL     1      12.788  34.502 -15.541  1.00  0.00    -0.398 OA
ATOM     33  H2  UNL     1      13.144  33.643 -15.737  1.00  0.00     0.209 HD
ENDBRANCH  31  32
ENDBRANCH  27  31
ENDBRANCH  26  27
ENDBRANCH  25  26
BRANCH  25  34
HETATM   34  O3  UNL     1      13.163  34.298 -12.397  1.00  0.00    -0.361 OA
ATOM     35  H3  UNL     1      13.707  33.519 -12.409  1.00  0.00     0.217 HD
ENDBRANCH  25  34
ENDBRANCH  24  25
ENDBRANCH  23  24
ENDBRANCH   1  23
TORSDOF 17
ENDMDL
MODEL 4
REMARK VINA RESULT: -7.684647652      1.295      2.299
REMARK  17 active torsions:
REMARK  status: ('A' for Active; 'I' for Inactive)
REMARK    1  A    between atoms: C2_2  and  O1_3 
REMARK    2  A    between atoms: C2_2  and  C3_5 
REMARK    3  A    between atoms: C2_2  and  C4_8 
REMARK    4  A    between atoms: C3_5  and  O2_6 
REMARK    5  A    between atoms: C4_8  and  C5_9 
REMARK    6  A    between atoms: C5_9  and  O3_10 
REMARK    7  A    between atoms: C5_9  and  C6_12 
REMARK    8  A    between atoms: C6_12  and  C7_13 
REMARK    9  A    between atoms: C7_13  and  C8_14 
REMARK   10  A    between atoms: C12_18  and  C14_20 
REMARK   11  A    between atoms: C14_20  and  C15_21 
REMARK   12  A    between atoms: C16_22  and  C17_23 
REMARK   13  A    between atoms: C17_23  and  C18_24 
REMARK   14  A    between atoms: C18_24  and  C19_25 
REMARK   15  A    between atoms: C19_25  and  C20_26 
REMARK   16  A    between atoms: C21_27  and  O4_28 
REMARK   17  A    between atoms: C23_32  and  O6_33 
ROOT
HETATM    1  C8  UNL     1      12.251  41.841  -7.277  1.00  0.00     0.168 C 
HETATM    2  C9  UNL     1      11.611  42.945  -7.960  1.00  0.00     0.005 C 
HETATM    3  C10 UNL     1      11.529  42.895  -9.316  1.00  0.00    -0.025 C 
HETATM    4  C11 UNL     1      12.123  41.695  -9.944  1.00  0.00     0.065 C 
HETATM    5  C12 UNL     1      13.471  41.538  -9.267  1.00  0.00     0.065 C 
HETATM    6  C13 UNL     1      14.213  42.869  -9.228  1.00  0.00     0.046 C 
HETATM    7  O7  UNL     1      13.250  41.167  -7.980  1.00  0.00    -0.367 OA
ENDROOT
BRANCH   5   8
HETATM    8  C14 UNL     1      14.358  40.537  -9.924  1.00  0.00     0.065 C 
BRANCH   8   9
HETATM    9  C15 UNL     1      14.059  40.135 -11.288  1.00  0.00    -0.028 C 
HETATM   10  C16 UNL     1      14.699  40.398 -12.406  1.00  0.00    -0.031 C 
BRANCH  10  11
HETATM   11  C17 UNL     1      14.148  39.841 -13.698  1.00  0.00     0.027 C 
BRANCH  11  12
HETATM   12  C18 UNL     1      15.032  38.722 -14.141  1.00  0.00     0.004 C 
BRANCH  12  13
HETATM   13  C19 UNL     1      14.290  37.441 -14.334  1.00  0.00     0.012 C 
BRANCH  13  14
HETATM   14  C20 UNL     1      13.816  36.865 -13.003  1.00  0.00     0.071 C 
HETATM   15  C21 UNL     1      14.993  36.278 -12.286  1.00  0.00     0.150 C 
HETATM   16  C22 UNL     1      14.496  34.962 -11.786  1.00  0.00     0.203 C 
HETATM   17  O5  UNL     1      13.226  34.753 -12.236  1.00  0.00    -0.358 OA
HETATM   18  C23 UNL     1      12.942  35.669 -13.232  1.00  0.00     0.263 C 
BRANCH  15  19
HETATM   19  O4  UNL     1      15.370  37.052 -11.166  1.00  0.00    -0.393 OA
ATOM     20  H4  UNL     1      16.041  36.624 -10.647  1.00  0.00     0.210 HD
ENDBRANCH  15  19
BRANCH  18  21
HETATM   21  O6  UNL     1      13.187  35.159 -14.495  1.00  0.00    -0.371 OA
ATOM     22  H6  UNL     1      13.945  35.594 -14.868  1.00  0.00     0.212 HD
ENDBRANCH  18  21
ENDBRANCH  13  14
ENDBRANCH  12  13
ENDBRANCH  11  12
ENDBRANCH  10  11
ENDBRANCH   8   9
ENDBRANCH   5   8
BRANCH   1  23
HETATM   23  C7  UNL     1      11.298  40.881  -6.644  1.00  0.00     0.011 C 
BRANCH  23  24
HETATM   24  C6  UNL     1      11.438  39.448  -6.686  1.00  0.00     0.035 C 
BRANCH  24  25
HETATM   25  C5  UNL     1      11.010  38.439  -5.746  1.00  0.00     0.064 C 
BRANCH  25  26
HETATM   26  C4  UNL     1      10.625  38.629  -4.359  1.00  0.00     0.049 C 
BRANCH  26  27
HETATM   27  C2  UNL     1       9.250  38.543  -3.861  1.00  0.00     0.096 C 
HETATM   28  C1  UNL     1       8.560  39.839  -3.646  1.00  0.00     0.052 C 
BRANCH  27  29
HETATM   29  O1  UNL     1       8.425  37.761  -4.708  1.00  0.00    -0.384 OA
ATOM     30  H1  UNL     1       8.965  37.460  -5.430  1.00  0.00     0.211 HD
ENDBRANCH  27  29
BRANCH  27  31
HETATM   31  C3  UNL     1       9.182  37.803  -2.510  1.00  0.00     0.205 C 
BRANCH  31  32
HETATM   32  O2  UNL     1      10.339  37.027  -2.452  1.00  0.00    -0.398 OA
ATOM     33  H2  UNL     1      10.202  36.319  -3.071  1.00  0.00     0.209 HD
ENDBRANCH  31  32
ENDBRANCH  27  31
ENDBRANCH  26  27
ENDBRANCH  25  26
BRANCH  25  34
HETATM   34  O3  UNL     1      11.835  37.263  -5.815  1.00  0.00    -0.361 OA
ATOM     35  H3  UNL     1      11.339  36.539  -5.452  1.00  0.00     0.217 HD
ENDBRANCH  25  34
ENDBRANCH  24  25
ENDBRANCH  23  24
ENDBRANCH   1  23
TORSDOF 17
ENDMDL
MODEL 5
REMARK VINA RESULT: -7.638629909      1.491      2.318
REMARK  17 active torsions:
REMARK  status: ('A' for Active; 'I' for Inactive)
REMARK    1  A    between atoms: C2_2  and  O1_3 
REMARK    2  A    between atoms: C2_2  and  C3_5 
REMARK    3  A    between atoms: C2_2  and  C4_8 
REMARK    4  A    between atoms: C3_5  and  O2_6 
REMARK    5  A    between atoms: C4_8  and  C5_9 
REMARK    6  A    between atoms: C5_9  and  O3_10 
REMARK    7  A    between atoms: C5_9  and  C6_12 
REMARK    8  A    between atoms: C6_12  and  C7_13 
REMARK    9  A    between atoms: C7_13  and  C8_14 
REMARK   10  A    between atoms: C12_18  and  C14_20 
REMARK   11  A    between atoms: C14_20  and  C15_21 
REMARK   12  A    between atoms: C16_22  and  C17_23 
REMARK   13  A    between atoms: C17_23  and  C18_24 
REMARK   14  A    between atoms: C18_24  and  C19_25 
REMARK   15  A    between atoms: C19_25  and  C20_26 
REMARK   16  A    between atoms: C21_27  and  O4_28 
REMARK   17  A    between atoms: C23_32  and  O6_33 
ROOT
HETATM    1  C8  UNL     1      12.600  39.828  -7.207  1.00  0.00     0.168 C 
HETATM    2  C9  UNL     1      12.279  41.214  -6.937  1.00  0.00     0.005 C 
HETATM    3  C10 UNL     1      11.865  41.986  -7.976  1.00  0.00    -0.025 C 
HETATM    4  C11 UNL     1      11.795  41.305  -9.286  1.00  0.00     0.065 C 
HETATM    5  C12 UNL     1      13.104  40.546  -9.390  1.00  0.00     0.065 C 
HETATM    6  C13 UNL     1      14.279  41.443  -9.019  1.00  0.00     0.046 C 
HETATM    7  O7  UNL     1      13.072  39.534  -8.486  1.00  0.00    -0.367 OA
ENDROOT
BRANCH   5   8
HETATM    8  C14 UNL     1      13.365  39.986 -10.747  1.00  0.00     0.065 C 
BRANCH   8   9
HETATM    9  C15 UNL     1      13.993  38.679 -10.849  1.00  0.00    -0.028 C 
HETATM   10  C16 UNL     1      13.483  37.523 -11.212  1.00  0.00    -0.031 C 
BRANCH  10  11
HETATM   11  C17 UNL     1      14.385  36.310 -11.221  1.00  0.00     0.027 C 
BRANCH  11  12
HETATM   12  C18 UNL     1      13.799  35.299 -12.150  1.00  0.00     0.004 C 
BRANCH  12  13
HETATM   13  C19 UNL     1      13.215  35.912 -13.380  1.00  0.00     0.012 C 
BRANCH  13  14
HETATM   14  C20 UNL     1      14.264  36.076 -14.474  1.00  0.00     0.071 C 
HETATM   15  C21 UNL     1      14.381  37.530 -14.816  1.00  0.00     0.150 C 
HETATM   16  C22 UNL     1      14.400  37.553 -16.308  1.00  0.00     0.203 C 
HETATM   17  O5  UNL     1      14.216  36.290 -16.787  1.00  0.00    -0.358 OA
HETATM   18  C23 UNL     1      13.778  35.476 -15.759  1.00  0.00     0.263 C 
BRANCH  15  19
HETATM   19  O4  UNL     1      15.596  38.085 -14.359  1.00  0.00    -0.393 OA
ATOM     20  H4  UNL     1      16.311  37.459 -14.400  1.00  0.00     0.210 HD
ENDBRANCH  15  19
BRANCH  18  21
HETATM   21  O6  UNL     1      12.398  35.376 -15.724  1.00  0.00    -0.371 OA
ATOM     22  H6  UNL     1      12.081  35.704 -14.891  1.00  0.00     0.212 HD
ENDBRANCH  18  21
ENDBRANCH  13  14
ENDBRANCH  12  13
ENDBRANCH  11  12
ENDBRANCH  10  11
ENDBRANCH   8   9
ENDBRANCH   5   8
BRANCH   1  23
HETATM   23  C7  UNL     1      11.535  38.865  -6.793  1.00  0.00     0.011 C 
BRANCH  23  24
HETATM   24  C6  UNL     1      11.352  38.381  -5.449  1.00  0.00     0.035 C 
BRANCH  24  25
HETATM   25  C5  UNL     1      10.171  38.357  -4.618  1.00  0.00     0.064 C 
BRANCH  25  26
HETATM   26  C4  UNL     1      10.066  37.904  -3.243  1.00  0.00     0.049 C 
BRANCH  26  27
HETATM   27  C2  UNL     1      10.394  38.723  -2.073  1.00  0.00     0.096 C 
HETATM   28  C1  UNL     1      10.233  38.060  -0.756  1.00  0.00     0.052 C 
BRANCH  27  29
HETATM   29  O1  UNL     1      11.717  39.229  -2.132  1.00  0.00    -0.384 OA
ATOM     30  H1  UNL     1      12.305  38.507  -1.941  1.00  0.00     0.211 HD
ENDBRANCH  27  29
BRANCH  27  31
HETATM   31  C3  UNL     1       9.524  39.996  -2.011  1.00  0.00     0.205 C 
BRANCH  31  32
HETATM   32  O2  UNL     1      10.174  40.848  -1.120  1.00  0.00    -0.398 OA
ATOM     33  H2  UNL     1      10.033  41.725  -1.459  1.00  0.00     0.209 HD
ENDBRANCH  31  32
ENDBRANCH  27  31
ENDBRANCH  26  27
ENDBRANCH  25  26
BRANCH  25  34
HETATM   34  O3  UNL     1       9.028  37.855  -5.333  1.00  0.00    -0.361 OA
ATOM     35  H3  UNL     1       9.246  37.848  -6.259  1.00  0.00     0.217 HD
ENDBRANCH  25  34
ENDBRANCH  24  25
ENDBRANCH  23  24
ENDBRANCH   1  23
TORSDOF 17
ENDMDL
