MODEL 1
REMARK VINA RESULT: -6.903713190      0.000      0.000
REMARK  17 active torsions:
REMARK  status: ('A' for Active; 'I' for Inactive)
REMARK    1  A    between atoms: C3_3  and  C4_4 
REMARK    2  A    between atoms: C5_5  and  C6_6 
REMARK    3  A    between atoms: C6_6  and  C7_7 
REMARK    4  A    between atoms: C7_7  and  C8_8 
REMARK    5  A    between atoms: C8_8  and  O1_9 
REMARK    6  A    between atoms: C8_8  and  C9_11 
REMARK    7  A    between atoms: C9_11  and  C10_12 
REMARK    8  A    between atoms: C10_12  and  C11_13 
REMARK    9  A    between atoms: C11_13  and  C12_14 
REMARK   10  A    between atoms: C13_15  and  C14_16 
REMARK   11  A    between atoms: C14_16  and  C15_17 
REMARK   12  A    between atoms: C19_21  and  O2_22 
REMARK   13  A    between atoms: O2_22  and  C20_23 
REMARK   14  A    between atoms: C22_25  and  O3_26 
REMARK   15  A    between atoms: C23_28  and  O4_29 
REMARK   16  A    between atoms: C24_31  and  O5_32 
REMARK   17  A    between atoms: C25_34  and  O6_35 
ROOT
HETATM    1  C15 UNL     1      13.604  39.104 -10.278  1.00  0.00     0.025 C 
HETATM    2  C16 UNL     1      13.584  38.835  -8.766  1.00  0.00     0.034 C 
HETATM    3  C17 UNL     1      14.323  37.520  -8.763  1.00  0.00    -0.028 C 
HETATM    4  C18 UNL     1      14.111  36.895  -9.912  1.00  0.00     0.001 C 
HETATM    5  C19 UNL     1      13.227  37.720 -10.773  1.00  0.00     0.149 C 
ENDROOT
BRANCH   1   6
HETATM    6  C14 UNL     1      14.945  39.549 -10.742  1.00  0.00     0.034 C 
BRANCH   6   7
HETATM    7  C13 UNL     1      15.271  40.829  -9.993  1.00  0.00    -0.030 C 
HETATM    8  C12 UNL     1      16.243  41.608 -10.393  1.00  0.00    -0.031 C 
BRANCH   8   9
HETATM    9  C11 UNL     1      16.732  42.865  -9.838  1.00  0.00     0.027 C 
BRANCH   9  10
HETATM   10  C10 UNL     1      15.735  43.809  -9.255  1.00  0.00     0.006 C 
BRANCH  10  11
HETATM   11  C9  UNL     1      15.778  43.930  -7.761  1.00  0.00     0.032 C 
BRANCH  11  12
HETATM   12  C8  UNL     1      14.352  44.003  -7.212  1.00  0.00     0.118 C 
BRANCH  12  13
HETATM   13  C7  UNL     1      13.647  42.698  -7.412  1.00  0.00     0.035 C 
BRANCH  13  14
HETATM   14  C6  UNL     1      12.239  43.003  -7.925  1.00  0.00     0.029 C 
BRANCH  14  15
HETATM   15  C5  UNL     1      11.809  42.070  -8.965  1.00  0.00    -0.027 C 
HETATM   16  C4  UNL     1      11.917  42.322 -10.241  1.00  0.00    -0.004 C 
BRANCH  16  17
HETATM   17  C3  UNL     1      12.456  43.521 -10.829  1.00  0.00    -0.005 C 
HETATM   18  C2  UNL     1      13.074  43.494 -12.018  1.00  0.00    -0.031 C 
HETATM   19  C1  UNL     1      13.212  42.216 -12.750  1.00  0.00     0.036 C 
ENDBRANCH  16  17
ENDBRANCH  14  15
ENDBRANCH  13  14
ENDBRANCH  12  13
BRANCH  12  20
HETATM   20  O1  UNL     1      14.426  44.240  -5.811  1.00  0.00    -0.396 OA
ATOM     21  H1  UNL     1      15.346  44.300  -5.579  1.00  0.00     0.210 HD
ENDBRANCH  12  20
ENDBRANCH  11  12
ENDBRANCH  10  11
ENDBRANCH   9  10
ENDBRANCH   8   9
ENDBRANCH   6   7
ENDBRANCH   1   6
BRANCH   5  22
HETATM   22  O2  UNL     1      13.584  37.607 -12.058  1.00  0.00    -0.374 OA
BRANCH  22  23
HETATM   23  C20 UNL     1      14.334  36.600 -12.522  1.00  0.00     0.156 C 
HETATM   24  C21 UNL     1      15.563  36.995 -13.300  1.00  0.00     0.069 C 
HETATM   25  C22 UNL     1      15.328  37.244 -14.754  1.00  0.00     0.152 C 
HETATM   26  C23 UNL     1      14.493  36.218 -15.440  1.00  0.00     0.178 C 
HETATM   27  C24 UNL     1      13.313  35.739 -14.664  1.00  0.00     0.180 C 
HETATM   28  C25 UNL     1      13.636  35.472 -13.219  1.00  0.00     0.178 C 
BRANCH  25  29
HETATM   29  O3  UNL     1      14.860  38.555 -15.005  1.00  0.00    -0.393 OA
ATOM     30  H3  UNL     1      15.040  38.838 -15.894  1.00  0.00     0.210 HD
ENDBRANCH  25  29
BRANCH  26  31
HETATM   31  O4  UNL     1      15.325  35.140 -15.809  1.00  0.00    -0.390 OA
ATOM     32  H4  UNL     1      15.753  35.356 -16.629  1.00  0.00     0.210 HD
ENDBRANCH  26  31
BRANCH  27  33
HETATM   33  O5  UNL     1      12.970  34.473 -15.205  1.00  0.00    -0.390 OA
ATOM     34  H5  UNL     1      12.562  33.985 -14.500  1.00  0.00     0.210 HD
ENDBRANCH  27  33
BRANCH  28  35
HETATM   35  O6  UNL     1      12.534  35.002 -12.555  1.00  0.00    -0.390 OA
ATOM     36  H6  UNL     1      12.737  34.478 -11.788  1.00  0.00     0.210 HD
ENDBRANCH  28  35
ENDBRANCH  22  23
ENDBRANCH   5  22
TORSDOF 17
ENDMDL
MODEL 2
REMARK VINA RESULT: -6.867360999      4.906      6.525
REMARK  17 active torsions:
REMARK  status: ('A' for Active; 'I' for Inactive)
REMARK    1  A    between atoms: C3_3  and  C4_4 
REMARK    2  A    between atoms: C5_5  and  C6_6 
REMARK    3  A    between atoms: C6_6  and  C7_7 
REMARK    4  A    between atoms: C7_7  and  C8_8 
REMARK    5  A    between atoms: C8_8  and  O1_9 
REMARK    6  A    between atoms: C8_8  and  C9_11 
REMARK    7  A    between atoms: C9_11  and  C10_12 
REMARK    8  A    between atoms: C10_12  and  C11_13 
REMARK    9  A    between atoms: C11_13  and  C12_14 
REMARK   10  A    between atoms: C13_15  and  C14_16 
REMARK   11  A    between atoms: C14_16  and  C15_17 
REMARK   12  A    between atoms: C19_21  and  O2_22 
REMARK   13  A    between atoms: O2_22  and  C20_23 
REMARK   14  A    between atoms: C22_25  and  O3_26 
REMARK   15  A    between atoms: C23_28  and  O4_29 
REMARK   16  A    between atoms: C24_31  and  O5_32 
REMARK   17  A    between atoms: C25_34  and  O6_35 
ROOT
HETATM    1  C15 UNL     1      14.285  38.963  -9.693  1.00  0.00     0.025 C 
HETATM    2  C16 UNL     1      14.678  40.445  -9.595  1.00  0.00     0.034 C 
HETATM    3  C17 UNL     1      13.998  40.939 -10.849  1.00  0.00    -0.028 C 
HETATM    4  C18 UNL     1      13.943  39.956 -11.734  1.00  0.00     0.001 C 
HETATM    5  C19 UNL     1      14.569  38.736 -11.167  1.00  0.00     0.149 C 
ENDROOT
BRANCH   1   6
HETATM    6  C14 UNL     1      12.860  38.745  -9.329  1.00  0.00     0.034 C 
BRANCH   6   7
HETATM    7  C13 UNL     1      12.839  38.275  -7.885  1.00  0.00    -0.030 C 
HETATM    8  C12 UNL     1      11.846  38.592  -7.093  1.00  0.00    -0.031 C 
BRANCH   8   9
HETATM    9  C11 UNL     1      11.617  38.263  -5.692  1.00  0.00     0.027 C 
BRANCH   9  10
HETATM   10  C10 UNL     1      10.525  38.982  -4.972  1.00  0.00     0.006 C 
BRANCH  10  11
HETATM   11  C9  UNL     1       9.617  38.104  -4.163  1.00  0.00     0.032 C 
BRANCH  11  12
HETATM   12  C8  UNL     1       8.681  38.974  -3.323  1.00  0.00     0.118 C 
BRANCH  12  13
HETATM   13  C7  UNL     1       9.359  40.252  -2.937  1.00  0.00     0.035 C 
BRANCH  13  14
HETATM   14  C6  UNL     1       9.414  40.307  -1.409  1.00  0.00     0.029 C 
BRANCH  14  15
HETATM   15  C5  UNL     1      10.529  39.536  -0.863  1.00  0.00    -0.027 C 
HETATM   16  C4  UNL     1      10.369  38.477  -0.118  1.00  0.00    -0.004 C 
BRANCH  16  17
HETATM   17  C3  UNL     1       9.112  37.901   0.285  1.00  0.00    -0.005 C 
HETATM   18  C2  UNL     1       8.693  36.729  -0.212  1.00  0.00    -0.031 C 
HETATM   19  C1  UNL     1       9.529  36.002  -1.194  1.00  0.00     0.036 C 
ENDBRANCH  16  17
ENDBRANCH  14  15
ENDBRANCH  13  14
ENDBRANCH  12  13
BRANCH  12  20
HETATM   20  O1  UNL     1       7.552  39.312  -4.120  1.00  0.00    -0.396 OA
ATOM     21  H1  UNL     1       7.663  38.893  -4.965  1.00  0.00     0.210 HD
ENDBRANCH  12  20
ENDBRANCH  11  12
ENDBRANCH  10  11
ENDBRANCH   9  10
ENDBRANCH   8   9
ENDBRANCH   6   7
ENDBRANCH   1   6
BRANCH   5  22
HETATM   22  O2  UNL     1      13.915  37.640 -11.570  1.00  0.00    -0.374 OA
BRANCH  22  23
HETATM   23  C20 UNL     1      14.530  36.577 -12.103  1.00  0.00     0.156 C 
HETATM   24  C21 UNL     1      15.784  36.865 -12.888  1.00  0.00     0.069 C 
HETATM   25  C22 UNL     1      15.555  37.219 -14.321  1.00  0.00     0.152 C 
HETATM   26  C23 UNL     1      14.592  36.338 -15.040  1.00  0.00     0.178 C 
HETATM   27  C24 UNL     1      13.376  35.962 -14.261  1.00  0.00     0.180 C 
HETATM   28  C25 UNL     1      13.689  35.580 -12.840  1.00  0.00     0.178 C 
BRANCH  25  29
HETATM   29  O3  UNL     1      15.244  38.588 -14.493  1.00  0.00    -0.393 OA
ATOM     30  H3  UNL     1      14.315  38.731 -14.636  1.00  0.00     0.210 HD
ENDBRANCH  25  29
BRANCH  26  31
HETATM   31  O4  UNL     1      15.281  35.190 -15.483  1.00  0.00    -0.390 OA
ATOM     32  H4  UNL     1      14.953  34.956 -16.344  1.00  0.00     0.210 HD
ENDBRANCH  26  31
BRANCH  27  33
HETATM   33  O5  UNL     1      12.874  34.777 -14.859  1.00  0.00    -0.390 OA
ATOM     34  H5  UNL     1      12.169  34.476 -14.298  1.00  0.00     0.210 HD
ENDBRANCH  27  33
BRANCH  28  35
HETATM   35  O6  UNL     1      12.551  35.209 -12.176  1.00  0.00    -0.390 OA
ATOM     36  H6  UNL     1      12.113  34.452 -12.548  1.00  0.00     0.210 HD
ENDBRANCH  28  35
ENDBRANCH  22  23
ENDBRANCH   5  22
TORSDOF 17
ENDMDL
MODEL 3
REMARK VINA RESULT: -6.666615101      3.722      5.224
REMARK  17 active torsions:
REMARK  status: ('A' for Active; 'I' for Inactive)
REMARK    1  A    between atoms: C3_3  and  C4_4 
REMARK    2  A    between atoms: C5_5  and  C6_6 
REMARK    3  A    between atoms: C6_6  and  C7_7 
REMARK    4  A    between atoms: C7_7  and  C8_8 
REMARK    5  A    between atoms: C8_8  and  O1_9 
REMARK    6  A    between atoms: C8_8  and  C9_11 
REMARK    7  A    between atoms: C9_11  and  C10_12 
REMARK    8  A    between atoms: C10_12  and  C11_13 
REMARK    9  A    between atoms: C11_13  and  C12_14 
REMARK   10  A    between atoms: C13_15  and  C14_16 
REMARK   11  A    between atoms: C14_16  and  C15_17 
REMARK   12  A    between atoms: C19_21  and  O2_22 
REMARK   13  A    between atoms: O2_22  and  C20_23 
REMARK   14  A    between atoms: C22_25  and  O3_26 
REMARK   15  A    between atoms: C23_28  and  O4_29 
REMARK   16  A    between atoms: C24_31  and  O5_32 
REMARK   17  A    between atoms: C25_34  and  O6_35 
ROOT
HETATM    1  C15 UNL     1      13.313  37.805 -11.529  1.00  0.00     0.025 C 
HETATM    2  C16 UNL     1      13.446  37.144 -10.149  1.00  0.00     0.034 C 
HETATM    3  C17 UNL     1      14.681  36.319 -10.415  1.00  0.00    -0.028 C 
HETATM    4  C18 UNL     1      14.734  36.010 -11.701  1.00  0.00     0.001 C 
HETATM    5  C19 UNL     1      13.561  36.589 -12.403  1.00  0.00     0.149 C 
ENDROOT
BRANCH   1   6
HETATM    6  C14 UNL     1      14.320  38.883 -11.724  1.00  0.00     0.034 C 
BRANCH   6   7
HETATM    7  C13 UNL     1      13.787  40.119 -11.020  1.00  0.00    -0.030 C 
HETATM    8  C12 UNL     1      14.148  40.396  -9.793  1.00  0.00    -0.031 C 
BRANCH   8   9
HETATM    9  C11 UNL     1      13.768  41.507  -8.928  1.00  0.00     0.027 C 
BRANCH   9  10
HETATM   10  C10 UNL     1      12.998  41.198  -7.688  1.00  0.00     0.006 C 
BRANCH  10  11
HETATM   11  C9  UNL     1      11.737  40.417  -7.906  1.00  0.00     0.032 C 
BRANCH  11  12
HETATM   12  C8  UNL     1      11.682  39.249  -6.918  1.00  0.00     0.118 C 
BRANCH  12  13
HETATM   13  C7  UNL     1      10.977  39.658  -5.662  1.00  0.00     0.035 C 
BRANCH  13  14
HETATM   14  C6  UNL     1      10.713  38.393  -4.844  1.00  0.00     0.029 C 
BRANCH  14  15
HETATM   15  C5  UNL     1       9.354  38.348  -4.309  1.00  0.00    -0.027 C 
HETATM   16  C4  UNL     1       9.085  38.402  -3.034  1.00  0.00    -0.004 C 
BRANCH  16  17
HETATM   17  C3  UNL     1      10.045  38.511  -1.965  1.00  0.00    -0.005 C 
HETATM   18  C2  UNL     1      10.205  37.525  -1.071  1.00  0.00    -0.031 C 
HETATM   19  C1  UNL     1       9.388  36.296  -1.172  1.00  0.00     0.036 C 
ENDBRANCH  16  17
ENDBRANCH  14  15
ENDBRANCH  13  14
ENDBRANCH  12  13
BRANCH  12  20
HETATM   20  O1  UNL     1      10.927  38.200  -7.512  1.00  0.00    -0.396 OA
ATOM     21  H1  UNL     1      11.197  37.386  -7.103  1.00  0.00     0.210 HD
ENDBRANCH  12  20
ENDBRANCH  11  12
ENDBRANCH  10  11
ENDBRANCH   9  10
ENDBRANCH   8   9
ENDBRANCH   6   7
ENDBRANCH   1   6
BRANCH   5  22
HETATM   22  O2  UNL     1      13.902  37.000 -13.631  1.00  0.00    -0.374 OA
BRANCH  22  23
HETATM   23  C20 UNL     1      14.620  36.252 -14.477  1.00  0.00     0.156 C 
HETATM   24  C21 UNL     1      15.835  36.913 -15.075  1.00  0.00     0.069 C 
HETATM   25  C22 UNL     1      15.566  37.717 -16.306  1.00  0.00     0.152 C 
HETATM   26  C23 UNL     1      14.695  37.050 -17.313  1.00  0.00     0.178 C 
HETATM   27  C24 UNL     1      13.527  36.312 -16.751  1.00  0.00     0.180 C 
HETATM   28  C25 UNL     1      13.883  35.494 -15.539  1.00  0.00     0.178 C 
BRANCH  25  29
HETATM   29  O3  UNL     1      15.117  39.023 -16.005  1.00  0.00    -0.393 OA
ATOM     30  H3  UNL     1      14.254  39.199 -16.363  1.00  0.00     0.210 HD
ENDBRANCH  25  29
BRANCH  26  31
HETATM   31  O4  UNL     1      15.495  36.198 -18.103  1.00  0.00    -0.390 OA
ATOM     32  H4  UNL     1      15.585  35.366 -17.653  1.00  0.00     0.210 HD
ENDBRANCH  26  31
BRANCH  27  33
HETATM   33  O5  UNL     1      13.145  35.364 -17.736  1.00  0.00    -0.390 OA
ATOM     34  H5  UNL     1      13.695  34.602 -17.597  1.00  0.00     0.210 HD
ENDBRANCH  27  33
BRANCH  28  35
HETATM   35  O6  UNL     1      12.791  34.808 -15.079  1.00  0.00    -0.390 OA
ATOM     36  H6  UNL     1      12.900  33.864 -15.073  1.00  0.00     0.210 HD
ENDBRANCH  28  35
ENDBRANCH  22  23
ENDBRANCH   5  22
TORSDOF 17
ENDMDL
MODEL 4
REMARK VINA RESULT: -6.644146338      1.368      2.658
REMARK  17 active torsions:
REMARK  status: ('A' for Active; 'I' for Inactive)
REMARK    1  A    between atoms: C3_3  and  C4_4 
REMARK    2  A    between atoms: C5_5  and  C6_6 
REMARK    3  A    between atoms: C6_6  and  C7_7 
REMARK    4  A    between atoms: C7_7  and  C8_8 
REMARK    5  A    between atoms: C8_8  and  O1_9 
REMARK    6  A    between atoms: C8_8  and  C9_11 
REMARK    7  A    between atoms: C9_11  and  C10_12 
REMARK    8  A    between atoms: C10_12  and  C11_13 
REMARK    9  A    between atoms: C11_13  and  C12_14 
REMARK   10  A    between atoms: C13_15  and  C14_16 
REMARK   11  A    between atoms: C14_16  and  C15_17 
REMARK   12  A    between atoms: C19_21  and  O2_22 
REMARK   13  A    between atoms: O2_22  and  C20_23 
REMARK   14  A    between atoms: C22_25  and  O3_26 
REMARK   15  A    between atoms: C23_28  and  O4_29 
REMARK   16  A    between atoms: C24_31  and  O5_32 
REMARK   17  A    between atoms: C25_34  and  O6_35 
ROOT
HETATM    1  C15 UNL     1      13.456  39.107 -10.240  1.00  0.00     0.025 C 
HETATM    2  C16 UNL     1      13.396  38.833  -8.731  1.00  0.00     0.034 C 
HETATM    3  C17 UNL     1      14.255  37.592  -8.695  1.00  0.00    -0.028 C 
HETATM    4  C18 UNL     1      14.152  36.955  -9.851  1.00  0.00     0.001 C 
HETATM    5  C19 UNL     1      13.231  37.695 -10.750  1.00  0.00     0.149 C 
ENDROOT
BRANCH   1   6
HETATM    6  C14 UNL     1      14.768  39.677 -10.647  1.00  0.00     0.034 C 
BRANCH   6   7
HETATM    7  C13 UNL     1      14.700  41.173 -10.390  1.00  0.00    -0.030 C 
HETATM    8  C12 UNL     1      14.066  41.965 -11.216  1.00  0.00    -0.031 C 
BRANCH   8   9
HETATM    9  C11 UNL     1      13.875  43.409 -11.176  1.00  0.00     0.027 C 
BRANCH   9  10
HETATM   10  C10 UNL     1      12.508  43.944 -11.447  1.00  0.00     0.006 C 
BRANCH  10  11
HETATM   11  C9  UNL     1      11.631  44.076 -10.238  1.00  0.00     0.032 C 
BRANCH  11  12
HETATM   12  C8  UNL     1      10.704  42.862 -10.144  1.00  0.00     0.118 C 
BRANCH  12  13
HETATM   13  C7  UNL     1      11.136  41.959  -9.030  1.00  0.00     0.035 C 
BRANCH  13  14
HETATM   14  C6  UNL     1      11.810  42.824  -7.964  1.00  0.00     0.029 C 
BRANCH  14  15
HETATM   15  C5  UNL     1      13.024  42.209  -7.431  1.00  0.00    -0.027 C 
HETATM   16  C4  UNL     1      14.125  42.874  -7.211  1.00  0.00    -0.004 C 
BRANCH  16  17
HETATM   17  C3  UNL     1      14.332  44.280  -7.446  1.00  0.00    -0.005 C 
HETATM   18  C2  UNL     1      15.450  44.730  -8.032  1.00  0.00    -0.031 C 
HETATM   19  C1  UNL     1      16.500  43.775  -8.451  1.00  0.00     0.036 C 
ENDBRANCH  16  17
ENDBRANCH  14  15
ENDBRANCH  13  14
ENDBRANCH  12  13
BRANCH  12  20
HETATM   20  O1  UNL     1       9.395  43.324  -9.837  1.00  0.00    -0.396 OA
ATOM     21  H1  UNL     1       9.473  44.218  -9.524  1.00  0.00     0.210 HD
ENDBRANCH  12  20
ENDBRANCH  11  12
ENDBRANCH  10  11
ENDBRANCH   9  10
ENDBRANCH   8   9
ENDBRANCH   6   7
ENDBRANCH   1   6
BRANCH   5  22
HETATM   22  O2  UNL     1      13.652  37.621 -12.019  1.00  0.00    -0.374 OA
BRANCH  22  23
HETATM   23  C20 UNL     1      14.377  36.599 -12.489  1.00  0.00     0.156 C 
HETATM   24  C21 UNL     1      15.607  36.968 -13.278  1.00  0.00     0.069 C 
HETATM   25  C22 UNL     1      15.364  37.221 -14.730  1.00  0.00     0.152 C 
HETATM   26  C23 UNL     1      14.502  36.212 -15.408  1.00  0.00     0.178 C 
HETATM   27  C24 UNL     1      13.320  35.758 -14.621  1.00  0.00     0.180 C 
HETATM   28  C25 UNL     1      13.650  35.484 -13.179  1.00  0.00     0.178 C 
BRANCH  25  29
HETATM   29  O3  UNL     1      14.920  38.541 -14.977  1.00  0.00    -0.393 OA
ATOM     30  H3  UNL     1      14.112  38.742 -14.520  1.00  0.00     0.210 HD
ENDBRANCH  25  29
BRANCH  26  31
HETATM   31  O4  UNL     1      15.308  35.117 -15.784  1.00  0.00    -0.390 OA
ATOM     32  H4  UNL     1      14.797  34.321 -15.689  1.00  0.00     0.210 HD
ENDBRANCH  26  31
BRANCH  27  33
HETATM   33  O5  UNL     1      12.945  34.499 -15.158  1.00  0.00    -0.390 OA
ATOM     34  H5  UNL     1      12.504  34.033 -14.458  1.00  0.00     0.210 HD
ENDBRANCH  27  33
BRANCH  28  35
HETATM   35  O6  UNL     1      12.545  35.037 -12.504  1.00  0.00    -0.390 OA
ATOM     36  H6  UNL     1      11.858  35.688 -12.411  1.00  0.00     0.210 HD
ENDBRANCH  28  35
ENDBRANCH  22  23
ENDBRANCH   5  22
TORSDOF 17
ENDMDL
MODEL 5
REMARK VINA RESULT: -6.580757018      1.080      2.620
REMARK  17 active torsions:
REMARK  status: ('A' for Active; 'I' for Inactive)
REMARK    1  A    between atoms: C3_3  and  C4_4 
REMARK    2  A    between atoms: C5_5  and  C6_6 
REMARK    3  A    between atoms: C6_6  and  C7_7 
REMARK    4  A    between atoms: C7_7  and  C8_8 
REMARK    5  A    between atoms: C8_8  and  O1_9 
REMARK    6  A    between atoms: C8_8  and  C9_11 
REMARK    7  A    between atoms: C9_11  and  C10_12 
REMARK    8  A    between atoms: C10_12  and  C11_13 
REMARK    9  A    between atoms: C11_13  and  C12_14 
REMARK   10  A    between atoms: C13_15  and  C14_16 
REMARK   11  A    between atoms: C14_16  and  C15_17 
REMARK   12  A    between atoms: C19_21  and  O2_22 
REMARK   13  A    between atoms: O2_22  and  C20_23 
REMARK   14  A    between atoms: C22_25  and  O3_26 
REMARK   15  A    between atoms: C23_28  and  O4_29 
REMARK   16  A    between atoms: C24_31  and  O5_32 
REMARK   17  A    between atoms: C25_34  and  O6_35 
ROOT
HETATM    1  C15 UNL     1      13.408  39.033 -10.196  1.00  0.00     0.025 C 
HETATM    2  C16 UNL     1      13.406  38.759  -8.685  1.00  0.00     0.034 C 
HETATM    3  C17 UNL     1      14.319  37.557  -8.674  1.00  0.00    -0.028 C 
HETATM    4  C18 UNL     1      14.210  36.913  -9.826  1.00  0.00     0.001 C 
HETATM    5  C19 UNL     1      13.231  37.611 -10.698  1.00  0.00     0.149 C 
ENDROOT
BRANCH   1   6
HETATM    6  C14 UNL     1      14.681  39.659 -10.642  1.00  0.00     0.034 C 
BRANCH   6   7
HETATM    7  C13 UNL     1      14.338  41.050 -11.147  1.00  0.00    -0.030 C 
HETATM    8  C12 UNL     1      13.123  41.523 -11.027  1.00  0.00    -0.031 C 
BRANCH   8   9
HETATM    9  C11 UNL     1      12.569  42.808 -11.434  1.00  0.00     0.027 C 
BRANCH   9  10
HETATM   10  C10 UNL     1      11.556  43.448 -10.545  1.00  0.00     0.006 C 
BRANCH  10  11
HETATM   11  C9  UNL     1      10.977  42.547  -9.496  1.00  0.00     0.032 C 
BRANCH  11  12
HETATM   12  C8  UNL     1      11.594  42.883  -8.136  1.00  0.00     0.118 C 
BRANCH  12  13
HETATM   13  C7  UNL     1      12.132  44.280  -8.137  1.00  0.00     0.035 C 
BRANCH  13  14
HETATM   14  C6  UNL     1      13.547  44.234  -7.559  1.00  0.00     0.029 C 
BRANCH  14  15
HETATM   15  C5  UNL     1      14.243  42.991  -7.886  1.00  0.00    -0.027 C 
HETATM   16  C4  UNL     1      15.474  42.953  -8.318  1.00  0.00    -0.004 C 
BRANCH  16  17
HETATM   17  C3  UNL     1      16.333  44.087  -8.542  1.00  0.00    -0.005 C 
HETATM   18  C2  UNL     1      17.326  44.040  -9.440  1.00  0.00    -0.031 C 
HETATM   19  C1  UNL     1      17.556  42.805 -10.224  1.00  0.00     0.036 C 
ENDBRANCH  16  17
ENDBRANCH  14  15
ENDBRANCH  13  14
ENDBRANCH  12  13
BRANCH  12  20
HETATM   20  O1  UNL     1      10.566  42.820  -7.154  1.00  0.00    -0.396 OA
ATOM     21  H1  UNL     1      10.555  43.653  -6.698  1.00  0.00     0.210 HD
ENDBRANCH  12  20
ENDBRANCH  11  12
ENDBRANCH  10  11
ENDBRANCH   9  10
ENDBRANCH   8   9
ENDBRANCH   6   7
ENDBRANCH   1   6
BRANCH   5  22
HETATM   22  O2  UNL     1      13.617  37.554 -11.979  1.00  0.00    -0.374 OA
BRANCH  22  23
HETATM   23  C20 UNL     1      14.358  36.554 -12.474  1.00  0.00     0.156 C 
HETATM   24  C21 UNL     1      15.577  36.963 -13.261  1.00  0.00     0.069 C 
HETATM   25  C22 UNL     1      15.322  37.241 -14.706  1.00  0.00     0.152 C 
HETATM   26  C23 UNL     1      14.475  36.231 -15.401  1.00  0.00     0.178 C 
HETATM   27  C24 UNL     1      13.305  35.739 -14.617  1.00  0.00     0.180 C 
HETATM   28  C25 UNL     1      13.648  35.442 -13.183  1.00  0.00     0.178 C 
BRANCH  25  29
HETATM   29  O3  UNL     1      14.853  38.558 -14.923  1.00  0.00    -0.393 OA
ATOM     30  H3  UNL     1      15.372  39.206 -14.462  1.00  0.00     0.210 HD
ENDBRANCH  25  29
BRANCH  26  31
HETATM   31  O4  UNL     1      15.298  35.159 -15.803  1.00  0.00    -0.390 OA
ATOM     32  H4  UNL     1      15.632  35.345 -16.673  1.00  0.00     0.210 HD
ENDBRANCH  26  31
BRANCH  27  33
HETATM   33  O5  UNL     1      12.951  34.485 -15.179  1.00  0.00    -0.390 OA
ATOM     34  H5  UNL     1      13.393  33.826 -14.657  1.00  0.00     0.210 HD
ENDBRANCH  27  33
BRANCH  28  35
HETATM   35  O6  UNL     1      12.554  34.961 -12.513  1.00  0.00    -0.390 OA
ATOM     36  H6  UNL     1      12.661  34.076 -12.181  1.00  0.00     0.210 HD
ENDBRANCH  28  35
ENDBRANCH  22  23
ENDBRANCH   5  22
TORSDOF 17
ENDMDL
