MODEL 1
REMARK VINA RESULT: -6.438909512      0.000      0.000
REMARK  15 active torsions:
REMARK  status: ('A' for Active; 'I' for Inactive)
REMARK    1  A    between atoms: C2_2  and  C3_3 
REMARK    2  A    between atoms: C3_3  and  C4_4 
REMARK    3  A    between atoms: C4_4  and  C5_5 
REMARK    4  A    between atoms: C5_5  and  C6_6 
REMARK    5  A    between atoms: C6_6  and  C7_7 
REMARK    6  A    between atoms: C7_7  and  C8_8 
REMARK    7  A    between atoms: C8_8  and  C9_9 
REMARK    8  A    between atoms: C9_9  and  C10_10 
REMARK    9  A    between atoms: C10_10  and  C11_11 
REMARK   10  A    between atoms: C11_11  and  C12_12 
REMARK   11  A    between atoms: N1_13  and  C13_15 
REMARK   12  A    between atoms: C14_16  and  O1_17 
REMARK   13  A    between atoms: C17_21  and  O2_22 
REMARK   14  A    between atoms: C18_24  and  O3_25 
REMARK   15  A    between atoms: C22_31  and  O5_32 
ROOT
HETATM    1  C13 UNL     1      14.524  39.707 -11.989  1.00  0.00     0.116 C 
HETATM    2  C14 UNL     1      15.768  39.114 -12.510  1.00  0.00     0.147 C 
HETATM    3  C15 UNL     1      15.607  38.295 -13.767  1.00  0.00     0.048 C 
HETATM    4  C16 UNL     1      14.565  38.779 -14.702  1.00  0.00     0.015 C 
HETATM    5  C17 UNL     1      15.603  36.855 -13.436  1.00  0.00     0.181 C 
HETATM    6  C18 UNL     1      14.364  36.194 -13.026  1.00  0.00     0.076 C 
HETATM    7  C19 UNL     1      13.879  36.384 -11.619  1.00  0.00    -0.023 C 
HETATM    8  C20 UNL     1      14.861  35.734 -10.680  1.00  0.00     0.049 C 
HETATM    9  C21 UNL     1      13.236  37.612 -11.228  1.00  0.00     0.162 C 
HETATM   10  O4  UNL     1      12.605  37.337  -9.975  1.00  0.00    -0.351 OA
HETATM   11  C22 UNL     1      13.336  37.915  -8.985  1.00  0.00     0.258 C 
HETATM   12  C23 UNL     1      14.412  38.785  -9.613  1.00  0.00     0.070 C 
HETATM   13  C24 UNL     1      13.791  38.893 -10.976  1.00  0.00     0.049 C 
ENDROOT
BRANCH   1  14
HETATM   14  N1  UNL     1      14.657  41.001 -11.462  1.00  0.00    -0.395 N 
HETATM   15  C12 UNL     1      14.100  42.153 -11.910  1.00  0.00     0.056 C 
ATOM     16  H1  UNL     1      15.250  41.086 -10.636  1.00  0.00     0.159 HD
BRANCH  15  17
HETATM   17  C11 UNL     1      12.618  42.363 -11.812  1.00  0.00     0.044 C 
BRANCH  17  18
HETATM   18  C10 UNL     1      12.228  42.968 -10.484  1.00  0.00     0.005 C 
BRANCH  18  19
HETATM   19  C9  UNL     1      11.670  41.977  -9.512  1.00  0.00     0.000 C 
BRANCH  19  20
HETATM   20  C8  UNL     1      12.141  42.219  -8.098  1.00  0.00     0.000 C 
BRANCH  20  21
HETATM   21  C7  UNL     1      13.637  42.092  -7.942  1.00  0.00     0.000 C 
BRANCH  21  22
HETATM   22  C6  UNL     1      14.196  43.113  -6.973  1.00  0.00     0.000 C 
BRANCH  22  23
HETATM   23  C5  UNL     1      15.356  43.823  -7.664  1.00  0.00     0.000 C 
BRANCH  23  24
HETATM   24  C4  UNL     1      15.827  43.124  -8.875  1.00  0.00     0.000 C 
BRANCH  24  25
HETATM   25  C3  UNL     1      17.108  43.502  -9.499  1.00  0.00    -0.000 C 
BRANCH  25  26
HETATM   26  C2  UNL     1      17.912  44.607  -8.936  1.00  0.00    -0.005 C 
HETATM   27  C1  UNL     1      19.338  44.695  -9.338  1.00  0.00     0.005 C 
ENDBRANCH  25  26
ENDBRANCH  24  25
ENDBRANCH  23  24
ENDBRANCH  22  23
ENDBRANCH  21  22
ENDBRANCH  20  21
ENDBRANCH  19  20
ENDBRANCH  18  19
ENDBRANCH  17  18
ENDBRANCH  15  17
ENDBRANCH   1  14
BRANCH   2  28
HETATM   28  O1  UNL     1      16.857  39.980 -12.588  1.00  0.00    -0.393 OA
ATOM     29  H1  UNL     1      17.559  39.702 -13.165  1.00  0.00     0.210 HD
ENDBRANCH   2  28
BRANCH   5  30
HETATM   30  O2  UNL     1      16.089  36.158 -14.573  1.00  0.00    -0.388 OA
ATOM     31  H2  UNL     1      17.035  36.251 -14.580  1.00  0.00     0.210 HD
ENDBRANCH   5  30
BRANCH  11  32
HETATM   32  O5  UNL     1      12.449  38.759  -8.270  1.00  0.00    -0.371 OA
ATOM     33  H5  UNL     1      12.910  39.578  -8.129  1.00  0.00     0.212 HD
ENDBRANCH  11  32
BRANCH   6  34
HETATM   34  O3  UNL     1      13.319  36.258 -13.969  1.00  0.00    -0.362 OA
ATOM     35  H3  UNL     1      12.960  35.416 -14.225  1.00  0.00     0.217 HD
ENDBRANCH   6  34
TORSDOF 15
ENDMDL
MODEL 2
REMARK VINA RESULT: -6.370864251      1.728      3.447
REMARK  15 active torsions:
REMARK  status: ('A' for Active; 'I' for Inactive)
REMARK    1  A    between atoms: C2_2  and  C3_3 
REMARK    2  A    between atoms: C3_3  and  C4_4 
REMARK    3  A    between atoms: C4_4  and  C5_5 
REMARK    4  A    between atoms: C5_5  and  C6_6 
REMARK    5  A    between atoms: C6_6  and  C7_7 
REMARK    6  A    between atoms: C7_7  and  C8_8 
REMARK    7  A    between atoms: C8_8  and  C9_9 
REMARK    8  A    between atoms: C9_9  and  C10_10 
REMARK    9  A    between atoms: C10_10  and  C11_11 
REMARK   10  A    between atoms: C11_11  and  C12_12 
REMARK   11  A    between atoms: N1_13  and  C13_15 
REMARK   12  A    between atoms: C14_16  and  O1_17 
REMARK   13  A    between atoms: C17_21  and  O2_22 
REMARK   14  A    between atoms: C18_24  and  O3_25 
REMARK   15  A    between atoms: C22_31  and  O5_32 
ROOT
HETATM    1  C13 UNL     1      13.616  38.295 -10.437  1.00  0.00     0.116 C 
HETATM    2  C14 UNL     1      14.876  39.058 -10.382  1.00  0.00     0.147 C 
HETATM    3  C15 UNL     1      14.871  40.353 -11.154  1.00  0.00     0.048 C 
HETATM    4  C16 UNL     1      13.572  41.064 -11.179  1.00  0.00     0.015 C 
HETATM    5  C17 UNL     1      15.571  40.178 -12.443  1.00  0.00     0.181 C 
HETATM    6  C18 UNL     1      14.856  39.656 -13.607  1.00  0.00     0.076 C 
HETATM    7  C19 UNL     1      14.603  38.180 -13.695  1.00  0.00    -0.023 C 
HETATM    8  C20 UNL     1      15.924  37.473 -13.845  1.00  0.00     0.049 C 
HETATM    9  C21 UNL     1      13.562  37.570 -12.906  1.00  0.00     0.162 C 
HETATM   10  O4  UNL     1      13.362  36.271 -13.469  1.00  0.00    -0.351 OA
HETATM   11  C22 UNL     1      13.924  35.348 -12.644  1.00  0.00     0.258 C 
HETATM   12  C23 UNL     1      14.364  36.039 -11.364  1.00  0.00     0.070 C 
HETATM   13  C24 UNL     1      13.522  37.273 -11.520  1.00  0.00     0.049 C 
ENDROOT
BRANCH   1  14
HETATM   14  N1  UNL     1      13.251  37.662  -9.238  1.00  0.00    -0.395 N 
HETATM   15  C12 UNL     1      13.104  38.212  -8.008  1.00  0.00     0.056 C 
ATOM     16  H1  UNL     1      13.074  36.659  -9.301  1.00  0.00     0.159 HD
BRANCH  15  17
HETATM   17  C11 UNL     1      11.983  39.171  -7.739  1.00  0.00     0.044 C 
BRANCH  17  18
HETATM   18  C10 UNL     1      12.500  40.539  -7.359  1.00  0.00     0.005 C 
BRANCH  18  19
HETATM   19  C9  UNL     1      11.699  41.665  -7.932  1.00  0.00     0.000 C 
BRANCH  19  20
HETATM   20  C8  UNL     1      12.483  42.953  -8.019  1.00  0.00     0.000 C 
BRANCH  20  21
HETATM   21  C7  UNL     1      13.822  42.879  -7.327  1.00  0.00     0.000 C 
BRANCH  21  22
HETATM   22  C6  UNL     1      14.972  42.896  -8.312  1.00  0.00     0.000 C 
BRANCH  22  23
HETATM   23  C5  UNL     1      15.893  44.051  -7.930  1.00  0.00     0.000 C 
BRANCH  23  24
HETATM   24  C4  UNL     1      17.130  44.099  -8.734  1.00  0.00     0.000 C 
BRANCH  24  25
HETATM   25  C3  UNL     1      17.311  43.180  -9.872  1.00  0.00    -0.000 C 
BRANCH  25  26
HETATM   26  C2  UNL     1      18.599  43.141 -10.598  1.00  0.00    -0.005 C 
HETATM   27  C1  UNL     1      19.109  41.813 -11.023  1.00  0.00     0.005 C 
ENDBRANCH  25  26
ENDBRANCH  24  25
ENDBRANCH  23  24
ENDBRANCH  22  23
ENDBRANCH  21  22
ENDBRANCH  20  21
ENDBRANCH  19  20
ENDBRANCH  18  19
ENDBRANCH  17  18
ENDBRANCH  15  17
ENDBRANCH   1  14
BRANCH   2  28
HETATM   28  O1  UNL     1      15.429  39.209  -9.112  1.00  0.00    -0.393 OA
ATOM     29  H1  UNL     1      15.993  39.965  -9.001  1.00  0.00     0.210 HD
ENDBRANCH   2  28
BRANCH   5  30
HETATM   30  O2  UNL     1      16.101  41.442 -12.813  1.00  0.00    -0.388 OA
ATOM     31  H2  UNL     1      16.444  41.359 -13.695  1.00  0.00     0.210 HD
ENDBRANCH   5  30
BRANCH  11  32
HETATM   32  O5  UNL     1      12.901  34.423 -12.317  1.00  0.00    -0.371 OA
ATOM     33  H5  UNL     1      13.328  33.685 -11.898  1.00  0.00     0.212 HD
ENDBRANCH  11  32
BRANCH   6  34
HETATM   34  O3  UNL     1      13.739  40.417 -14.008  1.00  0.00    -0.362 OA
ATOM     35  H3  UNL     1      13.244  40.051 -14.731  1.00  0.00     0.217 HD
ENDBRANCH   6  34
TORSDOF 15
ENDMDL
MODEL 3
REMARK VINA RESULT: -6.369814508      4.448      6.688
REMARK  15 active torsions:
REMARK  status: ('A' for Active; 'I' for Inactive)
REMARK    1  A    between atoms: C2_2  and  C3_3 
REMARK    2  A    between atoms: C3_3  and  C4_4 
REMARK    3  A    between atoms: C4_4  and  C5_5 
REMARK    4  A    between atoms: C5_5  and  C6_6 
REMARK    5  A    between atoms: C6_6  and  C7_7 
REMARK    6  A    between atoms: C7_7  and  C8_8 
REMARK    7  A    between atoms: C8_8  and  C9_9 
REMARK    8  A    between atoms: C9_9  and  C10_10 
REMARK    9  A    between atoms: C10_10  and  C11_11 
REMARK   10  A    between atoms: C11_11  and  C12_12 
REMARK   11  A    between atoms: N1_13  and  C13_15 
REMARK   12  A    between atoms: C14_16  and  O1_17 
REMARK   13  A    between atoms: C17_21  and  O2_22 
REMARK   14  A    between atoms: C18_24  and  O3_25 
REMARK   15  A    between atoms: C22_31  and  O5_32 
ROOT
HETATM    1  C13 UNL     1      13.657  38.257 -10.528  1.00  0.00     0.116 C 
HETATM    2  C14 UNL     1      14.920  39.016 -10.497  1.00  0.00     0.147 C 
HETATM    3  C15 UNL     1      14.911  40.303 -11.284  1.00  0.00     0.048 C 
HETATM    4  C16 UNL     1      13.613  41.018 -11.303  1.00  0.00     0.015 C 
HETATM    5  C17 UNL     1      15.595  40.110 -12.579  1.00  0.00     0.181 C 
HETATM    6  C18 UNL     1      14.864  39.576 -13.729  1.00  0.00     0.076 C 
HETATM    7  C19 UNL     1      14.605  38.100 -13.796  1.00  0.00    -0.023 C 
HETATM    8  C20 UNL     1      15.923  37.387 -13.952  1.00  0.00     0.049 C 
HETATM    9  C21 UNL     1      13.572  37.503 -12.988  1.00  0.00     0.162 C 
HETATM   10  O4  UNL     1      13.361  36.198 -13.533  1.00  0.00    -0.351 OA
HETATM   11  C22 UNL     1      13.930  35.283 -12.703  1.00  0.00     0.258 C 
HETATM   12  C23 UNL     1      14.387  35.988 -11.436  1.00  0.00     0.070 C 
HETATM   13  C24 UNL     1      13.548  37.223 -11.597  1.00  0.00     0.049 C 
ENDROOT
BRANCH   1  14
HETATM   14  N1  UNL     1      13.305  37.640  -9.318  1.00  0.00    -0.395 N 
HETATM   15  C12 UNL     1      13.360  38.154  -8.064  1.00  0.00     0.056 C 
ATOM     16  H1  UNL     1      12.963  36.682  -9.391  1.00  0.00     0.159 HD
BRANCH  15  17
HETATM   17  C11 UNL     1      12.438  39.266  -7.663  1.00  0.00     0.044 C 
BRANCH  17  18
HETATM   18  C10 UNL     1      11.162  38.737  -7.049  1.00  0.00     0.005 C 
BRANCH  18  19
HETATM   19  C9  UNL     1      11.307  38.329  -5.617  1.00  0.00     0.000 C 
BRANCH  19  20
HETATM   20  C8  UNL     1      10.438  39.142  -4.689  1.00  0.00     0.000 C 
BRANCH  20  21
HETATM   21  C7  UNL     1       9.570  38.292  -3.794  1.00  0.00     0.000 C 
BRANCH  21  22
HETATM   22  C6  UNL     1       8.612  39.128  -2.972  1.00  0.00     0.000 C 
BRANCH  22  23
HETATM   23  C5  UNL     1       9.413  39.787  -1.853  1.00  0.00     0.000 C 
BRANCH  23  24
HETATM   24  C4  UNL     1      10.279  38.841  -1.122  1.00  0.00     0.000 C 
BRANCH  24  25
HETATM   25  C3  UNL     1       9.741  38.063   0.008  1.00  0.00    -0.000 C 
BRANCH  25  26
HETATM   26  C2  UNL     1       8.761  36.982  -0.234  1.00  0.00    -0.005 C 
HETATM   27  C1  UNL     1       9.211  35.807  -1.021  1.00  0.00     0.005 C 
ENDBRANCH  25  26
ENDBRANCH  24  25
ENDBRANCH  23  24
ENDBRANCH  22  23
ENDBRANCH  21  22
ENDBRANCH  20  21
ENDBRANCH  19  20
ENDBRANCH  18  19
ENDBRANCH  17  18
ENDBRANCH  15  17
ENDBRANCH   1  14
BRANCH   2  28
HETATM   28  O1  UNL     1      15.489  39.181  -9.235  1.00  0.00    -0.393 OA
ATOM     29  H1  UNL     1      15.748  38.379  -8.797  1.00  0.00     0.210 HD
ENDBRANCH   2  28
BRANCH   5  30
HETATM   30  O2  UNL     1      16.124  41.368 -12.971  1.00  0.00    -0.388 OA
ATOM     31  H2  UNL     1      15.779  41.564 -13.834  1.00  0.00     0.210 HD
ENDBRANCH   5  30
BRANCH  11  32
HETATM   32  O5  UNL     1      12.908  34.366 -12.353  1.00  0.00    -0.371 OA
ATOM     33  H5  UNL     1      12.948  33.661 -12.989  1.00  0.00     0.212 HD
ENDBRANCH  11  32
BRANCH   6  34
HETATM   34  O3  UNL     1      13.746  40.337 -14.125  1.00  0.00    -0.362 OA
ATOM     35  H3  UNL     1      12.924  39.860 -14.141  1.00  0.00     0.217 HD
ENDBRANCH   6  34
TORSDOF 15
ENDMDL
MODEL 4
REMARK VINA RESULT: -6.336960046      1.735      3.554
REMARK  15 active torsions:
REMARK  status: ('A' for Active; 'I' for Inactive)
REMARK    1  A    between atoms: C2_2  and  C3_3 
REMARK    2  A    between atoms: C3_3  and  C4_4 
REMARK    3  A    between atoms: C4_4  and  C5_5 
REMARK    4  A    between atoms: C5_5  and  C6_6 
REMARK    5  A    between atoms: C6_6  and  C7_7 
REMARK    6  A    between atoms: C7_7  and  C8_8 
REMARK    7  A    between atoms: C8_8  and  C9_9 
REMARK    8  A    between atoms: C9_9  and  C10_10 
REMARK    9  A    between atoms: C10_10  and  C11_11 
REMARK   10  A    between atoms: C11_11  and  C12_12 
REMARK   11  A    between atoms: N1_13  and  C13_15 
REMARK   12  A    between atoms: C14_16  and  O1_17 
REMARK   13  A    between atoms: C17_21  and  O2_22 
REMARK   14  A    between atoms: C18_24  and  O3_25 
REMARK   15  A    between atoms: C22_31  and  O5_32 
ROOT
HETATM    1  C13 UNL     1      13.639  38.245 -10.427  1.00  0.00     0.116 C 
HETATM    2  C14 UNL     1      14.899  39.007 -10.382  1.00  0.00     0.147 C 
HETATM    3  C15 UNL     1      14.887  40.306 -11.150  1.00  0.00     0.048 C 
HETATM    4  C16 UNL     1      13.588  41.017 -11.160  1.00  0.00     0.015 C 
HETATM    5  C17 UNL     1      15.574  40.134 -12.447  1.00  0.00     0.181 C 
HETATM    6  C18 UNL     1      14.847  39.615 -13.605  1.00  0.00     0.076 C 
HETATM    7  C19 UNL     1      14.593  38.140 -13.695  1.00  0.00    -0.023 C 
HETATM    8  C20 UNL     1      15.913  37.433 -13.860  1.00  0.00     0.049 C 
HETATM    9  C21 UNL     1      13.560  37.528 -12.898  1.00  0.00     0.162 C 
HETATM   10  O4  UNL     1      13.354  36.231 -13.463  1.00  0.00    -0.351 OA
HETATM   11  C22 UNL     1      13.924  35.305 -12.647  1.00  0.00     0.258 C 
HETATM   12  C23 UNL     1      14.376  35.992 -11.368  1.00  0.00     0.070 C 
HETATM   13  C24 UNL     1      13.534  37.226 -11.512  1.00  0.00     0.049 C 
ENDROOT
BRANCH   1  14
HETATM   14  N1  UNL     1      13.286  37.609  -9.227  1.00  0.00    -0.395 N 
HETATM   15  C12 UNL     1      13.127  38.159  -7.998  1.00  0.00     0.056 C 
ATOM     16  H1  UNL     1      13.129  36.602  -9.287  1.00  0.00     0.159 HD
BRANCH  15  17
HETATM   17  C11 UNL     1      11.986  39.096  -7.732  1.00  0.00     0.044 C 
BRANCH  17  18
HETATM   18  C10 UNL     1      12.474  40.446  -7.261  1.00  0.00     0.005 C 
BRANCH  18  19
HETATM   19  C9  UNL     1      11.409  41.496  -7.238  1.00  0.00     0.000 C 
BRANCH  19  20
HETATM   20  C8  UNL     1      11.281  42.226  -8.554  1.00  0.00     0.000 C 
BRANCH  20  21
HETATM   21  C7  UNL     1      11.303  43.727  -8.404  1.00  0.00     0.000 C 
BRANCH  21  22
HETATM   22  C6  UNL     1      12.630  44.321  -8.828  1.00  0.00     0.000 C 
BRANCH  22  23
HETATM   23  C5  UNL     1      13.399  44.691  -7.563  1.00  0.00     0.000 C 
BRANCH  23  24
HETATM   24  C4  UNL     1      14.491  43.749  -7.249  1.00  0.00     0.000 C 
BRANCH  24  25
HETATM   25  C3  UNL     1      15.060  42.893  -8.305  1.00  0.00    -0.000 C 
BRANCH  25  26
HETATM   26  C2  UNL     1      16.288  43.308  -9.017  1.00  0.00    -0.005 C 
HETATM   27  C1  UNL     1      17.105  44.388  -8.409  1.00  0.00     0.005 C 
ENDBRANCH  25  26
ENDBRANCH  24  25
ENDBRANCH  23  24
ENDBRANCH  22  23
ENDBRANCH  21  22
ENDBRANCH  20  21
ENDBRANCH  19  20
ENDBRANCH  18  19
ENDBRANCH  17  18
ENDBRANCH  15  17
ENDBRANCH   1  14
BRANCH   2  28
HETATM   28  O1  UNL     1      15.465  39.155  -9.117  1.00  0.00    -0.393 OA
ATOM     29  H1  UNL     1      16.197  39.759  -9.066  1.00  0.00     0.210 HD
ENDBRANCH   2  28
BRANCH   5  30
HETATM   30  O2  UNL     1      16.100  41.399 -12.818  1.00  0.00    -0.388 OA
ATOM     31  H2  UNL     1      15.363  41.968 -13.007  1.00  0.00     0.210 HD
ENDBRANCH   5  30
BRANCH  11  32
HETATM   32  O5  UNL     1      12.904  34.379 -12.312  1.00  0.00    -0.371 OA
ATOM     33  H5  UNL     1      13.300  33.516 -12.349  1.00  0.00     0.212 HD
ENDBRANCH  11  32
BRANCH   6  34
HETATM   34  O3  UNL     1      13.727  40.379 -13.992  1.00  0.00    -0.362 OA
ATOM     35  H3  UNL     1      12.918  39.887 -14.077  1.00  0.00     0.217 HD
ENDBRANCH   6  34
TORSDOF 15
ENDMDL
MODEL 5
REMARK VINA RESULT: -6.328978159      1.571      4.715
REMARK  15 active torsions:
REMARK  status: ('A' for Active; 'I' for Inactive)
REMARK    1  A    between atoms: C2_2  and  C3_3 
REMARK    2  A    between atoms: C3_3  and  C4_4 
REMARK    3  A    between atoms: C4_4  and  C5_5 
REMARK    4  A    between atoms: C5_5  and  C6_6 
REMARK    5  A    between atoms: C6_6  and  C7_7 
REMARK    6  A    between atoms: C7_7  and  C8_8 
REMARK    7  A    between atoms: C8_8  and  C9_9 
REMARK    8  A    between atoms: C9_9  and  C10_10 
REMARK    9  A    between atoms: C10_10  and  C11_11 
REMARK   10  A    between atoms: C11_11  and  C12_12 
REMARK   11  A    between atoms: N1_13  and  C13_15 
REMARK   12  A    between atoms: C14_16  and  O1_17 
REMARK   13  A    between atoms: C17_21  and  O2_22 
REMARK   14  A    between atoms: C18_24  and  O3_25 
REMARK   15  A    between atoms: C22_31  and  O5_32 
ROOT
HETATM    1  C13 UNL     1      15.335  39.547 -12.398  1.00  0.00     0.116 C 
HETATM    2  C14 UNL     1      13.978  39.742 -11.859  1.00  0.00     0.147 C 
HETATM    3  C15 UNL     1      13.800  39.338 -10.417  1.00  0.00     0.048 C 
HETATM    4  C16 UNL     1      14.983  39.558  -9.553  1.00  0.00     0.015 C 
HETATM    5  C17 UNL     1      13.142  38.016 -10.339  1.00  0.00     0.181 C 
HETATM    6  C18 UNL     1      13.935  36.790 -10.429  1.00  0.00     0.076 C 
HETATM    7  C19 UNL     1      14.400  36.331 -11.780  1.00  0.00    -0.023 C 
HETATM    8  C20 UNL     1      13.196  35.942 -12.597  1.00  0.00     0.049 C 
HETATM    9  C21 UNL     1      15.512  36.979 -12.427  1.00  0.00     0.162 C 
HETATM   10  O4  UNL     1      15.903  36.106 -13.489  1.00  0.00    -0.351 OA
HETATM   11  C22 UNL     1      15.474  36.634 -14.667  1.00  0.00     0.258 C 
HETATM   12  C23 UNL     1      14.930  38.030 -14.408  1.00  0.00     0.070 C 
HETATM   13  C24 UNL     1      15.584  38.240 -13.073  1.00  0.00     0.049 C 
ENDROOT
BRANCH   1  14
HETATM   14  N1  UNL     1      15.779  40.554 -13.270  1.00  0.00    -0.395 N 
HETATM   15  C12 UNL     1      16.562  41.625 -12.989  1.00  0.00     0.056 C 
ATOM     16  H1  UNL     1      15.473  40.469 -14.239  1.00  0.00     0.159 HD
BRANCH  15  17
HETATM   17  C11 UNL     1      18.003  41.431 -12.622  1.00  0.00     0.044 C 
BRANCH  17  18
HETATM   18  C10 UNL     1      18.193  41.373 -11.124  1.00  0.00     0.005 C 
BRANCH  18  19
HETATM   19  C9  UNL     1      18.119  42.710 -10.457  1.00  0.00     0.000 C 
BRANCH  19  20
HETATM   20  C8  UNL     1      16.830  42.912  -9.697  1.00  0.00     0.000 C 
BRANCH  20  21
HETATM   21  C7  UNL     1      16.919  44.005  -8.660  1.00  0.00     0.000 C 
BRANCH  21  22
HETATM   22  C6  UNL     1      15.733  43.992  -7.719  1.00  0.00     0.000 C 
BRANCH  22  23
HETATM   23  C5  UNL     1      14.750  42.939  -8.224  1.00  0.00     0.000 C 
BRANCH  23  24
HETATM   24  C4  UNL     1      13.512  42.868  -7.426  1.00  0.00     0.000 C 
BRANCH  24  25
HETATM   25  C3  UNL     1      12.907  41.562  -7.109  1.00  0.00    -0.000 C 
BRANCH  25  26
HETATM   26  C2  UNL     1      11.660  41.137  -7.783  1.00  0.00    -0.005 C 
HETATM   27  C1  UNL     1      11.314  41.794  -9.068  1.00  0.00     0.005 C 
ENDBRANCH  25  26
ENDBRANCH  24  25
ENDBRANCH  23  24
ENDBRANCH  22  23
ENDBRANCH  21  22
ENDBRANCH  20  21
ENDBRANCH  19  20
ENDBRANCH  18  19
ENDBRANCH  17  18
ENDBRANCH  15  17
ENDBRANCH   1  14
BRANCH   2  28
HETATM   28  O1  UNL     1      13.399  40.981 -12.128  1.00  0.00    -0.393 OA
ATOM     29  H1  UNL     1      13.402  41.598 -11.405  1.00  0.00     0.210 HD
ENDBRANCH   2  28
BRANCH   5  30
HETATM   30  O2  UNL     1      12.438  37.966  -9.107  1.00  0.00    -0.388 OA
ATOM     31  H2  UNL     1      12.158  37.068  -8.977  1.00  0.00     0.210 HD
ENDBRANCH   5  30
BRANCH  11  32
HETATM   32  O5  UNL     1      16.619  36.754 -15.495  1.00  0.00    -0.371 OA
ATOM     33  H5  UNL     1      17.051  37.562 -15.243  1.00  0.00     0.212 HD
ENDBRANCH  11  32
BRANCH   6  34
HETATM   34  O3  UNL     1      14.932  36.654  -9.442  1.00  0.00    -0.362 OA
ATOM     35  H3  UNL     1      15.207  35.761  -9.272  1.00  0.00     0.217 HD
ENDBRANCH   6  34
TORSDOF 15
ENDMDL
