MODEL 1
REMARK VINA RESULT: -7.411487870      0.000      0.000
REMARK  15 active torsions:
REMARK  status: ('A' for Active; 'I' for Inactive)
REMARK    1  A    between atoms: C1_2  and  C2_4 
REMARK    2  A    between atoms: C5_7  and  O3_8 
REMARK    3  A    between atoms: C5_7  and  C6_10 
REMARK    4  A    between atoms: C6_10  and  C7_11 
REMARK    5  A    between atoms: C7_11  and  C8_12 
REMARK    6  A    between atoms: C8_12  and  C9_13 
REMARK    7  A    between atoms: C10_14  and  C11_15 
REMARK    8  A    between atoms: C11_15  and  C12_16 
REMARK    9  A    between atoms: C12_16  and  C13_17 
REMARK   10  A    between atoms: C13_17  and  C14_18 
REMARK   11  A    between atoms: C14_18  and  C15_19 
REMARK   12  A    between atoms: C15_19  and  C16_20 
REMARK   13  A    between atoms: C18_24  and  C19_25 
REMARK   14  A    between atoms: C19_25  and  O4_26 
REMARK   15  A    between atoms: C22_32  and  O5_33 
ROOT
HETATM    1  C8  UNL     1      15.895  42.043 -12.824  1.00  0.00     0.027 C 
ENDROOT
BRANCH   1   2
HETATM    2  C7  UNL     1      15.350  40.962 -13.737  1.00  0.00     0.007 C 
BRANCH   2   3
HETATM    3  C6  UNL     1      14.170  40.324 -13.016  1.00  0.00     0.038 C 
BRANCH   3   4
HETATM    4  C5  UNL     1      14.394  38.829 -13.095  1.00  0.00     0.063 C 
HETATM    5  C4  UNL     1      15.833  38.433 -12.900  1.00  0.00     0.039 C 
HETATM    6  C3  UNL     1      15.752  37.047 -12.324  1.00  0.00     0.024 C 
HETATM    7  C2  UNL     1      14.327  36.811 -11.879  1.00  0.00     0.057 C 
HETATM    8  C20 UNL     1      13.692  38.154 -11.965  1.00  0.00     0.041 C 
HETATM    9  C23 UNL     1      14.211  36.413 -10.445  1.00  0.00     0.053 C 
HETATM   10  C21 UNL     1      14.114  38.825 -10.673  1.00  0.00     0.040 C 
HETATM   11  C22 UNL     1      14.353  37.700  -9.694  1.00  0.00     0.120 C 
BRANCH   7  12
HETATM   12  C1  UNL     1      13.616  35.873 -12.785  1.00  0.00     0.182 C 
HETATM   13  O1  UNL     1      12.583  35.259 -12.423  1.00  0.00    -0.647 OA
HETATM   14  O2  UNL     1      14.103  35.659 -14.080  1.00  0.00    -0.647 OA
ENDBRANCH   7  12
BRANCH  11  15
HETATM   15  O5  UNL     1      13.410  37.794  -8.654  1.00  0.00    -0.396 OA
ATOM     16  H5  UNL     1      13.792  37.439  -7.861  1.00  0.00     0.210 HD
ENDBRANCH  11  15
BRANCH   4  17
HETATM   17  O3  UNL     1      13.999  38.433 -14.351  1.00  0.00    -0.389 OA
ATOM     18  H3  UNL     1      13.278  37.820 -14.262  1.00  0.00     0.210 HD
ENDBRANCH   4  17
ENDBRANCH   3   4
ENDBRANCH   2   3
ENDBRANCH   1   2
BRANCH   1  19
HETATM   19  C9  UNL     1      17.139  41.680 -12.148  1.00  0.00    -0.031 C 
HETATM   20  C10 UNL     1      17.382  41.823 -10.880  1.00  0.00    -0.031 C 
BRANCH  20  21
HETATM   21  C11 UNL     1      16.492  42.370  -9.849  1.00  0.00     0.027 C 
BRANCH  21  22
HETATM   22  C12 UNL     1      17.040  43.576  -9.167  1.00  0.00     0.004 C 
BRANCH  22  23
HETATM   23  C13 UNL     1      16.120  44.034  -8.072  1.00  0.00     0.001 C 
BRANCH  23  24
HETATM   24  C14 UNL     1      14.727  43.609  -8.323  1.00  0.00     0.006 C 
BRANCH  24  25
HETATM   25  C15 UNL     1      14.080  43.083  -7.069  1.00  0.00     0.058 C 
BRANCH  25  26
HETATM   26  C16 UNL     1      13.158  41.983  -7.385  1.00  0.00     0.026 A 
HETATM   27  C17 UNL     1      12.565  41.552  -8.539  1.00  0.00     0.114 A 
HETATM   28  N1  UNL     1      11.789  40.480  -8.309  1.00  0.00    -0.352 N 
HETATM   29  C18 UNL     1      11.877  40.210  -6.996  1.00  0.00     0.105 A 
ATOM     30  H1  UNL     1      11.239  39.970  -8.999  1.00  0.00     0.166 HD
HETATM   31  N2  UNL     1      12.701  41.112  -6.433  1.00  0.00    -0.346 N 
ATOM     32  H2  UNL     1      12.948  41.143  -5.444  1.00  0.00     0.167 HD
BRANCH  29  33
HETATM   33  C19 UNL     1      11.196  39.111  -6.250  1.00  0.00     0.240 C 
BRANCH  33  34
HETATM   34  O4  UNL     1      10.689  38.208  -7.177  1.00  0.00    -0.393 OA
ATOM     35  H4  UNL     1       9.985  37.722  -6.763  1.00  0.00     0.209 HD
ENDBRANCH  33  34
ENDBRANCH  29  33
ENDBRANCH  25  26
ENDBRANCH  24  25
ENDBRANCH  23  24
ENDBRANCH  22  23
ENDBRANCH  21  22
ENDBRANCH  20  21
ENDBRANCH   1  19
TORSDOF 15
ENDMDL
MODEL 2
REMARK VINA RESULT: -7.392528788      2.553      4.105
REMARK  15 active torsions:
REMARK  status: ('A' for Active; 'I' for Inactive)
REMARK    1  A    between atoms: C1_2  and  C2_4 
REMARK    2  A    between atoms: C5_7  and  O3_8 
REMARK    3  A    between atoms: C5_7  and  C6_10 
REMARK    4  A    between atoms: C6_10  and  C7_11 
REMARK    5  A    between atoms: C7_11  and  C8_12 
REMARK    6  A    between atoms: C8_12  and  C9_13 
REMARK    7  A    between atoms: C10_14  and  C11_15 
REMARK    8  A    between atoms: C11_15  and  C12_16 
REMARK    9  A    between atoms: C12_16  and  C13_17 
REMARK   10  A    between atoms: C13_17  and  C14_18 
REMARK   11  A    between atoms: C14_18  and  C15_19 
REMARK   12  A    between atoms: C15_19  and  C16_20 
REMARK   13  A    between atoms: C18_24  and  C19_25 
REMARK   14  A    between atoms: C19_25  and  O4_26 
REMARK   15  A    between atoms: C22_32  and  O5_33 
ROOT
HETATM    1  C8  UNL     1      13.241  37.556  -9.886  1.00  0.00     0.027 C 
ENDROOT
BRANCH   1   2
HETATM    2  C7  UNL     1      13.205  36.738 -11.162  1.00  0.00     0.007 C 
BRANCH   2   3
HETATM    3  C6  UNL     1      14.651  36.448 -11.546  1.00  0.00     0.038 C 
BRANCH   3   4
HETATM    4  C5  UNL     1      14.686  36.445 -13.060  1.00  0.00     0.063 C 
HETATM    5  C4  UNL     1      13.950  37.605 -13.674  1.00  0.00     0.039 C 
HETATM    6  C3  UNL     1      14.651  37.826 -14.984  1.00  0.00     0.024 C 
HETATM    7  C2  UNL     1      15.952  37.058 -14.952  1.00  0.00     0.057 C 
HETATM    8  C20 UNL     1      16.089  36.636 -13.531  1.00  0.00     0.041 C 
HETATM    9  C23 UNL     1      17.149  37.905 -15.227  1.00  0.00     0.053 C 
HETATM   10  C21 UNL     1      16.657  37.866 -12.853  1.00  0.00     0.040 C 
HETATM   11  C22 UNL     1      17.403  38.614 -13.932  1.00  0.00     0.120 C 
BRANCH   7  12
HETATM   12  C1  UNL     1      15.902  35.852 -15.819  1.00  0.00     0.182 C 
HETATM   13  O1  UNL     1      16.939  35.218 -16.130  1.00  0.00    -0.647 OA
HETATM   14  O2  UNL     1      14.669  35.404 -16.309  1.00  0.00    -0.647 OA
ENDBRANCH   7  12
BRANCH  11  15
HETATM   15  O5  UNL     1      18.772  38.625 -13.614  1.00  0.00    -0.396 OA
ATOM     16  H5  UNL     1      18.879  38.371 -12.706  1.00  0.00     0.210 HD
ENDBRANCH  11  15
BRANCH   4  17
HETATM   17  O3  UNL     1      14.083  35.279 -13.470  1.00  0.00    -0.389 OA
ATOM     18  H3  UNL     1      14.001  34.701 -12.719  1.00  0.00     0.210 HD
ENDBRANCH   4  17
ENDBRANCH   3   4
ENDBRANCH   2   3
ENDBRANCH   1   2
BRANCH   1  19
HETATM   19  C9  UNL     1      14.464  38.338  -9.714  1.00  0.00    -0.031 C 
HETATM   20  C10 UNL     1      14.648  39.557 -10.126  1.00  0.00    -0.031 C 
BRANCH  20  21
HETATM   21  C11 UNL     1      13.700  40.417 -10.843  1.00  0.00     0.027 C 
BRANCH  21  22
HETATM   22  C12 UNL     1      12.879  41.278  -9.945  1.00  0.00     0.004 C 
BRANCH  22  23
HETATM   23  C13 UNL     1      13.670  41.697  -8.738  1.00  0.00     0.001 C 
BRANCH  23  24
HETATM   24  C14 UNL     1      12.871  41.581  -7.501  1.00  0.00     0.006 C 
BRANCH  24  25
HETATM   25  C15 UNL     1      11.661  40.707  -7.710  1.00  0.00     0.058 C 
BRANCH  25  26
HETATM   26  C16 UNL     1      11.582  39.674  -6.668  1.00  0.00     0.026 A 
HETATM   27  C17 UNL     1      11.977  38.366  -6.607  1.00  0.00     0.114 A 
HETATM   28  N1  UNL     1      11.679  37.830  -5.412  1.00  0.00    -0.352 N 
HETATM   29  C18 UNL     1      11.088  38.796  -4.688  1.00  0.00     0.105 A 
ATOM     30  H1  UNL     1      11.867  36.874  -5.111  1.00  0.00     0.166 HD
HETATM   31  N2  UNL     1      11.027  39.910  -5.441  1.00  0.00    -0.346 N 
ATOM     32  H2  UNL     1      10.626  40.798  -5.140  1.00  0.00     0.167 HD
BRANCH  29  33
HETATM   33  C19 UNL     1      10.574  38.694  -3.291  1.00  0.00     0.240 C 
BRANCH  33  34
HETATM   34  O4  UNL     1      11.602  39.044  -2.424  1.00  0.00    -0.393 OA
ATOM     35  H4  UNL     1      11.364  38.757  -1.551  1.00  0.00     0.209 HD
ENDBRANCH  33  34
ENDBRANCH  29  33
ENDBRANCH  25  26
ENDBRANCH  24  25
ENDBRANCH  23  24
ENDBRANCH  22  23
ENDBRANCH  21  22
ENDBRANCH  20  21
ENDBRANCH   1  19
TORSDOF 15
ENDMDL
MODEL 3
REMARK VINA RESULT: -7.237632488      1.605      3.432
REMARK  15 active torsions:
REMARK  status: ('A' for Active; 'I' for Inactive)
REMARK    1  A    between atoms: C1_2  and  C2_4 
REMARK    2  A    between atoms: C5_7  and  O3_8 
REMARK    3  A    between atoms: C5_7  and  C6_10 
REMARK    4  A    between atoms: C6_10  and  C7_11 
REMARK    5  A    between atoms: C7_11  and  C8_12 
REMARK    6  A    between atoms: C8_12  and  C9_13 
REMARK    7  A    between atoms: C10_14  and  C11_15 
REMARK    8  A    between atoms: C11_15  and  C12_16 
REMARK    9  A    between atoms: C12_16  and  C13_17 
REMARK   10  A    between atoms: C13_17  and  C14_18 
REMARK   11  A    between atoms: C14_18  and  C15_19 
REMARK   12  A    between atoms: C15_19  and  C16_20 
REMARK   13  A    between atoms: C18_24  and  C19_25 
REMARK   14  A    between atoms: C19_25  and  O4_26 
REMARK   15  A    between atoms: C22_32  and  O5_33 
ROOT
HETATM    1  C8  UNL     1      13.881  37.937  -9.145  1.00  0.00     0.027 C 
ENDROOT
BRANCH   1   2
HETATM    2  C7  UNL     1      14.359  36.805 -10.033  1.00  0.00     0.007 C 
BRANCH   2   3
HETATM    3  C6  UNL     1      13.491  36.824 -11.285  1.00  0.00     0.038 C 
BRANCH   3   4
HETATM    4  C5  UNL     1      14.400  36.421 -12.426  1.00  0.00     0.063 C 
HETATM    5  C4  UNL     1      13.660  35.834 -13.598  1.00  0.00     0.039 C 
HETATM    6  C3  UNL     1      14.532  36.160 -14.777  1.00  0.00     0.024 C 
HETATM    7  C2  UNL     1      15.540  37.196 -14.339  1.00  0.00     0.057 C 
HETATM    8  C20 UNL     1      15.054  37.633 -13.001  1.00  0.00     0.041 C 
HETATM    9  C23 UNL     1      15.530  38.428 -15.181  1.00  0.00     0.053 C 
HETATM   10  C21 UNL     1      13.975  38.644 -13.332  1.00  0.00     0.040 C 
HETATM   11  C22 UNL     1      14.347  39.203 -14.685  1.00  0.00     0.120 C 
BRANCH   7  12
HETATM   12  C1  UNL     1      16.901  36.618 -14.200  1.00  0.00     0.182 C 
HETATM   13  O1  UNL     1      17.606  36.820 -13.182  1.00  0.00    -0.647 OA
HETATM   14  O2  UNL     1      17.423  35.824 -15.230  1.00  0.00    -0.647 OA
ENDBRANCH   7  12
BRANCH  11  15
HETATM   15  O5  UNL     1      14.651  40.569 -14.546  1.00  0.00    -0.396 OA
ATOM     16  H5  UNL     1      14.184  41.057 -15.212  1.00  0.00     0.210 HD
ENDBRANCH  11  15
BRANCH   4  17
HETATM   17  O3  UNL     1      15.261  35.469 -11.932  1.00  0.00    -0.389 OA
ATOM     18  H3  UNL     1      15.195  35.465 -10.984  1.00  0.00     0.210 HD
ENDBRANCH   4  17
ENDBRANCH   3   4
ENDBRANCH   2   3
ENDBRANCH   1   2
BRANCH   1  19
HETATM   19  C9  UNL     1      13.284  39.054  -9.874  1.00  0.00    -0.031 C 
HETATM   20  C10 UNL     1      13.875  40.177 -10.156  1.00  0.00    -0.031 C 
BRANCH  20  21
HETATM   21  C11 UNL     1      15.244  40.584  -9.817  1.00  0.00     0.027 C 
BRANCH  21  22
HETATM   22  C12 UNL     1      15.526  42.020 -10.099  1.00  0.00     0.004 C 
BRANCH  22  23
HETATM   23  C13 UNL     1      15.784  42.773  -8.825  1.00  0.00     0.001 C 
BRANCH  23  24
HETATM   24  C14 UNL     1      14.583  43.512  -8.382  1.00  0.00     0.006 C 
BRANCH  24  25
HETATM   25  C15 UNL     1      14.093  43.012  -7.048  1.00  0.00     0.058 C 
BRANCH  25  26
HETATM   26  C16 UNL     1      12.963  42.090  -7.224  1.00  0.00     0.026 A 
HETATM   27  C17 UNL     1      11.880  42.075  -8.059  1.00  0.00     0.114 A 
HETATM   28  N1  UNL     1      11.113  40.997  -7.831  1.00  0.00    -0.352 N 
HETATM   29  C18 UNL     1      11.700  40.303  -6.841  1.00  0.00     0.105 A 
ATOM     30  H1  UNL     1      10.250  40.751  -8.317  1.00  0.00     0.166 HD
HETATM   31  N2  UNL     1      12.816  40.957  -6.472  1.00  0.00    -0.346 N 
ATOM     32  H2  UNL     1      13.457  40.653  -5.738  1.00  0.00     0.167 HD
BRANCH  29  33
HETATM   33  C19 UNL     1      11.230  39.025  -6.229  1.00  0.00     0.240 C 
BRANCH  33  34
HETATM   34  O4  UNL     1      10.699  38.231  -7.239  1.00  0.00    -0.393 OA
ATOM     35  H4  UNL     1       9.860  37.898  -6.943  1.00  0.00     0.209 HD
ENDBRANCH  33  34
ENDBRANCH  29  33
ENDBRANCH  25  26
ENDBRANCH  24  25
ENDBRANCH  23  24
ENDBRANCH  22  23
ENDBRANCH  21  22
ENDBRANCH  20  21
ENDBRANCH   1  19
TORSDOF 15
ENDMDL
MODEL 4
REMARK VINA RESULT: -7.179539388      1.478      2.233
REMARK  15 active torsions:
REMARK  status: ('A' for Active; 'I' for Inactive)
REMARK    1  A    between atoms: C1_2  and  C2_4 
REMARK    2  A    between atoms: C5_7  and  O3_8 
REMARK    3  A    between atoms: C5_7  and  C6_10 
REMARK    4  A    between atoms: C6_10  and  C7_11 
REMARK    5  A    between atoms: C7_11  and  C8_12 
REMARK    6  A    between atoms: C8_12  and  C9_13 
REMARK    7  A    between atoms: C10_14  and  C11_15 
REMARK    8  A    between atoms: C11_15  and  C12_16 
REMARK    9  A    between atoms: C12_16  and  C13_17 
REMARK   10  A    between atoms: C13_17  and  C14_18 
REMARK   11  A    between atoms: C14_18  and  C15_19 
REMARK   12  A    between atoms: C15_19  and  C16_20 
REMARK   13  A    between atoms: C18_24  and  C19_25 
REMARK   14  A    between atoms: C19_25  and  O4_26 
REMARK   15  A    between atoms: C22_32  and  O5_33 
ROOT
HETATM    1  C8  UNL     1      16.050  41.918 -12.268  1.00  0.00     0.027 C 
ENDROOT
BRANCH   1   2
HETATM    2  C7  UNL     1      15.973  40.996 -13.470  1.00  0.00     0.007 C 
BRANCH   2   3
HETATM    3  C6  UNL     1      14.600  40.338 -13.439  1.00  0.00     0.038 C 
BRANCH   3   4
HETATM    4  C5  UNL     1      14.839  38.866 -13.704  1.00  0.00     0.063 C 
HETATM    5  C4  UNL     1      16.179  38.384 -13.217  1.00  0.00     0.039 C 
HETATM    6  C3  UNL     1      15.954  36.930 -12.918  1.00  0.00     0.024 C 
HETATM    7  C2  UNL     1      14.463  36.684 -12.896  1.00  0.00     0.057 C 
HETATM    8  C20 UNL     1      13.870  38.049 -12.917  1.00  0.00     0.041 C 
HETATM    9  C23 UNL     1      13.982  36.066 -11.626  1.00  0.00     0.053 C 
HETATM   10  C21 UNL     1      13.943  38.486 -11.468  1.00  0.00     0.040 C 
HETATM   11  C22 UNL     1      13.924  37.210 -10.660  1.00  0.00     0.120 C 
BRANCH   7  12
HETATM   12  C1  UNL     1      14.010  35.934 -14.096  1.00  0.00     0.182 C 
HETATM   13  O1  UNL     1      14.746  35.788 -15.102  1.00  0.00    -0.647 OA
HETATM   14  O2  UNL     1      12.728  35.372 -14.116  1.00  0.00    -0.647 OA
ENDBRANCH   7  12
BRANCH  11  15
HETATM   15  O5  UNL     1      12.745  37.175  -9.894  1.00  0.00    -0.396 OA
ATOM     16  H5  UNL     1      12.973  37.249  -8.976  1.00  0.00     0.210 HD
ENDBRANCH  11  15
BRANCH   4  17
HETATM   17  O3  UNL     1      14.781  38.693 -15.067  1.00  0.00    -0.389 OA
ATOM     18  H3  UNL     1      14.014  38.172 -15.273  1.00  0.00     0.210 HD
ENDBRANCH   4  17
ENDBRANCH   3   4
ENDBRANCH   2   3
ENDBRANCH   1   2
BRANCH   1  19
HETATM   19  C9  UNL     1      16.500  41.261 -11.042  1.00  0.00    -0.031 C 
HETATM   20  C10 UNL     1      16.208  41.633  -9.832  1.00  0.00    -0.031 C 
BRANCH  20  21
HETATM   21  C11 UNL     1      15.380  42.771  -9.415  1.00  0.00     0.027 C 
BRANCH  21  22
HETATM   22  C12 UNL     1      14.154  42.373  -8.666  1.00  0.00     0.004 C 
BRANCH  22  23
HETATM   23  C13 UNL     1      13.191  41.651  -9.565  1.00  0.00     0.001 C 
BRANCH  23  24
HETATM   24  C14 UNL     1      12.471  40.585  -8.839  1.00  0.00     0.006 C 
BRANCH  24  25
HETATM   25  C15 UNL     1      12.213  40.975  -7.406  1.00  0.00     0.058 C 
BRANCH  25  26
HETATM   26  C16 UNL     1      11.912  39.789  -6.592  1.00  0.00     0.026 A 
HETATM   27  C17 UNL     1      12.351  38.494  -6.615  1.00  0.00     0.114 A 
HETATM   28  N1  UNL     1      11.768  37.773  -5.644  1.00  0.00    -0.352 N 
HETATM   29  C18 UNL     1      10.944  38.603  -4.983  1.00  0.00     0.105 A 
ATOM     30  H1  UNL     1      11.922  36.784  -5.447  1.00  0.00     0.166 HD
HETATM   31  N2  UNL     1      11.027  39.820  -5.550  1.00  0.00    -0.346 N 
ATOM     32  H2  UNL     1      10.507  40.644  -5.246  1.00  0.00     0.167 HD
BRANCH  29  33
HETATM   33  C19 UNL     1      10.072  38.274  -3.817  1.00  0.00     0.240 C 
BRANCH  33  34
HETATM   34  O4  UNL     1       8.827  37.893  -4.302  1.00  0.00    -0.393 OA
ATOM     35  H4  UNL     1       8.297  37.608  -3.566  1.00  0.00     0.209 HD
ENDBRANCH  33  34
ENDBRANCH  29  33
ENDBRANCH  25  26
ENDBRANCH  24  25
ENDBRANCH  23  24
ENDBRANCH  22  23
ENDBRANCH  21  22
ENDBRANCH  20  21
ENDBRANCH   1  19
TORSDOF 15
ENDMDL
MODEL 5
REMARK VINA RESULT: -7.063515956      2.988      4.806
REMARK  15 active torsions:
REMARK  status: ('A' for Active; 'I' for Inactive)
REMARK    1  A    between atoms: C1_2  and  C2_4 
REMARK    2  A    between atoms: C5_7  and  O3_8 
REMARK    3  A    between atoms: C5_7  and  C6_10 
REMARK    4  A    between atoms: C6_10  and  C7_11 
REMARK    5  A    between atoms: C7_11  and  C8_12 
REMARK    6  A    between atoms: C8_12  and  C9_13 
REMARK    7  A    between atoms: C10_14  and  C11_15 
REMARK    8  A    between atoms: C11_15  and  C12_16 
REMARK    9  A    between atoms: C12_16  and  C13_17 
REMARK   10  A    between atoms: C13_17  and  C14_18 
REMARK   11  A    between atoms: C14_18  and  C15_19 
REMARK   12  A    between atoms: C15_19  and  C16_20 
REMARK   13  A    between atoms: C18_24  and  C19_25 
REMARK   14  A    between atoms: C19_25  and  O4_26 
REMARK   15  A    between atoms: C22_32  and  O5_33 
ROOT
HETATM    1  C8  UNL     1      13.922  37.904  -9.062  1.00  0.00     0.027 C 
ENDROOT
BRANCH   1   2
HETATM    2  C7  UNL     1      14.348  36.744  -9.940  1.00  0.00     0.007 C 
BRANCH   2   3
HETATM    3  C6  UNL     1      13.442  36.756 -11.165  1.00  0.00     0.038 C 
BRANCH   3   4
HETATM    4  C5  UNL     1      14.330  36.408 -12.341  1.00  0.00     0.063 C 
HETATM    5  C4  UNL     1      13.563  35.929 -13.544  1.00  0.00     0.039 C 
HETATM    6  C3  UNL     1      14.435  36.313 -14.706  1.00  0.00     0.024 C 
HETATM    7  C2  UNL     1      15.478  37.284 -14.205  1.00  0.00     0.057 C 
HETATM    8  C20 UNL     1      15.016  37.638 -12.834  1.00  0.00     0.041 C 
HETATM    9  C23 UNL     1      15.501  38.573 -14.956  1.00  0.00     0.053 C 
HETATM   10  C21 UNL     1      13.967  38.703 -13.082  1.00  0.00     0.040 C 
HETATM   11  C22 UNL     1      14.346  39.345 -14.396  1.00  0.00     0.120 C 
BRANCH   7  12
HETATM   12  C1  UNL     1      16.822  36.655 -14.121  1.00  0.00     0.182 C 
HETATM   13  O1  UNL     1      17.552  36.786 -13.109  1.00  0.00    -0.647 OA
HETATM   14  O2  UNL     1      17.299  35.897 -15.198  1.00  0.00    -0.647 OA
ENDBRANCH   7  12
BRANCH  11  15
HETATM   15  O5  UNL     1      14.693  40.688 -14.162  1.00  0.00    -0.396 OA
ATOM     16  H5  UNL     1      14.904  41.099 -14.991  1.00  0.00     0.210 HD
ENDBRANCH  11  15
BRANCH   4  17
HETATM   17  O3  UNL     1      15.165  35.398 -11.925  1.00  0.00    -0.389 OA
ATOM     18  H3  UNL     1      14.645  34.747 -11.467  1.00  0.00     0.210 HD
ENDBRANCH   4  17
ENDBRANCH   3   4
ENDBRANCH   2   3
ENDBRANCH   1   2
BRANCH   1  19
HETATM   19  C9  UNL     1      14.383  39.208  -9.535  1.00  0.00    -0.031 C 
HETATM   20  C10 UNL     1      13.740  40.330  -9.410  1.00  0.00    -0.031 C 
BRANCH  20  21
HETATM   21  C11 UNL     1      12.432  40.553  -8.785  1.00  0.00     0.027 C 
BRANCH  21  22
HETATM   22  C12 UNL     1      12.510  41.255  -7.472  1.00  0.00     0.004 C 
BRANCH  22  23
HETATM   23  C13 UNL     1      11.611  40.601  -6.463  1.00  0.00     0.001 C 
BRANCH  23  24
HETATM   24  C14 UNL     1      11.254  39.225  -6.868  1.00  0.00     0.006 C 
BRANCH  24  25
HETATM   25  C15 UNL     1      11.595  38.230  -5.789  1.00  0.00     0.058 C 
BRANCH  25  26
HETATM   26  C16 UNL     1      10.733  38.424  -4.614  1.00  0.00     0.026 A 
HETATM   27  C17 UNL     1       9.382  38.349  -4.415  1.00  0.00     0.114 A 
HETATM   28  N1  UNL     1       9.072  38.615  -3.136  1.00  0.00    -0.352 N 
HETATM   29  C18 UNL     1      10.227  38.863  -2.497  1.00  0.00     0.105 A 
ATOM     30  H1  UNL     1       8.137  38.626  -2.728  1.00  0.00     0.166 HD
HETATM   31  N2  UNL     1      11.233  38.749  -3.383  1.00  0.00    -0.346 N 
ATOM     32  H2  UNL     1      12.221  38.885  -3.169  1.00  0.00     0.167 HD
BRANCH  29  33
HETATM   33  C19 UNL     1      10.409  39.209  -1.056  1.00  0.00     0.240 C 
BRANCH  33  34
HETATM   34  O4  UNL     1       9.823  38.206  -0.293  1.00  0.00    -0.393 OA
ATOM     35  H4  UNL     1       9.520  38.592   0.521  1.00  0.00     0.209 HD
ENDBRANCH  33  34
ENDBRANCH  29  33
ENDBRANCH  25  26
ENDBRANCH  24  25
ENDBRANCH  23  24
ENDBRANCH  22  23
ENDBRANCH  21  22
ENDBRANCH  20  21
ENDBRANCH   1  19
TORSDOF 15
ENDMDL
