MODEL 1
REMARK VINA RESULT: -7.426772783      0.000      0.000
REMARK  14 active torsions:
REMARK  status: ('A' for Active; 'I' for Inactive)
REMARK    1  A    between atoms: O1_2  and  C2_3 
REMARK    2  A    between atoms: C3_6  and  N2_7 
REMARK    3  A    between atoms: C7_15  and  N4_16 
REMARK    4  A    between atoms: N4_16  and  C8_18 
REMARK    5  A    between atoms: C8_18  and  C9_19 
REMARK    6  A    between atoms: C9_19  and  C10_20 
REMARK    7  A    between atoms: C10_20  and  C11_21 
REMARK    8  A    between atoms: C11_21  and  C12_22 
REMARK    9  A    between atoms: C12_22  and  C13_23 
REMARK   10  A    between atoms: C13_23  and  C14_24 
REMARK   11  A    between atoms: C14_24  and  C15_25 
REMARK   12  A    between atoms: C15_25  and  N5_26 
REMARK   13  A    between atoms: N5_26  and  C16_29 
REMARK   14  A    between atoms: C16_29  and  C17_30 
ROOT
HETATM    1  N4  UNL     1      14.744  36.938 -10.535  1.00  0.00    -0.388 N 
ATOM      2  H4  UNL     1      15.756  36.959 -10.411  1.00  0.00     0.159 HD
ENDROOT
BRANCH   1   3
HETATM    3  C7  UNL     1      14.467  36.443 -11.619  1.00  0.00     0.059 A 
HETATM    4  C6  UNL     1      13.420  35.658 -12.019  1.00  0.00     0.048 A 
HETATM    5  C5  UNL     1      13.196  35.303 -13.324  1.00  0.00     0.091 A 
HETATM    6  N3  UNL     1      14.020  35.727 -14.304  1.00  0.00    -0.361 N 
HETATM    7  C4  UNL     1      15.075  36.509 -13.981  1.00  0.00     0.105 A 
ATOM      8  H3  UNL     1      13.850  35.463 -15.274  1.00  0.00     0.165 HD
HETATM    9  C3  UNL     1      15.873  36.975 -15.019  1.00  0.00     0.131 A 
HETATM   10  C23 UNL     1      15.309  36.861 -12.685  1.00  0.00     0.092 A 
HETATM   11  N1  UNL     1      16.902  37.808 -14.672  1.00  0.00    -0.307 N 
HETATM   12  C2  UNL     1      17.144  38.161 -13.406  1.00  0.00     0.225 A 
ATOM     13  H1  UNL     1      17.508  38.173 -15.407  1.00  0.00     0.171 HD
HETATM   14  N7  UNL     1      16.323  37.665 -12.419  1.00  0.00    -0.318 N 
ATOM     15  H7  UNL     1      16.503  37.927 -11.451  1.00  0.00     0.169 HD
BRANCH   9  16
HETATM   16  N2  UNL     1      15.649  36.604 -16.191  1.00  0.00    -0.383 N 
ATOM     17  H22 UNL     1      14.716  36.715 -16.588  1.00  0.00     0.157 HD
ATOM     18  H21 UNL     1      16.347  36.162 -16.787  1.00  0.00     0.157 HD
ENDBRANCH   9  16
BRANCH  12  19
HETATM   19  O1  UNL     1      18.113  38.972 -12.946  1.00  0.00    -0.327 OA
HETATM   20  C1  UNL     1      17.843  40.229 -12.258  1.00  0.00     0.213 C 
ENDBRANCH  12  19
ENDBRANCH   1   3
BRANCH   1  21
HETATM   21  C8  UNL     1      14.105  37.490  -9.394  1.00  0.00     0.120 C 
BRANCH  21  22
HETATM   22  C9  UNL     1      13.314  38.676  -9.915  1.00  0.00     0.020 C 
BRANCH  22  23
HETATM   23  C10 UNL     1      13.955  39.922 -10.262  1.00  0.00     0.002 C 
BRANCH  23  24
HETATM   24  C11 UNL     1      13.538  41.138  -9.419  1.00  0.00     0.000 C 
BRANCH  24  25
HETATM   25  C12 UNL     1      12.347  40.765  -8.604  1.00  0.00     0.000 C 
BRANCH  25  26
HETATM   26  C13 UNL     1      12.487  40.696  -7.126  1.00  0.00     0.002 C 
BRANCH  26  27
HETATM   27  C14 UNL     1      11.333  39.944  -6.476  1.00  0.00     0.027 C 
BRANCH  27  28
HETATM   28  C15 UNL     1      11.676  38.497  -6.367  1.00  0.00     0.232 C 
BRANCH  28  29
HETATM   29  N5  UNL     1      11.479  37.897  -5.067  1.00  0.00    -0.075 N 
ATOM     30  H52 UNL     1      11.037  36.980  -5.125  1.00  0.00     0.277 HD
ATOM     31  H51 UNL     1      12.358  37.607  -4.637  1.00  0.00     0.277 HD
BRANCH  29  32
HETATM   32  C16 UNL     1      10.735  38.813  -4.231  1.00  0.00     0.237 C 
BRANCH  32  33
HETATM   33  C17 UNL     1       9.507  38.174  -3.697  1.00  0.00     0.013 C 
HETATM   34  C18 UNL     1       9.768  37.415  -2.405  1.00  0.00     0.008 C 
HETATM   35  C19 UNL     1      10.472  38.305  -1.405  1.00  0.00     0.020 C 
HETATM   36  C20 UNL     1       9.655  39.467  -0.968  1.00  0.00     0.113 C 
HETATM   37  N6  UNL     1       9.641  40.576  -1.846  1.00  0.00    -0.421 N 
HETATM   38  C21 UNL     1       8.855  40.497  -3.020  1.00  0.00     0.114 C 
ATOM     39  H6  UNL     1      10.184  41.414  -1.637  1.00  0.00     0.153 HD
HETATM   40  C22 UNL     1       8.379  39.134  -3.426  1.00  0.00     0.025 C 
ENDBRANCH  32  33
ENDBRANCH  29  32
ENDBRANCH  28  29
ENDBRANCH  27  28
ENDBRANCH  26  27
ENDBRANCH  25  26
ENDBRANCH  24  25
ENDBRANCH  23  24
ENDBRANCH  22  23
ENDBRANCH  21  22
ENDBRANCH   1  21
TORSDOF 14
ENDMDL
MODEL 2
REMARK VINA RESULT: -7.419862613      2.987      9.915
REMARK  14 active torsions:
REMARK  status: ('A' for Active; 'I' for Inactive)
REMARK    1  A    between atoms: O1_2  and  C2_3 
REMARK    2  A    between atoms: C3_6  and  N2_7 
REMARK    3  A    between atoms: C7_15  and  N4_16 
REMARK    4  A    between atoms: N4_16  and  C8_18 
REMARK    5  A    between atoms: C8_18  and  C9_19 
REMARK    6  A    between atoms: C9_19  and  C10_20 
REMARK    7  A    between atoms: C10_20  and  C11_21 
REMARK    8  A    between atoms: C11_21  and  C12_22 
REMARK    9  A    between atoms: C12_22  and  C13_23 
REMARK   10  A    between atoms: C13_23  and  C14_24 
REMARK   11  A    between atoms: C14_24  and  C15_25 
REMARK   12  A    between atoms: C15_25  and  N5_26 
REMARK   13  A    between atoms: N5_26  and  C16_29 
REMARK   14  A    between atoms: C16_29  and  C17_30 
ROOT
HETATM    1  N4  UNL     1      11.367  41.347  -7.414  1.00  0.00    -0.388 N 
ATOM      2  H4  UNL     1      11.429  42.054  -6.682  1.00  0.00     0.159 HD
ENDROOT
BRANCH   1   3
HETATM    3  C7  UNL     1      11.489  40.231  -6.928  1.00  0.00     0.059 A 
HETATM    4  C6  UNL     1      12.319  39.189  -7.242  1.00  0.00     0.048 A 
HETATM    5  C5  UNL     1      12.414  38.045  -6.493  1.00  0.00     0.091 A 
HETATM    6  N3  UNL     1      11.672  37.890  -5.377  1.00  0.00    -0.361 N 
HETATM    7  C4  UNL     1      10.831  38.881  -5.006  1.00  0.00     0.105 A 
ATOM      8  H3  UNL     1      11.745  37.038  -4.821  1.00  0.00     0.165 HD
HETATM    9  C3  UNL     1      10.122  38.715  -3.821  1.00  0.00     0.131 A 
HETATM   10  C23 UNL     1      10.727  40.020  -5.749  1.00  0.00     0.092 A 
HETATM   11  N1  UNL     1       9.318  39.755  -3.440  1.00  0.00    -0.307 N 
HETATM   12  C2  UNL     1       9.205  40.876  -4.158  1.00  0.00     0.225 A 
ATOM     13  H1  UNL     1       8.784  39.671  -2.575  1.00  0.00     0.171 HD
HETATM   14  N7  UNL     1       9.928  40.983  -5.324  1.00  0.00    -0.318 N 
ATOM     15  H7  UNL     1       9.844  41.834  -5.880  1.00  0.00     0.169 HD
BRANCH   9  16
HETATM   16  N2  UNL     1      10.217  37.644  -3.185  1.00  0.00    -0.383 N 
ATOM     17  H22 UNL     1       9.615  37.478  -2.379  1.00  0.00     0.157 HD
ATOM     18  H21 UNL     1      10.893  36.913  -3.406  1.00  0.00     0.157 HD
ENDBRANCH   9  16
BRANCH  12  19
HETATM   19  O1  UNL     1       8.459  41.960  -3.884  1.00  0.00    -0.327 OA
HETATM   20  C1  UNL     1       8.236  42.455  -2.530  1.00  0.00     0.213 C 
ENDBRANCH  12  19
ENDBRANCH   1   3
BRANCH   1  21
HETATM   21  C8  UNL     1      11.168  41.972  -8.673  1.00  0.00     0.120 C 
BRANCH  21  22
HETATM   22  C9  UNL     1      12.561  42.233  -9.215  1.00  0.00     0.020 C 
BRANCH  22  23
HETATM   23  C10 UNL     1      13.171  41.362 -10.191  1.00  0.00     0.002 C 
BRANCH  23  24
HETATM   24  C11 UNL     1      14.549  40.799  -9.805  1.00  0.00     0.000 C 
BRANCH  24  25
HETATM   25  C12 UNL     1      15.560  41.314 -10.773  1.00  0.00     0.000 C 
BRANCH  25  26
HETATM   26  C13 UNL     1      16.980  40.909 -10.604  1.00  0.00     0.002 C 
BRANCH  26  27
HETATM   27  C14 UNL     1      17.693  40.752 -11.941  1.00  0.00     0.027 C 
BRANCH  27  28
HETATM   28  C15 UNL     1      16.983  39.736 -12.771  1.00  0.00     0.232 C 
BRANCH  28  29
HETATM   29  N5  UNL     1      17.395  38.363 -12.577  1.00  0.00    -0.075 N 
ATOM     30  H52 UNL     1      18.249  38.139 -13.089  1.00  0.00     0.277 HD
ATOM     31  H51 UNL     1      17.744  38.193 -11.634  1.00  0.00     0.277 HD
BRANCH  29  32
HETATM   32  C16 UNL     1      16.300  37.487 -12.925  1.00  0.00     0.237 C 
BRANCH  32  33
HETATM   33  C17 UNL     1      15.003  38.040 -12.461  1.00  0.00     0.013 C 
HETATM   34  C18 UNL     1      13.920  37.935 -13.524  1.00  0.00     0.008 C 
HETATM   35  C19 UNL     1      13.824  36.518 -14.041  1.00  0.00     0.020 C 
HETATM   36  C20 UNL     1      13.395  35.538 -13.009  1.00  0.00     0.113 C 
HETATM   37  N6  UNL     1      14.408  35.080 -12.134  1.00  0.00    -0.421 N 
HETATM   38  C21 UNL     1      14.845  35.941 -11.100  1.00  0.00     0.114 C 
ATOM     39  H6  UNL     1      14.813  34.151 -12.246  1.00  0.00     0.153 HD
HETATM   40  C22 UNL     1      14.465  37.387 -11.215  1.00  0.00     0.025 C 
ENDBRANCH  32  33
ENDBRANCH  29  32
ENDBRANCH  28  29
ENDBRANCH  27  28
ENDBRANCH  26  27
ENDBRANCH  25  26
ENDBRANCH  24  25
ENDBRANCH  23  24
ENDBRANCH  22  23
ENDBRANCH  21  22
ENDBRANCH   1  21
TORSDOF 14
ENDMDL
MODEL 3
REMARK VINA RESULT: -7.389142642      1.371      2.025
REMARK  14 active torsions:
REMARK  status: ('A' for Active; 'I' for Inactive)
REMARK    1  A    between atoms: O1_2  and  C2_3 
REMARK    2  A    between atoms: C3_6  and  N2_7 
REMARK    3  A    between atoms: C7_15  and  N4_16 
REMARK    4  A    between atoms: N4_16  and  C8_18 
REMARK    5  A    between atoms: C8_18  and  C9_19 
REMARK    6  A    between atoms: C9_19  and  C10_20 
REMARK    7  A    between atoms: C10_20  and  C11_21 
REMARK    8  A    between atoms: C11_21  and  C12_22 
REMARK    9  A    between atoms: C12_22  and  C13_23 
REMARK   10  A    between atoms: C13_23  and  C14_24 
REMARK   11  A    between atoms: C14_24  and  C15_25 
REMARK   12  A    between atoms: C15_25  and  N5_26 
REMARK   13  A    between atoms: N5_26  and  C16_29 
REMARK   14  A    between atoms: C16_29  and  C17_30 
ROOT
HETATM    1  N4  UNL     1      14.717  38.181 -10.497  1.00  0.00    -0.388 N 
ATOM      2  H4  UNL     1      15.549  38.701 -10.774  1.00  0.00     0.159 HD
ENDROOT
BRANCH   1   3
HETATM    3  C7  UNL     1      14.482  37.303 -11.317  1.00  0.00     0.059 A 
HETATM    4  C6  UNL     1      13.441  36.421 -11.430  1.00  0.00     0.048 A 
HETATM    5  C5  UNL     1      13.272  35.586 -12.504  1.00  0.00     0.091 A 
HETATM    6  N3  UNL     1      14.147  35.597 -13.530  1.00  0.00    -0.361 N 
HETATM    7  C4  UNL     1      15.199  36.446 -13.485  1.00  0.00     0.105 A 
ATOM      8  H3  UNL     1      14.018  34.976 -14.328  1.00  0.00     0.165 HD
HETATM    9  C3  UNL     1      16.052  36.473 -14.583  1.00  0.00     0.131 A 
HETATM   10  C23 UNL     1      15.378  37.276 -12.418  1.00  0.00     0.092 A 
HETATM   11  N1  UNL     1      17.077  37.379 -14.536  1.00  0.00    -0.307 N 
HETATM   12  C2  UNL     1      17.267  38.197 -13.497  1.00  0.00     0.225 A 
ATOM     13  H1  UNL     1      17.723  37.430 -15.325  1.00  0.00     0.171 HD
HETATM   14  N7  UNL     1      16.393  38.122 -12.437  1.00  0.00    -0.318 N 
ATOM     15  H7  UNL     1      16.532  38.741 -11.638  1.00  0.00     0.169 HD
BRANCH   9  16
HETATM   16  N2  UNL     1      15.875  35.675 -15.527  1.00  0.00    -0.383 N 
ATOM     17  H22 UNL     1      16.624  35.512 -16.200  1.00  0.00     0.157 HD
ATOM     18  H21 UNL     1      15.000  35.179 -15.692  1.00  0.00     0.157 HD
ENDBRANCH   9  16
BRANCH  12  19
HETATM   19  O1  UNL     1      18.226  39.125 -13.342  1.00  0.00    -0.327 OA
HETATM   20  C1  UNL     1      19.039  39.626 -14.444  1.00  0.00     0.213 C 
ENDBRANCH  12  19
ENDBRANCH   1   3
BRANCH   1  21
HETATM   21  C8  UNL     1      14.199  38.706  -9.284  1.00  0.00     0.120 C 
BRANCH  21  22
HETATM   22  C9  UNL     1      13.375  39.914  -9.691  1.00  0.00     0.020 C 
BRANCH  22  23
HETATM   23  C10 UNL     1      13.078  40.978  -8.761  1.00  0.00     0.002 C 
BRANCH  23  24
HETATM   24  C11 UNL     1      11.663  40.955  -8.161  1.00  0.00     0.000 C 
BRANCH  24  25
HETATM   25  C12 UNL     1      11.713  40.236  -6.856  1.00  0.00     0.000 C 
BRANCH  25  26
HETATM   26  C13 UNL     1      11.331  38.800  -6.818  1.00  0.00     0.002 C 
BRANCH  26  27
HETATM   27  C14 UNL     1      11.249  38.267  -5.394  1.00  0.00     0.027 C 
BRANCH  27  28
HETATM   28  C15 UNL     1      10.202  39.014  -4.638  1.00  0.00     0.232 C 
BRANCH  28  29
HETATM   29  N5  UNL     1       9.085  38.228  -4.162  1.00  0.00    -0.075 N 
ATOM     30  H52 UNL     1       8.206  38.497  -4.602  1.00  0.00     0.277 HD
ATOM     31  H51 UNL     1       9.122  37.263  -4.491  1.00  0.00     0.277 HD
BRANCH  29  32
HETATM   32  C16 UNL     1       9.027  38.315  -2.720  1.00  0.00     0.237 C 
BRANCH  32  33
HETATM   33  C17 UNL     1      10.274  37.802  -2.101  1.00  0.00     0.013 C 
HETATM   34  C18 UNL     1      10.850  38.770  -1.080  1.00  0.00     0.008 C 
HETATM   35  C19 UNL     1       9.793  39.166  -0.074  1.00  0.00     0.020 C 
HETATM   36  C20 UNL     1       9.310  38.031   0.755  1.00  0.00     0.113 C 
HETATM   37  N6  UNL     1       8.335  37.200   0.157  1.00  0.00    -0.421 N 
HETATM   38  C21 UNL     1       8.752  36.271  -0.826  1.00  0.00     0.114 C 
ATOM     39  H6  UNL     1       7.354  37.268   0.427  1.00  0.00     0.153 HD
HETATM   40  C22 UNL     1      10.119  36.472  -1.411  1.00  0.00     0.025 C 
ENDBRANCH  32  33
ENDBRANCH  29  32
ENDBRANCH  28  29
ENDBRANCH  27  28
ENDBRANCH  26  27
ENDBRANCH  25  26
ENDBRANCH  24  25
ENDBRANCH  23  24
ENDBRANCH  22  23
ENDBRANCH  21  22
ENDBRANCH   1  21
TORSDOF 14
ENDMDL
MODEL 4
REMARK VINA RESULT: -7.249735718      2.743      6.292
REMARK  14 active torsions:
REMARK  status: ('A' for Active; 'I' for Inactive)
REMARK    1  A    between atoms: O1_2  and  C2_3 
REMARK    2  A    between atoms: C3_6  and  N2_7 
REMARK    3  A    between atoms: C7_15  and  N4_16 
REMARK    4  A    between atoms: N4_16  and  C8_18 
REMARK    5  A    between atoms: C8_18  and  C9_19 
REMARK    6  A    between atoms: C9_19  and  C10_20 
REMARK    7  A    between atoms: C10_20  and  C11_21 
REMARK    8  A    between atoms: C11_21  and  C12_22 
REMARK    9  A    between atoms: C12_22  and  C13_23 
REMARK   10  A    between atoms: C13_23  and  C14_24 
REMARK   11  A    between atoms: C14_24  and  C15_25 
REMARK   12  A    between atoms: C15_25  and  N5_26 
REMARK   13  A    between atoms: N5_26  and  C16_29 
REMARK   14  A    between atoms: C16_29  and  C17_30 
ROOT
HETATM    1  N4  UNL     1      11.470  38.878  -6.746  1.00  0.00    -0.388 N 
ATOM      2  H4  UNL     1      10.889  38.420  -7.448  1.00  0.00     0.159 HD
ENDROOT
BRANCH   1   3
HETATM    3  C7  UNL     1      12.055  39.830  -7.246  1.00  0.00     0.059 A 
HETATM    4  C6  UNL     1      12.283  41.099  -6.786  1.00  0.00     0.048 A 
HETATM    5  C5  UNL     1      13.086  42.004  -7.431  1.00  0.00     0.091 A 
HETATM    6  N3  UNL     1      13.707  41.675  -8.582  1.00  0.00    -0.361 N 
HETATM    7  C4  UNL     1      13.527  40.436  -9.094  1.00  0.00     0.105 A 
ATOM      8  H3  UNL     1      14.304  42.350  -9.060  1.00  0.00     0.165 HD
HETATM    9  C3  UNL     1      14.225  40.110 -10.251  1.00  0.00     0.131 A 
HETATM   10  C23 UNL     1      12.726  39.532  -8.461  1.00  0.00     0.092 A 
HETATM   11  N1  UNL     1      14.068  38.833 -10.719  1.00  0.00    -0.307 N 
HETATM   12  C2  UNL     1      13.285  37.936 -10.110  1.00  0.00     0.225 A 
ATOM     13  H1  UNL     1      14.566  38.555 -11.564  1.00  0.00     0.171 HD
HETATM   14  N7  UNL     1      12.616  38.318  -8.970  1.00  0.00    -0.318 N 
ATOM     15  H7  UNL     1      12.014  37.641  -8.502  1.00  0.00     0.169 HD
BRANCH   9  16
HETATM   16  N2  UNL     1      14.923  40.975 -10.821  1.00  0.00    -0.383 N 
ATOM     17  H22 UNL     1      14.489  41.624 -11.478  1.00  0.00     0.157 HD
ATOM     18  H21 UNL     1      15.930  41.064 -10.691  1.00  0.00     0.157 HD
ENDBRANCH   9  16
BRANCH  12  19
HETATM   19  O1  UNL     1      13.060  36.660 -10.469  1.00  0.00    -0.327 OA
HETATM   20  C1  UNL     1      13.245  36.168 -11.829  1.00  0.00     0.213 C 
ENDBRANCH  12  19
ENDBRANCH   1   3
BRANCH   1  21
HETATM   21  C8  UNL     1      11.344  38.209  -5.501  1.00  0.00     0.120 C 
BRANCH  21  22
HETATM   22  C9  UNL     1      10.270  38.970  -4.745  1.00  0.00     0.020 C 
BRANCH  22  23
HETATM   23  C10 UNL     1       9.154  38.296  -4.126  1.00  0.00     0.002 C 
BRANCH  23  24
HETATM   24  C11 UNL     1       9.401  37.782  -2.698  1.00  0.00     0.000 C 
BRANCH  24  25
HETATM   25  C12 UNL     1      10.406  38.667  -2.042  1.00  0.00     0.000 C 
BRANCH  25  26
HETATM   26  C13 UNL     1      10.061  39.294  -0.740  1.00  0.00     0.002 C 
BRANCH  26  27
HETATM   27  C14 UNL     1      10.268  40.803  -0.759  1.00  0.00     0.027 C 
BRANCH  27  28
HETATM   28  C15 UNL     1       9.048  41.470  -1.296  1.00  0.00     0.232 C 
BRANCH  28  29
HETATM   29  N5  UNL     1       9.200  42.858  -1.672  1.00  0.00    -0.075 N 
ATOM     30  H52 UNL     1       9.126  43.487  -0.872  1.00  0.00     0.277 HD
ATOM     31  H51 UNL     1      10.157  43.083  -1.944  1.00  0.00     0.277 HD
BRANCH  29  32
HETATM   32  C16 UNL     1       8.245  43.175  -2.710  1.00  0.00     0.237 C 
BRANCH  32  33
HETATM   33  C17 UNL     1       8.071  42.036  -3.644  1.00  0.00     0.013 C 
HETATM   34  C18 UNL     1       6.621  41.584  -3.737  1.00  0.00     0.008 C 
HETATM   35  C19 UNL     1       5.722  42.761  -4.042  1.00  0.00     0.020 C 
HETATM   36  C20 UNL     1       5.981  43.377  -5.370  1.00  0.00     0.113 C 
HETATM   37  N6  UNL     1       7.070  44.278  -5.430  1.00  0.00    -0.421 N 
HETATM   38  C21 UNL     1       8.382  43.750  -5.446  1.00  0.00     0.114 C 
ATOM     39  H6  UNL     1       6.912  45.285  -5.461  1.00  0.00     0.153 HD
HETATM   40  C22 UNL     1       8.539  42.312  -5.048  1.00  0.00     0.025 C 
ENDBRANCH  32  33
ENDBRANCH  29  32
ENDBRANCH  28  29
ENDBRANCH  27  28
ENDBRANCH  26  27
ENDBRANCH  25  26
ENDBRANCH  24  25
ENDBRANCH  23  24
ENDBRANCH  22  23
ENDBRANCH  21  22
ENDBRANCH   1  21
TORSDOF 14
ENDMDL
MODEL 5
REMARK VINA RESULT: -7.240264649      3.217      9.075
REMARK  14 active torsions:
REMARK  status: ('A' for Active; 'I' for Inactive)
REMARK    1  A    between atoms: O1_2  and  C2_3 
REMARK    2  A    between atoms: C3_6  and  N2_7 
REMARK    3  A    between atoms: C7_15  and  N4_16 
REMARK    4  A    between atoms: N4_16  and  C8_18 
REMARK    5  A    between atoms: C8_18  and  C9_19 
REMARK    6  A    between atoms: C9_19  and  C10_20 
REMARK    7  A    between atoms: C10_20  and  C11_21 
REMARK    8  A    between atoms: C11_21  and  C12_22 
REMARK    9  A    between atoms: C12_22  and  C13_23 
REMARK   10  A    between atoms: C13_23  and  C14_24 
REMARK   11  A    between atoms: C14_24  and  C15_25 
REMARK   12  A    between atoms: C15_25  and  N5_26 
REMARK   13  A    between atoms: N5_26  and  C16_29 
REMARK   14  A    between atoms: C16_29  and  C17_30 
ROOT
HETATM    1  N4  UNL     1      13.625  40.843 -10.274  1.00  0.00    -0.388 N 
ATOM      2  H4  UNL     1      12.681  41.178 -10.461  1.00  0.00     0.159 HD
ENDROOT
BRANCH   1   3
HETATM    3  C7  UNL     1      13.580  39.792  -9.650  1.00  0.00     0.059 A 
HETATM    4  C6  UNL     1      14.230  38.601  -9.828  1.00  0.00     0.048 A 
HETATM    5  C5  UNL     1      14.158  37.559  -8.939  1.00  0.00     0.091 A 
HETATM    6  N3  UNL     1      13.422  37.665  -7.814  1.00  0.00    -0.361 N 
HETATM    7  C4  UNL     1      12.754  38.815  -7.573  1.00  0.00     0.105 A 
ATOM      8  H3  UNL     1      13.371  36.889  -7.154  1.00  0.00     0.165 HD
HETATM    9  C3  UNL     1      12.050  38.913  -6.378  1.00  0.00     0.131 A 
HETATM   10  C23 UNL     1      12.815  39.854  -8.454  1.00  0.00     0.092 A 
HETATM   11  N1  UNL     1      11.426  40.106  -6.133  1.00  0.00    -0.307 N 
HETATM   12  C2  UNL     1      11.476  41.132  -6.988  1.00  0.00     0.225 A 
ATOM     13  H1  UNL     1      10.902  40.217  -5.265  1.00  0.00     0.171 HD
HETATM   14  N7  UNL     1      12.185  40.976  -8.157  1.00  0.00    -0.318 N 
ATOM     15  H7  UNL     1      12.226  41.753  -8.816  1.00  0.00     0.169 HD
BRANCH   9  16
HETATM   16  N2  UNL     1      11.988  37.929  -5.611  1.00  0.00    -0.383 N 
ATOM     17  H22 UNL     1      11.876  38.075  -4.607  1.00  0.00     0.157 HD
ATOM     18  H21 UNL     1      12.069  36.962  -5.924  1.00  0.00     0.157 HD
ENDBRANCH   9  16
BRANCH  12  19
HETATM   19  O1  UNL     1      10.915  42.346  -6.854  1.00  0.00    -0.327 OA
HETATM   20  C1  UNL     1      10.790  43.295  -7.955  1.00  0.00     0.213 C 
ENDBRANCH  12  19
ENDBRANCH   1   3
BRANCH   1  21
HETATM   21  C8  UNL     1      14.575  41.746 -10.820  1.00  0.00     0.120 C 
BRANCH  21  22
HETATM   22  C9  UNL     1      15.619  41.933  -9.734  1.00  0.00     0.020 C 
BRANCH  22  23
HETATM   23  C10 UNL     1      16.622  42.968  -9.816  1.00  0.00     0.002 C 
BRANCH  23  24
HETATM   24  C11 UNL     1      17.593  42.857 -11.002  1.00  0.00     0.000 C 
BRANCH  24  25
HETATM   25  C12 UNL     1      18.246  41.517 -10.956  1.00  0.00     0.000 C 
BRANCH  25  26
HETATM   26  C13 UNL     1      18.586  40.845 -12.238  1.00  0.00     0.002 C 
BRANCH  26  27
HETATM   27  C14 UNL     1      17.357  40.253 -12.916  1.00  0.00     0.027 C 
BRANCH  27  28
HETATM   28  C15 UNL     1      17.622  38.832 -13.282  1.00  0.00     0.232 C 
BRANCH  28  29
HETATM   29  N5  UNL     1      16.972  37.836 -12.460  1.00  0.00    -0.075 N 
ATOM     30  H52 UNL     1      17.639  37.222 -11.994  1.00  0.00     0.277 HD
ATOM     31  H51 UNL     1      16.542  38.241 -11.628  1.00  0.00     0.277 HD
BRANCH  29  32
HETATM   32  C16 UNL     1      16.022  37.103 -13.267  1.00  0.00     0.237 C 
BRANCH  32  33
HETATM   33  C17 UNL     1      14.769  37.876 -13.453  1.00  0.00     0.013 C 
HETATM   34  C18 UNL     1      14.353  37.956 -14.914  1.00  0.00     0.008 C 
HETATM   35  C19 UNL     1      14.309  36.573 -15.525  1.00  0.00     0.020 C 
HETATM   36  C20 UNL     1      13.281  35.689 -14.918  1.00  0.00     0.113 C 
HETATM   37  N6  UNL     1      13.642  35.067 -13.701  1.00  0.00    -0.421 N 
HETATM   38  C21 UNL     1      13.636  35.844 -12.518  1.00  0.00     0.114 C 
ATOM     39  H6  UNL     1      13.901  34.081 -13.675  1.00  0.00     0.153 HD
HETATM   40  C22 UNL     1      13.590  37.334 -12.687  1.00  0.00     0.025 C 
ENDBRANCH  32  33
ENDBRANCH  29  32
ENDBRANCH  28  29
ENDBRANCH  27  28
ENDBRANCH  26  27
ENDBRANCH  25  26
ENDBRANCH  24  25
ENDBRANCH  23  24
ENDBRANCH  22  23
ENDBRANCH  21  22
ENDBRANCH   1  21
TORSDOF 14
ENDMDL
