MODEL 1
REMARK VINA RESULT: -8.009693009      0.000      0.000
REMARK  12 active torsions:
REMARK  status: ('A' for Active; 'I' for Inactive)
REMARK    1  A    between atoms: C2_2  and  C3_3 
REMARK    2  A    between atoms: C3_3  and  C4_4 
REMARK    3  A    between atoms: C4_4  and  C5_5 
REMARK    4  A    between atoms: C5_5  and  N1_6 
REMARK    5  A    between atoms: C8_10  and  C9_11 
REMARK    6  A    between atoms: C9_11  and  N2_12 
REMARK    7  A    between atoms: N2_12  and  C10_13 
REMARK    8  A    between atoms: N2_12  and  C14_17 
REMARK    9  A    between atoms: C10_13  and  C11_14 
REMARK   10  A    between atoms: C11_14  and  C12_15 
REMARK   11  A    between atoms: C17_22  and  N4_23 
REMARK   12  A    between atoms: C20_35  and  C21_36 
ROOT
HETATM    1  C14 UNL     1      13.589  40.311 -10.395  1.00  0.00     0.055 A 
HETATM    2  C15 UNL     1      13.508  38.894 -10.363  1.00  0.00     0.064 A 
HETATM    3  C16 UNL     1      13.704  38.142 -11.469  1.00  0.00     0.082 A 
HETATM    4  N3  UNL     1      13.626  36.796 -11.432  1.00  0.00    -0.190 N 
ATOM      5  H3  UNL     1      13.413  36.337 -10.547  1.00  0.00     0.184 HD
HETATM    6  C17 UNL     1      13.820  36.040 -12.531  1.00  0.00     0.678 A 
HETATM    7  N5  UNL     1      14.100  36.666 -13.687  1.00  0.00    -0.175 N 
ATOM      8  H5  UNL     1      14.250  36.109 -14.529  1.00  0.00     0.186 HD
HETATM    9  C18 UNL     1      14.188  38.015 -13.769  1.00  0.00     0.144 A 
HETATM   10  N6  UNL     1      14.458  38.625 -14.888  1.00  0.00    -0.383 N 
ATOM     11  H61 UNL     1      14.524  39.641 -14.950  1.00  0.00     0.157 HD
ATOM     12  H62 UNL     1      14.604  38.047 -15.715  1.00  0.00     0.157 HD
HETATM   13  C19 UNL     1      13.989  38.803 -12.644  1.00  0.00     0.104 A 
HETATM   14  N7  UNL     1      14.065  40.136 -12.678  1.00  0.00    -0.353 N 
ATOM     15  H7  UNL     1      14.278  40.586 -13.569  1.00  0.00     0.166 HD
HETATM   16  C20 UNL     1      13.870  40.933 -11.574  1.00  0.00     0.036 A 
ENDROOT
BRANCH   1  17
HETATM   17  N2  UNL     1      13.424  40.993  -9.174  1.00  0.00    -0.374 N 
BRANCH  17  18
HETATM   18  C9  UNL     1      12.039  40.991  -8.651  1.00  0.00     0.180 C 
BRANCH  18  19
HETATM   19  C8  UNL     1      11.868  40.125  -7.485  1.00  0.00     0.031 A 
HETATM   20  C7  UNL     1      11.109  40.363  -6.374  1.00  0.00     0.075 A 
HETATM   21  C6  UNL     1      11.013  39.465  -5.305  1.00  0.00     0.107 A 
HETATM   22  N1  UNL     1      10.282  39.813  -4.349  1.00  0.00    -0.356 N 
HETATM   23  N9  UNL     1      11.706  38.330  -5.402  1.00  0.00    -0.339 N 
ATOM     24  H1  UNL     1       9.860  40.727  -4.510  1.00  0.00     0.166 HD
HETATM   25  C23 UNL     1      12.451  38.080  -6.477  1.00  0.00     0.182 A 
ATOM     26  H9  UNL     1      11.666  37.647  -4.646  1.00  0.00     0.168 HD
HETATM   27  N8  UNL     1      12.545  38.933  -7.497  1.00  0.00    -0.354 N 
ATOM     28  H8  UNL     1      13.130  38.696  -8.298  1.00  0.00     0.166 HD
BRANCH  22  29
HETATM   29  C5  UNL     1       9.892  39.272  -3.116  1.00  0.00     0.063 C 
BRANCH  29  30
HETATM   30  C4  UNL     1      11.027  39.240  -2.139  1.00  0.00     0.048 C 
BRANCH  30  31
HETATM   31  C3  UNL     1      10.726  38.439  -0.914  1.00  0.00     0.031 C 
BRANCH  31  32
HETATM   32  C2  UNL     1       9.562  37.557  -1.075  1.00  0.00    -0.037 C 
HETATM   33  C1  UNL     1       9.637  36.255  -1.146  1.00  0.00     0.007 C 
ENDBRANCH  31  32
ENDBRANCH  30  31
ENDBRANCH  29  30
ENDBRANCH  22  29
ENDBRANCH  18  19
ENDBRANCH  17  18
BRANCH  17  34
HETATM   34  C10 UNL     1      14.372  41.609  -8.306  1.00  0.00     0.123 C 
BRANCH  34  35
HETATM   35  C11 UNL     1      14.182  43.034  -7.951  1.00  0.00     0.019 C 
BRANCH  35  36
HETATM   36  C12 UNL     1      15.487  43.814  -7.939  1.00  0.00    -0.003 C 
HETATM   37  C13 UNL     1      16.315  43.300  -9.117  1.00  0.00     0.005 C 
ENDBRANCH  35  36
ENDBRANCH  34  35
ENDBRANCH  17  34
ENDBRANCH   1  17
BRANCH  16  38
HETATM   38  C21 UNL     1      13.903  42.414 -11.779  1.00  0.00     0.055 C 
HETATM   39  C22 UNL     1      12.494  42.945 -12.020  1.00  0.00     0.011 C 
ENDBRANCH  16  38
BRANCH   6  40
HETATM   40  N4  UNL     1      13.746  34.773 -12.491  1.00  0.00    -0.234 N 
ATOM     41  H42 UNL     1      14.419  34.235 -11.945  1.00  0.00     0.174 HD
ATOM     42  H41 UNL     1      13.021  34.263 -12.995  1.00  0.00     0.174 HD
ENDBRANCH   6  40
TORSDOF 12
ENDMDL
MODEL 2
REMARK VINA RESULT: -7.947070477      1.578      2.232
REMARK  12 active torsions:
REMARK  status: ('A' for Active; 'I' for Inactive)
REMARK    1  A    between atoms: C2_2  and  C3_3 
REMARK    2  A    between atoms: C3_3  and  C4_4 
REMARK    3  A    between atoms: C4_4  and  C5_5 
REMARK    4  A    between atoms: C5_5  and  N1_6 
REMARK    5  A    between atoms: C8_10  and  C9_11 
REMARK    6  A    between atoms: C9_11  and  N2_12 
REMARK    7  A    between atoms: N2_12  and  C10_13 
REMARK    8  A    between atoms: N2_12  and  C14_17 
REMARK    9  A    between atoms: C10_13  and  C11_14 
REMARK   10  A    between atoms: C11_14  and  C12_15 
REMARK   11  A    between atoms: C17_22  and  N4_23 
REMARK   12  A    between atoms: C20_35  and  C21_36 
ROOT
HETATM    1  C14 UNL     1      13.681  40.118 -10.138  1.00  0.00     0.055 A 
HETATM    2  C15 UNL     1      13.193  38.823 -10.452  1.00  0.00     0.064 A 
HETATM    3  C16 UNL     1      13.918  37.940 -11.173  1.00  0.00     0.082 A 
HETATM    4  N3  UNL     1      13.449  36.710 -11.468  1.00  0.00    -0.190 N 
ATOM      5  H3  UNL     1      12.522  36.442 -11.136  1.00  0.00     0.184 HD
HETATM    6  C17 UNL     1      14.168  35.826 -12.187  1.00  0.00     0.678 A 
HETATM    7  N5  UNL     1      15.386  36.201 -12.614  1.00  0.00    -0.175 N 
ATOM      8  H5  UNL     1      15.944  35.543 -13.160  1.00  0.00     0.186 HD
HETATM    9  C18 UNL     1      15.897  37.425 -12.342  1.00  0.00     0.144 A 
HETATM   10  N6  UNL     1      17.077  37.792 -12.754  1.00  0.00    -0.383 N 
ATOM     11  H61 UNL     1      17.461  38.714 -12.548  1.00  0.00     0.157 HD
ATOM     12  H62 UNL     1      17.615  37.117 -13.297  1.00  0.00     0.157 HD
HETATM   13  C19 UNL     1      15.164  38.344 -11.602  1.00  0.00     0.104 A 
HETATM   14  N7  UNL     1      15.627  39.562 -11.311  1.00  0.00    -0.353 N 
ATOM     15  H7  UNL     1      16.555  39.821 -11.647  1.00  0.00     0.166 HD
HETATM   16  C20 UNL     1      14.916  40.486 -10.580  1.00  0.00     0.036 A 
ENDROOT
BRANCH   1  17
HETATM   17  N2  UNL     1      12.866  40.936  -9.332  1.00  0.00    -0.374 N 
BRANCH  17  18
HETATM   18  C9  UNL     1      13.298  41.029  -7.918  1.00  0.00     0.180 C 
BRANCH  18  19
HETATM   19  C8  UNL     1      12.489  40.207  -7.017  1.00  0.00     0.031 A 
HETATM   20  C7  UNL     1      11.486  40.622  -6.187  1.00  0.00     0.075 A 
HETATM   21  C6  UNL     1      10.769  39.750  -5.359  1.00  0.00     0.107 A 
HETATM   22  N1  UNL     1       9.876  40.267  -4.648  1.00  0.00    -0.356 N 
HETATM   23  N9  UNL     1      11.102  38.461  -5.401  1.00  0.00    -0.339 N 
ATOM     24  H1  UNL     1       9.814  41.275  -4.793  1.00  0.00     0.166 HD
HETATM   25  C23 UNL     1      12.076  38.038  -6.204  1.00  0.00     0.182 A 
ATOM     26  H9  UNL     1      10.606  37.791  -4.814  1.00  0.00     0.168 HD
HETATM   27  N8  UNL     1      12.761  38.865  -6.995  1.00  0.00    -0.354 N 
ATOM     28  H8  UNL     1      13.500  38.492  -7.591  1.00  0.00     0.166 HD
BRANCH  22  29
HETATM   29  C5  UNL     1       8.940  39.820  -3.705  1.00  0.00     0.063 C 
BRANCH  29  30
HETATM   30  C4  UNL     1       9.476  39.897  -2.308  1.00  0.00     0.048 C 
BRANCH  30  31
HETATM   31  C3  UNL     1      10.217  38.667  -1.894  1.00  0.00     0.031 C 
BRANCH  31  32
HETATM   32  C2  UNL     1       9.471  37.430  -2.160  1.00  0.00    -0.037 C 
HETATM   33  C1  UNL     1       9.414  36.420  -1.334  1.00  0.00     0.007 C 
ENDBRANCH  31  32
ENDBRANCH  30  31
ENDBRANCH  29  30
ENDBRANCH  22  29
ENDBRANCH  18  19
ENDBRANCH  17  18
BRANCH  17  34
HETATM   34  C10 UNL     1      11.751  41.762  -9.655  1.00  0.00     0.123 C 
BRANCH  34  35
HETATM   35  C11 UNL     1      11.793  43.190  -9.264  1.00  0.00     0.019 C 
BRANCH  35  36
HETATM   36  C12 UNL     1      10.584  43.609  -8.443  1.00  0.00    -0.003 C 
HETATM   37  C13 UNL     1       9.490  43.995  -9.438  1.00  0.00     0.005 C 
ENDBRANCH  35  36
ENDBRANCH  34  35
ENDBRANCH  17  34
ENDBRANCH   1  17
BRANCH  16  38
HETATM   38  C21 UNL     1      15.525  41.840 -10.402  1.00  0.00     0.055 C 
HETATM   39  C22 UNL     1      17.040  41.760 -10.556  1.00  0.00     0.011 C 
ENDBRANCH  16  38
BRANCH   6  40
HETATM   40  N4  UNL     1      13.721  34.669 -12.461  1.00  0.00    -0.234 N 
ATOM     41  H42 UNL     1      12.743  34.440 -12.282  1.00  0.00     0.174 HD
ATOM     42  H41 UNL     1      14.317  33.946 -12.862  1.00  0.00     0.174 HD
ENDBRANCH   6  40
TORSDOF 12
ENDMDL
MODEL 3
REMARK VINA RESULT: -7.756510864      1.309      1.434
REMARK  12 active torsions:
REMARK  status: ('A' for Active; 'I' for Inactive)
REMARK    1  A    between atoms: C2_2  and  C3_3 
REMARK    2  A    between atoms: C3_3  and  C4_4 
REMARK    3  A    between atoms: C4_4  and  C5_5 
REMARK    4  A    between atoms: C5_5  and  N1_6 
REMARK    5  A    between atoms: C8_10  and  C9_11 
REMARK    6  A    between atoms: C9_11  and  N2_12 
REMARK    7  A    between atoms: N2_12  and  C10_13 
REMARK    8  A    between atoms: N2_12  and  C14_17 
REMARK    9  A    between atoms: C10_13  and  C11_14 
REMARK   10  A    between atoms: C11_14  and  C12_15 
REMARK   11  A    between atoms: C17_22  and  N4_23 
REMARK   12  A    between atoms: C20_35  and  C21_36 
ROOT
HETATM    1  C14 UNL     1      13.460  41.132  -9.991  1.00  0.00     0.055 A 
HETATM    2  C15 UNL     1      14.107  39.870 -10.049  1.00  0.00     0.064 A 
HETATM    3  C16 UNL     1      14.537  39.339 -11.215  1.00  0.00     0.082 A 
HETATM    4  N3  UNL     1      15.150  38.139 -11.264  1.00  0.00    -0.190 N 
ATOM      5  H3  UNL     1      15.292  37.620 -10.397  1.00  0.00     0.184 HD
HETATM    6  C17 UNL     1      15.581  37.605 -12.423  1.00  0.00     0.678 A 
HETATM    7  N5  UNL     1      15.384  38.306 -13.554  1.00  0.00    -0.175 N 
ATOM      8  H5  UNL     1      15.704  37.915 -14.441  1.00  0.00     0.186 HD
HETATM    9  C18 UNL     1      14.772  39.514 -13.551  1.00  0.00     0.144 A 
HETATM   10  N6  UNL     1      14.579  40.195 -14.644  1.00  0.00    -0.383 N 
ATOM     11  H61 UNL     1      14.119  41.106 -14.642  1.00  0.00     0.157 HD
ATOM     12  H62 UNL     1      14.909  39.785 -15.518  1.00  0.00     0.157 HD
HETATM   13  C19 UNL     1      14.324  40.073 -12.362  1.00  0.00     0.104 A 
HETATM   14  N7  UNL     1      13.716  41.260 -12.312  1.00  0.00    -0.353 N 
ATOM     15  H7  UNL     1      13.578  41.771 -13.184  1.00  0.00     0.166 HD
HETATM   16  C20 UNL     1      13.264  41.830 -11.144  1.00  0.00     0.036 A 
ENDROOT
BRANCH   1  17
HETATM   17  N2  UNL     1      13.105  41.616  -8.717  1.00  0.00    -0.374 N 
BRANCH  17  18
HETATM   18  C9  UNL     1      11.717  41.303  -8.306  1.00  0.00     0.180 C 
BRANCH  18  19
HETATM   19  C8  UNL     1      11.647  40.297  -7.247  1.00  0.00     0.031 A 
HETATM   20  C7  UNL     1      10.972  40.381  -6.062  1.00  0.00     0.075 A 
HETATM   21  C6  UNL     1      10.969  39.357  -5.108  1.00  0.00     0.107 A 
HETATM   22  N1  UNL     1      10.308  39.569  -4.064  1.00  0.00    -0.356 N 
HETATM   23  N9  UNL     1      11.666  38.258  -5.395  1.00  0.00    -0.339 N 
ATOM     24  H1  UNL     1       9.864  40.487  -4.079  1.00  0.00     0.166 HD
HETATM   25  C23 UNL     1      12.329  38.157  -6.546  1.00  0.00     0.182 A 
ATOM     26  H9  UNL     1      11.691  37.487  -4.729  1.00  0.00     0.168 HD
HETATM   27  N8  UNL     1      12.335  39.131  -7.456  1.00  0.00    -0.354 N 
ATOM     28  H8  UNL     1      12.860  39.006  -8.322  1.00  0.00     0.166 HD
BRANCH  22  29
HETATM   29  C5  UNL     1      10.021  38.873  -2.882  1.00  0.00     0.063 C 
BRANCH  29  30
HETATM   30  C4  UNL     1      10.924  39.284  -1.760  1.00  0.00     0.048 C 
BRANCH  30  31
HETATM   31  C3  UNL     1      10.186  39.642  -0.511  1.00  0.00     0.031 C 
BRANCH  31  32
HETATM   32  C2  UNL     1       9.866  38.474   0.321  1.00  0.00    -0.037 C 
HETATM   33  C1  UNL     1       9.033  38.500   1.327  1.00  0.00     0.007 C 
ENDBRANCH  31  32
ENDBRANCH  30  31
ENDBRANCH  29  30
ENDBRANCH  22  29
ENDBRANCH  18  19
ENDBRANCH  17  18
BRANCH  17  34
HETATM   34  C10 UNL     1      13.873  42.277  -7.715  1.00  0.00     0.123 C 
BRANCH  34  35
HETATM   35  C11 UNL     1      14.553  43.545  -8.067  1.00  0.00     0.019 C 
BRANCH  35  36
HETATM   36  C12 UNL     1      15.916  43.322  -8.701  1.00  0.00    -0.003 C 
HETATM   37  C13 UNL     1      16.810  44.470  -8.234  1.00  0.00     0.005 C 
ENDBRANCH  35  36
ENDBRANCH  34  35
ENDBRANCH  17  34
ENDBRANCH   1  17
BRANCH  16  38
HETATM   38  C21 UNL     1      12.526  43.127 -11.250  1.00  0.00     0.055 C 
HETATM   39  C22 UNL     1      13.491  44.255 -11.599  1.00  0.00     0.011 C 
ENDBRANCH  16  38
BRANCH   6  40
HETATM   40  N4  UNL     1      16.158  36.475 -12.463  1.00  0.00    -0.234 N 
ATOM     41  H42 UNL     1      17.170  36.418 -12.579  1.00  0.00     0.174 HD
ATOM     42  H41 UNL     1      15.636  35.603 -12.382  1.00  0.00     0.174 HD
ENDBRANCH   6  40
TORSDOF 12
ENDMDL
MODEL 4
REMARK VINA RESULT: -7.661328821      1.222      1.912
REMARK  12 active torsions:
REMARK  status: ('A' for Active; 'I' for Inactive)
REMARK    1  A    between atoms: C2_2  and  C3_3 
REMARK    2  A    between atoms: C3_3  and  C4_4 
REMARK    3  A    between atoms: C4_4  and  C5_5 
REMARK    4  A    between atoms: C5_5  and  N1_6 
REMARK    5  A    between atoms: C8_10  and  C9_11 
REMARK    6  A    between atoms: C9_11  and  N2_12 
REMARK    7  A    between atoms: N2_12  and  C10_13 
REMARK    8  A    between atoms: N2_12  and  C14_17 
REMARK    9  A    between atoms: C10_13  and  C11_14 
REMARK   10  A    between atoms: C11_14  and  C12_15 
REMARK   11  A    between atoms: C17_22  and  N4_23 
REMARK   12  A    between atoms: C20_35  and  C21_36 
ROOT
HETATM    1  C14 UNL     1      13.941  40.284 -11.451  1.00  0.00     0.055 A 
HETATM    2  C15 UNL     1      13.776  38.909 -11.138  1.00  0.00     0.064 A 
HETATM    3  C16 UNL     1      13.868  37.945 -12.081  1.00  0.00     0.082 A 
HETATM    4  N3  UNL     1      13.710  36.640 -11.777  1.00  0.00    -0.190 N 
ATOM      5  H3  UNL     1      13.517  36.377 -10.811  1.00  0.00     0.184 HD
HETATM    6  C17 UNL     1      13.800  35.674 -12.712  1.00  0.00     0.678 A 
HETATM    7  N5  UNL     1      14.055  36.044 -13.980  1.00  0.00    -0.175 N 
ATOM      8  H5  UNL     1      14.126  35.325 -14.701  1.00  0.00     0.186 HD
HETATM    9  C18 UNL     1      14.220  37.342 -14.329  1.00  0.00     0.144 A 
HETATM   10  N6  UNL     1      14.467  37.704 -15.556  1.00  0.00    -0.383 N 
ATOM     11  H61 UNL     1      14.592  38.681 -15.819  1.00  0.00     0.157 HD
ATOM     12  H62 UNL     1      14.534  36.967 -16.258  1.00  0.00     0.157 HD
HETATM   13  C19 UNL     1      14.129  38.345 -13.373  1.00  0.00     0.104 A 
HETATM   14  N7  UNL     1      14.284  39.637 -13.673  1.00  0.00    -0.353 N 
ATOM     15  H7  UNL     1      14.476  39.890 -14.642  1.00  0.00     0.166 HD
HETATM   16  C20 UNL     1      14.196  40.644 -12.740  1.00  0.00     0.036 A 
ENDROOT
BRANCH   1  17
HETATM   17  N2  UNL     1      13.883  41.199 -10.383  1.00  0.00    -0.374 N 
BRANCH  17  18
HETATM   18  C9  UNL     1      12.534  41.752 -10.120  1.00  0.00     0.180 C 
BRANCH  18  19
HETATM   19  C8  UNL     1      12.051  41.464  -8.770  1.00  0.00     0.031 A 
HETATM   20  C7  UNL     1      12.102  40.272  -8.103  1.00  0.00     0.075 A 
HETATM   21  C6  UNL     1      11.607  40.099  -6.806  1.00  0.00     0.107 A 
HETATM   22  N1  UNL     1      11.718  38.951  -6.316  1.00  0.00    -0.356 N 
HETATM   23  N9  UNL     1      11.065  41.164  -6.215  1.00  0.00    -0.339 N 
ATOM     24  H1  UNL     1      12.167  38.305  -6.966  1.00  0.00     0.166 HD
HETATM   25  C23 UNL     1      11.007  42.333  -6.849  1.00  0.00     0.182 A 
ATOM     26  H9  UNL     1      10.691  41.082  -5.270  1.00  0.00     0.168 HD
HETATM   27  N8  UNL     1      11.477  42.502  -8.085  1.00  0.00    -0.354 N 
ATOM     28  H8  UNL     1      11.407  43.419  -8.528  1.00  0.00     0.166 HD
BRANCH  22  29
HETATM   29  C5  UNL     1      11.386  38.323  -5.107  1.00  0.00     0.063 C 
BRANCH  29  30
HETATM   30  C4  UNL     1      10.001  38.675  -4.659  1.00  0.00     0.048 C 
BRANCH  30  31
HETATM   31  C3  UNL     1       9.865  38.753  -3.174  1.00  0.00     0.031 C 
BRANCH  31  32
HETATM   32  C2  UNL     1       9.336  37.518  -2.579  1.00  0.00    -0.037 C 
HETATM   33  C1  UNL     1       9.923  36.861  -1.616  1.00  0.00     0.007 C 
ENDBRANCH  31  32
ENDBRANCH  30  31
ENDBRANCH  29  30
ENDBRANCH  22  29
ENDBRANCH  18  19
ENDBRANCH  17  18
BRANCH  17  34
HETATM   34  C10 UNL     1      14.876  41.621  -9.451  1.00  0.00     0.123 C 
BRANCH  34  35
HETATM   35  C11 UNL     1      15.877  42.620  -9.890  1.00  0.00     0.019 C 
BRANCH  35  36
HETATM   36  C12 UNL     1      16.260  43.590  -8.783  1.00  0.00    -0.003 C 
HETATM   37  C13 UNL     1      15.106  43.589  -7.780  1.00  0.00     0.005 C 
ENDBRANCH  35  36
ENDBRANCH  34  35
ENDBRANCH  17  34
ENDBRANCH   1  17
BRANCH  16  38
HETATM   38  C21 UNL     1      14.308  42.052 -13.233  1.00  0.00     0.055 C 
HETATM   39  C22 UNL     1      12.954  42.545 -13.732  1.00  0.00     0.011 C 
ENDBRANCH  16  38
BRANCH   6  40
HETATM   40  N4  UNL     1      13.651  34.448 -12.421  1.00  0.00    -0.234 N 
ATOM     41  H42 UNL     1      13.888  34.108 -11.488  1.00  0.00     0.174 HD
ATOM     42  H41 UNL     1      13.296  33.775 -13.100  1.00  0.00     0.174 HD
ENDBRANCH   6  40
TORSDOF 12
ENDMDL
MODEL 5
REMARK VINA RESULT: -7.514943373      1.991      2.814
REMARK  12 active torsions:
REMARK  status: ('A' for Active; 'I' for Inactive)
REMARK    1  A    between atoms: C2_2  and  C3_3 
REMARK    2  A    between atoms: C3_3  and  C4_4 
REMARK    3  A    between atoms: C4_4  and  C5_5 
REMARK    4  A    between atoms: C5_5  and  N1_6 
REMARK    5  A    between atoms: C8_10  and  C9_11 
REMARK    6  A    between atoms: C9_11  and  N2_12 
REMARK    7  A    between atoms: N2_12  and  C10_13 
REMARK    8  A    between atoms: N2_12  and  C14_17 
REMARK    9  A    between atoms: C10_13  and  C11_14 
REMARK   10  A    between atoms: C11_14  and  C12_15 
REMARK   11  A    between atoms: C17_22  and  N4_23 
REMARK   12  A    between atoms: C20_35  and  C21_36 
ROOT
HETATM    1  C14 UNL     1      13.733  40.068 -10.130  1.00  0.00     0.055 A 
HETATM    2  C15 UNL     1      13.218  38.788 -10.460  1.00  0.00     0.064 A 
HETATM    3  C16 UNL     1      13.932  37.893 -11.180  1.00  0.00     0.082 A 
HETATM    4  N3  UNL     1      13.437  36.678 -11.490  1.00  0.00    -0.190 N 
ATOM      5  H3  UNL     1      12.500  36.430 -11.174  1.00  0.00     0.184 HD
HETATM    6  C17 UNL     1      14.144  35.782 -12.207  1.00  0.00     0.678 A 
HETATM    7  N5  UNL     1      15.377  36.131 -12.615  1.00  0.00    -0.175 N 
ATOM      8  H5  UNL     1      15.926  35.464 -13.159  1.00  0.00     0.186 HD
HETATM    9  C18 UNL     1      15.913  37.341 -12.326  1.00  0.00     0.144 A 
HETATM   10  N6  UNL     1      17.106  37.682 -12.719  1.00  0.00    -0.383 N 
ATOM     11  H61 UNL     1      17.510  38.593 -12.501  1.00  0.00     0.157 HD
ATOM     12  H62 UNL     1      17.636  36.998 -13.261  1.00  0.00     0.157 HD
HETATM   13  C19 UNL     1      15.193  38.270 -11.588  1.00  0.00     0.104 A 
HETATM   14  N7  UNL     1      15.680  39.475 -11.281  1.00  0.00    -0.353 N 
ATOM     15  H7  UNL     1      16.618  39.714 -11.603  1.00  0.00     0.166 HD
HETATM   16  C20 UNL     1      14.982  40.410 -10.552  1.00  0.00     0.036 A 
ENDROOT
BRANCH   1  17
HETATM   17  N2  UNL     1      12.927  40.899  -9.328  1.00  0.00    -0.374 N 
BRANCH  17  18
HETATM   18  C9  UNL     1      13.352  40.985  -7.911  1.00  0.00     0.180 C 
BRANCH  18  19
HETATM   19  C8  UNL     1      12.471  40.251  -7.004  1.00  0.00     0.031 A 
HETATM   20  C7  UNL     1      11.468  40.757  -6.227  1.00  0.00     0.075 A 
HETATM   21  C6  UNL     1      10.678  39.965  -5.385  1.00  0.00     0.107 A 
HETATM   22  N1  UNL     1       9.793  40.562  -4.727  1.00  0.00    -0.356 N 
HETATM   23  N9  UNL     1      10.938  38.659  -5.360  1.00  0.00    -0.339 N 
ATOM     24  H1  UNL     1       9.793  41.564  -4.918  1.00  0.00     0.166 HD
HETATM   25  C23 UNL     1      11.912  38.148  -6.111  1.00  0.00     0.182 A 
ATOM     26  H9  UNL     1      10.388  38.045  -4.761  1.00  0.00     0.168 HD
HETATM   27  N8  UNL     1      12.667  38.898  -6.913  1.00  0.00    -0.354 N 
ATOM     28  H8  UNL     1      13.402  38.458  -7.468  1.00  0.00     0.166 HD
BRANCH  22  29
HETATM   29  C5  UNL     1       8.805  40.211  -3.798  1.00  0.00     0.063 C 
BRANCH  29  30
HETATM   30  C4  UNL     1       8.151  41.416  -3.197  1.00  0.00     0.048 C 
BRANCH  30  31
HETATM   31  C3  UNL     1       8.789  41.856  -1.918  1.00  0.00     0.031 C 
BRANCH  31  32
HETATM   32  C2  UNL     1       8.506  43.259  -1.589  1.00  0.00    -0.037 C 
HETATM   33  C1  UNL     1       8.828  44.268  -2.353  1.00  0.00     0.007 C 
ENDBRANCH  31  32
ENDBRANCH  30  31
ENDBRANCH  29  30
ENDBRANCH  22  29
ENDBRANCH  18  19
ENDBRANCH  17  18
BRANCH  17  34
HETATM   34  C10 UNL     1      11.827  41.743  -9.656  1.00  0.00     0.123 C 
BRANCH  34  35
HETATM   35  C11 UNL     1      11.940  43.193  -9.374  1.00  0.00     0.019 C 
BRANCH  35  36
HETATM   36  C12 UNL     1      12.778  43.927 -10.409  1.00  0.00    -0.003 C 
HETATM   37  C13 UNL     1      12.392  43.354 -11.772  1.00  0.00     0.005 C 
ENDBRANCH  35  36
ENDBRANCH  34  35
ENDBRANCH  17  34
ENDBRANCH   1  17
BRANCH  16  38
HETATM   38  C21 UNL     1      15.621  41.747 -10.355  1.00  0.00     0.055 C 
HETATM   39  C22 UNL     1      17.110  41.673 -10.678  1.00  0.00     0.011 C 
ENDBRANCH  16  38
BRANCH   6  40
HETATM   40  N4  UNL     1      13.673  34.639 -12.496  1.00  0.00    -0.234 N 
ATOM     41  H42 UNL     1      12.735  34.553 -12.888  1.00  0.00     0.174 HD
ATOM     42  H41 UNL     1      14.210  33.785 -12.348  1.00  0.00     0.174 HD
ENDBRANCH   6  40
TORSDOF 12
ENDMDL
