MODEL 1
REMARK VINA RESULT: -8.377599606      0.000      0.000
REMARK  15 active torsions:
REMARK  status: ('A' for Active; 'I' for Inactive)
REMARK    1  A    between atoms: C2_2  and  C3_3 
REMARK    2  A    between atoms: C3_3  and  C4_4 
REMARK    3  A    between atoms: C4_4  and  C5_5 
REMARK    4  A    between atoms: C5_5  and  C6_6 
REMARK    5  A    between atoms: C6_6  and  C7_7 
REMARK    6  A    between atoms: C7_7  and  C8_8 
REMARK    7  A    between atoms: C8_8  and  C9_9 
REMARK    8  A    between atoms: C9_9  and  N1_10 
REMARK    9  A    between atoms: N1_10  and  C10_12 
REMARK   10  A    between atoms: C11_15  and  N3_16 
REMARK   11  A    between atoms: N3_16  and  C13_18 
REMARK   12  A    between atoms: C13_18  and  C14_19 
REMARK   13  A    between atoms: C18_23  and  C19_24 
REMARK   14  A    between atoms: C19_24  and  O1_25 
REMARK   15  A    between atoms: C22_35  and  N6_36 
ROOT
HETATM    1  C10 UNL     1      11.932  38.982  -6.654  1.00  0.00     0.707 A 
HETATM    2  N2  UNL     1      12.689  38.457  -7.631  1.00  0.00    -0.021 N 
ATOM      3  H2  UNL     1      13.069  37.518  -7.508  1.00  0.00     0.203 HD
HETATM    4  C11 UNL     1      12.964  39.120  -8.760  1.00  0.00     0.709 A 
HETATM    5  N5  UNL     1      12.460  40.378  -8.933  1.00  0.00    -0.022 N 
ATOM      6  H5  UNL     1      12.660  40.895  -9.789  1.00  0.00     0.203 HD
HETATM    7  C22 UNL     1      11.699  40.935  -7.975  1.00  0.00     0.705 A 
HETATM    8  N7  UNL     1      11.451  40.231  -6.863  1.00  0.00    -0.022 N 
ATOM      9  H7  UNL     1      10.873  40.657  -6.139  1.00  0.00     0.203 HD
ENDROOT
BRANCH   4  10
HETATM   10  N3  UNL     1      13.797  38.535  -9.737  1.00  0.00    -0.215 N 
HETATM   11  C12 UNL     1      14.469  37.290  -9.447  1.00  0.00     0.169 C 
BRANCH  10  12
HETATM   12  C13 UNL     1      13.970  39.152 -11.019  1.00  0.00     0.197 C 
BRANCH  12  13
HETATM   13  C14 UNL     1      13.846  38.118 -12.089  1.00  0.00     0.031 A 
HETATM   14  C15 UNL     1      14.155  38.400 -13.401  1.00  0.00     0.041 A 
HETATM   15  C16 UNL     1      14.024  37.412 -14.382  1.00  0.00     0.008 A 
HETATM   16  C17 UNL     1      14.233  37.340 -15.742  1.00  0.00     0.049 A 
HETATM   17  C20 UNL     1      13.582  36.140 -14.035  1.00  0.00     0.153 A 
HETATM   18  C18 UNL     1      13.919  36.061 -16.164  1.00  0.00     0.078 A 
HETATM   19  O2  UNL     1      13.538  35.397 -15.101  1.00  0.00    -0.306 OA
HETATM   20  C21 UNL     1      13.287  35.908 -12.713  1.00  0.00     0.280 A 
HETATM   21  O3  UNL     1      12.887  34.771 -12.356  1.00  0.00    -0.265 OA
HETATM   22  N4  UNL     1      13.421  36.882 -11.776  1.00  0.00    -0.323 N 
ATOM     23  H4  UNL     1      13.191  36.670 -10.805  1.00  0.00     0.169 HD
BRANCH  18  24
HETATM   24  C19 UNL     1      13.998  35.538 -17.577  1.00  0.00     0.229 C 
BRANCH  24  25
HETATM   25  O1  UNL     1      13.491  34.254 -17.638  1.00  0.00    -0.394 OA
ATOM     26  H1  UNL     1      14.180  33.641 -17.864  1.00  0.00     0.209 HD
ENDBRANCH  24  25
ENDBRANCH  18  24
ENDBRANCH  12  13
ENDBRANCH  10  12
ENDBRANCH   4  10
BRANCH   1  27
HETATM   27  N1  UNL     1      11.661  38.354  -5.605  1.00  0.00    -0.225 N 
ATOM     28  H1  UNL     1      11.932  37.371  -5.581  1.00  0.00     0.177 HD
BRANCH  27  29
HETATM   29  C9  UNL     1      11.017  38.861  -4.444  1.00  0.00     0.138 C 
BRANCH  29  30
HETATM   30  C8  UNL     1       9.554  38.327  -4.584  1.00  0.00     0.020 C 
BRANCH  30  31
HETATM   31  C7  UNL     1       8.783  39.064  -3.540  1.00  0.00     0.002 C 
BRANCH  31  32
HETATM   32  C6  UNL     1       9.606  40.173  -2.937  1.00  0.00     0.000 C 
BRANCH  32  33
HETATM   33  C5  UNL     1       9.489  40.121  -1.433  1.00  0.00     0.000 C 
BRANCH  33  34
HETATM   34  C4  UNL     1      10.416  39.108  -0.808  1.00  0.00     0.000 C 
BRANCH  34  35
HETATM   35  C3  UNL     1       9.692  38.302   0.235  1.00  0.00    -0.000 C 
BRANCH  35  36
HETATM   36  C2  UNL     1       8.911  37.158  -0.428  1.00  0.00    -0.005 C 
HETATM   37  C1  UNL     1       9.884  36.376  -1.265  1.00  0.00     0.005 C 
ENDBRANCH  35  36
ENDBRANCH  34  35
ENDBRANCH  33  34
ENDBRANCH  32  33
ENDBRANCH  31  32
ENDBRANCH  30  31
ENDBRANCH  29  30
ENDBRANCH  27  29
ENDBRANCH   1  27
BRANCH   7  38
HETATM   38  N6  UNL     1      11.229  42.116  -8.132  1.00  0.00    -0.234 N 
ATOM     39  H62 UNL     1      11.262  42.582  -9.038  1.00  0.00     0.174 HD
ATOM     40  H61 UNL     1      10.808  42.608  -7.344  1.00  0.00     0.174 HD
ENDBRANCH   7  38
TORSDOF 15
ENDMDL
MODEL 2
REMARK VINA RESULT: -8.209773006      2.089      3.672
REMARK  15 active torsions:
REMARK  status: ('A' for Active; 'I' for Inactive)
REMARK    1  A    between atoms: C2_2  and  C3_3 
REMARK    2  A    between atoms: C3_3  and  C4_4 
REMARK    3  A    between atoms: C4_4  and  C5_5 
REMARK    4  A    between atoms: C5_5  and  C6_6 
REMARK    5  A    between atoms: C6_6  and  C7_7 
REMARK    6  A    between atoms: C7_7  and  C8_8 
REMARK    7  A    between atoms: C8_8  and  C9_9 
REMARK    8  A    between atoms: C9_9  and  N1_10 
REMARK    9  A    between atoms: N1_10  and  C10_12 
REMARK   10  A    between atoms: C11_15  and  N3_16 
REMARK   11  A    between atoms: N3_16  and  C13_18 
REMARK   12  A    between atoms: C13_18  and  C14_19 
REMARK   13  A    between atoms: C18_23  and  C19_24 
REMARK   14  A    between atoms: C19_24  and  O1_25 
REMARK   15  A    between atoms: C22_35  and  N6_36 
ROOT
HETATM    1  C10 UNL     1      10.359  40.862  -5.410  1.00  0.00     0.707 A 
HETATM    2  N2  UNL     1      10.887  41.510  -6.461  1.00  0.00    -0.021 N 
ATOM      3  H2  UNL     1      10.570  42.459  -6.663  1.00  0.00     0.203 HD
HETATM    4  C11 UNL     1      11.812  40.958  -7.254  1.00  0.00     0.709 A 
HETATM    5  N5  UNL     1      12.242  39.688  -6.991  1.00  0.00    -0.022 N 
ATOM      6  H5  UNL     1      12.947  39.255  -7.587  1.00  0.00     0.203 HD
HETATM    7  C22 UNL     1      11.735  39.010  -5.948  1.00  0.00     0.705 A 
HETATM    8  N7  UNL     1      10.811  39.605  -5.183  1.00  0.00    -0.022 N 
ATOM      9  H7  UNL     1      10.429  39.087  -4.392  1.00  0.00     0.203 HD
ENDROOT
BRANCH   4  10
HETATM   10  N3  UNL     1      12.303  41.672  -8.368  1.00  0.00    -0.215 N 
HETATM   11  C12 UNL     1      11.419  42.552  -9.096  1.00  0.00     0.169 C 
BRANCH  10  12
HETATM   12  C13 UNL     1      13.672  41.548  -8.773  1.00  0.00     0.197 C 
BRANCH  12  13
HETATM   13  C14 UNL     1      13.758  40.663  -9.972  1.00  0.00     0.031 A 
HETATM   14  C15 UNL     1      13.493  39.314  -9.892  1.00  0.00     0.041 A 
HETATM   15  C16 UNL     1      13.587  38.510 -11.033  1.00  0.00     0.008 A 
HETATM   16  C17 UNL     1      13.402  37.174 -11.314  1.00  0.00     0.049 A 
HETATM   17  C20 UNL     1      13.948  39.071 -12.252  1.00  0.00     0.153 A 
HETATM   18  C18 UNL     1      13.651  36.973 -12.659  1.00  0.00     0.078 A 
HETATM   19  O2  UNL     1      13.971  38.141 -13.161  1.00  0.00    -0.306 OA
HETATM   20  C21 UNL     1      14.202  40.421 -12.282  1.00  0.00     0.280 A 
HETATM   21  O3  UNL     1      14.529  40.969 -13.364  1.00  0.00    -0.265 OA
HETATM   22  N4  UNL     1      14.105  41.185 -11.162  1.00  0.00    -0.323 N 
ATOM     23  H4  UNL     1      14.302  42.183 -11.225  1.00  0.00     0.169 HD
BRANCH  18  24
HETATM   24  C19 UNL     1      13.570  35.663 -13.401  1.00  0.00     0.229 C 
BRANCH  24  25
HETATM   25  O1  UNL     1      13.182  34.653 -12.542  1.00  0.00    -0.394 OA
ATOM     26  H1  UNL     1      13.337  33.805 -12.943  1.00  0.00     0.209 HD
ENDBRANCH  24  25
ENDBRANCH  18  24
ENDBRANCH  12  13
ENDBRANCH  10  12
ENDBRANCH   4  10
BRANCH   1  27
HETATM   27  N1  UNL     1       9.505  41.385  -4.659  1.00  0.00    -0.225 N 
ATOM     28  H1  UNL     1       9.383  40.955  -3.742  1.00  0.00     0.177 HD
BRANCH  27  29
HETATM   29  C9  UNL     1       8.688  42.513  -4.942  1.00  0.00     0.138 C 
BRANCH  29  30
HETATM   30  C8  UNL     1       8.149  42.927  -3.533  1.00  0.00     0.020 C 
BRANCH  30  31
HETATM   31  C7  UNL     1       8.418  41.743  -2.665  1.00  0.00     0.002 C 
BRANCH  31  32
HETATM   32  C6  UNL     1       8.886  42.165  -1.297  1.00  0.00     0.000 C 
BRANCH  32  33
HETATM   33  C5  UNL     1      10.001  41.251  -0.846  1.00  0.00     0.000 C 
BRANCH  33  34
HETATM   34  C4  UNL     1       9.846  39.841  -1.359  1.00  0.00     0.000 C 
BRANCH  34  35
HETATM   35  C3  UNL     1      10.010  38.851  -0.239  1.00  0.00    -0.000 C 
BRANCH  35  36
HETATM   36  C2  UNL     1       9.486  37.474  -0.671  1.00  0.00    -0.005 C 
HETATM   37  C1  UNL     1       9.597  37.399  -2.167  1.00  0.00     0.005 C 
ENDBRANCH  35  36
ENDBRANCH  34  35
ENDBRANCH  33  34
ENDBRANCH  32  33
ENDBRANCH  31  32
ENDBRANCH  30  31
ENDBRANCH  29  30
ENDBRANCH  27  29
ENDBRANCH   1  27
BRANCH   7  38
HETATM   38  N6  UNL     1      12.132  37.817  -5.702  1.00  0.00    -0.234 N 
ATOM     39  H62 UNL     1      13.014  37.643  -5.220  1.00  0.00     0.174 HD
ATOM     40  H61 UNL     1      11.564  37.019  -5.986  1.00  0.00     0.174 HD
ENDBRANCH   7  38
TORSDOF 15
ENDMDL
MODEL 3
REMARK VINA RESULT: -8.161892371      2.056      3.322
REMARK  15 active torsions:
REMARK  status: ('A' for Active; 'I' for Inactive)
REMARK    1  A    between atoms: C2_2  and  C3_3 
REMARK    2  A    between atoms: C3_3  and  C4_4 
REMARK    3  A    between atoms: C4_4  and  C5_5 
REMARK    4  A    between atoms: C5_5  and  C6_6 
REMARK    5  A    between atoms: C6_6  and  C7_7 
REMARK    6  A    between atoms: C7_7  and  C8_8 
REMARK    7  A    between atoms: C8_8  and  C9_9 
REMARK    8  A    between atoms: C9_9  and  N1_10 
REMARK    9  A    between atoms: N1_10  and  C10_12 
REMARK   10  A    between atoms: C11_15  and  N3_16 
REMARK   11  A    between atoms: N3_16  and  C13_18 
REMARK   12  A    between atoms: C13_18  and  C14_19 
REMARK   13  A    between atoms: C18_23  and  C19_24 
REMARK   14  A    between atoms: C19_24  and  O1_25 
REMARK   15  A    between atoms: C22_35  and  N6_36 
ROOT
HETATM    1  C10 UNL     1      11.469  41.237  -6.566  1.00  0.00     0.707 A 
HETATM    2  N2  UNL     1      12.271  41.338  -7.638  1.00  0.00    -0.021 N 
ATOM      3  H2  UNL     1      13.001  40.639  -7.772  1.00  0.00     0.203 HD
HETATM    4  C11 UNL     1      12.146  42.321  -8.537  1.00  0.00     0.709 A 
HETATM    5  N5  UNL     1      11.171  43.261  -8.364  1.00  0.00    -0.022 N 
ATOM      6  H5  UNL     1      11.064  44.016  -9.042  1.00  0.00     0.203 HD
HETATM    7  C22 UNL     1      10.352  43.192  -7.302  1.00  0.00     0.705 A 
HETATM    8  N7  UNL     1      10.515  42.190  -6.430  1.00  0.00    -0.022 N 
ATOM      9  H7  UNL     1       9.890  42.140  -5.625  1.00  0.00     0.203 HD
ENDROOT
BRANCH   4  10
HETATM   10  N3  UNL     1      13.042  42.399  -9.624  1.00  0.00    -0.215 N 
HETATM   11  C12 UNL     1      12.661  43.129 -10.811  1.00  0.00     0.169 C 
BRANCH  10  12
HETATM   12  C13 UNL     1      14.332  41.778  -9.558  1.00  0.00     0.197 C 
BRANCH  12  13
HETATM   13  C14 UNL     1      14.205  40.329  -9.895  1.00  0.00     0.031 A 
HETATM   14  C15 UNL     1      13.958  39.909 -11.183  1.00  0.00     0.041 A 
HETATM   15  C16 UNL     1      13.840  38.544 -11.467  1.00  0.00     0.008 A 
HETATM   16  C17 UNL     1      13.603  37.789 -12.595  1.00  0.00     0.049 A 
HETATM   17  C20 UNL     1      13.970  37.607 -10.448  1.00  0.00     0.153 A 
HETATM   18  C18 UNL     1      13.598  36.455 -12.233  1.00  0.00     0.078 A 
HETATM   19  O2  UNL     1      13.821  36.413 -10.943  1.00  0.00    -0.306 OA
HETATM   20  C21 UNL     1      14.216  38.076  -9.180  1.00  0.00     0.280 A 
HETATM   21  O3  UNL     1      14.344  37.263  -8.230  1.00  0.00    -0.265 OA
HETATM   22  N4  UNL     1      14.328  39.406  -8.926  1.00  0.00    -0.323 N 
ATOM     23  H4  UNL     1      14.510  39.714  -7.970  1.00  0.00     0.169 HD
BRANCH  18  24
HETATM   24  C19 UNL     1      13.374  35.277 -13.149  1.00  0.00     0.229 C 
BRANCH  24  25
HETATM   25  O1  UNL     1      13.124  34.138 -12.409  1.00  0.00    -0.394 OA
ATOM     26  H1  UNL     1      13.940  33.771 -12.088  1.00  0.00     0.209 HD
ENDBRANCH  24  25
ENDBRANCH  18  24
ENDBRANCH  12  13
ENDBRANCH  10  12
ENDBRANCH   4  10
BRANCH   1  27
HETATM   27  N1  UNL     1      11.575  40.308  -5.733  1.00  0.00    -0.225 N 
ATOM     28  H1  UNL     1      12.010  40.544  -4.842  1.00  0.00     0.177 HD
BRANCH  27  29
HETATM   29  C9  UNL     1      11.155  38.960  -5.894  1.00  0.00     0.138 C 
BRANCH  29  30
HETATM   30  C8  UNL     1      10.818  38.513  -4.434  1.00  0.00     0.020 C 
BRANCH  30  31
HETATM   31  C7  UNL     1       9.430  39.007  -4.201  1.00  0.00     0.002 C 
BRANCH  31  32
HETATM   32  C6  UNL     1       8.976  38.715  -2.793  1.00  0.00     0.000 C 
BRANCH  32  33
HETATM   33  C5  UNL     1       9.431  37.330  -2.399  1.00  0.00     0.000 C 
BRANCH  33  34
HETATM   34  C4  UNL     1       9.815  37.232  -0.944  1.00  0.00     0.000 C 
BRANCH  34  35
HETATM   35  C3  UNL     1      10.361  38.544  -0.451  1.00  0.00    -0.000 C 
BRANCH  35  36
HETATM   36  C2  UNL     1       9.909  38.795   0.994  1.00  0.00    -0.005 C 
HETATM   37  C1  UNL     1       8.580  38.118   1.174  1.00  0.00     0.005 C 
ENDBRANCH  35  36
ENDBRANCH  34  35
ENDBRANCH  33  34
ENDBRANCH  32  33
ENDBRANCH  31  32
ENDBRANCH  30  31
ENDBRANCH  29  30
ENDBRANCH  27  29
ENDBRANCH   1  27
BRANCH   7  38
HETATM   38  N6  UNL     1       9.439  44.075  -7.135  1.00  0.00    -0.234 N 
ATOM     39  H62 UNL     1       8.451  43.823  -7.150  1.00  0.00     0.174 HD
ATOM     40  H61 UNL     1       9.692  45.051  -6.981  1.00  0.00     0.174 HD
ENDBRANCH   7  38
TORSDOF 15
ENDMDL
MODEL 4
REMARK VINA RESULT: -8.155237834      1.346      1.503
REMARK  15 active torsions:
REMARK  status: ('A' for Active; 'I' for Inactive)
REMARK    1  A    between atoms: C2_2  and  C3_3 
REMARK    2  A    between atoms: C3_3  and  C4_4 
REMARK    3  A    between atoms: C4_4  and  C5_5 
REMARK    4  A    between atoms: C5_5  and  C6_6 
REMARK    5  A    between atoms: C6_6  and  C7_7 
REMARK    6  A    between atoms: C7_7  and  C8_8 
REMARK    7  A    between atoms: C8_8  and  C9_9 
REMARK    8  A    between atoms: C9_9  and  N1_10 
REMARK    9  A    between atoms: N1_10  and  C10_12 
REMARK   10  A    between atoms: C11_15  and  N3_16 
REMARK   11  A    between atoms: N3_16  and  C13_18 
REMARK   12  A    between atoms: C13_18  and  C14_19 
REMARK   13  A    between atoms: C18_23  and  C19_24 
REMARK   14  A    between atoms: C19_24  and  O1_25 
REMARK   15  A    between atoms: C22_35  and  N6_36 
ROOT
HETATM    1  C10 UNL     1      12.087  39.086  -6.708  1.00  0.00     0.707 A 
HETATM    2  N2  UNL     1      12.899  38.555  -7.636  1.00  0.00    -0.021 N 
ATOM      3  H2  UNL     1      13.346  37.659  -7.442  1.00  0.00     0.203 HD
HETATM    4  C11 UNL     1      13.142  39.157  -8.806  1.00  0.00     0.709 A 
HETATM    5  N5  UNL     1      12.547  40.357  -9.073  1.00  0.00    -0.022 N 
ATOM      6  H5  UNL     1      12.723  40.827  -9.961  1.00  0.00     0.203 HD
HETATM    7  C22 UNL     1      11.730  40.919  -8.166  1.00  0.00     0.705 A 
HETATM    8  N7  UNL     1      11.516  40.277  -7.011  1.00  0.00    -0.022 N 
ATOM      9  H7  UNL     1      10.895  40.706  -6.326  1.00  0.00     0.203 HD
ENDROOT
BRANCH   4  10
HETATM   10  N3  UNL     1      14.035  38.571  -9.728  1.00  0.00    -0.215 N 
HETATM   11  C12 UNL     1      14.347  37.164  -9.623  1.00  0.00     0.169 C 
BRANCH  10  12
HETATM   12  C13 UNL     1      14.622  39.351 -10.777  1.00  0.00     0.197 C 
BRANCH  12  13
HETATM   13  C14 UNL     1      14.934  38.467 -11.939  1.00  0.00     0.031 A 
HETATM   14  C15 UNL     1      13.963  38.098 -12.843  1.00  0.00     0.041 A 
HETATM   15  C16 UNL     1      14.285  37.265 -13.920  1.00  0.00     0.008 A 
HETATM   16  C17 UNL     1      13.597  36.711 -14.978  1.00  0.00     0.049 A 
HETATM   17  C20 UNL     1      15.588  36.806 -14.079  1.00  0.00     0.153 A 
HETATM   18  C18 UNL     1      14.482  35.956 -15.725  1.00  0.00     0.078 A 
HETATM   19  O2  UNL     1      15.649  36.053 -15.138  1.00  0.00    -0.306 OA
HETATM   20  C21 UNL     1      16.521  37.203 -13.152  1.00  0.00     0.280 A 
HETATM   21  O3  UNL     1      17.710  36.814 -13.261  1.00  0.00    -0.265 OA
HETATM   22  N4  UNL     1      16.187  38.012 -12.113  1.00  0.00    -0.323 N 
ATOM     23  H4  UNL     1      16.909  38.284 -11.445  1.00  0.00     0.169 HD
BRANCH  18  24
HETATM   24  C19 UNL     1      14.160  35.171 -16.972  1.00  0.00     0.229 C 
BRANCH  24  25
HETATM   25  O1  UNL     1      13.539  33.983 -16.641  1.00  0.00    -0.394 OA
ATOM     26  H1  UNL     1      14.064  33.247 -16.931  1.00  0.00     0.209 HD
ENDBRANCH  24  25
ENDBRANCH  18  24
ENDBRANCH  12  13
ENDBRANCH  10  12
ENDBRANCH   4  10
BRANCH   1  27
HETATM   27  N1  UNL     1      11.846  38.514  -5.620  1.00  0.00    -0.225 N 
ATOM     28  H1  UNL     1      12.654  38.197  -5.086  1.00  0.00     0.177 HD
BRANCH  27  29
HETATM   29  C9  UNL     1      10.570  38.259  -5.049  1.00  0.00     0.138 C 
BRANCH  29  30
HETATM   30  C8  UNL     1      10.603  39.081  -3.718  1.00  0.00     0.020 C 
BRANCH  30  31
HETATM   31  C7  UNL     1       9.172  39.395  -3.435  1.00  0.00     0.002 C 
BRANCH  31  32
HETATM   32  C6  UNL     1       9.047  40.443  -2.359  1.00  0.00     0.000 C 
BRANCH  32  33
HETATM   33  C5  UNL     1      10.170  40.273  -1.363  1.00  0.00     0.000 C 
BRANCH  33  34
HETATM   34  C4  UNL     1       9.729  39.586  -0.095  1.00  0.00     0.000 C 
BRANCH  34  35
HETATM   35  C3  UNL     1      10.144  38.140  -0.107  1.00  0.00    -0.000 C 
BRANCH  35  36
HETATM   36  C2  UNL     1       8.930  37.244  -0.391  1.00  0.00    -0.005 C 
HETATM   37  C1  UNL     1       9.409  36.087  -1.219  1.00  0.00     0.005 C 
ENDBRANCH  35  36
ENDBRANCH  34  35
ENDBRANCH  33  34
ENDBRANCH  32  33
ENDBRANCH  31  32
ENDBRANCH  30  31
ENDBRANCH  29  30
ENDBRANCH  27  29
ENDBRANCH   1  27
BRANCH   7  38
HETATM   38  N6  UNL     1      11.174  42.046  -8.412  1.00  0.00    -0.234 N 
ATOM     39  H62 UNL     1      10.937  42.322  -9.365  1.00  0.00     0.174 HD
ATOM     40  H61 UNL     1      10.956  42.687  -7.649  1.00  0.00     0.174 HD
ENDBRANCH   7  38
TORSDOF 15
ENDMDL
MODEL 5
REMARK VINA RESULT: -8.144503331      6.374     12.212
REMARK  15 active torsions:
REMARK  status: ('A' for Active; 'I' for Inactive)
REMARK    1  A    between atoms: C2_2  and  C3_3 
REMARK    2  A    between atoms: C3_3  and  C4_4 
REMARK    3  A    between atoms: C4_4  and  C5_5 
REMARK    4  A    between atoms: C5_5  and  C6_6 
REMARK    5  A    between atoms: C6_6  and  C7_7 
REMARK    6  A    between atoms: C7_7  and  C8_8 
REMARK    7  A    between atoms: C8_8  and  C9_9 
REMARK    8  A    between atoms: C9_9  and  N1_10 
REMARK    9  A    between atoms: N1_10  and  C10_12 
REMARK   10  A    between atoms: C11_15  and  N3_16 
REMARK   11  A    between atoms: N3_16  and  C13_18 
REMARK   12  A    between atoms: C13_18  and  C14_19 
REMARK   13  A    between atoms: C18_23  and  C19_24 
REMARK   14  A    between atoms: C19_24  and  O1_25 
REMARK   15  A    between atoms: C22_35  and  N6_36 
ROOT
HETATM    1  C10 UNL     1      10.623  38.683  -4.298  1.00  0.00     0.707 A 
HETATM    2  N2  UNL     1      10.079  39.896  -4.108  1.00  0.00    -0.021 N 
ATOM      3  H2  UNL     1      10.321  40.649  -4.753  1.00  0.00     0.203 HD
HETATM    4  C11 UNL     1       9.232  40.154  -3.106  1.00  0.00     0.709 A 
HETATM    5  N5  UNL     1       8.903  39.152  -2.238  1.00  0.00    -0.022 N 
ATOM      6  H5  UNL     1       8.258  39.334  -1.469  1.00  0.00     0.203 HD
HETATM    7  C22 UNL     1       9.429  37.926  -2.396  1.00  0.00     0.705 A 
HETATM    8  N7  UNL     1      10.272  37.717  -3.416  1.00  0.00    -0.022 N 
ATOM      9  H7  UNL     1      10.668  36.784  -3.533  1.00  0.00     0.203 HD
ENDROOT
BRANCH   4  10
HETATM   10  N3  UNL     1       8.722  41.458  -2.932  1.00  0.00    -0.215 N 
HETATM   11  C12 UNL     1       8.755  42.068  -1.623  1.00  0.00     0.169 C 
BRANCH  10  12
HETATM   12  C13 UNL     1       8.188  42.191  -4.042  1.00  0.00     0.197 C 
BRANCH  12  13
HETATM   13  C14 UNL     1       6.816  42.675  -3.706  1.00  0.00     0.031 A 
HETATM   14  C15 UNL     1       5.723  41.840  -3.765  1.00  0.00     0.041 A 
HETATM   15  C16 UNL     1       4.450  42.324  -3.448  1.00  0.00     0.008 A 
HETATM   16  C17 UNL     1       3.178  41.796  -3.401  1.00  0.00     0.049 A 
HETATM   17  C20 UNL     1       4.284  43.653  -3.073  1.00  0.00     0.153 A 
HETATM   18  C18 UNL     1       2.306  42.794  -3.009  1.00  0.00     0.078 A 
HETATM   19  O2  UNL     1       3.025  43.874  -2.829  1.00  0.00    -0.306 OA
HETATM   20  C21 UNL     1       5.405  44.446  -3.028  1.00  0.00     0.280 A 
HETATM   21  O3  UNL     1       5.299  45.652  -2.690  1.00  0.00    -0.265 OA
HETATM   22  N4  UNL     1       6.633  43.956  -3.340  1.00  0.00    -0.323 N 
ATOM     23  H4  UNL     1       7.440  44.578  -3.295  1.00  0.00     0.169 HD
BRANCH  18  24
HETATM   24  C19 UNL     1       0.814  42.662  -2.826  1.00  0.00     0.229 C 
BRANCH  24  25
HETATM   25  O1  UNL     1       0.507  41.420  -2.304  1.00  0.00    -0.394 OA
ATOM     26  H1  UNL     1      -0.318  41.111  -2.660  1.00  0.00     0.209 HD
ENDBRANCH  24  25
ENDBRANCH  18  24
ENDBRANCH  12  13
ENDBRANCH  10  12
ENDBRANCH   4  10
BRANCH   1  27
HETATM   27  N1  UNL     1      11.402  38.438  -5.246  1.00  0.00    -0.225 N 
ATOM     28  H1  UNL     1      12.017  37.632  -5.131  1.00  0.00     0.177 HD
BRANCH  27  29
HETATM   29  C9  UNL     1      11.526  39.159  -6.464  1.00  0.00     0.138 C 
BRANCH  29  30
HETATM   30  C8  UNL     1      12.701  38.428  -7.194  1.00  0.00     0.020 C 
BRANCH  30  31
HETATM   31  C7  UNL     1      12.889  39.193  -8.462  1.00  0.00     0.002 C 
BRANCH  31  32
HETATM   32  C6  UNL     1      13.851  38.490  -9.385  1.00  0.00     0.000 C 
BRANCH  32  33
HETATM   33  C5  UNL     1      13.817  39.153 -10.741  1.00  0.00     0.000 C 
BRANCH  33  34
HETATM   34  C4  UNL     1      13.659  38.167 -11.871  1.00  0.00     0.000 C 
BRANCH  34  35
HETATM   35  C3  UNL     1      13.434  36.780 -11.335  1.00  0.00    -0.000 C 
BRANCH  35  36
HETATM   36  C2  UNL     1      13.284  35.783 -12.494  1.00  0.00    -0.005 C 
HETATM   37  C1  UNL     1      13.668  36.501 -13.756  1.00  0.00     0.005 C 
ENDBRANCH  35  36
ENDBRANCH  34  35
ENDBRANCH  33  34
ENDBRANCH  32  33
ENDBRANCH  31  32
ENDBRANCH  30  31
ENDBRANCH  29  30
ENDBRANCH  27  29
ENDBRANCH   1  27
BRANCH   7  38
HETATM   38  N6  UNL     1       9.125  36.985  -1.582  1.00  0.00    -0.234 N 
ATOM     39  H62 UNL     1       8.236  36.984  -1.084  1.00  0.00     0.174 HD
ATOM     40  H61 UNL     1       9.777  36.216  -1.422  1.00  0.00     0.174 HD
ENDBRANCH   7  38
TORSDOF 15
ENDMDL
