MODEL 1
REMARK VINA RESULT: -8.458706308      0.000      0.000
REMARK  15 active torsions:
REMARK  status: ('A' for Active; 'I' for Inactive)
REMARK    1  A    between atoms: C3_4  and  C4_5 
REMARK    2  A    between atoms: C4_5  and  C5_6 
REMARK    3  A    between atoms: C6_7  and  C7_8 
REMARK    4  A    between atoms: C7_8  and  C8_9 
REMARK    5  A    between atoms: C9_10  and  C10_11 
REMARK    6  A    between atoms: C10_11  and  C11_12 
REMARK    7  A    between atoms: C11_12  and  C12_13 
REMARK    8  A    between atoms: C12_13  and  C13_14 
REMARK    9  A    between atoms: C13_14  and  C14_15 
REMARK   10  A    between atoms: C14_15  and  C15_16 
REMARK   11  A    between atoms: C15_16  and  O2_17 
REMARK   12  A    between atoms: C15_16  and  C16_19 
REMARK   13  A    between atoms: C17_20  and  C18_21 
REMARK   14  A    between atoms: C21_27  and  O3_28 
REMARK   15  A    between atoms: C22_30  and  O4_31 
ROOT
HETATM    1  C14 UNL     1      11.529  40.510  -7.078  1.00  0.00     0.036 C 
ENDROOT
BRANCH   1   2
HETATM    2  C13 UNL     1      12.717  41.451  -7.206  1.00  0.00     0.003 C 
BRANCH   2   3
HETATM    3  C12 UNL     1      12.852  41.955  -8.623  1.00  0.00     0.000 C 
BRANCH   3   4
HETATM    4  C11 UNL     1      14.209  41.606  -9.146  1.00  0.00     0.004 C 
BRANCH   4   5
HETATM    5  C10 UNL     1      14.148  41.189 -10.583  1.00  0.00     0.027 C 
BRANCH   5   6
HETATM    6  C9  UNL     1      13.580  39.822 -10.634  1.00  0.00    -0.030 C 
HETATM    7  C8  UNL     1      14.216  38.821 -10.076  1.00  0.00    -0.027 C 
BRANCH   7   8
HETATM    8  C7  UNL     1      13.627  37.457 -10.138  1.00  0.00     0.053 C 
BRANCH   8   9
HETATM    9  C6  UNL     1      14.665  36.567 -10.701  1.00  0.00    -0.027 C 
HETATM   10  C5  UNL     1      14.519  35.825 -11.774  1.00  0.00    -0.026 C 
BRANCH  10  11
HETATM   11  C4  UNL     1      13.338  35.707 -12.632  1.00  0.00     0.087 C 
BRANCH  11  12
HETATM   12  C3  UNL     1      13.565  36.181 -14.041  1.00  0.00     0.264 C 
HETATM   13  O1  UNL     1      14.885  36.190 -14.416  1.00  0.00    -0.354 OA
HETATM   14  C2  UNL     1      14.787  36.652 -15.749  1.00  0.00     0.149 C 
HETATM   15  C1  UNL     1      14.553  38.147 -15.643  1.00  0.00     0.042 C 
HETATM   16  C23 UNL     1      13.519  35.931 -16.187  1.00  0.00     0.149 C 
HETATM   17  O5  UNL     1      12.967  35.397 -14.999  1.00  0.00    -0.354 OA
HETATM   18  C24 UNL     1      13.917  34.854 -17.152  1.00  0.00     0.042 C 
ENDBRANCH  11  12
ENDBRANCH  10  11
ENDBRANCH   8   9
ENDBRANCH   7   8
ENDBRANCH   5   6
ENDBRANCH   4   5
ENDBRANCH   3   4
ENDBRANCH   2   3
ENDBRANCH   1   2
BRANCH   1  19
HETATM   19  C15 UNL     1      11.949  39.071  -7.111  1.00  0.00     0.140 C 
BRANCH  19  20
HETATM   20  O2  UNL     1      11.033  38.383  -7.937  1.00  0.00    -0.392 OA
ATOM     21  H2  UNL     1      10.904  37.521  -7.560  1.00  0.00     0.210 HD
ENDBRANCH  19  20
BRANCH  19  22
HETATM   22  C16 UNL     1      11.814  38.459  -5.766  1.00  0.00     0.002 C 
HETATM   23  C17 UNL     1      11.022  38.962  -4.853  1.00  0.00     0.007 C 
BRANCH  23  24
HETATM   24  C18 UNL     1      10.845  38.399  -3.494  1.00  0.00     0.239 C 
HETATM   25  N1  UNL     1      11.514  39.237  -2.522  1.00  0.00    -0.065 N 
HETATM   26  C19 UNL     1      10.935  39.164  -1.204  1.00  0.00     0.235 C 
ATOM     27  H12 UNL     1      12.511  39.027  -2.490  1.00  0.00     0.278 HD
ATOM     28  H11 UNL     1      11.555  40.204  -2.845  1.00  0.00     0.278 HD
HETATM   29  C20 UNL     1      10.344  37.837  -0.881  1.00  0.00     0.062 C 
HETATM   30  C21 UNL     1       9.334  37.365  -1.899  1.00  0.00     0.150 C 
HETATM   31  C22 UNL     1       9.384  38.321  -3.099  1.00  0.00     0.181 C 
BRANCH  30  32
HETATM   32  O3  UNL     1       8.060  37.245  -1.400  1.00  0.00    -0.393 OA
ATOM     33  H3  UNL     1       7.828  36.357  -1.156  1.00  0.00     0.210 HD
ENDBRANCH  30  32
BRANCH  31  34
HETATM   34  O4  UNL     1       8.582  37.858  -4.129  1.00  0.00    -0.391 OA
ATOM     35  H4  UNL     1       8.578  38.444  -4.878  1.00  0.00     0.210 HD
ENDBRANCH  31  34
ENDBRANCH  23  24
ENDBRANCH  19  22
ENDBRANCH   1  19
TORSDOF 15
ENDMDL
MODEL 2
REMARK VINA RESULT: -8.342226136      1.331      1.619
REMARK  15 active torsions:
REMARK  status: ('A' for Active; 'I' for Inactive)
REMARK    1  A    between atoms: C3_4  and  C4_5 
REMARK    2  A    between atoms: C4_5  and  C5_6 
REMARK    3  A    between atoms: C6_7  and  C7_8 
REMARK    4  A    between atoms: C7_8  and  C8_9 
REMARK    5  A    between atoms: C9_10  and  C10_11 
REMARK    6  A    between atoms: C10_11  and  C11_12 
REMARK    7  A    between atoms: C11_12  and  C12_13 
REMARK    8  A    between atoms: C12_13  and  C13_14 
REMARK    9  A    between atoms: C13_14  and  C14_15 
REMARK   10  A    between atoms: C14_15  and  C15_16 
REMARK   11  A    between atoms: C15_16  and  O2_17 
REMARK   12  A    between atoms: C15_16  and  C16_19 
REMARK   13  A    between atoms: C17_20  and  C18_21 
REMARK   14  A    between atoms: C21_27  and  O3_28 
REMARK   15  A    between atoms: C22_30  and  O4_31 
ROOT
HETATM    1  C14 UNL     1      11.271  40.492  -6.283  1.00  0.00     0.036 C 
ENDROOT
BRANCH   1   2
HETATM    2  C13 UNL     1      12.551  41.144  -6.782  1.00  0.00     0.003 C 
BRANCH   2   3
HETATM    3  C12 UNL     1      12.241  42.350  -7.635  1.00  0.00     0.000 C 
BRANCH   3   4
HETATM    4  C11 UNL     1      12.485  42.016  -9.073  1.00  0.00     0.004 C 
BRANCH   4   5
HETATM    5  C10 UNL     1      13.700  41.156  -9.235  1.00  0.00     0.027 C 
BRANCH   5   6
HETATM    6  C9  UNL     1      13.303  39.951  -9.998  1.00  0.00    -0.030 C 
HETATM    7  C8  UNL     1      13.526  38.756  -9.509  1.00  0.00    -0.027 C 
BRANCH   7   8
HETATM    8  C7  UNL     1      13.119  37.559 -10.292  1.00  0.00     0.053 C 
BRANCH   8   9
HETATM    9  C6  UNL     1      14.359  36.836 -10.646  1.00  0.00    -0.027 C 
HETATM   10  C5  UNL     1      14.477  35.985 -11.638  1.00  0.00    -0.026 C 
BRANCH  10  11
HETATM   11  C4  UNL     1      13.447  35.567 -12.591  1.00  0.00     0.087 C 
BRANCH  11  12
HETATM   12  C3  UNL     1      13.635  36.129 -13.973  1.00  0.00     0.264 C 
HETATM   13  O1  UNL     1      14.945  36.173 -14.377  1.00  0.00    -0.354 OA
HETATM   14  C2  UNL     1      14.812  36.716 -15.676  1.00  0.00     0.149 C 
HETATM   15  C1  UNL     1      14.569  38.200 -15.471  1.00  0.00     0.042 C 
HETATM   16  C23 UNL     1      13.538  36.013 -16.128  1.00  0.00     0.149 C 
HETATM   17  O5  UNL     1      13.020  35.401 -14.963  1.00  0.00    -0.354 OA
HETATM   18  C24 UNL     1      13.921  35.001 -17.168  1.00  0.00     0.042 C 
ENDBRANCH  11  12
ENDBRANCH  10  11
ENDBRANCH   8   9
ENDBRANCH   7   8
ENDBRANCH   5   6
ENDBRANCH   4   5
ENDBRANCH   3   4
ENDBRANCH   2   3
ENDBRANCH   1   2
BRANCH   1  19
HETATM   19  C15 UNL     1      11.401  39.001  -6.194  1.00  0.00     0.140 C 
BRANCH  19  20
HETATM   20  O2  UNL     1      10.736  38.453  -7.314  1.00  0.00    -0.392 OA
ATOM     21  H2  UNL     1       9.803  38.509  -7.144  1.00  0.00     0.210 HD
ENDBRANCH  19  20
BRANCH  19  22
HETATM   22  C16 UNL     1      10.677  38.486  -5.006  1.00  0.00     0.002 C 
HETATM   23  C17 UNL     1      10.600  39.168  -3.892  1.00  0.00     0.007 C 
BRANCH  23  24
HETATM   24  C18 UNL     1       9.894  38.709  -2.673  1.00  0.00     0.239 C 
HETATM   25  N1  UNL     1       9.512  37.321  -2.818  1.00  0.00    -0.065 N 
HETATM   26  C19 UNL     1       9.394  36.623  -1.563  1.00  0.00     0.235 C 
ATOM     27  H12 UNL     1       8.652  37.237  -3.360  1.00  0.00     0.278 HD
ATOM     28  H11 UNL     1      10.154  36.833  -3.443  1.00  0.00     0.278 HD
HETATM   29  C20 UNL     1       8.949  37.487  -0.435  1.00  0.00     0.062 C 
HETATM   30  C21 UNL     1       9.805  38.715  -0.247  1.00  0.00     0.150 C 
HETATM   31  C22 UNL     1      10.767  38.815  -1.439  1.00  0.00     0.181 C 
BRANCH  30  32
HETATM   32  O3  UNL     1      10.478  38.742   0.950  1.00  0.00    -0.393 OA
ATOM     33  H3  UNL     1      10.853  39.590   1.159  1.00  0.00     0.210 HD
ENDBRANCH  30  32
BRANCH  31  34
HETATM   34  O4  UNL     1      11.481  40.001  -1.397  1.00  0.00    -0.391 OA
ATOM     35  H4  UNL     1      12.406  39.862  -1.225  1.00  0.00     0.210 HD
ENDBRANCH  31  34
ENDBRANCH  23  24
ENDBRANCH  19  22
ENDBRANCH   1  19
TORSDOF 15
ENDMDL
MODEL 3
REMARK VINA RESULT: -8.087960650      1.705      2.351
REMARK  15 active torsions:
REMARK  status: ('A' for Active; 'I' for Inactive)
REMARK    1  A    between atoms: C3_4  and  C4_5 
REMARK    2  A    between atoms: C4_5  and  C5_6 
REMARK    3  A    between atoms: C6_7  and  C7_8 
REMARK    4  A    between atoms: C7_8  and  C8_9 
REMARK    5  A    between atoms: C9_10  and  C10_11 
REMARK    6  A    between atoms: C10_11  and  C11_12 
REMARK    7  A    between atoms: C11_12  and  C12_13 
REMARK    8  A    between atoms: C12_13  and  C13_14 
REMARK    9  A    between atoms: C13_14  and  C14_15 
REMARK   10  A    between atoms: C14_15  and  C15_16 
REMARK   11  A    between atoms: C15_16  and  O2_17 
REMARK   12  A    between atoms: C15_16  and  C16_19 
REMARK   13  A    between atoms: C17_20  and  C18_21 
REMARK   14  A    between atoms: C21_27  and  O3_28 
REMARK   15  A    between atoms: C22_30  and  O4_31 
ROOT
HETATM    1  C14 UNL     1      11.353  40.439  -6.224  1.00  0.00     0.036 C 
ENDROOT
BRANCH   1   2
HETATM    2  C13 UNL     1      12.470  41.035  -7.069  1.00  0.00     0.003 C 
BRANCH   2   3
HETATM    3  C12 UNL     1      11.926  41.582  -8.366  1.00  0.00     0.000 C 
BRANCH   3   4
HETATM    4  C11 UNL     1      12.730  41.043  -9.507  1.00  0.00     0.004 C 
BRANCH   4   5
HETATM    5  C10 UNL     1      13.464  39.798  -9.116  1.00  0.00     0.027 C 
BRANCH   5   6
HETATM    6  C9  UNL     1      13.583  38.946 -10.322  1.00  0.00    -0.030 C 
HETATM    7  C8  UNL     1      13.216  37.689 -10.282  1.00  0.00    -0.027 C 
BRANCH   7   8
HETATM    8  C7  UNL     1      13.345  36.852 -11.505  1.00  0.00     0.053 C 
BRANCH   8   9
HETATM    9  C6  UNL     1      13.871  37.729 -12.572  1.00  0.00    -0.027 C 
HETATM   10  C5  UNL     1      13.981  37.393 -13.836  1.00  0.00    -0.026 C 
BRANCH  10  11
HETATM   11  C4  UNL     1      13.624  36.119 -14.462  1.00  0.00     0.087 C 
BRANCH  11  12
HETATM   12  C3  UNL     1      14.029  36.019 -15.907  1.00  0.00     0.264 C 
HETATM   13  O1  UNL     1      12.972  36.055 -16.781  1.00  0.00    -0.354 OA
HETATM   14  C2  UNL     1      13.641  35.959 -18.023  1.00  0.00     0.149 C 
HETATM   15  C1  UNL     1      14.026  34.499 -18.164  1.00  0.00     0.042 C 
HETATM   16  C23 UNL     1      14.864  36.820 -17.732  1.00  0.00     0.149 C 
HETATM   17  O5  UNL     1      14.832  37.049 -16.337  1.00  0.00    -0.354 OA
HETATM   18  C24 UNL     1      14.720  38.094 -18.510  1.00  0.00     0.042 C 
ENDBRANCH  11  12
ENDBRANCH  10  11
ENDBRANCH   8   9
ENDBRANCH   7   8
ENDBRANCH   5   6
ENDBRANCH   4   5
ENDBRANCH   3   4
ENDBRANCH   2   3
ENDBRANCH   1   2
BRANCH   1  19
HETATM   19  C15 UNL     1      11.433  38.943  -6.169  1.00  0.00     0.140 C 
BRANCH  19  20
HETATM   20  O2  UNL     1      10.732  38.443  -7.289  1.00  0.00    -0.392 OA
ATOM     21  H2  UNL     1      11.379  38.134  -7.912  1.00  0.00     0.210 HD
ENDBRANCH  19  20
BRANCH  19  22
HETATM   22  C16 UNL     1      10.710  38.427  -4.980  1.00  0.00     0.002 C 
HETATM   23  C17 UNL     1      10.622  39.117  -3.871  1.00  0.00     0.007 C 
BRANCH  23  24
HETATM   24  C18 UNL     1       9.917  38.657  -2.652  1.00  0.00     0.239 C 
HETATM   25  N1  UNL     1       9.591  37.252  -2.770  1.00  0.00    -0.065 N 
HETATM   26  C19 UNL     1       9.481  36.578  -1.501  1.00  0.00     0.235 C 
ATOM     27  H12 UNL     1       8.743  37.123  -3.322  1.00  0.00     0.278 HD
ATOM     28  H11 UNL     1      10.260  36.776  -3.375  1.00  0.00     0.278 HD
HETATM   29  C20 UNL     1       8.987  37.449  -0.400  1.00  0.00     0.062 C 
HETATM   30  C21 UNL     1       9.793  38.714  -0.228  1.00  0.00     0.150 C 
HETATM   31  C22 UNL     1      10.767  38.824  -1.409  1.00  0.00     0.181 C 
BRANCH  30  32
HETATM   32  O3  UNL     1      10.446  38.794   0.978  1.00  0.00    -0.393 OA
ATOM     33  H3  UNL     1      11.391  38.731   0.905  1.00  0.00     0.210 HD
ENDBRANCH  30  32
BRANCH  31  34
HETATM   34  O4  UNL     1      11.434  40.038  -1.383  1.00  0.00    -0.391 OA
ATOM     35  H4  UNL     1      12.369  39.935  -1.249  1.00  0.00     0.210 HD
ENDBRANCH  31  34
ENDBRANCH  23  24
ENDBRANCH  19  22
ENDBRANCH   1  19
TORSDOF 15
ENDMDL
MODEL 4
REMARK VINA RESULT: -8.036057552      1.478      2.129
REMARK  15 active torsions:
REMARK  status: ('A' for Active; 'I' for Inactive)
REMARK    1  A    between atoms: C3_4  and  C4_5 
REMARK    2  A    between atoms: C4_5  and  C5_6 
REMARK    3  A    between atoms: C6_7  and  C7_8 
REMARK    4  A    between atoms: C7_8  and  C8_9 
REMARK    5  A    between atoms: C9_10  and  C10_11 
REMARK    6  A    between atoms: C10_11  and  C11_12 
REMARK    7  A    between atoms: C11_12  and  C12_13 
REMARK    8  A    between atoms: C12_13  and  C13_14 
REMARK    9  A    between atoms: C13_14  and  C14_15 
REMARK   10  A    between atoms: C14_15  and  C15_16 
REMARK   11  A    between atoms: C15_16  and  O2_17 
REMARK   12  A    between atoms: C15_16  and  C16_19 
REMARK   13  A    between atoms: C17_20  and  C18_21 
REMARK   14  A    between atoms: C21_27  and  O3_28 
REMARK   15  A    between atoms: C22_30  and  O4_31 
ROOT
HETATM    1  C14 UNL     1      11.288  40.501  -6.247  1.00  0.00     0.036 C 
ENDROOT
BRANCH   1   2
HETATM    2  C13 UNL     1      12.504  41.158  -6.882  1.00  0.00     0.003 C 
BRANCH   2   3
HETATM    3  C12 UNL     1      12.087  42.144  -7.946  1.00  0.00     0.000 C 
BRANCH   3   4
HETATM    4  C11 UNL     1      12.145  41.482  -9.286  1.00  0.00     0.004 C 
BRANCH   4   5
HETATM    5  C10 UNL     1      13.556  41.180  -9.684  1.00  0.00     0.027 C 
BRANCH   5   6
HETATM    6  C9  UNL     1      13.622  39.750 -10.067  1.00  0.00    -0.030 C 
HETATM    7  C8  UNL     1      14.269  38.894  -9.314  1.00  0.00    -0.027 C 
BRANCH   7   8
HETATM    8  C7  UNL     1      14.322  37.464  -9.717  1.00  0.00     0.053 C 
BRANCH   8   9
HETATM    9  C6  UNL     1      13.185  37.233 -10.633  1.00  0.00    -0.027 C 
HETATM   10  C5  UNL     1      13.244  36.538 -11.745  1.00  0.00    -0.026 C 
BRANCH  10  11
HETATM   11  C4  UNL     1      14.406  35.855 -12.318  1.00  0.00     0.087 C 
BRANCH  11  12
HETATM   12  C3  UNL     1      14.830  36.401 -13.654  1.00  0.00     0.264 C 
HETATM   13  O1  UNL     1      13.912  36.194 -14.652  1.00  0.00    -0.354 OA
HETATM   14  C2  UNL     1      14.560  36.806 -15.750  1.00  0.00     0.149 C 
HETATM   15  C1  UNL     1      15.626  35.822 -16.192  1.00  0.00     0.042 C 
HETATM   16  C23 UNL     1      15.184  38.009 -15.053  1.00  0.00     0.149 C 
HETATM   17  O5  UNL     1      15.018  37.762 -13.671  1.00  0.00    -0.354 OA
HETATM   18  C24 UNL     1      14.435  39.231 -15.496  1.00  0.00     0.042 C 
ENDBRANCH  11  12
ENDBRANCH  10  11
ENDBRANCH   8   9
ENDBRANCH   7   8
ENDBRANCH   5   6
ENDBRANCH   4   5
ENDBRANCH   3   4
ENDBRANCH   2   3
ENDBRANCH   1   2
BRANCH   1  19
HETATM   19  C15 UNL     1      11.433  39.010  -6.173  1.00  0.00     0.140 C 
BRANCH  19  20
HETATM   20  O2  UNL     1      10.770  38.466  -7.295  1.00  0.00    -0.392 OA
ATOM     21  H2  UNL     1      11.253  37.693  -7.562  1.00  0.00     0.210 HD
ENDBRANCH  19  20
BRANCH  19  22
HETATM   22  C16 UNL     1      10.719  38.477  -4.987  1.00  0.00     0.002 C 
HETATM   23  C17 UNL     1      10.617  39.160  -3.875  1.00  0.00     0.007 C 
BRANCH  23  24
HETATM   24  C18 UNL     1       9.919  38.682  -2.658  1.00  0.00     0.239 C 
HETATM   25  N1  UNL     1       9.586  37.281  -2.799  1.00  0.00    -0.065 N 
HETATM   26  C19 UNL     1       9.483  36.586  -1.540  1.00  0.00     0.235 C 
ATOM     27  H12 UNL     1       8.733  37.166  -3.345  1.00  0.00     0.278 HD
ATOM     28  H11 UNL     1      10.248  36.813  -3.416  1.00  0.00     0.278 HD
HETATM   29  C20 UNL     1       9.002  37.440  -0.420  1.00  0.00     0.062 C 
HETATM   30  C21 UNL     1       9.814  38.698  -0.233  1.00  0.00     0.150 C 
HETATM   31  C22 UNL     1      10.780  38.824  -1.419  1.00  0.00     0.181 C 
BRANCH  30  32
HETATM   32  O3  UNL     1      10.478  38.754   0.969  1.00  0.00    -0.393 OA
ATOM     33  H3  UNL     1      10.210  39.480   1.520  1.00  0.00     0.210 HD
ENDBRANCH  30  32
BRANCH  31  34
HETATM   34  O4  UNL     1      11.453  40.034  -1.378  1.00  0.00    -0.391 OA
ATOM     35  H4  UNL     1      10.864  40.779  -1.412  1.00  0.00     0.210 HD
ENDBRANCH  31  34
ENDBRANCH  23  24
ENDBRANCH  19  22
ENDBRANCH   1  19
TORSDOF 15
ENDMDL
MODEL 5
REMARK VINA RESULT: -7.971994275      1.976      2.698
REMARK  15 active torsions:
REMARK  status: ('A' for Active; 'I' for Inactive)
REMARK    1  A    between atoms: C3_4  and  C4_5 
REMARK    2  A    between atoms: C4_5  and  C5_6 
REMARK    3  A    between atoms: C6_7  and  C7_8 
REMARK    4  A    between atoms: C7_8  and  C8_9 
REMARK    5  A    between atoms: C9_10  and  C10_11 
REMARK    6  A    between atoms: C10_11  and  C11_12 
REMARK    7  A    between atoms: C11_12  and  C12_13 
REMARK    8  A    between atoms: C12_13  and  C13_14 
REMARK    9  A    between atoms: C13_14  and  C14_15 
REMARK   10  A    between atoms: C14_15  and  C15_16 
REMARK   11  A    between atoms: C15_16  and  O2_17 
REMARK   12  A    between atoms: C15_16  and  C16_19 
REMARK   13  A    between atoms: C17_20  and  C18_21 
REMARK   14  A    between atoms: C21_27  and  O3_28 
REMARK   15  A    between atoms: C22_30  and  O4_31 
ROOT
HETATM    1  C14 UNL     1      11.280  40.509  -6.348  1.00  0.00     0.036 C 
ENDROOT
BRANCH   1   2
HETATM    2  C13 UNL     1      12.547  41.228  -6.786  1.00  0.00     0.003 C 
BRANCH   2   3
HETATM    3  C12 UNL     1      12.257  42.189  -7.913  1.00  0.00     0.000 C 
BRANCH   3   4
HETATM    4  C11 UNL     1      12.082  41.421  -9.186  1.00  0.00     0.004 C 
BRANCH   4   5
HETATM    5  C10 UNL     1      13.375  41.297  -9.930  1.00  0.00     0.027 C 
BRANCH   5   6
HETATM    6  C9  UNL     1      13.585  39.864 -10.236  1.00  0.00    -0.030 C 
HETATM    7  C8  UNL     1      14.115  39.068  -9.339  1.00  0.00    -0.027 C 
BRANCH   7   8
HETATM    8  C7  UNL     1      14.317  37.632  -9.666  1.00  0.00     0.053 C 
BRANCH   8   9
HETATM    9  C6  UNL     1      13.197  37.230 -10.543  1.00  0.00    -0.027 C 
HETATM   10  C5  UNL     1      13.326  36.764 -11.764  1.00  0.00    -0.026 C 
BRANCH  10  11
HETATM   11  C4  UNL     1      14.563  36.545 -12.516  1.00  0.00     0.087 C 
BRANCH  11  12
HETATM   12  C3  UNL     1      15.001  37.736 -13.323  1.00  0.00     0.264 C 
HETATM   13  O1  UNL     1      13.994  38.632 -13.575  1.00  0.00    -0.354 OA
HETATM   14  C2  UNL     1      14.686  39.620 -14.315  1.00  0.00     0.149 C 
HETATM   15  C1  UNL     1      14.852  39.040 -15.707  1.00  0.00     0.042 C 
HETATM   16  C23 UNL     1      16.013  39.629 -13.566  1.00  0.00     0.149 C 
HETATM   17  O5  UNL     1      15.965  38.503 -12.713  1.00  0.00    -0.354 OA
HETATM   18  C24 UNL     1      16.090  40.913 -12.794  1.00  0.00     0.042 C 
ENDBRANCH  11  12
ENDBRANCH  10  11
ENDBRANCH   8   9
ENDBRANCH   7   8
ENDBRANCH   5   6
ENDBRANCH   4   5
ENDBRANCH   3   4
ENDBRANCH   2   3
ENDBRANCH   1   2
BRANCH   1  19
HETATM   19  C15 UNL     1      11.489  39.029  -6.231  1.00  0.00     0.140 C 
BRANCH  19  20
HETATM   20  O2  UNL     1      10.889  38.429  -7.360  1.00  0.00    -0.392 OA
ATOM     21  H2  UNL     1      11.044  37.493  -7.298  1.00  0.00     0.210 HD
ENDBRANCH  19  20
BRANCH  19  22
HETATM   22  C16 UNL     1      10.760  38.493  -5.055  1.00  0.00     0.002 C 
HETATM   23  C17 UNL     1      10.742  39.119  -3.906  1.00  0.00     0.007 C 
BRANCH  23  24
HETATM   24  C18 UNL     1      10.035  38.636  -2.698  1.00  0.00     0.239 C 
HETATM   25  N1  UNL     1       9.807  37.210  -2.797  1.00  0.00    -0.065 N 
HETATM   26  C19 UNL     1       9.706  36.554  -1.518  1.00  0.00     0.235 C 
ATOM     27  H12 UNL     1       8.986  37.014  -3.368  1.00  0.00     0.278 HD
ATOM     28  H11 UNL     1      10.524  36.769  -3.373  1.00  0.00     0.278 HD
HETATM   29  C20 UNL     1       9.124  37.410  -0.448  1.00  0.00     0.062 C 
HETATM   30  C21 UNL     1       9.838  38.728  -0.280  1.00  0.00     0.150 C 
HETATM   31  C22 UNL     1      10.836  38.883  -1.436  1.00  0.00     0.181 C 
BRANCH  30  32
HETATM   32  O3  UNL     1      10.450  38.874   0.941  1.00  0.00    -0.393 OA
ATOM     33  H3  UNL     1       9.985  39.451   1.536  1.00  0.00     0.210 HD
ENDBRANCH  30  32
BRANCH  31  34
HETATM   34  O4  UNL     1      11.420  40.138  -1.416  1.00  0.00    -0.391 OA
ATOM     35  H4  UNL     1      10.944  40.752  -0.869  1.00  0.00     0.210 HD
ENDBRANCH  31  34
ENDBRANCH  23  24
ENDBRANCH  19  22
ENDBRANCH   1  19
TORSDOF 15
ENDMDL
