MODEL 1
REMARK VINA RESULT: -7.476668947      0.000      0.000
REMARK  17 active torsions:
REMARK  status: ('A' for Active; 'I' for Inactive)
REMARK    1  A    between atoms: C2_2  and  C3_3 
REMARK    2  A    between atoms: C4_4  and  O1_5 
REMARK    3  A    between atoms: C6_8  and  C7_9 
REMARK    4  A    between atoms: C7_9  and  C8_10 
REMARK    5  A    between atoms: C8_10  and  C9_11 
REMARK    6  A    between atoms: C9_11  and  C10_12 
REMARK    7  A    between atoms: C10_12  and  C11_13 
REMARK    8  A    between atoms: C11_13  and  C12_14 
REMARK    9  A    between atoms: C12_14  and  C13_15 
REMARK   10  A    between atoms: C13_15  and  C14_16 
REMARK   11  A    between atoms: C15_17  and  C16_18 
REMARK   12  A    between atoms: C16_18  and  C17_19 
REMARK   13  A    between atoms: C18_21  and  C19_22 
REMARK   14  A    between atoms: C19_22  and  O3_23 
REMARK   15  A    between atoms: C20_25  and  O4_26 
REMARK   16  A    between atoms: C21_28  and  O5_29 
REMARK   17  A    between atoms: C22_31  and  O6_32 
ROOT
HETATM    1  C14 UNL     1      11.677  39.639  -6.226  1.00  0.00    -0.031 C 
HETATM    2  C15 UNL     1      10.656  39.660  -5.396  1.00  0.00    -0.028 C 
ENDROOT
BRANCH   1   3
HETATM    3  C13 UNL     1      12.219  38.451  -6.924  1.00  0.00     0.027 C 
BRANCH   3   4
HETATM    4  C12 UNL     1      12.861  38.820  -8.241  1.00  0.00     0.004 C 
BRANCH   4   5
HETATM    5  C11 UNL     1      12.494  40.205  -8.690  1.00  0.00     0.000 C 
BRANCH   5   6
HETATM    6  C10 UNL     1      13.690  40.945  -9.182  1.00  0.00     0.000 C 
BRANCH   6   7
HETATM    7  C9  UNL     1      14.670  40.041  -9.908  1.00  0.00     0.000 C 
BRANCH   7   8
HETATM    8  C8  UNL     1      14.550  40.155 -11.414  1.00  0.00     0.000 C 
BRANCH   8   9
HETATM    9  C7  UNL     1      13.921  38.938 -12.012  1.00  0.00     0.005 C 
BRANCH   9  10
HETATM   10  C6  UNL     1      14.728  37.698 -11.927  1.00  0.00    -0.008 C 
HETATM   11  C5  UNL     1      13.740  36.624 -11.328  1.00  0.00     0.037 C 
HETATM   12  C4  UNL     1      13.048  36.049 -12.514  1.00  0.00     0.126 C 
HETATM   13  C3  UNL     1      13.705  36.644 -13.734  1.00  0.00     0.040 C 
HETATM   14  C23 UNL     1      15.091  37.005 -13.191  1.00  0.00    -0.004 C 
HETATM   15  C24 UNL     1      15.976  37.666 -14.159  1.00  0.00     0.011 C 
BRANCH  12  16
HETATM   16  O1  UNL     1      13.339  34.666 -12.536  1.00  0.00    -0.395 OA
ATOM     17  H1  UNL     1      13.552  34.421 -11.643  1.00  0.00     0.210 HD
ENDBRANCH  12  16
BRANCH  13  18
HETATM   18  C2  UNL     1      13.826  35.641 -14.833  1.00  0.00    -0.029 C 
HETATM   19  C1  UNL     1      13.283  35.916 -16.005  1.00  0.00     0.007 C 
ENDBRANCH  13  18
ENDBRANCH   9  10
ENDBRANCH   8   9
ENDBRANCH   7   8
ENDBRANCH   6   7
ENDBRANCH   5   6
ENDBRANCH   4   5
ENDBRANCH   3   4
ENDBRANCH   1   3
BRANCH   2  20
HETATM   20  C16 UNL     1       9.912  38.452  -5.064  1.00  0.00     0.061 C 
BRANCH  20  21
HETATM   21  C17 UNL     1       9.424  38.449  -3.604  1.00  0.00     0.157 C 
HETATM   22  O2  UNL     1      10.029  37.385  -3.008  1.00  0.00    -0.373 OA
HETATM   23  C18 UNL     1      10.064  37.340  -1.657  1.00  0.00     0.176 C 
HETATM   24  C20 UNL     1       9.783  38.608  -0.924  1.00  0.00     0.180 C 
HETATM   25  C21 UNL     1      10.472  39.725  -1.712  1.00  0.00     0.180 C 
HETATM   26  C22 UNL     1       9.766  39.788  -3.039  1.00  0.00     0.178 C 
BRANCH  23  27
HETATM   27  C19 UNL     1       9.168  36.203  -1.142  1.00  0.00     0.198 C 
BRANCH  27  28
HETATM   28  O3  UNL     1       8.406  36.781  -0.109  1.00  0.00    -0.398 OA
ATOM     29  H3  UNL     1       8.102  36.047   0.411  1.00  0.00     0.209 HD
ENDBRANCH  27  28
ENDBRANCH  23  27
BRANCH  24  30
HETATM   30  O4  UNL     1      10.435  38.550   0.307  1.00  0.00    -0.390 OA
ATOM     31  H4  UNL     1      10.354  39.400   0.724  1.00  0.00     0.210 HD
ENDBRANCH  24  30
BRANCH  25  32
HETATM   32  O5  UNL     1      11.777  39.294  -1.940  1.00  0.00    -0.390 OA
ATOM     33  H5  UNL     1      11.721  38.623  -2.610  1.00  0.00     0.210 HD
ENDBRANCH  25  32
BRANCH  26  34
HETATM   34  O6  UNL     1       8.570  40.485  -2.833  1.00  0.00    -0.390 OA
ATOM     35  H6  UNL     1       8.781  41.307  -2.406  1.00  0.00     0.210 HD
ENDBRANCH  26  34
ENDBRANCH  20  21
ENDBRANCH   2  20
TORSDOF 17
ENDMDL
MODEL 2
REMARK VINA RESULT: -7.343606319      1.465      2.165
REMARK  17 active torsions:
REMARK  status: ('A' for Active; 'I' for Inactive)
REMARK    1  A    between atoms: C2_2  and  C3_3 
REMARK    2  A    between atoms: C4_4  and  O1_5 
REMARK    3  A    between atoms: C6_8  and  C7_9 
REMARK    4  A    between atoms: C7_9  and  C8_10 
REMARK    5  A    between atoms: C8_10  and  C9_11 
REMARK    6  A    between atoms: C9_11  and  C10_12 
REMARK    7  A    between atoms: C10_12  and  C11_13 
REMARK    8  A    between atoms: C11_13  and  C12_14 
REMARK    9  A    between atoms: C12_14  and  C13_15 
REMARK   10  A    between atoms: C13_15  and  C14_16 
REMARK   11  A    between atoms: C15_17  and  C16_18 
REMARK   12  A    between atoms: C16_18  and  C17_19 
REMARK   13  A    between atoms: C18_21  and  C19_22 
REMARK   14  A    between atoms: C19_22  and  O3_23 
REMARK   15  A    between atoms: C20_25  and  O4_26 
REMARK   16  A    between atoms: C21_28  and  O5_29 
REMARK   17  A    between atoms: C22_31  and  O6_32 
ROOT
HETATM    1  C14 UNL     1      11.948  38.911  -6.247  1.00  0.00    -0.031 C 
HETATM    2  C15 UNL     1      11.281  38.371  -5.250  1.00  0.00    -0.028 C 
ENDROOT
BRANCH   1   3
HETATM    3  C13 UNL     1      11.381  39.725  -7.346  1.00  0.00     0.027 C 
BRANCH   3   4
HETATM    4  C12 UNL     1      11.527  41.206  -7.078  1.00  0.00     0.004 C 
BRANCH   4   5
HETATM    5  C11 UNL     1      12.958  41.617  -6.891  1.00  0.00     0.000 C 
BRANCH   5   6
HETATM    6  C10 UNL     1      13.376  42.599  -7.930  1.00  0.00     0.000 C 
BRANCH   6   7
HETATM    7  C9  UNL     1      12.454  42.592  -9.136  1.00  0.00     0.000 C 
BRANCH   7   8
HETATM    8  C8  UNL     1      13.162  42.152 -10.400  1.00  0.00     0.000 C 
BRANCH   8   9
HETATM    9  C7  UNL     1      13.141  40.665 -10.556  1.00  0.00     0.005 C 
BRANCH   9  10
HETATM   10  C6  UNL     1      14.470  40.008 -10.570  1.00  0.00    -0.008 C 
HETATM   11  C5  UNL     1      14.507  39.167  -9.236  1.00  0.00     0.037 C 
HETATM   12  C4  UNL     1      13.898  37.859  -9.600  1.00  0.00     0.126 C 
HETATM   13  C3  UNL     1      13.662  37.887 -11.089  1.00  0.00     0.040 C 
HETATM   14  C23 UNL     1      14.705  38.912 -11.546  1.00  0.00    -0.004 C 
HETATM   15  C24 UNL     1      14.691  39.199 -12.986  1.00  0.00     0.011 C 
BRANCH  12  16
HETATM   16  O1  UNL     1      14.875  36.865  -9.366  1.00  0.00    -0.395 OA
ATOM     17  H1  UNL     1      14.820  36.644  -8.444  1.00  0.00     0.210 HD
ENDBRANCH  12  16
BRANCH  13  18
HETATM   18  C2  UNL     1      13.939  36.557 -11.710  1.00  0.00    -0.029 C 
HETATM   19  C1  UNL     1      13.011  36.010 -12.475  1.00  0.00     0.007 C 
ENDBRANCH  13  18
ENDBRANCH   9  10
ENDBRANCH   8   9
ENDBRANCH   7   8
ENDBRANCH   6   7
ENDBRANCH   5   6
ENDBRANCH   4   5
ENDBRANCH   3   4
ENDBRANCH   1   3
BRANCH   2  20
HETATM   20  C16 UNL     1       9.838  38.529  -5.117  1.00  0.00     0.061 C 
BRANCH  20  21
HETATM   21  C17 UNL     1       9.381  38.507  -3.647  1.00  0.00     0.157 C 
HETATM   22  O2  UNL     1       9.993  37.431  -3.080  1.00  0.00    -0.373 OA
HETATM   23  C18 UNL     1      10.056  37.365  -1.731  1.00  0.00     0.176 C 
HETATM   24  C20 UNL     1       9.797  38.623  -0.973  1.00  0.00     0.180 C 
HETATM   25  C21 UNL     1      10.474  39.750  -1.759  1.00  0.00     0.180 C 
HETATM   26  C22 UNL     1       9.742  39.835  -3.069  1.00  0.00     0.178 C 
BRANCH  23  27
HETATM   27  C19 UNL     1       9.166  36.225  -1.214  1.00  0.00     0.198 C 
BRANCH  27  28
HETATM   28  O3  UNL     1       8.434  36.789  -0.152  1.00  0.00    -0.398 OA
ATOM     29  H3  UNL     1       8.136  37.629  -0.481  1.00  0.00     0.209 HD
ENDBRANCH  27  28
ENDBRANCH  23  27
BRANCH  24  30
HETATM   30  O4  UNL     1      10.475  38.544   0.243  1.00  0.00    -0.390 OA
ATOM     31  H4  UNL     1       9.869  38.218   0.898  1.00  0.00     0.210 HD
ENDBRANCH  24  30
BRANCH  25  32
HETATM   32  O5  UNL     1      11.772  39.315  -2.021  1.00  0.00    -0.390 OA
ATOM     33  H5  UNL     1      12.027  39.720  -2.841  1.00  0.00     0.210 HD
ENDBRANCH  25  32
BRANCH  26  34
HETATM   34  O6  UNL     1       8.553  40.534  -2.828  1.00  0.00    -0.390 OA
ATOM     35  H6  UNL     1       8.217  40.836  -3.664  1.00  0.00     0.210 HD
ENDBRANCH  26  34
ENDBRANCH  20  21
ENDBRANCH   2  20
TORSDOF 17
ENDMDL
MODEL 3
REMARK VINA RESULT: -7.343353867      3.552      5.668
REMARK  17 active torsions:
REMARK  status: ('A' for Active; 'I' for Inactive)
REMARK    1  A    between atoms: C2_2  and  C3_3 
REMARK    2  A    between atoms: C4_4  and  O1_5 
REMARK    3  A    between atoms: C6_8  and  C7_9 
REMARK    4  A    between atoms: C7_9  and  C8_10 
REMARK    5  A    between atoms: C8_10  and  C9_11 
REMARK    6  A    between atoms: C9_11  and  C10_12 
REMARK    7  A    between atoms: C10_12  and  C11_13 
REMARK    8  A    between atoms: C11_13  and  C12_14 
REMARK    9  A    between atoms: C12_14  and  C13_15 
REMARK   10  A    between atoms: C13_15  and  C14_16 
REMARK   11  A    between atoms: C15_17  and  C16_18 
REMARK   12  A    between atoms: C16_18  and  C17_19 
REMARK   13  A    between atoms: C18_21  and  C19_22 
REMARK   14  A    between atoms: C19_22  and  O3_23 
REMARK   15  A    between atoms: C20_25  and  O4_26 
REMARK   16  A    between atoms: C21_28  and  O5_29 
REMARK   17  A    between atoms: C22_31  and  O6_32 
ROOT
HETATM    1  C14 UNL     1      16.169  42.415  -9.828  1.00  0.00    -0.031 C 
HETATM    2  C15 UNL     1      15.034  41.998  -9.309  1.00  0.00    -0.028 C 
ENDROOT
BRANCH   1   3
HETATM    3  C13 UNL     1      16.616  42.231 -11.227  1.00  0.00     0.027 C 
BRANCH   3   4
HETATM    4  C12 UNL     1      17.769  41.257 -11.322  1.00  0.00     0.004 C 
BRANCH   4   5
HETATM    5  C11 UNL     1      17.393  39.992 -12.037  1.00  0.00     0.000 C 
BRANCH   5   6
HETATM    6  C10 UNL     1      17.974  39.957 -13.409  1.00  0.00     0.000 C 
BRANCH   6   7
HETATM    7  C9  UNL     1      17.942  38.565 -14.015  1.00  0.00     0.000 C 
BRANCH   7   8
HETATM    8  C8  UNL     1      16.730  38.349 -14.898  1.00  0.00     0.000 C 
BRANCH   8   9
HETATM    9  C7  UNL     1      15.948  37.147 -14.477  1.00  0.00     0.005 C 
BRANCH   9  10
HETATM   10  C6  UNL     1      14.478  37.333 -14.423  1.00  0.00    -0.008 C 
HETATM   11  C5  UNL     1      13.906  35.881 -14.187  1.00  0.00     0.037 C 
HETATM   12  C4  UNL     1      13.903  35.716 -12.707  1.00  0.00     0.126 C 
HETATM   13  C3  UNL     1      14.304  37.045 -12.118  1.00  0.00     0.040 C 
HETATM   14  C23 UNL     1      13.896  38.011 -13.236  1.00  0.00    -0.004 C 
HETATM   15  C24 UNL     1      14.210  39.421 -12.971  1.00  0.00     0.011 C 
BRANCH  12  16
HETATM   16  O1  UNL     1      12.563  35.491 -12.316  1.00  0.00    -0.395 OA
ATOM     17  H1  UNL     1      12.354  34.600 -12.570  1.00  0.00     0.210 HD
ENDBRANCH  12  16
BRANCH  13  18
HETATM   18  C2  UNL     1      13.537  37.343 -10.873  1.00  0.00    -0.029 C 
HETATM   19  C1  UNL     1      14.184  37.367  -9.721  1.00  0.00     0.007 C 
ENDBRANCH  13  18
ENDBRANCH   9  10
ENDBRANCH   8   9
ENDBRANCH   7   8
ENDBRANCH   6   7
ENDBRANCH   5   6
ENDBRANCH   4   5
ENDBRANCH   3   4
ENDBRANCH   1   3
BRANCH   2  20
HETATM   20  C16 UNL     1      14.047  41.276 -10.102  1.00  0.00     0.061 C 
BRANCH  20  21
HETATM   21  C17 UNL     1      12.822  40.857  -9.268  1.00  0.00     0.157 C 
HETATM   22  O2  UNL     1      13.316  40.226  -8.167  1.00  0.00    -0.373 OA
HETATM   23  C18 UNL     1      12.500  40.062  -7.101  1.00  0.00     0.176 C 
HETATM   24  C20 UNL     1      11.264  40.896  -7.053  1.00  0.00     0.180 C 
HETATM   25  C21 UNL     1      11.658  42.285  -7.563  1.00  0.00     0.180 C 
HETATM   26  C22 UNL     1      12.040  42.100  -9.005  1.00  0.00     0.178 C 
BRANCH  23  27
HETATM   27  C19 UNL     1      12.162  38.575  -6.916  1.00  0.00     0.198 C 
BRANCH  27  28
HETATM   28  O3  UNL     1      10.802  38.467  -7.263  1.00  0.00    -0.398 OA
ATOM     29  H3  UNL     1      10.750  38.796  -8.152  1.00  0.00     0.209 HD
ENDBRANCH  27  28
ENDBRANCH  23  27
BRANCH  24  30
HETATM   30  O4  UNL     1      10.907  41.066  -5.716  1.00  0.00    -0.390 OA
ATOM     31  H4  UNL     1       9.959  41.089  -5.664  1.00  0.00     0.210 HD
ENDBRANCH  24  30
BRANCH  25  32
HETATM   32  O5  UNL     1      12.804  42.647  -6.858  1.00  0.00    -0.390 OA
ATOM     33  H5  UNL     1      13.535  42.256  -7.321  1.00  0.00     0.210 HD
ENDBRANCH  25  32
BRANCH  26  34
HETATM   34  O6  UNL     1      10.849  42.021  -9.737  1.00  0.00    -0.390 OA
ATOM     35  H6  UNL     1      10.198  41.601  -9.188  1.00  0.00     0.210 HD
ENDBRANCH  26  34
ENDBRANCH  20  21
ENDBRANCH   2  20
TORSDOF 17
ENDMDL
MODEL 4
REMARK VINA RESULT: -7.236681296      3.608      5.280
REMARK  17 active torsions:
REMARK  status: ('A' for Active; 'I' for Inactive)
REMARK    1  A    between atoms: C2_2  and  C3_3 
REMARK    2  A    between atoms: C4_4  and  O1_5 
REMARK    3  A    between atoms: C6_8  and  C7_9 
REMARK    4  A    between atoms: C7_9  and  C8_10 
REMARK    5  A    between atoms: C8_10  and  C9_11 
REMARK    6  A    between atoms: C9_11  and  C10_12 
REMARK    7  A    between atoms: C10_12  and  C11_13 
REMARK    8  A    between atoms: C11_13  and  C12_14 
REMARK    9  A    between atoms: C12_14  and  C13_15 
REMARK   10  A    between atoms: C13_15  and  C14_16 
REMARK   11  A    between atoms: C15_17  and  C16_18 
REMARK   12  A    between atoms: C16_18  and  C17_19 
REMARK   13  A    between atoms: C18_21  and  C19_22 
REMARK   14  A    between atoms: C19_22  and  O3_23 
REMARK   15  A    between atoms: C20_25  and  O4_26 
REMARK   16  A    between atoms: C21_28  and  O5_29 
REMARK   17  A    between atoms: C22_31  and  O6_32 
ROOT
HETATM    1  C14 UNL     1      16.164  43.417  -9.025  1.00  0.00    -0.031 C 
HETATM    2  C15 UNL     1      14.944  43.061  -8.684  1.00  0.00    -0.028 C 
ENDROOT
BRANCH   1   3
HETATM    3  C13 UNL     1      16.707  43.485 -10.401  1.00  0.00     0.027 C 
BRANCH   3   4
HETATM    4  C12 UNL     1      18.061  42.819 -10.501  1.00  0.00     0.004 C 
BRANCH   4   5
HETATM    5  C11 UNL     1      17.961  41.371 -10.885  1.00  0.00     0.000 C 
BRANCH   5   6
HETATM    6  C10 UNL     1      16.905  41.159 -11.915  1.00  0.00     0.000 C 
BRANCH   6   7
HETATM    7  C9  UNL     1      15.993  39.994 -11.576  1.00  0.00     0.000 C 
BRANCH   7   8
HETATM    8  C8  UNL     1      14.586  40.192 -12.100  1.00  0.00     0.000 C 
BRANCH   8   9
HETATM    9  C7  UNL     1      13.857  38.894 -12.231  1.00  0.00     0.005 C 
BRANCH   9  10
HETATM   10  C6  UNL     1      14.702  37.678 -12.142  1.00  0.00    -0.008 C 
HETATM   11  C5  UNL     1      13.771  36.601 -11.462  1.00  0.00     0.037 C 
HETATM   12  C4  UNL     1      13.042  35.967 -12.594  1.00  0.00     0.126 C 
HETATM   13  C3  UNL     1      13.626  36.536 -13.863  1.00  0.00     0.040 C 
HETATM   14  C23 UNL     1      15.025  36.951 -13.397  1.00  0.00    -0.004 C 
HETATM   15  C24 UNL     1      15.846  37.600 -14.428  1.00  0.00     0.011 C 
BRANCH  12  16
HETATM   16  O1  UNL     1      13.370  34.592 -12.582  1.00  0.00    -0.395 OA
ATOM     17  H1  UNL     1      13.640  34.387 -11.695  1.00  0.00     0.210 HD
ENDBRANCH  12  16
BRANCH  13  18
HETATM   18  C2  UNL     1      13.724  35.497 -14.931  1.00  0.00    -0.029 C 
HETATM   19  C1  UNL     1      13.249  35.777 -16.131  1.00  0.00     0.007 C 
ENDBRANCH  13  18
ENDBRANCH   9  10
ENDBRANCH   8   9
ENDBRANCH   7   8
ENDBRANCH   6   7
ENDBRANCH   5   6
ENDBRANCH   4   5
ENDBRANCH   3   4
ENDBRANCH   1   3
BRANCH   2  20
HETATM   20  C16 UNL     1      13.949  42.679  -9.678  1.00  0.00     0.061 C 
BRANCH  20  21
HETATM   21  C17 UNL     1      12.915  41.687  -9.117  1.00  0.00     0.157 C 
HETATM   22  O2  UNL     1      13.629  40.636  -8.627  1.00  0.00    -0.373 OA
HETATM   23  C18 UNL     1      13.017  39.787  -7.770  1.00  0.00     0.176 C 
HETATM   24  C20 UNL     1      11.751  40.253  -7.134  1.00  0.00     0.180 C 
HETATM   25  C21 UNL     1      11.955  41.733  -6.796  1.00  0.00     0.180 C 
HETATM   26  C22 UNL     1      12.102  42.439  -8.116  1.00  0.00     0.178 C 
BRANCH  23  27
HETATM   27  C19 UNL     1      12.820  38.416  -8.434  1.00  0.00     0.198 C 
BRANCH  27  28
HETATM   28  O3  UNL     1      11.498  38.048  -8.120  1.00  0.00    -0.398 OA
ATOM     29  H3  UNL     1      11.583  37.279  -7.569  1.00  0.00     0.209 HD
ENDBRANCH  27  28
ENDBRANCH  23  27
BRANCH  24  30
HETATM   30  O4  UNL     1      11.613  39.598  -5.911  1.00  0.00    -0.390 OA
ATOM     31  H4  UNL     1      11.203  38.756  -6.072  1.00  0.00     0.210 HD
ENDBRANCH  24  30
BRANCH  25  32
HETATM   32  O5  UNL     1      13.175  41.815  -6.128  1.00  0.00    -0.390 OA
ATOM     33  H5  UNL     1      12.974  42.082  -5.239  1.00  0.00     0.210 HD
ENDBRANCH  25  32
BRANCH  26  34
HETATM   34  O6  UNL     1      10.814  42.598  -8.640  1.00  0.00    -0.390 OA
ATOM     35  H6  UNL     1      10.215  42.711  -7.912  1.00  0.00     0.210 HD
ENDBRANCH  26  34
ENDBRANCH  20  21
ENDBRANCH   2  20
TORSDOF 17
ENDMDL
MODEL 5
REMARK VINA RESULT: -7.147014980      3.636      6.771
REMARK  17 active torsions:
REMARK  status: ('A' for Active; 'I' for Inactive)
REMARK    1  A    between atoms: C2_2  and  C3_3 
REMARK    2  A    between atoms: C4_4  and  O1_5 
REMARK    3  A    between atoms: C6_8  and  C7_9 
REMARK    4  A    between atoms: C7_9  and  C8_10 
REMARK    5  A    between atoms: C8_10  and  C9_11 
REMARK    6  A    between atoms: C9_11  and  C10_12 
REMARK    7  A    between atoms: C10_12  and  C11_13 
REMARK    8  A    between atoms: C11_13  and  C12_14 
REMARK    9  A    between atoms: C12_14  and  C13_15 
REMARK   10  A    between atoms: C13_15  and  C14_16 
REMARK   11  A    between atoms: C15_17  and  C16_18 
REMARK   12  A    between atoms: C16_18  and  C17_19 
REMARK   13  A    between atoms: C18_21  and  C19_22 
REMARK   14  A    between atoms: C19_22  and  O3_23 
REMARK   15  A    between atoms: C20_25  and  O4_26 
REMARK   16  A    between atoms: C21_28  and  O5_29 
REMARK   17  A    between atoms: C22_31  and  O6_32 
ROOT
HETATM    1  C14 UNL     1      14.313  36.463 -11.375  1.00  0.00    -0.031 C 
HETATM    2  C15 UNL     1      14.313  37.382 -10.432  1.00  0.00    -0.028 C 
ENDROOT
BRANCH   1   3
HETATM    3  C13 UNL     1      13.213  36.177 -12.323  1.00  0.00     0.027 C 
BRANCH   3   4
HETATM    4  C12 UNL     1      13.707  36.119 -13.751  1.00  0.00     0.004 C 
BRANCH   4   5
HETATM    5  C11 UNL     1      14.777  37.133 -14.030  1.00  0.00     0.000 C 
BRANCH   5   6
HETATM    6  C10 UNL     1      14.451  37.942 -15.238  1.00  0.00     0.000 C 
BRANCH   6   7
HETATM    7  C9  UNL     1      14.468  39.433 -14.957  1.00  0.00     0.000 C 
BRANCH   7   8
HETATM    8  C8  UNL     1      14.259  39.744 -13.489  1.00  0.00     0.000 C 
BRANCH   8   9
HETATM    9  C7  UNL     1      15.288  40.699 -12.975  1.00  0.00     0.005 C 
BRANCH   9  10
HETATM   10  C6  UNL     1      16.272  40.123 -12.027  1.00  0.00    -0.008 C 
HETATM   11  C5  UNL     1      17.614  40.042 -12.852  1.00  0.00     0.037 C 
HETATM   12  C4  UNL     1      18.256  41.371 -12.654  1.00  0.00     0.126 C 
HETATM   13  C3  UNL     1      17.412  42.118 -11.652  1.00  0.00     0.040 C 
HETATM   14  C23 UNL     1      16.740  40.967 -10.897  1.00  0.00    -0.004 C 
HETATM   15  C24 UNL     1      15.793  41.387  -9.856  1.00  0.00     0.011 C 
BRANCH  12  16
HETATM   16  O1  UNL     1      19.506  41.141 -12.034  1.00  0.00    -0.395 OA
ATOM     17  H1  UNL     1      20.165  41.499 -12.617  1.00  0.00     0.210 HD
ENDBRANCH  12  16
BRANCH  13  18
HETATM   18  C2  UNL     1      18.256  42.924 -10.721  1.00  0.00    -0.029 C 
HETATM   19  C1  UNL     1      18.091  44.234 -10.689  1.00  0.00     0.007 C 
ENDBRANCH  13  18
ENDBRANCH   9  10
ENDBRANCH   8   9
ENDBRANCH   7   8
ENDBRANCH   6   7
ENDBRANCH   5   6
ENDBRANCH   4   5
ENDBRANCH   3   4
ENDBRANCH   1   3
BRANCH   2  20
HETATM   20  C16 UNL     1      13.170  38.260 -10.217  1.00  0.00     0.061 C 
BRANCH  20  21
HETATM   21  C17 UNL     1      13.259  39.017  -8.879  1.00  0.00     0.157 C 
HETATM   22  O2  UNL     1      12.399  40.067  -8.984  1.00  0.00    -0.373 OA
HETATM   23  C18 UNL     1      12.010  40.695  -7.850  1.00  0.00     0.176 C 
HETATM   24  C20 UNL     1      12.241  39.981  -6.561  1.00  0.00     0.180 C 
HETATM   25  C21 UNL     1      11.917  38.506  -6.819  1.00  0.00     0.180 C 
HETATM   26  C22 UNL     1      12.944  38.027  -7.808  1.00  0.00     0.178 C 
BRANCH  23  27
HETATM   27  C19 UNL     1      12.600  42.112  -7.801  1.00  0.00     0.198 C 
BRANCH  27  28
HETATM   28  O3  UNL     1      13.276  42.181  -6.568  1.00  0.00    -0.398 OA
ATOM     29  H3  UNL     1      14.185  42.333  -6.796  1.00  0.00     0.209 HD
ENDBRANCH  27  28
ENDBRANCH  23  27
BRANCH  24  30
HETATM   30  O4  UNL     1      11.290  40.426  -5.644  1.00  0.00    -0.390 OA
ATOM     31  H4  UNL     1      11.682  40.405  -4.778  1.00  0.00     0.210 HD
ENDBRANCH  24  30
BRANCH  25  32
HETATM   32  O5  UNL     1      10.674  38.485  -7.448  1.00  0.00    -0.390 OA
ATOM     33  H5  UNL     1      10.054  38.174  -6.799  1.00  0.00     0.210 HD
ENDBRANCH  25  32
BRANCH  26  34
HETATM   34  O6  UNL     1      14.120  37.784  -7.089  1.00  0.00    -0.390 OA
ATOM     35  H6  UNL     1      13.923  37.145  -6.414  1.00  0.00     0.210 HD
ENDBRANCH  26  34
ENDBRANCH  20  21
ENDBRANCH   2  20
TORSDOF 17
ENDMDL
