MODEL 1
REMARK VINA RESULT: -8.811326300      0.000      0.000
REMARK  14 active torsions:
REMARK  status: ('A' for Active; 'I' for Inactive)
REMARK    1  A    between atoms: N1_1  and  C1_5 
REMARK    2  A    between atoms: C1_5  and  C2_6 
REMARK    3  A    between atoms: C2_6  and  O1_7 
REMARK    4  A    between atoms: O1_7  and  C3_8 
REMARK    5  A    between atoms: C3_8  and  C4_9 
REMARK    6  A    between atoms: C4_9  and  C5_10 
REMARK    7  A    between atoms: C5_10  and  C6_11 
REMARK    8  A    between atoms: C6_11  and  C7_12 
REMARK    9  A    between atoms: C7_12  and  C8_13 
REMARK   10  A    between atoms: C8_13  and  C9_14 
REMARK       I    between atoms: C9_14  and  N2_16 
REMARK   11  A    between atoms: N2_16  and  C10_18 
REMARK   12  A    between atoms: C11_21  and  N4_22 
REMARK   13  A    between atoms: N4_22  and  C12_24 
REMARK   14  A    between atoms: C14_26  and  C15_27 
ROOT
HETATM    1  C10 UNL     1      11.277  38.738  -5.135  1.00  0.00     0.687 A 
HETATM    2  N3  UNL     1      12.124  38.034  -5.906  1.00  0.00    -0.176 N 
ATOM      3  H3  UNL     1      12.304  37.058  -5.673  1.00  0.00     0.186 HD
HETATM    4  C11 UNL     1      12.735  38.559  -6.959  1.00  0.00     0.125 A 
HETATM    5  C21 UNL     1      12.508  39.892  -7.302  1.00  0.00     0.094 A 
HETATM    6  C22 UNL     1      11.642  40.596  -6.506  1.00  0.00     0.135 A 
HETATM    7  N7  UNL     1      11.362  41.968  -6.805  1.00  0.00    -0.082 NA
HETATM    8  N8  UNL     1      11.046  40.026  -5.451  1.00  0.00    -0.178 N 
ATOM      9  H8  UNL     1      10.406  40.575  -4.877  1.00  0.00     0.185 HD
ENDROOT
BRANCH   1  10
HETATM   10  N2  UNL     1      10.693  38.189  -4.109  1.00  0.00    -0.159 N 
HETATM   11  C9  UNL     1       9.995  39.036  -3.215  1.00  0.00     0.235 C 
HETATM   12  O2  UNL     1      10.593  39.404  -2.185  1.00  0.00    -0.273 OA
ATOM     13  H2  UNL     1      10.737  37.181  -3.955  1.00  0.00     0.187 HD
BRANCH  11  14
HETATM   14  C8  UNL     1       8.616  39.478  -3.471  1.00  0.00     0.103 C 
BRANCH  14  15
HETATM   15  C7  UNL     1       8.424  40.905  -3.111  1.00  0.00     0.009 C 
BRANCH  15  16
HETATM   16  C6  UNL     1       8.439  41.888  -4.246  1.00  0.00     0.001 C 
BRANCH  16  17
HETATM   17  C5  UNL     1       7.116  42.462  -4.556  1.00  0.00     0.002 C 
BRANCH  17  18
HETATM   18  C4  UNL     1       6.052  42.367  -3.517  1.00  0.00     0.026 C 
BRANCH  18  19
HETATM   19  C3  UNL     1       4.645  42.442  -3.981  1.00  0.00     0.167 C 
BRANCH  19  20
HETATM   20  O1  UNL     1       3.669  41.694  -3.460  1.00  0.00    -0.389 OA
BRANCH  20  21
HETATM   21  C2  UNL     1       2.694  42.262  -2.701  1.00  0.00     0.194 C 
BRANCH  21  22
HETATM   22  C1  UNL     1       1.323  41.708  -3.131  1.00  0.00     0.255 C 
BRANCH  22  23
HETATM   23  N1  UNL     1       1.209  41.713  -4.566  1.00  0.00    -0.077 N 
ATOM     24  H13 UNL     1       2.014  42.156  -5.010  1.00  0.00     0.274 HD
ATOM     25  H12 UNL     1       1.316  40.778  -4.959  1.00  0.00     0.274 HD
ATOM     26  H11 UNL     1       0.332  42.147  -4.850  1.00  0.00     0.274 HD
ENDBRANCH  22  23
ENDBRANCH  21  22
ENDBRANCH  20  21
ENDBRANCH  19  20
ENDBRANCH  18  19
ENDBRANCH  17  18
ENDBRANCH  16  17
ENDBRANCH  15  16
ENDBRANCH  14  15
ENDBRANCH  11  14
ENDBRANCH   1  10
BRANCH   4  27
HETATM   27  N4  UNL     1      13.613  37.784  -7.738  1.00  0.00    -0.327 N 
ATOM     28  H4  UNL     1      13.991  36.927  -7.333  1.00  0.00     0.169 HD
BRANCH  27  29
HETATM   29  C12 UNL     1      13.959  38.094  -8.918  1.00  0.00     0.123 A 
HETATM   30  C13 UNL     1      13.278  37.696 -10.066  1.00  0.00     0.076 A 
HETATM   31  C14 UNL     1      13.929  38.207 -11.137  1.00  0.00     0.033 A 
HETATM   32  N5  UNL     1      14.981  38.902 -10.669  1.00  0.00    -0.303 N 
HETATM   33  N6  UNL     1      14.993  38.831  -9.356  1.00  0.00    -0.285 N 
ATOM     34  H5  UNL     1      15.661  39.404 -11.242  1.00  0.00     0.186 HD
ATOM     35  H6  UNL     1      15.689  39.273  -8.755  1.00  0.00     0.188 HD
BRANCH  31  36
HETATM   36  C15 UNL     1      13.567  38.046 -12.565  1.00  0.00     0.037 C 
HETATM   37  C16 UNL     1      13.873  36.661 -13.050  1.00  0.00     0.011 C 
HETATM   38  C17 UNL     1      15.043  36.594 -13.983  1.00  0.00     0.001 C 
HETATM   39  C18 UNL     1      14.935  37.528 -15.157  1.00  0.00     0.000 C 
HETATM   40  C19 UNL     1      14.336  38.862 -14.804  1.00  0.00     0.001 C 
HETATM   41  C20 UNL     1      14.334  39.112 -13.321  1.00  0.00     0.011 C 
ENDBRANCH  31  36
ENDBRANCH  27  29
ENDBRANCH   4  27
TORSDOF 14
ENDMDL
MODEL 2
REMARK VINA RESULT: -8.587519258      3.437     11.550
REMARK  14 active torsions:
REMARK  status: ('A' for Active; 'I' for Inactive)
REMARK    1  A    between atoms: N1_1  and  C1_5 
REMARK    2  A    between atoms: C1_5  and  C2_6 
REMARK    3  A    between atoms: C2_6  and  O1_7 
REMARK    4  A    between atoms: O1_7  and  C3_8 
REMARK    5  A    between atoms: C3_8  and  C4_9 
REMARK    6  A    between atoms: C4_9  and  C5_10 
REMARK    7  A    between atoms: C5_10  and  C6_11 
REMARK    8  A    between atoms: C6_11  and  C7_12 
REMARK    9  A    between atoms: C7_12  and  C8_13 
REMARK   10  A    between atoms: C8_13  and  C9_14 
REMARK       I    between atoms: C9_14  and  N2_16 
REMARK   11  A    between atoms: N2_16  and  C10_18 
REMARK   12  A    between atoms: C11_21  and  N4_22 
REMARK   13  A    between atoms: N4_22  and  C12_24 
REMARK   14  A    between atoms: C14_26  and  C15_27 
ROOT
HETATM    1  C10 UNL     1      10.794  38.747  -4.586  1.00  0.00     0.687 A 
HETATM    2  N3  UNL     1      10.224  39.957  -4.720  1.00  0.00    -0.176 N 
ATOM      3  H3  UNL     1      10.589  40.595  -5.427  1.00  0.00     0.186 HD
HETATM    4  C11 UNL     1       9.205  40.353  -3.971  1.00  0.00     0.125 A 
HETATM    5  C21 UNL     1       8.684  39.500  -2.998  1.00  0.00     0.094 A 
HETATM    6  C22 UNL     1       9.276  38.270  -2.874  1.00  0.00     0.135 A 
HETATM    7  N7  UNL     1       8.788  37.346  -1.895  1.00  0.00    -0.082 NA
HETATM    8  N8  UNL     1      10.305  37.910  -3.652  1.00  0.00    -0.178 N 
ATOM      9  H8  UNL     1      10.724  36.988  -3.535  1.00  0.00     0.185 HD
ENDROOT
BRANCH   1  10
HETATM   10  N2  UNL     1      11.793  38.390  -5.341  1.00  0.00    -0.159 N 
HETATM   11  C9  UNL     1      11.828  38.885  -6.666  1.00  0.00     0.235 C 
HETATM   12  O2  UNL     1      11.389  38.145  -7.569  1.00  0.00    -0.273 OA
ATOM     13  H2  UNL     1      12.527  37.775  -4.988  1.00  0.00     0.187 HD
BRANCH  11  14
HETATM   14  C8  UNL     1      12.359  40.217  -6.991  1.00  0.00     0.103 C 
BRANCH  14  15
HETATM   15  C7  UNL     1      12.268  40.502  -8.444  1.00  0.00     0.009 C 
BRANCH  15  16
HETATM   16  C6  UNL     1      13.550  40.425  -9.222  1.00  0.00     0.001 C 
BRANCH  16  17
HETATM   17  C5  UNL     1      13.606  39.295 -10.170  1.00  0.00     0.002 C 
BRANCH  17  18
HETATM   18  C4  UNL     1      14.167  38.003  -9.685  1.00  0.00     0.026 C 
BRANCH  18  19
HETATM   19  C3  UNL     1      14.218  36.881 -10.654  1.00  0.00     0.167 C 
BRANCH  19  20
HETATM   20  O1  UNL     1      13.147  36.460 -11.332  1.00  0.00    -0.389 OA
BRANCH  20  21
HETATM   21  C2  UNL     1      13.294  35.744 -12.479  1.00  0.00     0.194 C 
BRANCH  21  22
HETATM   22  C1  UNL     1      13.874  36.652 -13.578  1.00  0.00     0.255 C 
BRANCH  22  23
HETATM   23  N1  UNL     1      14.679  35.883 -14.490  1.00  0.00    -0.077 N 
ATOM     24  H13 UNL     1      14.110  35.272 -15.076  1.00  0.00     0.274 HD
ATOM     25  H12 UNL     1      15.082  36.464 -15.225  1.00  0.00     0.274 HD
ATOM     26  H11 UNL     1      15.394  35.364 -13.981  1.00  0.00     0.274 HD
ENDBRANCH  22  23
ENDBRANCH  21  22
ENDBRANCH  20  21
ENDBRANCH  19  20
ENDBRANCH  18  19
ENDBRANCH  17  18
ENDBRANCH  16  17
ENDBRANCH  15  16
ENDBRANCH  14  15
ENDBRANCH  11  14
ENDBRANCH   1  10
BRANCH   4  27
HETATM   27  N4  UNL     1       8.639  41.629  -4.149  1.00  0.00    -0.327 N 
ATOM     28  H4  UNL     1       8.310  41.886  -5.079  1.00  0.00     0.169 HD
BRANCH  27  29
HETATM   29  C12 UNL     1       8.516  42.475  -3.212  1.00  0.00     0.123 A 
HETATM   30  C13 UNL     1       7.501  43.425  -3.141  1.00  0.00     0.076 A 
HETATM   31  C14 UNL     1       7.687  44.153  -2.015  1.00  0.00     0.033 A 
HETATM   32  N5  UNL     1       8.784  43.669  -1.404  1.00  0.00    -0.303 N 
HETATM   33  N6  UNL     1       9.270  42.677  -2.119  1.00  0.00    -0.285 N 
ATOM     34  H5  UNL     1       9.176  44.017  -0.529  1.00  0.00     0.186 HD
ATOM     35  H6  UNL     1      10.101  42.137  -1.876  1.00  0.00     0.188 HD
BRANCH  31  36
HETATM   36  C15 UNL     1       6.850  45.274  -1.525  1.00  0.00     0.037 C 
HETATM   37  C16 UNL     1       7.110  45.552  -0.076  1.00  0.00     0.011 C 
HETATM   38  C17 UNL     1       5.989  45.142   0.828  1.00  0.00     0.001 C 
HETATM   39  C18 UNL     1       4.655  45.713   0.436  1.00  0.00     0.000 C 
HETATM   40  C19 UNL     1       4.438  45.754  -1.053  1.00  0.00     0.001 C 
HETATM   41  C20 UNL     1       5.411  44.880  -1.795  1.00  0.00     0.011 C 
ENDBRANCH  31  36
ENDBRANCH  27  29
ENDBRANCH   4  27
TORSDOF 14
ENDMDL
MODEL 3
REMARK VINA RESULT: -8.526301719      2.865     11.140
REMARK  14 active torsions:
REMARK  status: ('A' for Active; 'I' for Inactive)
REMARK    1  A    between atoms: N1_1  and  C1_5 
REMARK    2  A    between atoms: C1_5  and  C2_6 
REMARK    3  A    between atoms: C2_6  and  O1_7 
REMARK    4  A    between atoms: O1_7  and  C3_8 
REMARK    5  A    between atoms: C3_8  and  C4_9 
REMARK    6  A    between atoms: C4_9  and  C5_10 
REMARK    7  A    between atoms: C5_10  and  C6_11 
REMARK    8  A    between atoms: C6_11  and  C7_12 
REMARK    9  A    between atoms: C7_12  and  C8_13 
REMARK   10  A    between atoms: C8_13  and  C9_14 
REMARK       I    between atoms: C9_14  and  N2_16 
REMARK   11  A    between atoms: N2_16  and  C10_18 
REMARK   12  A    between atoms: C11_21  and  N4_22 
REMARK   13  A    between atoms: N4_22  and  C12_24 
REMARK   14  A    between atoms: C14_26  and  C15_27 
ROOT
HETATM    1  C10 UNL     1      10.724  38.783  -4.347  1.00  0.00     0.687 A 
HETATM    2  N3  UNL     1      10.219  40.008  -4.116  1.00  0.00    -0.176 N 
ATOM      3  H3  UNL     1      10.562  40.792  -4.670  1.00  0.00     0.186 HD
HETATM    4  C11 UNL     1       9.291  40.235  -3.197  1.00  0.00     0.125 A 
HETATM    5  C21 UNL     1       8.803  39.181  -2.426  1.00  0.00     0.094 A 
HETATM    6  C22 UNL     1       9.328  37.939  -2.673  1.00  0.00     0.135 A 
HETATM    7  N7  UNL     1       8.868  36.813  -1.918  1.00  0.00    -0.082 NA
HETATM    8  N8  UNL     1      10.265  37.754  -3.612  1.00  0.00    -0.178 N 
ATOM      9  H8  UNL     1      10.636  36.818  -3.773  1.00  0.00     0.185 HD
ENDROOT
BRANCH   1  10
HETATM   10  N2  UNL     1      11.634  38.596  -5.260  1.00  0.00    -0.159 N 
HETATM   11  C9  UNL     1      11.393  39.127  -6.550  1.00  0.00     0.235 C 
HETATM   12  O2  UNL     1      10.926  38.356  -7.412  1.00  0.00    -0.273 OA
ATOM     13  H2  UNL     1      12.491  38.084  -5.052  1.00  0.00     0.187 HD
BRANCH  11  14
HETATM   14  C8  UNL     1      11.677  40.530  -6.884  1.00  0.00     0.103 C 
BRANCH  14  15
HETATM   15  C7  UNL     1      12.911  40.659  -7.697  1.00  0.00     0.009 C 
BRANCH  15  16
HETATM   16  C6  UNL     1      12.774  40.392  -9.168  1.00  0.00     0.001 C 
BRANCH  16  17
HETATM   17  C5  UNL     1      13.719  39.382  -9.683  1.00  0.00     0.002 C 
BRANCH  17  18
HETATM   18  C4  UNL     1      13.207  38.004  -9.921  1.00  0.00     0.026 C 
BRANCH  18  19
HETATM   19  C3  UNL     1      13.560  37.365 -11.212  1.00  0.00     0.167 C 
BRANCH  19  20
HETATM   20  O1  UNL     1      13.009  36.222 -11.631  1.00  0.00    -0.389 OA
BRANCH  20  21
HETATM   21  C2  UNL     1      13.635  35.454 -12.562  1.00  0.00     0.194 C 
BRANCH  21  22
HETATM   22  C1  UNL     1      13.600  36.171 -13.924  1.00  0.00     0.255 C 
BRANCH  22  23
HETATM   23  N1  UNL     1      14.767  35.835 -14.696  1.00  0.00    -0.077 N 
ATOM     24  H13 UNL     1      14.661  34.941 -15.176  1.00  0.00     0.274 HD
ATOM     25  H12 UNL     1      14.867  36.435 -15.515  1.00  0.00     0.274 HD
ATOM     26  H11 UNL     1      15.599  35.854 -14.107  1.00  0.00     0.274 HD
ENDBRANCH  22  23
ENDBRANCH  21  22
ENDBRANCH  20  21
ENDBRANCH  19  20
ENDBRANCH  18  19
ENDBRANCH  17  18
ENDBRANCH  16  17
ENDBRANCH  15  16
ENDBRANCH  14  15
ENDBRANCH  11  14
ENDBRANCH   1  10
BRANCH   4  27
HETATM   27  N4  UNL     1       8.791  41.534  -2.992  1.00  0.00    -0.327 N 
ATOM     28  H4  UNL     1       9.221  42.109  -2.268  1.00  0.00     0.169 HD
BRANCH  27  29
HETATM   29  C12 UNL     1       7.832  42.027  -3.660  1.00  0.00     0.123 A 
HETATM   30  C13 UNL     1       6.516  42.099  -3.208  1.00  0.00     0.076 A 
HETATM   31  C14 UNL     1       5.772  42.679  -4.179  1.00  0.00     0.033 A 
HETATM   32  N5  UNL     1       6.600  42.959  -5.202  1.00  0.00    -0.303 N 
HETATM   33  N6  UNL     1       7.817  42.570  -4.887  1.00  0.00    -0.285 N 
ATOM     34  H5  UNL     1       6.327  43.402  -6.080  1.00  0.00     0.186 HD
ATOM     35  H6  UNL     1       8.633  42.668  -5.491  1.00  0.00     0.188 HD
BRANCH  31  36
HETATM   36  C15 UNL     1       4.318  42.963  -4.142  1.00  0.00     0.037 C 
HETATM   37  C16 UNL     1       4.043  44.309  -3.543  1.00  0.00     0.011 C 
HETATM   38  C17 UNL     1       3.433  44.248  -2.176  1.00  0.00     0.001 C 
HETATM   39  C18 UNL     1       2.193  43.401  -2.105  1.00  0.00     0.000 C 
HETATM   40  C19 UNL     1       2.273  42.155  -2.944  1.00  0.00     0.001 C 
HETATM   41  C20 UNL     1       3.684  41.833  -3.355  1.00  0.00     0.011 C 
ENDBRANCH  31  36
ENDBRANCH  27  29
ENDBRANCH   4  27
TORSDOF 14
ENDMDL
MODEL 4
REMARK VINA RESULT: -8.516457687      4.420     11.596
REMARK  14 active torsions:
REMARK  status: ('A' for Active; 'I' for Inactive)
REMARK    1  A    between atoms: N1_1  and  C1_5 
REMARK    2  A    between atoms: C1_5  and  C2_6 
REMARK    3  A    between atoms: C2_6  and  O1_7 
REMARK    4  A    between atoms: O1_7  and  C3_8 
REMARK    5  A    between atoms: C3_8  and  C4_9 
REMARK    6  A    between atoms: C4_9  and  C5_10 
REMARK    7  A    between atoms: C5_10  and  C6_11 
REMARK    8  A    between atoms: C6_11  and  C7_12 
REMARK    9  A    between atoms: C7_12  and  C8_13 
REMARK   10  A    between atoms: C8_13  and  C9_14 
REMARK       I    between atoms: C9_14  and  N2_16 
REMARK   11  A    between atoms: N2_16  and  C10_18 
REMARK   12  A    between atoms: C11_21  and  N4_22 
REMARK   13  A    between atoms: N4_22  and  C12_24 
REMARK   14  A    between atoms: C14_26  and  C15_27 
ROOT
HETATM    1  C10 UNL     1      13.379  39.635  -9.046  1.00  0.00     0.687 A 
HETATM    2  N3  UNL     1      12.546  38.941  -8.250  1.00  0.00    -0.176 N 
ATOM      3  H3  UNL     1      12.642  37.927  -8.206  1.00  0.00     0.186 HD
HETATM    4  C11 UNL     1      11.607  39.525  -7.518  1.00  0.00     0.125 A 
HETATM    5  C21 UNL     1      11.456  40.910  -7.558  1.00  0.00     0.094 A 
HETATM    6  C22 UNL     1      12.312  41.602  -8.375  1.00  0.00     0.135 A 
HETATM    7  N7  UNL     1      12.211  43.028  -8.460  1.00  0.00    -0.082 NA
HETATM    8  N8  UNL     1      13.247  40.973  -9.098  1.00  0.00    -0.178 N 
ATOM      9  H8  UNL     1      13.869  41.515  -9.696  1.00  0.00     0.185 HD
ENDROOT
BRANCH   1  10
HETATM   10  N2  UNL     1      14.292  39.028  -9.750  1.00  0.00    -0.159 N 
HETATM   11  C9  UNL     1      14.127  37.643  -9.991  1.00  0.00     0.235 C 
HETATM   12  O2  UNL     1      14.734  36.852  -9.241  1.00  0.00    -0.273 OA
ATOM     13  H2  UNL     1      15.098  39.534 -10.115  1.00  0.00     0.187 HD
BRANCH  11  14
HETATM   14  C8  UNL     1      13.279  37.133 -11.078  1.00  0.00     0.103 C 
BRANCH  14  15
HETATM   15  C7  UNL     1      13.987  36.113 -11.891  1.00  0.00     0.009 C 
BRANCH  15  16
HETATM   16  C6  UNL     1      15.195  36.583 -12.648  1.00  0.00     0.001 C 
BRANCH  16  17
HETATM   17  C5  UNL     1      14.885  37.136 -13.981  1.00  0.00     0.002 C 
BRANCH  17  18
HETATM   18  C4  UNL     1      13.909  36.401 -14.833  1.00  0.00     0.026 C 
BRANCH  18  19
HETATM   19  C3  UNL     1      13.941  36.678 -16.290  1.00  0.00     0.167 C 
BRANCH  19  20
HETATM   20  O1  UNL     1      13.113  36.090 -17.158  1.00  0.00    -0.389 OA
BRANCH  20  21
HETATM   21  C2  UNL     1      13.600  35.469 -18.266  1.00  0.00     0.194 C 
BRANCH  21  22
HETATM   22  C1  UNL     1      14.514  34.307 -17.839  1.00  0.00     0.255 C 
BRANCH  22  23
HETATM   23  N1  UNL     1      13.757  33.308 -17.132  1.00  0.00    -0.077 N 
ATOM     24  H13 UNL     1      13.545  33.598 -16.177  1.00  0.00     0.274 HD
ATOM     25  H12 UNL     1      12.802  33.236 -17.483  1.00  0.00     0.274 HD
ATOM     26  H11 UNL     1      14.241  32.411 -17.159  1.00  0.00     0.274 HD
ENDBRANCH  22  23
ENDBRANCH  21  22
ENDBRANCH  20  21
ENDBRANCH  19  20
ENDBRANCH  18  19
ENDBRANCH  17  18
ENDBRANCH  16  17
ENDBRANCH  15  16
ENDBRANCH  14  15
ENDBRANCH  11  14
ENDBRANCH   1  10
BRANCH   4  27
HETATM   27  N4  UNL     1      10.760  38.758  -6.698  1.00  0.00    -0.327 N 
ATOM     28  H4  UNL     1      10.105  38.117  -7.145  1.00  0.00     0.169 HD
BRANCH  27  29
HETATM   29  C12 UNL     1      10.768  38.824  -5.431  1.00  0.00     0.123 A 
HETATM   30  C13 UNL     1       9.634  38.701  -4.632  1.00  0.00     0.076 A 
HETATM   31  C14 UNL     1      10.017  38.824  -3.340  1.00  0.00     0.033 A 
HETATM   32  N5  UNL     1      11.349  39.016  -3.336  1.00  0.00    -0.303 N 
HETATM   33  N6  UNL     1      11.786  39.015  -4.577  1.00  0.00    -0.285 N 
ATOM     34  H5  UNL     1      11.926  39.142  -2.504  1.00  0.00     0.186 HD
ATOM     35  H6  UNL     1      12.761  39.141  -4.851  1.00  0.00     0.188 HD
BRANCH  31  36
HETATM   36  C15 UNL     1       9.151  38.759  -2.139  1.00  0.00     0.037 C 
HETATM   37  C16 UNL     1       9.563  39.776  -1.117  1.00  0.00     0.011 C 
HETATM   38  C17 UNL     1      10.220  39.184   0.091  1.00  0.00     0.001 C 
HETATM   39  C18 UNL     1       9.411  38.103   0.752  1.00  0.00     0.000 C 
HETATM   40  C19 UNL     1       8.700  37.208  -0.226  1.00  0.00     0.001 C 
HETATM   41  C20 UNL     1       9.249  37.338  -1.621  1.00  0.00     0.011 C 
ENDBRANCH  31  36
ENDBRANCH  27  29
ENDBRANCH   4  27
TORSDOF 14
ENDMDL
MODEL 5
REMARK VINA RESULT: -8.514317059      4.468     10.990
REMARK  14 active torsions:
REMARK  status: ('A' for Active; 'I' for Inactive)
REMARK    1  A    between atoms: N1_1  and  C1_5 
REMARK    2  A    between atoms: C1_5  and  C2_6 
REMARK    3  A    between atoms: C2_6  and  O1_7 
REMARK    4  A    between atoms: O1_7  and  C3_8 
REMARK    5  A    between atoms: C3_8  and  C4_9 
REMARK    6  A    between atoms: C4_9  and  C5_10 
REMARK    7  A    between atoms: C5_10  and  C6_11 
REMARK    8  A    between atoms: C6_11  and  C7_12 
REMARK    9  A    between atoms: C7_12  and  C8_13 
REMARK   10  A    between atoms: C8_13  and  C9_14 
REMARK       I    between atoms: C9_14  and  N2_16 
REMARK   11  A    between atoms: N2_16  and  C10_18 
REMARK   12  A    between atoms: C11_21  and  N4_22 
REMARK   13  A    between atoms: N4_22  and  C12_24 
REMARK   14  A    between atoms: C14_26  and  C15_27 
ROOT
HETATM    1  C10 UNL     1      13.601  39.461  -9.291  1.00  0.00     0.687 A 
HETATM    2  N3  UNL     1      12.723  38.810  -8.509  1.00  0.00    -0.176 N 
ATOM      3  H3  UNL     1      12.727  37.790  -8.511  1.00  0.00     0.186 HD
HETATM    4  C11 UNL     1      11.852  39.442  -7.735  1.00  0.00     0.125 A 
HETATM    5  C21 UNL     1      11.825  40.836  -7.712  1.00  0.00     0.094 A 
HETATM    6  C22 UNL     1      12.727  41.484  -8.516  1.00  0.00     0.135 A 
HETATM    7  N7  UNL     1      12.754  42.916  -8.537  1.00  0.00    -0.082 NA
HETATM    8  N8  UNL     1      13.590  40.806  -9.283  1.00  0.00    -0.178 N 
ATOM      9  H8  UNL     1      14.249  41.317  -9.870  1.00  0.00     0.185 HD
ENDROOT
BRANCH   1  10
HETATM   10  N2  UNL     1      14.445  38.807 -10.038  1.00  0.00    -0.159 N 
HETATM   11  C9  UNL     1      14.209  37.427 -10.247  1.00  0.00     0.235 C 
HETATM   12  O2  UNL     1      14.827  36.621  -9.522  1.00  0.00    -0.273 OA
ATOM     13  H2  UNL     1      15.248  39.274 -10.460  1.00  0.00     0.187 HD
BRANCH  11  14
HETATM   14  C8  UNL     1      13.277  36.938 -11.273  1.00  0.00     0.103 C 
BRANCH  14  15
HETATM   15  C7  UNL     1      13.920  35.942 -12.166  1.00  0.00     0.009 C 
BRANCH  15  16
HETATM   16  C6  UNL     1      13.628  36.073 -13.633  1.00  0.00     0.001 C 
BRANCH  16  17
HETATM   17  C5  UNL     1      14.629  36.866 -14.372  1.00  0.00     0.002 C 
BRANCH  17  18
HETATM   18  C4  UNL     1      14.372  38.323 -14.551  1.00  0.00     0.026 C 
BRANCH  18  19
HETATM   19  C3  UNL     1      15.056  39.250 -13.617  1.00  0.00     0.167 C 
BRANCH  19  20
HETATM   20  O1  UNL     1      16.023  38.856 -12.783  1.00  0.00    -0.389 OA
BRANCH  20  21
HETATM   21  C2  UNL     1      17.261  39.413 -12.849  1.00  0.00     0.194 C 
BRANCH  21  22
HETATM   22  C1  UNL     1      17.240  40.791 -12.164  1.00  0.00     0.255 C 
BRANCH  22  23
HETATM   23  N1  UNL     1      17.375  40.644 -10.739  1.00  0.00    -0.077 N 
ATOM     24  H13 UNL     1      17.312  39.667 -10.450  1.00  0.00     0.274 HD
ATOM     25  H12 UNL     1      18.327  40.833 -10.425  1.00  0.00     0.274 HD
ATOM     26  H11 UNL     1      16.693  41.228 -10.256  1.00  0.00     0.274 HD
ENDBRANCH  22  23
ENDBRANCH  21  22
ENDBRANCH  20  21
ENDBRANCH  19  20
ENDBRANCH  18  19
ENDBRANCH  17  18
ENDBRANCH  16  17
ENDBRANCH  15  16
ENDBRANCH  14  15
ENDBRANCH  11  14
ENDBRANCH   1  10
BRANCH   4  27
HETATM   27  N4  UNL     1      10.952  38.718  -6.931  1.00  0.00    -0.327 N 
ATOM     28  H4  UNL     1      10.289  38.093  -7.390  1.00  0.00     0.169 HD
BRANCH  27  29
HETATM   29  C12 UNL     1      10.922  38.804  -5.666  1.00  0.00     0.123 A 
HETATM   30  C13 UNL     1       9.774  38.633  -4.896  1.00  0.00     0.076 A 
HETATM   31  C14 UNL     1      10.115  38.796  -3.596  1.00  0.00     0.033 A 
HETATM   32  N5  UNL     1      11.434  39.059  -3.559  1.00  0.00    -0.303 N 
HETATM   33  N6  UNL     1      11.904  39.062  -4.788  1.00  0.00    -0.285 N 
ATOM     34  H5  UNL     1      11.980  39.229  -2.715  1.00  0.00     0.186 HD
ATOM     35  H6  UNL     1      12.878  39.237  -5.038  1.00  0.00     0.188 HD
BRANCH  31  36
HETATM   36  C15 UNL     1       9.220  38.703  -2.418  1.00  0.00     0.037 C 
HETATM   37  C16 UNL     1       9.584  39.721  -1.379  1.00  0.00     0.011 C 
HETATM   38  C17 UNL     1      10.224  39.135  -0.158  1.00  0.00     0.001 C 
HETATM   39  C18 UNL     1       9.423  38.032   0.475  1.00  0.00     0.000 C 
HETATM   40  C19 UNL     1       8.757  37.128  -0.527  1.00  0.00     0.001 C 
HETATM   41  C20 UNL     1       9.337  37.281  -1.906  1.00  0.00     0.011 C 
ENDBRANCH  31  36
ENDBRANCH  27  29
ENDBRANCH   4  27
TORSDOF 14
ENDMDL
