MODEL 1
REMARK VINA RESULT: -6.767345100      0.000      0.000
REMARK  7 active torsions:
REMARK  status: ('A' for Active; 'I' for Inactive)
REMARK    1  A    between atoms: O1_2  and  C2_3 
REMARK    2  A    between atoms: C2_3  and  C3_4 
REMARK    3  A    between atoms: C3_4  and  N1_5 
REMARK    4  A    between atoms: C3_4  and  C12_19 
REMARK       I    between atoms: N1_5  and  C4_7 
REMARK       I    between atoms: C4_7  and  N2_9 
REMARK    5  A    between atoms: N2_9  and  C5_11 
REMARK    6  A    between atoms: C5_11  and  C6_12 
REMARK    7  A    between atoms: C14_22  and  N3_23 
REMARK       I    between atoms: N3_23  and  C15_25 
ROOT
HETATM    1  C3  UNL     1     107.280  20.195  13.713  1.00  0.00     0.160 C 
ENDROOT
BRANCH   1   2
HETATM    2  C2  UNL     1     106.751  21.524  13.282  1.00  0.00     0.198 C 
BRANCH   2   3
HETATM    3  O1  UNL     1     105.566  21.888  13.899  1.00  0.00    -0.394 OA
HETATM    4  C1  UNL     1     104.773  22.479  12.888  1.00  0.00     0.201 C 
ENDBRANCH   2   3
ENDBRANCH   1   2
BRANCH   1   5
HETATM    5  N1  UNL     1     107.925  19.457  12.648  1.00  0.00    -0.331 N 
HETATM    6  C4  UNL     1     109.302  19.593  12.340  1.00  0.00     0.317 C 
HETATM    7  O2  UNL     1     109.985  20.390  13.027  1.00  0.00    -0.247 OA
HETATM    8  N2  UNL     1     109.926  18.872  11.302  1.00  0.00    -0.327 N 
ATOM      9  H2  UNL     1     109.348  18.230  10.761  1.00  0.00     0.165 HD
ATOM     10  H1  UNL     1     107.363  18.810  12.094  1.00  0.00     0.165 HD
BRANCH   8  11
HETATM   11  C5  UNL     1     111.305  18.971  10.951  1.00  0.00     0.087 C 
HETATM   12  C7  UNL     1     112.217  18.193  11.864  1.00  0.00     0.038 C 
HETATM   13  C8  UNL     1     113.462  18.968  12.242  1.00  0.00     0.003 C 
HETATM   14  C9  UNL     1     114.091  19.625  11.032  1.00  0.00     0.000 C 
HETATM   15  C10 UNL     1     113.133  20.587  10.399  1.00  0.00     0.003 C 
HETATM   16  C11 UNL     1     111.742  20.435  10.981  1.00  0.00     0.038 C 
BRANCH  11  17
HETATM   17  C6  UNL     1     111.531  18.499   9.563  1.00  0.00     0.262 C 
HETATM   18  O3  UNL     1     110.713  17.749   9.070  1.00  0.00    -0.304 OA
ENDBRANCH  11  17
ENDBRANCH   8  11
ENDBRANCH   1   5
BRANCH   1  19
HETATM   19  C12 UNL     1     106.145  19.352  14.294  1.00  0.00     0.043 A 
HETATM   20  C13 UNL     1     105.540  18.412  13.495  1.00  0.00     0.080 A 
HETATM   21  S1  UNL     1     104.370  17.750  14.543  1.00  0.00    -0.064 SA
HETATM   22  C14 UNL     1     104.706  18.689  15.919  1.00  0.00     0.151 A 
HETATM   23  N6  UNL     1     105.706  19.473  15.517  1.00  0.00    -0.338 N 
ATOM     24  H6  UNL     1     106.120  20.155  16.152  1.00  0.00     0.168 HD
BRANCH  22  25
HETATM   25  N3  UNL     1     104.135  18.669  17.109  1.00  0.00    -0.311 N 
HETATM   26  C15 UNL     1     104.879  18.050  18.140  1.00  0.00     0.187 C 
HETATM   27  N4  UNL     1     104.885  18.500  19.339  1.00  0.00    -0.373 N 
HETATM   28  N5  UNL     1     105.636  16.897  17.830  1.00  0.00    -0.064 NA
ATOM     29  H42 UNL     1     104.339  19.332  19.562  1.00  0.00     0.158 HD
ATOM     30  H41 UNL     1     105.422  18.053  20.082  1.00  0.00     0.158 HD
ATOM     31  H3  UNL     1     103.215  19.075  17.274  1.00  0.00     0.170 HD
ENDBRANCH  22  25
ENDBRANCH   1  19
TORSDOF 7
ENDMDL
MODEL 2
REMARK VINA RESULT: -6.725808554      1.564      1.843
REMARK  7 active torsions:
REMARK  status: ('A' for Active; 'I' for Inactive)
REMARK    1  A    between atoms: O1_2  and  C2_3 
REMARK    2  A    between atoms: C2_3  and  C3_4 
REMARK    3  A    between atoms: C3_4  and  N1_5 
REMARK    4  A    between atoms: C3_4  and  C12_19 
REMARK       I    between atoms: N1_5  and  C4_7 
REMARK       I    between atoms: C4_7  and  N2_9 
REMARK    5  A    between atoms: N2_9  and  C5_11 
REMARK    6  A    between atoms: C5_11  and  C6_12 
REMARK    7  A    between atoms: C14_22  and  N3_23 
REMARK       I    between atoms: N3_23  and  C15_25 
ROOT
HETATM    1  C3  UNL     1     107.751  20.868  13.590  1.00  0.00     0.160 C 
ENDROOT
BRANCH   1   2
HETATM    2  C2  UNL     1     106.886  21.855  12.877  1.00  0.00     0.198 C 
BRANCH   2   3
HETATM    3  O1  UNL     1     106.151  22.674  13.718  1.00  0.00    -0.394 OA
HETATM    4  C1  UNL     1     105.043  23.111  12.955  1.00  0.00     0.201 C 
ENDBRANCH   2   3
ENDBRANCH   1   2
BRANCH   1   5
HETATM    5  N1  UNL     1     108.346  19.882  12.713  1.00  0.00    -0.331 N 
HETATM    6  C4  UNL     1     109.712  19.908  12.338  1.00  0.00     0.317 C 
HETATM    7  O2  UNL     1     110.433  20.831  12.791  1.00  0.00    -0.247 OA
HETATM    8  N2  UNL     1     110.288  18.946  11.484  1.00  0.00    -0.327 N 
ATOM      9  H2  UNL     1     109.680  18.206  11.131  1.00  0.00     0.165 HD
ATOM     10  H1  UNL     1     107.754  19.135  12.349  1.00  0.00     0.165 HD
BRANCH   8  11
HETATM   11  C5  UNL     1     111.654  18.926  11.075  1.00  0.00     0.087 C 
HETATM   12  C7  UNL     1     112.545  18.122  11.987  1.00  0.00     0.038 C 
HETATM   13  C8  UNL     1     113.857  18.818  12.280  1.00  0.00     0.003 C 
HETATM   14  C9  UNL     1     114.481  19.372  11.016  1.00  0.00     0.000 C 
HETATM   15  C10 UNL     1     113.570  20.375  10.377  1.00  0.00     0.003 C 
HETATM   16  C11 UNL     1     112.197  20.353  11.019  1.00  0.00     0.038 C 
BRANCH  11  17
HETATM   17  C6  UNL     1     111.786  18.378   9.703  1.00  0.00     0.262 C 
HETATM   18  O3  UNL     1     110.847  17.767   9.234  1.00  0.00    -0.304 OA
ENDBRANCH  11  17
ENDBRANCH   8  11
ENDBRANCH   1   5
BRANCH   1  19
HETATM   19  C12 UNL     1     106.939  20.156  14.671  1.00  0.00     0.043 A 
HETATM   20  C13 UNL     1     107.561  19.803  15.845  1.00  0.00     0.080 A 
HETATM   21  S1  UNL     1     106.296  19.056  16.710  1.00  0.00    -0.064 SA
HETATM   22  C14 UNL     1     105.063  19.231  15.552  1.00  0.00     0.151 A 
HETATM   23  N6  UNL     1     105.675  19.857  14.547  1.00  0.00    -0.338 N 
ATOM     24  H6  UNL     1     105.165  20.098  13.698  1.00  0.00     0.168 HD
BRANCH  22  25
HETATM   25  N3  UNL     1     103.801  18.850  15.607  1.00  0.00    -0.311 N 
HETATM   26  C15 UNL     1     103.506  17.604  15.009  1.00  0.00     0.187 C 
HETATM   27  N4  UNL     1     102.653  16.792  15.512  1.00  0.00    -0.373 N 
HETATM   28  N5  UNL     1     104.176  17.249  13.816  1.00  0.00    -0.064 NA
ATOM     29  H42 UNL     1     102.169  17.048  16.373  1.00  0.00     0.158 HD
ATOM     30  H41 UNL     1     102.440  15.892  15.081  1.00  0.00     0.158 HD
ATOM     31  H3  UNL     1     103.083  19.420  16.054  1.00  0.00     0.170 HD
ENDBRANCH  22  25
ENDBRANCH   1  19
TORSDOF 7
ENDMDL
MODEL 3
REMARK VINA RESULT: -6.582506518      1.908      2.555
REMARK  7 active torsions:
REMARK  status: ('A' for Active; 'I' for Inactive)
REMARK    1  A    between atoms: O1_2  and  C2_3 
REMARK    2  A    between atoms: C2_3  and  C3_4 
REMARK    3  A    between atoms: C3_4  and  N1_5 
REMARK    4  A    between atoms: C3_4  and  C12_19 
REMARK       I    between atoms: N1_5  and  C4_7 
REMARK       I    between atoms: C4_7  and  N2_9 
REMARK    5  A    between atoms: N2_9  and  C5_11 
REMARK    6  A    between atoms: C5_11  and  C6_12 
REMARK    7  A    between atoms: C14_22  and  N3_23 
REMARK       I    between atoms: N3_23  and  C15_25 
ROOT
HETATM    1  C3  UNL     1     107.312  20.324  13.226  1.00  0.00     0.160 C 
ENDROOT
BRANCH   1   2
HETATM    2  C2  UNL     1     106.950  21.684  12.724  1.00  0.00     0.198 C 
BRANCH   2   3
HETATM    3  O1  UNL     1     106.952  22.666  13.701  1.00  0.00    -0.394 OA
HETATM    4  C1  UNL     1     108.181  23.349  13.556  1.00  0.00     0.201 C 
ENDBRANCH   2   3
ENDBRANCH   1   2
BRANCH   1   5
HETATM    5  N1  UNL     1     108.042  19.529  12.261  1.00  0.00    -0.331 N 
HETATM    6  C4  UNL     1     109.446  19.622  12.090  1.00  0.00     0.317 C 
HETATM    7  O2  UNL     1     110.077  20.432  12.810  1.00  0.00    -0.247 OA
HETATM    8  N2  UNL     1     110.153  18.845  11.150  1.00  0.00    -0.327 N 
ATOM      9  H2  UNL     1     109.615  18.193  10.579  1.00  0.00     0.165 HD
ATOM     10  H1  UNL     1     107.522  18.872  11.679  1.00  0.00     0.165 HD
BRANCH   8  11
HETATM   11  C5  UNL     1     111.562  18.900  10.937  1.00  0.00     0.087 C 
HETATM   12  C7  UNL     1     112.352  18.067  11.914  1.00  0.00     0.038 C 
HETATM   13  C8  UNL     1     113.580  18.787  12.431  1.00  0.00     0.003 C 
HETATM   14  C9  UNL     1     114.348  19.445  11.304  1.00  0.00     0.000 C 
HETATM   15  C10 UNL     1     113.491  20.457  10.606  1.00  0.00     0.003 C 
HETATM   16  C11 UNL     1     112.045  20.345  11.046  1.00  0.00     0.038 C 
BRANCH  11  17
HETATM   17  C6  UNL     1     111.906  18.450   9.566  1.00  0.00     0.262 C 
HETATM   18  O3  UNL     1     111.094  17.780   8.959  1.00  0.00    -0.304 OA
ENDBRANCH  11  17
ENDBRANCH   8  11
ENDBRANCH   1   5
BRANCH   1  19
HETATM   19  C12 UNL     1     106.047  19.575  13.643  1.00  0.00     0.043 A 
HETATM   20  C13 UNL     1     106.006  18.209  13.495  1.00  0.00     0.080 A 
HETATM   21  S1  UNL     1     104.445  17.834  14.070  1.00  0.00    -0.064 SA
HETATM   22  C14 UNL     1     103.937  19.409  14.461  1.00  0.00     0.151 A 
HETATM   23  N6  UNL     1     104.989  20.159  14.134  1.00  0.00    -0.338 N 
ATOM     24  H6  UNL     1     104.967  21.170  14.266  1.00  0.00     0.168 HD
BRANCH  22  25
HETATM   25  N3  UNL     1     102.789  19.818  14.966  1.00  0.00    -0.311 N 
HETATM   26  C15 UNL     1     101.822  20.252  14.030  1.00  0.00     0.187 C 
HETATM   27  N4  UNL     1     100.573  20.014  14.181  1.00  0.00    -0.373 N 
HETATM   28  N5  UNL     1     102.256  20.972  12.893  1.00  0.00    -0.064 NA
ATOM     29  H42 UNL     1     100.261  19.494  15.001  1.00  0.00     0.158 HD
ATOM     30  H41 UNL     1      99.876  20.326  13.505  1.00  0.00     0.158 HD
ATOM     31  H3  UNL     1     102.610  19.822  15.970  1.00  0.00     0.170 HD
ENDBRANCH  22  25
ENDBRANCH   1  19
TORSDOF 7
ENDMDL
MODEL 4
REMARK VINA RESULT: -6.524392433      2.297      3.069
REMARK  7 active torsions:
REMARK  status: ('A' for Active; 'I' for Inactive)
REMARK    1  A    between atoms: O1_2  and  C2_3 
REMARK    2  A    between atoms: C2_3  and  C3_4 
REMARK    3  A    between atoms: C3_4  and  N1_5 
REMARK    4  A    between atoms: C3_4  and  C12_19 
REMARK       I    between atoms: N1_5  and  C4_7 
REMARK       I    between atoms: C4_7  and  N2_9 
REMARK    5  A    between atoms: N2_9  and  C5_11 
REMARK    6  A    between atoms: C5_11  and  C6_12 
REMARK    7  A    between atoms: C14_22  and  N3_23 
REMARK       I    between atoms: N3_23  and  C15_25 
ROOT
HETATM    1  C3  UNL     1     107.219  20.135  15.028  1.00  0.00     0.160 C 
ENDROOT
BRANCH   1   2
HETATM    2  C2  UNL     1     105.868  19.838  14.462  1.00  0.00     0.198 C 
BRANCH   2   3
HETATM    3  O1  UNL     1     104.855  20.635  14.969  1.00  0.00    -0.394 OA
HETATM    4  C1  UNL     1     103.660  20.150  14.389  1.00  0.00     0.201 C 
ENDBRANCH   2   3
ENDBRANCH   1   2
BRANCH   1   5
HETATM    5  N1  UNL     1     108.303  19.542  14.274  1.00  0.00    -0.331 N 
HETATM    6  C4  UNL     1     108.653  19.961  12.966  1.00  0.00     0.317 C 
HETATM    7  O2  UNL     1     107.987  20.889  12.445  1.00  0.00    -0.247 OA
HETATM    8  N2  UNL     1     109.709  19.381  12.236  1.00  0.00    -0.327 N 
ATOM      9  H2  UNL     1     110.234  18.631  12.684  1.00  0.00     0.165 HD
ATOM     10  H1  UNL     1     108.840  18.788  14.704  1.00  0.00     0.165 HD
BRANCH   8  11
HETATM   11  C5  UNL     1     110.101  19.764  10.919  1.00  0.00     0.087 C 
HETATM   12  C7  UNL     1     108.940  20.087  10.014  1.00  0.00     0.038 C 
HETATM   13  C8  UNL     1     109.099  19.495   8.629  1.00  0.00     0.003 C 
HETATM   14  C9  UNL     1     110.490  19.740   8.083  1.00  0.00     0.000 C 
HETATM   15  C10 UNL     1     111.520  19.106   8.967  1.00  0.00     0.003 C 
HETATM   16  C11 UNL     1     110.908  18.639  10.273  1.00  0.00     0.038 C 
BRANCH  11  17
HETATM   17  C6  UNL     1     110.996  20.947  10.957  1.00  0.00     0.262 C 
HETATM   18  O3  UNL     1     111.781  21.045  11.880  1.00  0.00    -0.304 OA
ENDBRANCH  11  17
ENDBRANCH   8  11
ENDBRANCH   1   5
BRANCH   1  19
HETATM   19  C12 UNL     1     107.289  19.652  16.476  1.00  0.00     0.043 A 
HETATM   20  C13 UNL     1     108.401  19.956  17.224  1.00  0.00     0.080 A 
HETATM   21  S1  UNL     1     108.037  19.226  18.721  1.00  0.00    -0.064 SA
HETATM   22  C14 UNL     1     106.514  18.584  18.323  1.00  0.00     0.151 A 
HETATM   23  N6  UNL     1     106.347  18.958  17.054  1.00  0.00    -0.338 N 
ATOM     24  H6  UNL     1     105.500  18.707  16.545  1.00  0.00     0.168 HD
BRANCH  22  25
HETATM   25  N3  UNL     1     105.678  17.884  19.066  1.00  0.00    -0.311 N 
HETATM   26  C15 UNL     1     104.761  17.069  18.363  1.00  0.00     0.187 C 
HETATM   27  N4  UNL     1     104.417  15.911  18.786  1.00  0.00    -0.373 N 
HETATM   28  N5  UNL     1     104.209  17.556  17.157  1.00  0.00    -0.064 NA
ATOM     29  H42 UNL     1     104.815  15.560  19.657  1.00  0.00     0.158 HD
ATOM     30  H41 UNL     1     103.756  15.323  18.279  1.00  0.00     0.158 HD
ATOM     31  H3  UNL     1     105.693  17.928  20.085  1.00  0.00     0.170 HD
ENDBRANCH  22  25
ENDBRANCH   1  19
TORSDOF 7
ENDMDL
MODEL 5
REMARK VINA RESULT: -6.473382466      1.834      2.143
REMARK  7 active torsions:
REMARK  status: ('A' for Active; 'I' for Inactive)
REMARK    1  A    between atoms: O1_2  and  C2_3 
REMARK    2  A    between atoms: C2_3  and  C3_4 
REMARK    3  A    between atoms: C3_4  and  N1_5 
REMARK    4  A    between atoms: C3_4  and  C12_19 
REMARK       I    between atoms: N1_5  and  C4_7 
REMARK       I    between atoms: C4_7  and  N2_9 
REMARK    5  A    between atoms: N2_9  and  C5_11 
REMARK    6  A    between atoms: C5_11  and  C6_12 
REMARK    7  A    between atoms: C14_22  and  N3_23 
REMARK       I    between atoms: N3_23  and  C15_25 
ROOT
HETATM    1  C3  UNL     1     107.221  20.409  12.072  1.00  0.00     0.160 C 
ENDROOT
BRANCH   1   2
HETATM    2  C2  UNL     1     106.757  20.639  10.670  1.00  0.00     0.198 C 
BRANCH   2   3
HETATM    3  O1  UNL     1     106.778  19.506   9.875  1.00  0.00    -0.394 OA
HETATM    4  C1  UNL     1     107.398  19.897   8.665  1.00  0.00     0.201 C 
ENDBRANCH   2   3
ENDBRANCH   1   2
BRANCH   1   5
HETATM    5  N1  UNL     1     108.270  19.417  12.177  1.00  0.00    -0.331 N 
HETATM    6  C4  UNL     1     109.601  19.654  11.753  1.00  0.00     0.317 C 
HETATM    7  O2  UNL     1     109.875  20.778  11.266  1.00  0.00    -0.247 OA
HETATM    8  N2  UNL     1     110.620  18.686  11.858  1.00  0.00    -0.327 N 
ATOM      9  H2  UNL     1     110.370  17.782  12.258  1.00  0.00     0.165 HD
ATOM     10  H1  UNL     1     108.040  18.506  12.573  1.00  0.00     0.165 HD
BRANCH   8  11
HETATM   11  C5  UNL     1     111.972  18.872  11.447  1.00  0.00     0.087 C 
HETATM   12  C7  UNL     1     112.929  17.876  12.051  1.00  0.00     0.038 C 
HETATM   13  C8  UNL     1     114.213  18.520  12.532  1.00  0.00     0.003 C 
HETATM   14  C9  UNL     1     114.771  19.474  11.497  1.00  0.00     0.000 C 
HETATM   15  C10 UNL     1     113.792  20.573  11.214  1.00  0.00     0.003 C 
HETATM   16  C11 UNL     1     112.441  20.274  11.833  1.00  0.00     0.038 C 
BRANCH  11  17
HETATM   17  C6  UNL     1     112.093  18.787   9.971  1.00  0.00     0.262 C 
HETATM   18  O3  UNL     1     111.458  17.929   9.391  1.00  0.00    -0.304 OA
ENDBRANCH  11  17
ENDBRANCH   8  11
ENDBRANCH   1   5
BRANCH   1  19
HETATM   19  C12 UNL     1     106.039  19.987  12.943  1.00  0.00     0.043 A 
HETATM   20  C13 UNL     1     104.931  20.799  12.996  1.00  0.00     0.080 A 
HETATM   21  S1  UNL     1     103.912  19.945  14.064  1.00  0.00    -0.064 SA
HETATM   22  C14 UNL     1     104.933  18.623  14.381  1.00  0.00     0.151 A 
HETATM   23  N6  UNL     1     106.016  18.893  13.652  1.00  0.00    -0.338 N 
ATOM     24  H6  UNL     1     106.812  18.254  13.647  1.00  0.00     0.168 HD
BRANCH  22  25
HETATM   25  N3  UNL     1     104.731  17.574  15.154  1.00  0.00    -0.311 N 
HETATM   26  C15 UNL     1     104.787  17.813  16.547  1.00  0.00     0.187 C 
HETATM   27  N4  UNL     1     104.003  17.225  17.371  1.00  0.00    -0.373 N 
HETATM   28  N5  UNL     1     105.744  18.730  17.038  1.00  0.00    -0.064 NA
ATOM     29  H42 UNL     1     103.313  16.563  17.016  1.00  0.00     0.158 HD
ATOM     30  H41 UNL     1     104.044  17.398  18.375  1.00  0.00     0.158 HD
ATOM     31  H3  UNL     1     104.544  16.647  14.771  1.00  0.00     0.170 HD
ENDBRANCH  22  25
ENDBRANCH   1  19
TORSDOF 7
ENDMDL
