MODEL 1
REMARK VINA RESULT: -7.770999967      0.000      0.000
REMARK  7 active torsions:
REMARK  status: ('A' for Active; 'I' for Inactive)
REMARK    1  A    between atoms: C8_13  and  C9_14 
REMARK       I    between atoms: C9_14  and  N3_16 
REMARK    2  A    between atoms: N3_16  and  C10_18 
REMARK    3  A    between atoms: C10_18  and  C11_19 
REMARK    4  A    between atoms: C11_19  and  C12_20 
REMARK    5  A    between atoms: C12_20  and  N4_21 
REMARK    6  A    between atoms: N4_21  and  C13_23 
REMARK    7  A    between atoms: N5_24  and  N6_26 
ROOT
HETATM    1  C9  UNL     1     104.165  18.791  14.748  1.00  0.00     0.229 C 
HETATM    2  O1  UNL     1     104.487  18.014  13.847  1.00  0.00    -0.273 OA
HETATM    3  N3  UNL     1     103.004  18.571  15.512  1.00  0.00    -0.360 N 
ATOM      4  H3  UNL     1     102.798  19.251  16.243  1.00  0.00     0.162 HD
ENDROOT
BRANCH   3   5
HETATM    5  C10 UNL     1     102.078  17.481  15.360  1.00  0.00     0.124 C 
BRANCH   5   6
HETATM    6  C11 UNL     1     102.245  16.480  16.452  1.00  0.00     0.039 C 
BRANCH   6   7
HETATM    7  C12 UNL     1     102.688  17.201  17.726  1.00  0.00     0.122 C 
BRANCH   7   8
HETATM    8  N4  UNL     1     103.775  16.448  18.286  1.00  0.00    -0.385 N 
ATOM      9  H4  UNL     1     103.596  15.559  18.755  1.00  0.00     0.160 HD
BRANCH   8  10
HETATM   10  C13 UNL     1     105.093  16.947  18.183  1.00  0.00     0.192 C 
HETATM   11  N5  UNL     1     105.408  18.196  18.200  1.00  0.00    -0.295 N 
ATOM     12  H5  UNL     1     104.664  18.888  18.294  1.00  0.00     0.187 HD
BRANCH  11  13
HETATM   13  N6  UNL     1     106.723  18.637  18.095  1.00  0.00    -0.279 N 
HETATM   14  C14 UNL     1     107.413  18.903  19.148  1.00  0.00     0.154 C 
HETATM   15  N7  UNL     1     108.755  19.360  19.248  1.00  0.00    -0.369 N 
HETATM   16  S1  UNL     1     106.886  18.772  20.881  1.00  0.00    -0.091 SA
HETATM   17  C15 UNL     1     109.422  18.925  20.424  1.00  0.00     0.132 C 
ATOM     18  H7  UNL     1     109.198  19.947  18.541  1.00  0.00     0.161 HD
HETATM   19  C16 UNL     1     108.524  19.161  21.625  1.00  0.00     0.102 C 
ATOM     20  H6  UNL     1     107.145  18.751  17.173  1.00  0.00     0.189 HD
ENDBRANCH  11  13
ENDBRANCH   8  10
ENDBRANCH   7   8
ENDBRANCH   6   7
ENDBRANCH   5   6
ENDBRANCH   3   5
BRANCH   1  21
HETATM   21  C8  UNL     1     105.015  19.955  15.019  1.00  0.00     0.147 C 
HETATM   22  C1  UNL     1     104.684  21.120  14.160  1.00  0.00     0.084 C 
HETATM   23  N1  UNL     1     103.482  21.546  13.869  1.00  0.00    -0.388 N 
HETATM   24  N2  UNL     1     105.922  21.665  13.729  1.00  0.00    -0.370 N 
ATOM     25  H12 UNL     1     103.255  22.347  13.279  1.00  0.00     0.157 HD
ATOM     26  H11 UNL     1     102.593  21.155  14.179  1.00  0.00     0.157 HD
HETATM   27  C2  UNL     1     106.818  20.564  13.507  1.00  0.00     0.032 C 
ATOM     28  H2  UNL     1     106.136  22.654  13.601  1.00  0.00     0.161 HD
HETATM   29  C3  UNL     1     108.270  20.898  13.577  1.00  0.00     0.031 C 
HETATM   30  C6  UNL     1     106.539  20.028  12.125  1.00  0.00     0.031 C 
HETATM   31  C7  UNL     1     106.426  19.591  14.605  1.00  0.00     0.052 C 
HETATM   32  C4  UNL     1     108.831  20.552  12.226  1.00  0.00     0.002 C 
HETATM   33  C5  UNL     1     107.866  19.487  11.697  1.00  0.00     0.002 C 
ENDBRANCH   1  21
TORSDOF 7
ENDMDL
MODEL 2
REMARK VINA RESULT: -7.576621148      1.371      1.875
REMARK  7 active torsions:
REMARK  status: ('A' for Active; 'I' for Inactive)
REMARK    1  A    between atoms: C8_13  and  C9_14 
REMARK       I    between atoms: C9_14  and  N3_16 
REMARK    2  A    between atoms: N3_16  and  C10_18 
REMARK    3  A    between atoms: C10_18  and  C11_19 
REMARK    4  A    between atoms: C11_19  and  C12_20 
REMARK    5  A    between atoms: C12_20  and  N4_21 
REMARK    6  A    between atoms: N4_21  and  C13_23 
REMARK    7  A    between atoms: N5_24  and  N6_26 
ROOT
HETATM    1  C9  UNL     1     105.076  19.043  14.598  1.00  0.00     0.229 C 
HETATM    2  O1  UNL     1     104.802  20.195  14.942  1.00  0.00    -0.273 OA
HETATM    3  N3  UNL     1     104.148  17.999  14.766  1.00  0.00    -0.360 N 
ATOM      4  H3  UNL     1     104.437  17.071  14.456  1.00  0.00     0.162 HD
ENDROOT
BRANCH   3   5
HETATM    5  C10 UNL     1     102.830  18.112  15.332  1.00  0.00     0.124 C 
BRANCH   5   6
HETATM    6  C11 UNL     1     102.507  16.929  16.179  1.00  0.00     0.039 C 
BRANCH   6   7
HETATM    7  C12 UNL     1     102.681  17.308  17.651  1.00  0.00     0.122 C 
BRANCH   7   8
HETATM    8  N4  UNL     1     103.737  16.490  18.180  1.00  0.00    -0.385 N 
ATOM      9  H4  UNL     1     103.523  15.587  18.605  1.00  0.00     0.160 HD
BRANCH   8  10
HETATM   10  C13 UNL     1     105.072  16.945  18.106  1.00  0.00     0.192 C 
HETATM   11  N5  UNL     1     105.431  18.180  18.183  1.00  0.00    -0.295 N 
ATOM     12  H5  UNL     1     104.713  18.893  18.306  1.00  0.00     0.187 HD
BRANCH  11  13
HETATM   13  N6  UNL     1     106.762  18.578  18.106  1.00  0.00    -0.279 N 
HETATM   14  C14 UNL     1     107.428  18.858  19.169  1.00  0.00     0.154 C 
HETATM   15  N7  UNL     1     108.779  19.279  19.297  1.00  0.00    -0.369 N 
HETATM   16  S1  UNL     1     106.845  18.802  20.889  1.00  0.00    -0.091 SA
HETATM   17  C15 UNL     1     109.397  18.864  20.507  1.00  0.00     0.132 C 
ATOM     18  H7  UNL     1     109.262  19.828  18.585  1.00  0.00     0.161 HD
HETATM   19  C16 UNL     1     108.471  19.168  21.671  1.00  0.00     0.102 C 
ATOM     20  H6  UNL     1     107.215  18.648  17.194  1.00  0.00     0.189 HD
ENDBRANCH  11  13
ENDBRANCH   8  10
ENDBRANCH   7   8
ENDBRANCH   6   7
ENDBRANCH   5   6
ENDBRANCH   3   5
BRANCH   1  21
HETATM   21  C8  UNL     1     106.389  18.773  14.004  1.00  0.00     0.147 C 
HETATM   22  C1  UNL     1     107.388  19.825  14.318  1.00  0.00     0.084 C 
HETATM   23  N1  UNL     1     107.572  20.390  15.483  1.00  0.00    -0.388 N 
HETATM   24  N2  UNL     1     108.091  20.083  13.111  1.00  0.00    -0.370 N 
ATOM     25  H12 UNL     1     108.259  21.114  15.698  1.00  0.00     0.157 HD
ATOM     26  H11 UNL     1     107.067  20.205  16.349  1.00  0.00     0.157 HD
HETATM   27  C2  UNL     1     107.143  19.986  12.037  1.00  0.00     0.032 C 
ATOM     28  H2  UNL     1     109.084  20.298  13.024  1.00  0.00     0.161 HD
HETATM   29  C3  UNL     1     107.725  19.689  10.696  1.00  0.00     0.031 C 
HETATM   30  C6  UNL     1     106.432  21.313  11.941  1.00  0.00     0.031 C 
HETATM   31  C7  UNL     1     106.231  18.863  12.499  1.00  0.00     0.052 C 
HETATM   32  C4  UNL     1     107.347  20.852   9.823  1.00  0.00     0.002 C 
HETATM   33  C5  UNL     1     106.085  21.409  10.489  1.00  0.00     0.002 C 
ENDBRANCH   1  21
TORSDOF 7
ENDMDL
MODEL 3
REMARK VINA RESULT: -7.316577902      4.663      7.580
REMARK  7 active torsions:
REMARK  status: ('A' for Active; 'I' for Inactive)
REMARK    1  A    between atoms: C8_13  and  C9_14 
REMARK       I    between atoms: C9_14  and  N3_16 
REMARK    2  A    between atoms: N3_16  and  C10_18 
REMARK    3  A    between atoms: C10_18  and  C11_19 
REMARK    4  A    between atoms: C11_19  and  C12_20 
REMARK    5  A    between atoms: C12_20  and  N4_21 
REMARK    6  A    between atoms: N4_21  and  C13_23 
REMARK    7  A    between atoms: N5_24  and  N6_26 
ROOT
HETATM    1  C9  UNL     1     106.250  19.710  14.322  1.00  0.00     0.229 C 
HETATM    2  O1  UNL     1     106.441  19.997  15.506  1.00  0.00    -0.273 OA
HETATM    3  N3  UNL     1     107.316  19.681  13.405  1.00  0.00    -0.360 N 
ATOM      4  H3  UNL     1     107.089  19.433  12.442  1.00  0.00     0.162 HD
ENDROOT
BRANCH   3   5
HETATM    5  C10 UNL     1     108.696  19.969  13.692  1.00  0.00     0.124 C 
BRANCH   5   6
HETATM    6  C11 UNL     1     109.304  20.807  12.620  1.00  0.00     0.039 C 
BRANCH   6   7
HETATM    7  C12 UNL     1     109.125  20.101  11.275  1.00  0.00     0.122 C 
BRANCH   7   8
HETATM    8  N4  UNL     1     109.599  18.754  11.434  1.00  0.00    -0.385 N 
ATOM      9  H4  UNL     1     108.951  18.009  11.693  1.00  0.00     0.160 HD
BRANCH   8  10
HETATM   10  C13 UNL     1     110.967  18.469  11.229  1.00  0.00     0.192 C 
HETATM   11  N5  UNL     1     111.774  18.051  12.142  1.00  0.00    -0.295 N 
ATOM     12  H5  UNL     1     111.415  17.910  13.086  1.00  0.00     0.187 HD
BRANCH  11  13
HETATM   13  N6  UNL     1     113.116  17.784  11.890  1.00  0.00    -0.279 N 
HETATM   14  C14 UNL     1     113.988  18.729  11.898  1.00  0.00     0.154 C 
HETATM   15  N7  UNL     1     115.388  18.660  11.666  1.00  0.00    -0.369 N 
HETATM   16  S1  UNL     1     113.705  20.494  12.221  1.00  0.00    -0.091 SA
HETATM   17  C15 UNL     1     116.135  19.638  12.374  1.00  0.00     0.132 C 
ATOM     18  H7  UNL     1     115.817  17.972  11.046  1.00  0.00     0.161 HD
HETATM   19  C16 UNL     1     115.477  20.994  12.200  1.00  0.00     0.102 C 
ATOM     20  H6  UNL     1     113.411  16.827  11.695  1.00  0.00     0.189 HD
ENDBRANCH  11  13
ENDBRANCH   8  10
ENDBRANCH   7   8
ENDBRANCH   6   7
ENDBRANCH   5   6
ENDBRANCH   3   5
BRANCH   1  21
HETATM   21  C8  UNL     1     104.888  19.393  13.880  1.00  0.00     0.147 C 
HETATM   22  C1  UNL     1     103.872  20.313  14.449  1.00  0.00     0.084 C 
HETATM   23  N1  UNL     1     103.979  21.612  14.552  1.00  0.00    -0.388 N 
HETATM   24  N2  UNL     1     102.776  19.502  14.849  1.00  0.00    -0.370 N 
ATOM     25  H12 UNL     1     103.280  22.244  14.943  1.00  0.00     0.157 HD
ATOM     26  H11 UNL     1     104.766  22.195  14.264  1.00  0.00     0.157 HD
HETATM   27  C2  UNL     1     103.320  18.276  15.363  1.00  0.00     0.032 C 
ATOM     28  H2  UNL     1     101.788  19.745  14.783  1.00  0.00     0.161 HD
HETATM   29  C3  UNL     1     102.396  17.106  15.336  1.00  0.00     0.031 C 
HETATM   30  C6  UNL     1     103.703  18.521  16.801  1.00  0.00     0.031 C 
HETATM   31  C7  UNL     1     104.524  18.045  14.467  1.00  0.00     0.052 C 
HETATM   32  C4  UNL     1     102.244  16.675  16.767  1.00  0.00     0.002 C 
HETATM   33  C5  UNL     1     103.529  17.176  17.433  1.00  0.00     0.002 C 
ENDBRANCH   1  21
TORSDOF 7
ENDMDL
MODEL 4
REMARK VINA RESULT: -7.287982336      1.673      2.490
REMARK  7 active torsions:
REMARK  status: ('A' for Active; 'I' for Inactive)
REMARK    1  A    between atoms: C8_13  and  C9_14 
REMARK       I    between atoms: C9_14  and  N3_16 
REMARK    2  A    between atoms: N3_16  and  C10_18 
REMARK    3  A    between atoms: C10_18  and  C11_19 
REMARK    4  A    between atoms: C11_19  and  C12_20 
REMARK    5  A    between atoms: C12_20  and  N4_21 
REMARK    6  A    between atoms: N4_21  and  C13_23 
REMARK    7  A    between atoms: N5_24  and  N6_26 
ROOT
HETATM    1  C9  UNL     1     106.294  19.756  14.177  1.00  0.00     0.229 C 
HETATM    2  O1  UNL     1     106.167  20.370  15.238  1.00  0.00    -0.273 OA
HETATM    3  N3  UNL     1     105.204  19.079  13.598  1.00  0.00    -0.360 N 
ATOM      4  H3  UNL     1     105.377  18.594  12.718  1.00  0.00     0.162 HD
ENDROOT
BRANCH   3   5
HETATM    5  C10 UNL     1     103.868  19.005  14.129  1.00  0.00     0.124 C 
BRANCH   5   6
HETATM    6  C11 UNL     1     103.591  17.654  14.694  1.00  0.00     0.039 C 
BRANCH   6   7
HETATM    7  C12 UNL     1     103.063  17.810  16.121  1.00  0.00     0.122 C 
BRANCH   7   8
HETATM    8  N4  UNL     1     103.954  17.087  16.986  1.00  0.00    -0.385 N 
ATOM      9  H4  UNL     1     103.624  16.267  17.495  1.00  0.00     0.160 HD
BRANCH   8  10
HETATM   10  C13 UNL     1     105.292  17.521  17.125  1.00  0.00     0.192 C 
HETATM   11  N5  UNL     1     105.652  18.618  17.696  1.00  0.00    -0.295 N 
ATOM     12  H5  UNL     1     104.932  19.229  18.081  1.00  0.00     0.187 HD
BRANCH  11  13
HETATM   13  N6  UNL     1     106.984  19.001  17.808  1.00  0.00    -0.279 N 
HETATM   14  C14 UNL     1     107.548  19.091  18.961  1.00  0.00     0.154 C 
HETATM   15  N7  UNL     1     108.882  19.462  19.280  1.00  0.00    -0.369 N 
HETATM   16  S1  UNL     1     106.806  18.763  20.586  1.00  0.00    -0.091 SA
HETATM   17  C15 UNL     1     109.383  18.844  20.457  1.00  0.00     0.132 C 
ATOM     18  H7  UNL     1     109.430  20.113  18.716  1.00  0.00     0.161 HD
HETATM   19  C16 UNL     1     108.352  18.967  21.564  1.00  0.00     0.102 C 
ATOM     20  H6  UNL     1     107.521  19.212  16.966  1.00  0.00     0.189 HD
ENDBRANCH  11  13
ENDBRANCH   8  10
ENDBRANCH   7   8
ENDBRANCH   6   7
ENDBRANCH   5   6
ENDBRANCH   3   5
BRANCH   1  21
HETATM   21  C8  UNL     1     107.603  19.741  13.517  1.00  0.00     0.147 C 
HETATM   22  C1  UNL     1     108.181  21.099  13.358  1.00  0.00     0.084 C 
HETATM   23  N1  UNL     1     108.186  22.046  14.261  1.00  0.00    -0.388 N 
HETATM   24  N2  UNL     1     108.720  21.155  12.045  1.00  0.00    -0.370 N 
ATOM     25  H12 UNL     1     108.583  22.979  14.152  1.00  0.00     0.157 HD
ATOM     26  H11 UNL     1     107.799  22.005  15.204  1.00  0.00     0.157 HD
HETATM   27  C2  UNL     1     107.838  20.408  11.192  1.00  0.00     0.032 C 
ATOM     28  H2  UNL     1     109.573  21.636  11.762  1.00  0.00     0.161 HD
HETATM   29  C3  UNL     1     108.453  19.888   9.936  1.00  0.00     0.031 C 
HETATM   30  C6  UNL     1     106.707  21.326  10.799  1.00  0.00     0.031 C 
HETATM   31  C7  UNL     1     107.387  19.272  12.093  1.00  0.00     0.052 C 
HETATM   32  C4  UNL     1     107.672  20.510   8.814  1.00  0.00     0.002 C 
HETATM   33  C5  UNL     1     106.312  20.819   9.447  1.00  0.00     0.002 C 
ENDBRANCH   1  21
TORSDOF 7
ENDMDL
MODEL 5
REMARK VINA RESULT: -7.273915485      1.652      2.909
REMARK  7 active torsions:
REMARK  status: ('A' for Active; 'I' for Inactive)
REMARK    1  A    between atoms: C8_13  and  C9_14 
REMARK       I    between atoms: C9_14  and  N3_16 
REMARK    2  A    between atoms: N3_16  and  C10_18 
REMARK    3  A    between atoms: C10_18  and  C11_19 
REMARK    4  A    between atoms: C11_19  and  C12_20 
REMARK    5  A    between atoms: C12_20  and  N4_21 
REMARK    6  A    between atoms: N4_21  and  C13_23 
REMARK    7  A    between atoms: N5_24  and  N6_26 
ROOT
HETATM    1  C9  UNL     1     103.551  19.069  15.095  1.00  0.00     0.229 C 
HETATM    2  O1  UNL     1     104.050  19.228  16.211  1.00  0.00    -0.273 OA
HETATM    3  N3  UNL     1     102.418  18.254  14.919  1.00  0.00    -0.360 N 
ATOM      4  H3  UNL     1     102.055  18.169  13.970  1.00  0.00     0.162 HD
ENDROOT
BRANCH   3   5
HETATM    5  C10 UNL     1     101.723  17.528  15.948  1.00  0.00     0.124 C 
BRANCH   5   6
HETATM    6  C11 UNL     1     102.590  16.468  16.536  1.00  0.00     0.039 C 
BRANCH   6   7
HETATM    7  C12 UNL     1     102.640  16.649  18.054  1.00  0.00     0.122 C 
BRANCH   7   8
HETATM    8  N4  UNL     1     103.844  16.018  18.518  1.00  0.00    -0.385 N 
ATOM      9  H4  UNL     1     103.808  15.091  18.943  1.00  0.00     0.160 HD
BRANCH   8  10
HETATM   10  C13 UNL     1     105.079  16.691  18.383  1.00  0.00     0.192 C 
HETATM   11  N5  UNL     1     105.225  17.970  18.421  1.00  0.00    -0.295 N 
ATOM     12  H5  UNL     1     104.400  18.554  18.557  1.00  0.00     0.187 HD
BRANCH  11  13
HETATM   13  N6  UNL     1     106.464  18.586  18.283  1.00  0.00    -0.279 N 
HETATM   14  C14 UNL     1     107.151  18.922  19.317  1.00  0.00     0.154 C 
HETATM   15  N7  UNL     1     108.422  19.553  19.383  1.00  0.00    -0.369 N 
HETATM   16  S1  UNL     1     106.710  18.687  21.063  1.00  0.00    -0.091 SA
HETATM   17  C15 UNL     1     109.184  19.189  20.525  1.00  0.00     0.132 C 
ATOM     18  H7  UNL     1     108.757  20.208  18.676  1.00  0.00     0.161 HD
HETATM   19  C16 UNL     1     108.308  19.279  21.761  1.00  0.00     0.102 C 
ATOM     20  H6  UNL     1     106.833  18.773  17.350  1.00  0.00     0.189 HD
ENDBRANCH  11  13
ENDBRANCH   8  10
ENDBRANCH   7   8
ENDBRANCH   6   7
ENDBRANCH   5   6
ENDBRANCH   3   5
BRANCH   1  21
HETATM   21  C8  UNL     1     104.156  19.748  13.945  1.00  0.00     0.147 C 
HETATM   22  C1  UNL     1     105.331  20.575  14.318  1.00  0.00     0.084 C 
HETATM   23  N1  UNL     1     106.287  20.228  15.140  1.00  0.00    -0.388 N 
HETATM   24  N2  UNL     1     105.203  21.798  13.608  1.00  0.00    -0.370 N 
ATOM     25  H12 UNL     1     107.095  20.796  15.397  1.00  0.00     0.157 HD
ATOM     26  H11 UNL     1     106.379  19.349  15.650  1.00  0.00     0.157 HD
HETATM   27  C2  UNL     1     103.805  22.124  13.571  1.00  0.00     0.032 C 
ATOM     28  H2  UNL     1     105.962  22.343  13.201  1.00  0.00     0.161 HD
HETATM   29  C3  UNL     1     103.390  23.032  12.462  1.00  0.00     0.031 C 
HETATM   30  C6  UNL     1     103.467  22.809  14.871  1.00  0.00     0.031 C 
HETATM   31  C7  UNL     1     103.149  20.761  13.437  1.00  0.00     0.052 C 
HETATM   32  C4  UNL     1     102.810  24.247  13.128  1.00  0.00     0.002 C 
HETATM   33  C5  UNL     1     102.346  23.726  14.491  1.00  0.00     0.002 C 
ENDBRANCH   1  21
TORSDOF 7
ENDMDL
