MODEL 1
REMARK VINA RESULT: -7.104720302      0.000      0.000
REMARK  8 active torsions:
REMARK  status: ('A' for Active; 'I' for Inactive)
REMARK    1  A    between atoms: C2_2  and  C3_3 
REMARK    2  A    between atoms: C3_3  and  N1_4 
REMARK       I    between atoms: N1_4  and  C4_6 
REMARK       I    between atoms: C4_6  and  N2_8 
REMARK    3  A    between atoms: N2_8  and  C5_10 
REMARK    4  A    between atoms: C6_11  and  N3_12 
REMARK    5  A    between atoms: N3_12  and  C7_14 
REMARK    6  A    between atoms: C7_14  and  C8_18 
REMARK    7  A    between atoms: C17_29  and  C18_30 
REMARK    8  A    between atoms: C18_30  and  O4_31 
ROOT
HETATM    1  C5  UNL     1     102.056  21.388  14.100  1.00  0.00     0.141 C 
HETATM    2  C6  UNL     1     101.132  20.221  14.466  1.00  0.00     0.117 C 
HETATM    3  C15 UNL     1     100.003  20.171  13.424  1.00  0.00     0.138 C 
HETATM    4  C16 UNL     1      99.209  21.430  13.658  1.00  0.00     0.261 C 
HETATM    5  O2  UNL     1      97.981  21.411  13.449  1.00  0.00    -0.265 OA
HETATM    6  O3  UNL     1      99.957  22.507  14.095  1.00  0.00    -0.312 OA
HETATM    7  C17 UNL     1     101.284  22.586  13.616  1.00  0.00     0.180 C 
ENDROOT
BRANCH   2   8
HETATM    8  N3  UNL     1     101.827  18.975  14.432  1.00  0.00    -0.373 N 
ATOM      9  H3  UNL     1     102.450  18.875  13.630  1.00  0.00     0.161 HD
BRANCH   8  10
HETATM   10  C7  UNL     1     101.823  17.872  15.273  1.00  0.00     0.075 C 
HETATM   11  N4  UNL     1     100.623  17.318  15.468  1.00  0.00    -0.389 N 
ATOM     12  H42 UNL     1      99.874  17.798  14.968  1.00  0.00     0.157 HD
ATOM     13  H41 UNL     1     100.620  16.507  16.086  1.00  0.00     0.157 HD
BRANCH  10  14
HETATM   14  C8  UNL     1     102.897  17.186  15.989  1.00  0.00     0.052 C 
HETATM   15  C9  UNL     1     104.262  17.780  15.622  1.00  0.00     0.012 C 
HETATM   16  C10 UNL     1     104.681  18.893  16.512  1.00  0.00     0.001 C 
HETATM   17  C11 UNL     1     105.125  18.469  17.879  1.00  0.00     0.000 C 
HETATM   18  C12 UNL     1     105.100  17.000  18.107  1.00  0.00     0.000 C 
HETATM   19  C13 UNL     1     103.731  16.382  18.116  1.00  0.00     0.001 C 
HETATM   20  C14 UNL     1     102.682  17.267  17.468  1.00  0.00     0.012 C 
ENDBRANCH  10  14
ENDBRANCH   8  10
ENDBRANCH   2   8
BRANCH   1  21
HETATM   21  N2  UNL     1     103.109  21.012  13.209  1.00  0.00    -0.334 N 
HETATM   22  C4  UNL     1     104.469  21.316  13.489  1.00  0.00     0.316 C 
HETATM   23  N1  UNL     1     105.516  20.941  12.603  1.00  0.00    -0.343 N 
HETATM   24  O1  UNL     1     104.776  21.929  14.537  1.00  0.00    -0.247 OA
ATOM     25  H1  UNL     1     105.266  20.440  11.751  1.00  0.00     0.164 HD
ATOM     26  H2  UNL     1     102.879  20.514  12.349  1.00  0.00     0.164 HD
BRANCH  23  27
HETATM   27  C3  UNL     1     106.908  21.227  12.837  1.00  0.00     0.124 C 
BRANCH  27  28
HETATM   28  C2  UNL     1     107.707  20.022  13.286  1.00  0.00     0.015 C 
HETATM   29  C1  UNL     1     107.749  20.057  14.815  1.00  0.00     0.006 C 
ENDBRANCH  27  28
ENDBRANCH  23  27
ENDBRANCH   1  21
BRANCH   7  30
HETATM   30  C18 UNL     1     101.871  23.848  14.220  1.00  0.00     0.198 C 
BRANCH  30  31
HETATM   31  O4  UNL     1     102.495  23.503  15.402  1.00  0.00    -0.398 OA
ATOM     32  H4  UNL     1     103.310  23.065  15.185  1.00  0.00     0.209 HD
ENDBRANCH  30  31
ENDBRANCH   7  30
TORSDOF 8
ENDMDL
MODEL 2
REMARK VINA RESULT: -7.011169539      4.546      6.726
REMARK  8 active torsions:
REMARK  status: ('A' for Active; 'I' for Inactive)
REMARK    1  A    between atoms: C2_2  and  C3_3 
REMARK    2  A    between atoms: C3_3  and  N1_4 
REMARK       I    between atoms: N1_4  and  C4_6 
REMARK       I    between atoms: C4_6  and  N2_8 
REMARK    3  A    between atoms: N2_8  and  C5_10 
REMARK    4  A    between atoms: C6_11  and  N3_12 
REMARK    5  A    between atoms: N3_12  and  C7_14 
REMARK    6  A    between atoms: C7_14  and  C8_18 
REMARK    7  A    between atoms: C17_29  and  C18_30 
REMARK    8  A    between atoms: C18_30  and  O4_31 
ROOT
HETATM    1  C5  UNL     1     107.569  18.797  18.993  1.00  0.00     0.141 C 
HETATM    2  C6  UNL     1     106.621  17.707  19.504  1.00  0.00     0.117 C 
HETATM    3  C15 UNL     1     105.656  18.358  20.508  1.00  0.00     0.138 C 
HETATM    4  C16 UNL     1     106.523  18.746  21.678  1.00  0.00     0.261 C 
HETATM    5  O2  UNL     1     106.034  18.719  22.822  1.00  0.00    -0.265 OA
HETATM    6  O3  UNL     1     107.815  19.104  21.339  1.00  0.00    -0.312 OA
HETATM    7  C17 UNL     1     107.984  19.741  20.090  1.00  0.00     0.180 C 
ENDROOT
BRANCH   2   8
HETATM    8  N3  UNL     1     105.849  17.147  18.441  1.00  0.00    -0.373 N 
ATOM      9  H3  UNL     1     106.407  16.862  17.636  1.00  0.00     0.161 HD
BRANCH   8  10
HETATM   10  C7  UNL     1     104.490  16.915  18.287  1.00  0.00     0.075 C 
HETATM   11  N4  UNL     1     104.005  15.911  19.022  1.00  0.00    -0.389 N 
ATOM     12  H42 UNL     1     104.715  15.452  19.593  1.00  0.00     0.157 HD
ATOM     13  H41 UNL     1     103.006  15.740  18.909  1.00  0.00     0.157 HD
BRANCH  10  14
HETATM   14  C8  UNL     1     103.473  17.573  17.469  1.00  0.00     0.052 C 
HETATM   15  C9  UNL     1     104.115  18.587  16.515  1.00  0.00     0.012 C 
HETATM   16  C10 UNL     1     104.482  18.009  15.197  1.00  0.00     0.001 C 
HETATM   17  C11 UNL     1     103.324  17.739  14.285  1.00  0.00     0.000 C 
HETATM   18  C12 UNL     1     102.000  18.123  14.842  1.00  0.00     0.000 C 
HETATM   19  C13 UNL     1     101.548  17.313  16.023  1.00  0.00     0.001 C 
HETATM   20  C14 UNL     1     102.685  16.565  16.693  1.00  0.00     0.012 C 
ENDBRANCH  10  14
ENDBRANCH   8  10
ENDBRANCH   2   8
BRANCH   1  21
HETATM   21  N2  UNL     1     107.074  19.476  17.836  1.00  0.00    -0.334 N 
HETATM   22  C4  UNL     1     107.872  19.651  16.673  1.00  0.00     0.316 C 
HETATM   23  N1  UNL     1     107.379  20.325  15.523  1.00  0.00    -0.343 N 
HETATM   24  O1  UNL     1     109.043  19.208  16.638  1.00  0.00    -0.247 OA
ATOM     25  H1  UNL     1     106.424  20.684  15.551  1.00  0.00     0.164 HD
ATOM     26  H2  UNL     1     106.124  19.846  17.846  1.00  0.00     0.164 HD
BRANCH  23  27
HETATM   27  C3  UNL     1     108.145  20.533  14.322  1.00  0.00     0.124 C 
BRANCH  27  28
HETATM   28  C2  UNL     1     107.485  19.975  13.079  1.00  0.00     0.015 C 
HETATM   29  C1  UNL     1     106.061  20.532  13.037  1.00  0.00     0.006 C 
ENDBRANCH  27  28
ENDBRANCH  23  27
ENDBRANCH   1  21
BRANCH   7  30
HETATM   30  C18 UNL     1     109.467  20.040  19.971  1.00  0.00     0.198 C 
BRANCH  30  31
HETATM   31  O4  UNL     1     110.160  18.959  20.478  1.00  0.00    -0.398 OA
ATOM     32  H4  UNL     1     111.072  19.211  20.567  1.00  0.00     0.209 HD
ENDBRANCH  30  31
ENDBRANCH   7  30
TORSDOF 8
ENDMDL
MODEL 3
REMARK VINA RESULT: -6.861473874      0.805      1.448
REMARK  8 active torsions:
REMARK  status: ('A' for Active; 'I' for Inactive)
REMARK    1  A    between atoms: C2_2  and  C3_3 
REMARK    2  A    between atoms: C3_3  and  N1_4 
REMARK       I    between atoms: N1_4  and  C4_6 
REMARK       I    between atoms: C4_6  and  N2_8 
REMARK    3  A    between atoms: N2_8  and  C5_10 
REMARK    4  A    between atoms: C6_11  and  N3_12 
REMARK    5  A    between atoms: N3_12  and  C7_14 
REMARK    6  A    between atoms: C7_14  and  C8_18 
REMARK    7  A    between atoms: C17_29  and  C18_30 
REMARK    8  A    between atoms: C18_30  and  O4_31 
ROOT
HETATM    1  C5  UNL     1     102.171  21.209  14.096  1.00  0.00     0.141 C 
HETATM    2  C6  UNL     1     101.469  19.911  14.513  1.00  0.00     0.117 C 
HETATM    3  C15 UNL     1     100.292  19.685  13.552  1.00  0.00     0.138 C 
HETATM    4  C16 UNL     1      99.328  20.803  13.855  1.00  0.00     0.261 C 
HETATM    5  O2  UNL     1      98.107  20.591  13.732  1.00  0.00    -0.265 OA
HETATM    6  O3  UNL     1      99.928  21.984  14.250  1.00  0.00    -0.312 OA
HETATM    7  C17 UNL     1     101.188  22.271  13.682  1.00  0.00     0.180 C 
ENDROOT
BRANCH   2   8
HETATM    8  N3  UNL     1     102.348  18.790  14.416  1.00  0.00    -0.373 N 
ATOM      9  H3  UNL     1     102.468  18.445  13.463  1.00  0.00     0.161 HD
BRANCH   8  10
HETATM   10  C7  UNL     1     103.070  18.075  15.361  1.00  0.00     0.075 C 
HETATM   11  N4  UNL     1     103.107  16.756  15.159  1.00  0.00    -0.389 N 
ATOM     12  H42 UNL     1     102.586  16.461  14.333  1.00  0.00     0.157 HD
ATOM     13  H41 UNL     1     103.638  16.230  15.854  1.00  0.00     0.157 HD
BRANCH  10  14
HETATM   14  C8  UNL     1     103.815  18.498  16.545  1.00  0.00     0.052 C 
HETATM   15  C9  UNL     1     103.228  17.865  17.812  1.00  0.00     0.012 C 
HETATM   16  C10 UNL     1     103.846  16.561  18.163  1.00  0.00     0.001 C 
HETATM   17  C11 UNL     1     105.228  16.654  18.733  1.00  0.00     0.000 C 
HETATM   18  C12 UNL     1     105.740  18.042  18.881  1.00  0.00     0.000 C 
HETATM   19  C13 UNL     1     105.982  18.772  17.591  1.00  0.00     0.001 C 
HETATM   20  C14 UNL     1     105.262  18.140  16.414  1.00  0.00     0.012 C 
ENDBRANCH  10  14
ENDBRANCH   8  10
ENDBRANCH   2   8
BRANCH   1  21
HETATM   21  N2  UNL     1     103.205  21.004  13.130  1.00  0.00    -0.334 N 
HETATM   22  C4  UNL     1     104.567  21.290  13.420  1.00  0.00     0.316 C 
HETATM   23  N1  UNL     1     105.594  21.085  12.459  1.00  0.00    -0.343 N 
HETATM   24  O1  UNL     1     104.893  21.735  14.544  1.00  0.00    -0.247 OA
ATOM     25  H1  UNL     1     105.328  20.720  11.544  1.00  0.00     0.164 HD
ATOM     26  H2  UNL     1     102.958  20.644  12.208  1.00  0.00     0.164 HD
BRANCH  23  27
HETATM   27  C3  UNL     1     106.986  21.361  12.699  1.00  0.00     0.124 C 
BRANCH  27  28
HETATM   28  C2  UNL     1     107.794  20.133  13.061  1.00  0.00     0.015 C 
HETATM   29  C1  UNL     1     107.968  20.143  14.581  1.00  0.00     0.006 C 
ENDBRANCH  27  28
ENDBRANCH  23  27
ENDBRANCH   1  21
BRANCH   7  30
HETATM   30  C18 UNL     1     101.611  23.610  14.258  1.00  0.00     0.198 C 
BRANCH  30  31
HETATM   31  O4  UNL     1     102.473  23.366  15.309  1.00  0.00    -0.398 OA
ATOM     32  H4  UNL     1     103.298  23.796  15.117  1.00  0.00     0.209 HD
ENDBRANCH  30  31
ENDBRANCH   7  30
TORSDOF 8
ENDMDL
MODEL 4
REMARK VINA RESULT: -6.808221519      3.481      6.863
REMARK  8 active torsions:
REMARK  status: ('A' for Active; 'I' for Inactive)
REMARK    1  A    between atoms: C2_2  and  C3_3 
REMARK    2  A    between atoms: C3_3  and  N1_4 
REMARK       I    between atoms: N1_4  and  C4_6 
REMARK       I    between atoms: C4_6  and  N2_8 
REMARK    3  A    between atoms: N2_8  and  C5_10 
REMARK    4  A    between atoms: C6_11  and  N3_12 
REMARK    5  A    between atoms: N3_12  and  C7_14 
REMARK    6  A    between atoms: C7_14  and  C8_18 
REMARK    7  A    between atoms: C17_29  and  C18_30 
REMARK    8  A    between atoms: C18_30  and  O4_31 
ROOT
HETATM    1  C5  UNL     1     105.333  18.657  15.953  1.00  0.00     0.141 C 
HETATM    2  C6  UNL     1     105.691  18.983  14.499  1.00  0.00     0.117 C 
HETATM    3  C15 UNL     1     104.889  20.227  14.085  1.00  0.00     0.138 C 
HETATM    4  C16 UNL     1     103.453  19.773  14.076  1.00  0.00     0.261 C 
HETATM    5  O2  UNL     1     102.668  20.283  13.255  1.00  0.00    -0.265 OA
HETATM    6  O3  UNL     1     103.152  18.803  15.014  1.00  0.00    -0.312 OA
HETATM    7  C17 UNL     1     103.867  18.862  16.231  1.00  0.00     0.180 C 
ENDROOT
BRANCH   2   8
HETATM    8  N3  UNL     1     107.081  19.279  14.358  1.00  0.00    -0.373 N 
ATOM      9  H3  UNL     1     107.693  18.584  14.785  1.00  0.00     0.161 HD
BRANCH   8  10
HETATM   10  C7  UNL     1     107.763  20.327  13.756  1.00  0.00     0.075 C 
HETATM   11  N4  UNL     1     108.239  21.245  14.601  1.00  0.00    -0.389 N 
ATOM     12  H42 UNL     1     108.023  21.044  15.578  1.00  0.00     0.157 HD
ATOM     13  H41 UNL     1     108.741  22.016  14.159  1.00  0.00     0.157 HD
BRANCH  10  14
HETATM   14  C8  UNL     1     108.072  20.615  12.358  1.00  0.00     0.052 C 
HETATM   15  C9  UNL     1     109.575  20.858  12.172  1.00  0.00     0.012 C 
HETATM   16  C10 UNL     1     110.339  19.625  11.855  1.00  0.00     0.001 C 
HETATM   17  C11 UNL     1     110.152  19.111  10.460  1.00  0.00     0.000 C 
HETATM   18  C12 UNL     1     109.253  19.940   9.614  1.00  0.00     0.000 C 
HETATM   19  C13 UNL     1     107.814  19.955  10.042  1.00  0.00     0.001 C 
HETATM   20  C14 UNL     1     107.620  19.494  11.475  1.00  0.00     0.012 C 
ENDBRANCH  10  14
ENDBRANCH   8  10
ENDBRANCH   2   8
BRANCH   1  21
HETATM   21  N2  UNL     1     106.174  19.318  16.901  1.00  0.00    -0.334 N 
HETATM   22  C4  UNL     1     106.623  18.670  18.084  1.00  0.00     0.316 C 
HETATM   23  N1  UNL     1     107.459  19.329  19.025  1.00  0.00    -0.343 N 
HETATM   24  O1  UNL     1     106.284  17.488  18.323  1.00  0.00    -0.247 OA
ATOM     25  H1  UNL     1     107.736  20.290  18.829  1.00  0.00     0.164 HD
ATOM     26  H2  UNL     1     106.458  20.282  16.725  1.00  0.00     0.164 HD
BRANCH  23  27
HETATM   27  C3  UNL     1     107.938  18.720  20.239  1.00  0.00     0.124 C 
BRANCH  27  28
HETATM   28  C2  UNL     1     107.055  18.985  21.440  1.00  0.00     0.015 C 
HETATM   29  C1  UNL     1     107.981  19.269  22.624  1.00  0.00     0.006 C 
ENDBRANCH  27  28
ENDBRANCH  23  27
ENDBRANCH   1  21
BRANCH   7  30
HETATM   30  C18 UNL     1     103.344  17.717  17.078  1.00  0.00     0.198 C 
BRANCH  30  31
HETATM   31  O4  UNL     1     103.243  18.165  18.381  1.00  0.00    -0.398 OA
ATOM     32  H4  UNL     1     102.343  18.427  18.531  1.00  0.00     0.209 HD
ENDBRANCH  30  31
ENDBRANCH   7  30
TORSDOF 8
ENDMDL
MODEL 5
REMARK VINA RESULT: -6.776188354      3.545      6.479
REMARK  8 active torsions:
REMARK  status: ('A' for Active; 'I' for Inactive)
REMARK    1  A    between atoms: C2_2  and  C3_3 
REMARK    2  A    between atoms: C3_3  and  N1_4 
REMARK       I    between atoms: N1_4  and  C4_6 
REMARK       I    between atoms: C4_6  and  N2_8 
REMARK    3  A    between atoms: N2_8  and  C5_10 
REMARK    4  A    between atoms: C6_11  and  N3_12 
REMARK    5  A    between atoms: N3_12  and  C7_14 
REMARK    6  A    between atoms: C7_14  and  C8_18 
REMARK    7  A    between atoms: C17_29  and  C18_30 
REMARK    8  A    between atoms: C18_30  and  O4_31 
ROOT
HETATM    1  C5  UNL     1     104.092  17.678  16.764  1.00  0.00     0.141 C 
HETATM    2  C6  UNL     1     104.141  17.960  15.258  1.00  0.00     0.117 C 
HETATM    3  C15 UNL     1     102.950  18.868  14.912  1.00  0.00     0.138 C 
HETATM    4  C16 UNL     1     101.733  18.011  15.143  1.00  0.00     0.261 C 
HETATM    5  O2  UNL     1     100.730  18.189  14.427  1.00  0.00    -0.265 OA
HETATM    6  O3  UNL     1     101.869  17.087  16.162  1.00  0.00    -0.312 OA
HETATM    7  C17 UNL     1     102.683  17.467  17.251  1.00  0.00     0.180 C 
ENDROOT
BRANCH   2   8
HETATM    8  N3  UNL     1     105.342  18.640  14.894  1.00  0.00    -0.373 N 
ATOM      9  H3  UNL     1     105.843  19.040  15.687  1.00  0.00     0.161 HD
BRANCH   8  10
HETATM   10  C7  UNL     1     105.964  18.863  13.674  1.00  0.00     0.075 C 
HETATM   11  N4  UNL     1     106.283  17.757  12.996  1.00  0.00    -0.389 N 
ATOM     12  H42 UNL     1     106.026  16.899  13.483  1.00  0.00     0.157 HD
ATOM     13  H41 UNL     1     106.740  17.921  12.098  1.00  0.00     0.157 HD
BRANCH  10  14
HETATM   14  C8  UNL     1     106.332  20.093  12.976  1.00  0.00     0.052 C 
HETATM   15  C9  UNL     1     107.403  20.862  13.757  1.00  0.00     0.012 C 
HETATM   16  C10 UNL     1     108.791  20.495  13.377  1.00  0.00     0.001 C 
HETATM   17  C11 UNL     1     109.240  21.027  12.050  1.00  0.00     0.000 C 
HETATM   18  C12 UNL     1     108.229  21.860  11.347  1.00  0.00     0.000 C 
HETATM   19  C13 UNL     1     107.004  21.122  10.889  1.00  0.00     0.001 C 
HETATM   20  C14 UNL     1     106.821  19.790  11.594  1.00  0.00     0.012 C 
ENDBRANCH  10  14
ENDBRANCH   8  10
ENDBRANCH   2   8
BRANCH   1  21
HETATM   21  N2  UNL     1     104.806  18.644  17.540  1.00  0.00    -0.334 N 
HETATM   22  C4  UNL     1     105.825  18.263  18.455  1.00  0.00     0.316 C 
HETATM   23  N1  UNL     1     106.535  19.223  19.225  1.00  0.00    -0.343 N 
HETATM   24  O1  UNL     1     106.121  17.054  18.603  1.00  0.00    -0.247 OA
ATOM     25  H1  UNL     1     106.296  20.207  19.103  1.00  0.00     0.164 HD
ATOM     26  H2  UNL     1     104.578  19.633  17.435  1.00  0.00     0.164 HD
BRANCH  23  27
HETATM   27  C3  UNL     1     107.572  18.891  20.168  1.00  0.00     0.124 C 
BRANCH  27  28
HETATM   28  C2  UNL     1     107.103  18.882  21.607  1.00  0.00     0.015 C 
HETATM   29  C1  UNL     1     108.313  19.230  22.476  1.00  0.00     0.006 C 
ENDBRANCH  27  28
ENDBRANCH  23  27
ENDBRANCH   1  21
BRANCH   7  30
HETATM   30  C18 UNL     1     102.650  16.302  18.224  1.00  0.00     0.198 C 
BRANCH  30  31
HETATM   31  O4  UNL     1     103.866  15.652  18.149  1.00  0.00    -0.398 OA
ATOM     32  H4  UNL     1     104.486  16.236  17.728  1.00  0.00     0.209 HD
ENDBRANCH  30  31
ENDBRANCH   7  30
TORSDOF 8
ENDMDL
