MODEL 1
REMARK VINA RESULT: -6.898910674      0.000      0.000
REMARK  9 active torsions:
REMARK  status: ('A' for Active; 'I' for Inactive)
REMARK    1  A    between atoms: C2_2  and  C4_4 
REMARK    2  A    between atoms: C2_2  and  C9_14 
REMARK       I    between atoms: C4_4  and  N1_6 
REMARK    3  A    between atoms: N1_6  and  C5_8 
REMARK    4  A    between atoms: C5_8  and  C6_9 
REMARK    5  A    between atoms: C6_9  and  C7_10 
REMARK    6  A    between atoms: C7_10  and  C8_11 
REMARK    7  A    between atoms: C14_19  and  O4_20 
REMARK    8  A    between atoms: C16_23  and  O5_24 
REMARK    9  A    between atoms: C18_27  and  O6_28 
ROOT
HETATM    1  C9  UNL     1     105.601  19.946  12.975  1.00  0.00     0.005 C 
HETATM    2  C10 UNL     1     105.575  21.355  12.485  1.00  0.00     0.007 C 
HETATM    3  C11 UNL     1     106.258  21.483  11.159  1.00  0.00     0.015 C 
HETATM    4  C12 UNL     1     107.451  20.623  10.960  1.00  0.00     0.013 C 
HETATM    5  C13 UNL     1     107.144  19.443  10.041  1.00  0.00     0.021 C 
HETATM    6  C14 UNL     1     108.596  21.350  10.241  1.00  0.00     0.131 C 
HETATM    7  C15 UNL     1     109.123  22.506  11.003  1.00  0.00     0.064 C 
HETATM    8  C16 UNL     1     108.993  22.419  12.471  1.00  0.00     0.123 C 
HETATM    9  C17 UNL     1     108.773  21.092  13.057  1.00  0.00     0.070 C 
HETATM   10  C18 UNL     1     108.025  20.096  12.246  1.00  0.00     0.070 C 
HETATM   11  C19 UNL     1     106.987  19.358  13.064  1.00  0.00     0.044 C 
ENDROOT
BRANCH   1  12
HETATM   12  C2  UNL     1     104.918  19.690  14.267  1.00  0.00     0.037 C 
HETATM   13  C1  UNL     1     106.031  19.590  15.327  1.00  0.00     0.025 C 
HETATM   14  C3  UNL     1     103.979  20.783  14.698  1.00  0.00     0.025 C 
BRANCH  12  15
HETATM   15  C4  UNL     1     104.186  18.408  14.366  1.00  0.00     0.226 C 
HETATM   16  O1  UNL     1     104.407  17.379  13.705  1.00  0.00    -0.273 OA
HETATM   17  N1  UNL     1     103.115  18.351  15.322  1.00  0.00    -0.360 N 
ATOM     18  H1  UNL     1     102.907  19.178  15.882  1.00  0.00     0.162 HD
BRANCH  17  19
HETATM   19  C5  UNL     1     102.327  17.158  15.515  1.00  0.00     0.123 C 
BRANCH  19  20
HETATM   20  C6  UNL     1     102.351  16.705  16.956  1.00  0.00     0.030 C 
BRANCH  20  21
HETATM   21  C7  UNL     1     103.339  17.484  17.795  1.00  0.00     0.114 C 
BRANCH  21  22
HETATM   22  C8  UNL     1     104.419  16.607  18.291  1.00  0.00     0.172 C 
HETATM   23  O2  UNL     1     105.607  16.883  17.995  1.00  0.00    -0.648 OA
HETATM   24  O3  UNL     1     104.183  15.490  19.072  1.00  0.00    -0.648 OA
ENDBRANCH  21  22
ENDBRANCH  20  21
ENDBRANCH  19  20
ENDBRANCH  17  19
ENDBRANCH  12  15
ENDBRANCH   1  12
BRANCH  10  25
HETATM   25  O6  UNL     1     108.963  19.106  11.856  1.00  0.00    -0.389 OA
ATOM     26  H6  UNL     1     109.650  19.143  12.512  1.00  0.00     0.210 HD
ENDBRANCH  10  25
BRANCH   6  27
HETATM   27  O4  UNL     1     108.224  21.679   8.936  1.00  0.00    -0.395 OA
ATOM     28  H4  UNL     1     108.110  22.618   8.849  1.00  0.00     0.210 HD
ENDBRANCH   6  27
BRANCH   8  29
HETATM   29  O5  UNL     1     110.155  22.996  13.041  1.00  0.00    -0.395 OA
ATOM     30  H5  UNL     1     110.003  23.089  13.974  1.00  0.00     0.210 HD
ENDBRANCH   8  29
TORSDOF 9
ENDMDL
MODEL 2
REMARK VINA RESULT: -6.775425725      2.614      3.766
REMARK  9 active torsions:
REMARK  status: ('A' for Active; 'I' for Inactive)
REMARK    1  A    between atoms: C2_2  and  C4_4 
REMARK    2  A    between atoms: C2_2  and  C9_14 
REMARK       I    between atoms: C4_4  and  N1_6 
REMARK    3  A    between atoms: N1_6  and  C5_8 
REMARK    4  A    between atoms: C5_8  and  C6_9 
REMARK    5  A    between atoms: C6_9  and  C7_10 
REMARK    6  A    between atoms: C7_10  and  C8_11 
REMARK    7  A    between atoms: C14_19  and  O4_20 
REMARK    8  A    between atoms: C16_23  and  O5_24 
REMARK    9  A    between atoms: C18_27  and  O6_28 
ROOT
HETATM    1  C9  UNL     1     105.603  18.988  14.318  1.00  0.00     0.005 C 
HETATM    2  C10 UNL     1     105.964  18.432  12.982  1.00  0.00     0.007 C 
HETATM    3  C11 UNL     1     107.283  18.962  12.510  1.00  0.00     0.015 C 
HETATM    4  C12 UNL     1     107.574  20.375  12.859  1.00  0.00     0.013 C 
HETATM    5  C13 UNL     1     108.591  20.474  13.993  1.00  0.00     0.021 C 
HETATM    6  C14 UNL     1     108.240  21.145  11.710  1.00  0.00     0.131 C 
HETATM    7  C15 UNL     1     107.386  21.253  10.506  1.00  0.00     0.064 C 
HETATM    8  C16 UNL     1     105.930  21.230  10.748  1.00  0.00     0.123 C 
HETATM    9  C17 UNL     1     105.462  21.531  12.105  1.00  0.00     0.070 C 
HETATM   10  C18 UNL     1     106.348  21.158  13.239  1.00  0.00     0.070 C 
HETATM   11  C19 UNL     1     105.586  20.496  14.367  1.00  0.00     0.044 C 
ENDROOT
BRANCH   1  12
HETATM   12  C2  UNL     1     104.330  18.503  14.906  1.00  0.00     0.037 C 
HETATM   13  C1  UNL     1     103.335  19.676  14.800  1.00  0.00     0.025 C 
HETATM   14  C3  UNL     1     103.724  17.328  14.188  1.00  0.00     0.025 C 
BRANCH  12  15
HETATM   15  C4  UNL     1     104.370  18.173  16.348  1.00  0.00     0.226 C 
HETATM   16  O1  UNL     1     103.448  17.677  17.017  1.00  0.00    -0.273 OA
HETATM   17  N1  UNL     1     105.598  18.455  17.038  1.00  0.00    -0.360 N 
ATOM     18  H1  UNL     1     106.376  18.863  16.519  1.00  0.00     0.162 HD
BRANCH  17  19
HETATM   19  C5  UNL     1     105.764  18.178  18.444  1.00  0.00     0.123 C 
BRANCH  19  20
HETATM   20  C6  UNL     1     106.968  18.892  19.012  1.00  0.00     0.030 C 
BRANCH  20  21
HETATM   21  C7  UNL     1     106.991  18.883  20.525  1.00  0.00     0.114 C 
BRANCH  21  22
HETATM   22  C8  UNL     1     108.355  19.130  21.035  1.00  0.00     0.172 C 
HETATM   23  O2  UNL     1     109.304  19.193  20.218  1.00  0.00    -0.648 OA
HETATM   24  O3  UNL     1     108.636  19.297  22.379  1.00  0.00    -0.648 OA
ENDBRANCH  21  22
ENDBRANCH  20  21
ENDBRANCH  19  20
ENDBRANCH  17  19
ENDBRANCH  12  15
ENDBRANCH   1  12
BRANCH  10  25
HETATM   25  O6  UNL     1     106.838  22.372  13.785  1.00  0.00    -0.389 OA
ATOM     26  H6  UNL     1     106.326  23.056  13.369  1.00  0.00     0.210 HD
ENDBRANCH  10  25
BRANCH   6  27
HETATM   27  O4  UNL     1     109.506  20.621  11.438  1.00  0.00    -0.395 OA
ATOM     28  H4  UNL     1     109.719  20.726  10.518  1.00  0.00     0.210 HD
ENDBRANCH   6  27
BRANCH   8  29
HETATM   29  O5  UNL     1     105.327  22.128   9.834  1.00  0.00    -0.395 OA
ATOM     30  H5  UNL     1     104.482  21.768   9.590  1.00  0.00     0.210 HD
ENDBRANCH   8  29
TORSDOF 9
ENDMDL
MODEL 3
REMARK VINA RESULT: -6.526743809      2.694      3.857
REMARK  9 active torsions:
REMARK  status: ('A' for Active; 'I' for Inactive)
REMARK    1  A    between atoms: C2_2  and  C4_4 
REMARK    2  A    between atoms: C2_2  and  C9_14 
REMARK       I    between atoms: C4_4  and  N1_6 
REMARK    3  A    between atoms: N1_6  and  C5_8 
REMARK    4  A    between atoms: C5_8  and  C6_9 
REMARK    5  A    between atoms: C6_9  and  C7_10 
REMARK    6  A    between atoms: C7_10  and  C8_11 
REMARK    7  A    between atoms: C14_19  and  O4_20 
REMARK    8  A    between atoms: C16_23  and  O5_24 
REMARK    9  A    between atoms: C18_27  and  O6_28 
ROOT
HETATM    1  C9  UNL     1     105.919  19.983  14.483  1.00  0.00     0.005 C 
HETATM    2  C10 UNL     1     107.348  19.632  14.725  1.00  0.00     0.007 C 
HETATM    3  C11 UNL     1     108.255  20.775  14.388  1.00  0.00     0.015 C 
HETATM    4  C12 UNL     1     107.852  21.595  13.218  1.00  0.00     0.013 C 
HETATM    5  C13 UNL     1     107.268  22.937  13.650  1.00  0.00     0.021 C 
HETATM    6  C14 UNL     1     109.042  21.990  12.332  1.00  0.00     0.131 C 
HETATM    7  C15 UNL     1     109.728  20.827  11.722  1.00  0.00     0.064 C 
HETATM    8  C16 UNL     1     108.888  19.635  11.493  1.00  0.00     0.123 C 
HETATM    9  C17 UNL     1     107.433  19.823  11.472  1.00  0.00     0.070 C 
HETATM   10  C18 UNL     1     106.865  20.905  12.319  1.00  0.00     0.070 C 
HETATM   11  C19 UNL     1     105.636  20.451  13.077  1.00  0.00     0.044 C 
ENDROOT
BRANCH   1  12
HETATM   12  C2  UNL     1     104.922  18.937  14.819  1.00  0.00     0.037 C 
HETATM   13  C1  UNL     1     103.550  19.502  14.404  1.00  0.00     0.025 C 
HETATM   14  C3  UNL     1     105.118  17.637  14.087  1.00  0.00     0.025 C 
BRANCH  12  15
HETATM   15  C4  UNL     1     104.779  18.621  16.258  1.00  0.00     0.226 C 
HETATM   16  O1  UNL     1     103.763  18.180  16.819  1.00  0.00    -0.273 OA
HETATM   17  N1  UNL     1     105.933  18.850  17.084  1.00  0.00    -0.360 N 
ATOM     18  H1  UNL     1     106.784  19.212  16.656  1.00  0.00     0.162 HD
BRANCH  17  19
HETATM   19  C5  UNL     1     105.921  18.581  18.502  1.00  0.00     0.123 C 
BRANCH  19  20
HETATM   20  C6  UNL     1     107.226  18.978  19.152  1.00  0.00     0.030 C 
BRANCH  20  21
HETATM   21  C7  UNL     1     107.163  18.926  20.663  1.00  0.00     0.114 C 
BRANCH  21  22
HETATM   22  C8  UNL     1     108.507  19.081  21.254  1.00  0.00     0.172 C 
HETATM   23  O2  UNL     1     108.604  19.334  22.479  1.00  0.00    -0.648 OA
HETATM   24  O3  UNL     1     109.672  18.958  20.517  1.00  0.00    -0.648 OA
ENDBRANCH  21  22
ENDBRANCH  20  21
ENDBRANCH  19  20
ENDBRANCH  17  19
ENDBRANCH  12  15
ENDBRANCH   1  12
BRANCH  10  25
HETATM   25  O6  UNL     1     106.404  21.911  11.432  1.00  0.00    -0.389 OA
ATOM     26  H6  UNL     1     106.717  21.649  10.574  1.00  0.00     0.210 HD
ENDBRANCH  10  25
BRANCH   6  27
HETATM   27  O4  UNL     1     109.911  22.835  13.025  1.00  0.00    -0.395 OA
ATOM     28  H4  UNL     1     110.440  22.339  13.639  1.00  0.00     0.210 HD
ENDBRANCH   6  27
BRANCH   8  29
HETATM   29  O5  UNL     1     109.302  19.045  10.274  1.00  0.00    -0.395 OA
ATOM     30  H5  UNL     1     110.091  18.545  10.448  1.00  0.00     0.210 HD
ENDBRANCH   8  29
TORSDOF 9
ENDMDL
MODEL 4
REMARK VINA RESULT: -6.456056353      4.433      7.191
REMARK  9 active torsions:
REMARK  status: ('A' for Active; 'I' for Inactive)
REMARK    1  A    between atoms: C2_2  and  C4_4 
REMARK    2  A    between atoms: C2_2  and  C9_14 
REMARK       I    between atoms: C4_4  and  N1_6 
REMARK    3  A    between atoms: N1_6  and  C5_8 
REMARK    4  A    between atoms: C5_8  and  C6_9 
REMARK    5  A    between atoms: C6_9  and  C7_10 
REMARK    6  A    between atoms: C7_10  and  C8_11 
REMARK    7  A    between atoms: C14_19  and  O4_20 
REMARK    8  A    between atoms: C16_23  and  O5_24 
REMARK    9  A    between atoms: C18_27  and  O6_28 
ROOT
HETATM    1  C9  UNL     1     111.485  20.653  10.011  1.00  0.00     0.005 C 
HETATM    2  C10 UNL     1     111.597  20.158  11.414  1.00  0.00     0.007 C 
HETATM    3  C11 UNL     1     112.460  21.058  12.242  1.00  0.00     0.015 C 
HETATM    4  C12 UNL     1     113.625  21.659  11.545  1.00  0.00     0.013 C 
HETATM    5  C13 UNL     1     113.386  23.133  11.226  1.00  0.00     0.021 C 
HETATM    6  C14 UNL     1     114.891  21.678  12.411  1.00  0.00     0.131 C 
HETATM    7  C15 UNL     1     115.367  20.325  12.780  1.00  0.00     0.064 C 
HETATM    8  C16 UNL     1     115.035  19.247  11.829  1.00  0.00     0.123 C 
HETATM    9  C17 UNL     1     114.671  19.635  10.462  1.00  0.00     0.070 C 
HETATM   10  C18 UNL     1     113.991  20.944  10.274  1.00  0.00     0.070 C 
HETATM   11  C19 UNL     1     112.815  20.846   9.325  1.00  0.00     0.044 C 
ENDROOT
BRANCH   1  12
HETATM   12  C2  UNL     1     110.621  19.859   9.104  1.00  0.00     0.037 C 
HETATM   13  C1  UNL     1     111.031  20.249   7.671  1.00  0.00     0.025 C 
HETATM   14  C3  UNL     1     110.789  18.370   9.235  1.00  0.00     0.025 C 
BRANCH  12  15
HETATM   15  C4  UNL     1     109.172  20.152   9.174  1.00  0.00     0.226 C 
HETATM   16  O1  UNL     1     108.510  20.801   8.347  1.00  0.00    -0.273 OA
HETATM   17  N1  UNL     1     108.465  19.633  10.312  1.00  0.00    -0.360 N 
ATOM     18  H1  UNL     1     108.979  19.096  11.011  1.00  0.00     0.162 HD
BRANCH  17  19
HETATM   19  C5  UNL     1     107.051  19.849  10.495  1.00  0.00     0.123 C 
BRANCH  19  20
HETATM   20  C6  UNL     1     106.775  20.727  11.694  1.00  0.00     0.030 C 
BRANCH  20  21
HETATM   21  C7  UNL     1     106.600  19.933  12.969  1.00  0.00     0.114 C 
BRANCH  21  22
HETATM   22  C8  UNL     1     107.694  20.214  13.922  1.00  0.00     0.172 C 
HETATM   23  O2  UNL     1     108.861  20.347  13.481  1.00  0.00    -0.648 OA
HETATM   24  O3  UNL     1     107.491  20.341  15.284  1.00  0.00    -0.648 OA
ENDBRANCH  21  22
ENDBRANCH  20  21
ENDBRANCH  19  20
ENDBRANCH  17  19
ENDBRANCH  12  15
ENDBRANCH   1  12
BRANCH  10  25
HETATM   25  O6  UNL     1     114.922  21.794   9.625  1.00  0.00    -0.389 OA
ATOM     26  H6  UNL     1     115.777  21.447   9.855  1.00  0.00     0.210 HD
ENDBRANCH  10  25
BRANCH   6  27
HETATM   27  O4  UNL     1     114.718  22.517  13.514  1.00  0.00    -0.395 OA
ATOM     28  H4  UNL     1     114.322  22.041  14.236  1.00  0.00     0.210 HD
ENDBRANCH   6  27
BRANCH   8  29
HETATM   29  O5  UNL     1     116.135  18.356  11.786  1.00  0.00    -0.395 OA
ATOM     30  H5  UNL     1     115.789  17.473  11.733  1.00  0.00     0.210 HD
ENDBRANCH   8  29
TORSDOF 9
ENDMDL
MODEL 5
REMARK VINA RESULT: -6.449092657      6.203      8.701
REMARK  9 active torsions:
REMARK  status: ('A' for Active; 'I' for Inactive)
REMARK    1  A    between atoms: C2_2  and  C4_4 
REMARK    2  A    between atoms: C2_2  and  C9_14 
REMARK       I    between atoms: C4_4  and  N1_6 
REMARK    3  A    between atoms: N1_6  and  C5_8 
REMARK    4  A    between atoms: C5_8  and  C6_9 
REMARK    5  A    between atoms: C6_9  and  C7_10 
REMARK    6  A    between atoms: C7_10  and  C8_11 
REMARK    7  A    between atoms: C14_19  and  O4_20 
REMARK    8  A    between atoms: C16_23  and  O5_24 
REMARK    9  A    between atoms: C18_27  and  O6_28 
ROOT
HETATM    1  C9  UNL     1     111.411  20.690  10.173  1.00  0.00     0.005 C 
HETATM    2  C10 UNL     1     111.576  20.173  11.563  1.00  0.00     0.007 C 
HETATM    3  C11 UNL     1     112.462  21.066  12.375  1.00  0.00     0.015 C 
HETATM    4  C12 UNL     1     113.598  21.686  11.646  1.00  0.00     0.013 C 
HETATM    5  C13 UNL     1     113.339  23.163  11.359  1.00  0.00     0.021 C 
HETATM    6  C14 UNL     1     114.894  21.700  12.467  1.00  0.00     0.131 C 
HETATM    7  C15 UNL     1     115.391  20.344  12.798  1.00  0.00     0.064 C 
HETATM    8  C16 UNL     1     115.031  19.279  11.842  1.00  0.00     0.123 C 
HETATM    9  C17 UNL     1     114.617  19.686  10.495  1.00  0.00     0.070 C 
HETATM   10  C18 UNL     1     113.923  20.992  10.352  1.00  0.00     0.070 C 
HETATM   11  C19 UNL     1     112.715  20.902   9.444  1.00  0.00     0.044 C 
ENDROOT
BRANCH   1  12
HETATM   12  C2  UNL     1     110.520  19.904   9.285  1.00  0.00     0.037 C 
HETATM   13  C1  UNL     1     110.720  20.472   7.867  1.00  0.00     0.025 C 
HETATM   14  C3  UNL     1     110.836  18.434   9.233  1.00  0.00     0.025 C 
BRANCH  12  15
HETATM   15  C4  UNL     1     109.070  20.039   9.544  1.00  0.00     0.226 C 
HETATM   16  O1  UNL     1     108.410  19.415  10.392  1.00  0.00    -0.273 OA
HETATM   17  N1  UNL     1     108.357  20.988   8.733  1.00  0.00    -0.360 N 
ATOM     18  H1  UNL     1     108.868  21.517   8.027  1.00  0.00     0.162 HD
BRANCH  17  19
HETATM   19  C5  UNL     1     106.940  21.212   8.889  1.00  0.00     0.123 C 
BRANCH  19  20
HETATM   20  C6  UNL     1     106.150  20.556   7.782  1.00  0.00     0.030 C 
BRANCH  20  21
HETATM   21  C7  UNL     1     106.026  21.433   6.556  1.00  0.00     0.114 C 
BRANCH  21  22
HETATM   22  C8  UNL     1     105.287  20.739   5.481  1.00  0.00     0.172 C 
HETATM   23  O2  UNL     1     104.939  19.547   5.658  1.00  0.00    -0.648 OA
HETATM   24  O3  UNL     1     104.959  21.345   4.281  1.00  0.00    -0.648 OA
ENDBRANCH  21  22
ENDBRANCH  20  21
ENDBRANCH  19  20
ENDBRANCH  17  19
ENDBRANCH  12  15
ENDBRANCH   1  12
BRANCH  10  25
HETATM   25  O6  UNL     1     114.825  21.858   9.684  1.00  0.00    -0.389 OA
ATOM     26  H6  UNL     1     114.320  22.638   9.485  1.00  0.00     0.210 HD
ENDBRANCH  10  25
BRANCH   6  27
HETATM   27  O4  UNL     1     114.755  22.520  13.588  1.00  0.00    -0.395 OA
ATOM     28  H4  UNL     1     114.018  22.238  14.118  1.00  0.00     0.210 HD
ENDBRANCH   6  27
BRANCH   8  29
HETATM   29  O5  UNL     1     116.135  18.396  11.746  1.00  0.00    -0.395 OA
ATOM     30  H5  UNL     1     116.568  18.382  12.591  1.00  0.00     0.210 HD
ENDBRANCH   8  29
TORSDOF 9
ENDMDL
