MODEL 1
REMARK VINA RESULT: -11.118614178      0.000      0.000
REMARK  8 active torsions:
REMARK  status: ('A' for Active; 'I' for Inactive)
REMARK    1  A    between atoms: N1_2  and  C2_3 
REMARK    2  A    between atoms: N1_2  and  C8_13 
REMARK    3  A    between atoms: C5_6  and  N2_7 
REMARK    4  A    between atoms: C11_16  and  N3_17 
REMARK    5  A    between atoms: N3_17  and  C20_30 
REMARK    6  A    between atoms: C12_18  and  C13_19 
REMARK    7  A    between atoms: C16_22  and  C17_23 
REMARK    8  A    between atoms: N5_39  and  C27_40 
ROOT
HETATM    1  N3  UNL     1      37.066  22.608  21.261  1.00  0.00    -0.338 N 
HETATM    2  C12 UNL     1      36.036  23.394  21.679  1.00  0.00     0.107 C 
ENDROOT
BRANCH   1   3
HETATM    3  C11 UNL     1      36.749  21.107  21.205  1.00  0.00     0.091 C 
HETATM    4  C10 UNL     1      37.911  20.233  21.172  1.00  0.00     0.031 C 
HETATM    5  C9  UNL     1      37.325  18.776  21.287  1.00  0.00     0.054 C 
HETATM    6  C8  UNL     1      36.678  18.504  19.979  1.00  0.00    -0.011 C 
HETATM    7  C34 UNL     1      35.871  19.556  19.350  1.00  0.00     0.054 C 
HETATM    8  C33 UNL     1      35.867  20.904  19.965  1.00  0.00     0.031 C 
BRANCH   6   9
HETATM    9  N1  UNL     1      36.105  17.190  19.872  1.00  0.00    -0.365 N 
HETATM   10  C1  UNL     1      34.997  16.952  19.038  1.00  0.00     0.155 C 
BRANCH   9  11
HETATM   11  C2  UNL     1      37.062  16.112  19.847  1.00  0.00    -0.011 C 
HETATM   12  C3  UNL     1      36.582  14.932  19.048  1.00  0.00     0.054 C 
HETATM   13  C4  UNL     1      37.606  13.824  19.111  1.00  0.00     0.038 C 
HETATM   14  C5  UNL     1      37.895  13.368  20.500  1.00  0.00     0.184 C 
HETATM   15  C6  UNL     1      37.451  14.330  21.549  1.00  0.00     0.038 C 
HETATM   16  C7  UNL     1      37.772  15.771  21.073  1.00  0.00     0.054 C 
BRANCH  14  17
HETATM   17  N2  UNL     1      39.307  13.022  20.665  1.00  0.00    -0.075 N 
ATOM     18  H23 UNL     1      39.894  13.511  19.989  1.00  0.00     0.274 HD
ATOM     19  H22 UNL     1      39.692  13.419  21.522  1.00  0.00     0.274 HD
ATOM     20  H21 UNL     1      39.450  12.013  20.623  1.00  0.00     0.274 HD
ENDBRANCH  14  17
ENDBRANCH   9  11
ENDBRANCH   6   9
ENDBRANCH   1   3
BRANCH   1  21
HETATM   21  C20 UNL     1      38.327  22.977  20.736  1.00  0.00     0.108 A 
HETATM   22  C21 UNL     1      38.506  22.950  19.379  1.00  0.00     0.051 A 
HETATM   23  C22 UNL     1      39.533  23.625  18.777  1.00  0.00     0.036 A 
HETATM   24  C23 UNL     1      40.372  24.316  19.583  1.00  0.00     0.062 A 
HETATM   25  C24 UNL     1      40.225  24.346  20.997  1.00  0.00     0.070 A 
HETATM   26  N5  UNL     1      41.413  25.161  19.320  1.00  0.00    -0.343 N 
HETATM   27  N4  UNL     1      39.199  23.665  21.555  1.00  0.00    -0.340 N 
HETATM   28  C25 UNL     1      41.168  25.173  21.470  1.00  0.00     0.019 A 
ATOM     29  H4  UNL     1      39.070  23.659  22.566  1.00  0.00     0.167 HD
HETATM   30  C26 UNL     1      41.888  25.678  20.411  1.00  0.00     0.024 A 
HETATM   31  C32 UNL     1      41.739  25.510  22.822  1.00  0.00     0.275 C 
HETATM   32  C30 UNL     1      42.885  26.750  20.733  1.00  0.00     0.085 C 
HETATM   33  C31 UNL     1      43.839  26.193  21.773  1.00  0.00     0.238 C 
HETATM   34  N6  UNL     1      43.215  25.203  22.603  1.00  0.00    -0.071 N 
ATOM     35  H62 UNL     1      43.349  24.264  22.230  1.00  0.00     0.277 HD
ATOM     36  H61 UNL     1      43.709  25.094  23.489  1.00  0.00     0.277 HD
BRANCH  26  37
HETATM   37  C27 UNL     1      41.760  25.474  17.936  1.00  0.00     0.090 A 
HETATM   38  C28 UNL     1      43.219  25.318  17.507  1.00  0.00     0.028 A 
HETATM   39  C29 UNL     1      42.146  24.425  16.973  1.00  0.00     0.028 A 
ENDBRANCH  26  37
ENDBRANCH   1  21
BRANCH   2  40
HETATM   40  C13 UNL     1      35.880  24.819  21.689  1.00  0.00     0.018 A 
HETATM   41  C14 UNL     1      36.254  25.742  20.780  1.00  0.00     0.017 A 
HETATM   42  C15 UNL     1      36.359  27.109  21.108  1.00  0.00     0.017 A 
HETATM   43  C16 UNL     1      36.085  27.553  22.380  1.00  0.00     0.050 A 
HETATM   44  C18 UNL     1      35.686  26.626  23.332  1.00  0.00     0.059 A 
HETATM   45  C19 UNL     1      35.593  25.340  23.005  1.00  0.00     0.128 A 
HETATM   46  F4  UNL     1      35.122  24.436  23.920  1.00  0.00    -0.205 F 
BRANCH  43  47
HETATM   47  C17 UNL     1      36.347  28.947  22.846  1.00  0.00     0.417 C 
HETATM   48  F1  UNL     1      37.405  28.963  23.693  1.00  0.00    -0.166 F 
HETATM   49  F2  UNL     1      36.368  29.885  21.873  1.00  0.00    -0.166 F 
HETATM   50  F3  UNL     1      35.226  29.211  23.700  1.00  0.00    -0.166 F 
ENDBRANCH  43  47
ENDBRANCH   2  40
TORSDOF 8
ENDMDL
MODEL 2
REMARK VINA RESULT: -10.739495570      3.577      9.417
REMARK  8 active torsions:
REMARK  status: ('A' for Active; 'I' for Inactive)
REMARK    1  A    between atoms: N1_2  and  C2_3 
REMARK    2  A    between atoms: N1_2  and  C8_13 
REMARK    3  A    between atoms: C5_6  and  N2_7 
REMARK    4  A    between atoms: C11_16  and  N3_17 
REMARK    5  A    between atoms: N3_17  and  C20_30 
REMARK    6  A    between atoms: C12_18  and  C13_19 
REMARK    7  A    between atoms: C16_22  and  C17_23 
REMARK    8  A    between atoms: N5_39  and  C27_40 
ROOT
HETATM    1  N3  UNL     1      38.335  24.687  21.459  1.00  0.00    -0.338 N 
HETATM    2  C12 UNL     1      37.523  23.932  22.249  1.00  0.00     0.107 C 
ENDROOT
BRANCH   1   3
HETATM    3  C11 UNL     1      38.395  26.175  21.833  1.00  0.00     0.091 C 
HETATM    4  C10 UNL     1      38.596  26.446  23.247  1.00  0.00     0.031 C 
HETATM    5  C9  UNL     1      38.788  28.006  23.337  1.00  0.00     0.054 C 
HETATM    6  C8  UNL     1      37.444  28.585  23.085  1.00  0.00    -0.011 C 
HETATM    7  C34 UNL     1      36.614  28.023  22.014  1.00  0.00     0.054 C 
HETATM    8  C33 UNL     1      37.082  26.793  21.332  1.00  0.00     0.031 C 
BRANCH   6   9
HETATM    9  N1  UNL     1      37.402  30.021  23.160  1.00  0.00    -0.365 N 
HETATM   10  C1  UNL     1      38.069  30.709  24.190  1.00  0.00     0.155 C 
BRANCH   9  11
HETATM   11  C2  UNL     1      37.495  30.696  21.889  1.00  0.00    -0.011 C 
HETATM   12  C3  UNL     1      38.847  31.313  21.660  1.00  0.00     0.054 C 
HETATM   13  C4  UNL     1      38.855  32.047  20.341  1.00  0.00     0.038 C 
HETATM   14  C5  UNL     1      37.825  33.122  20.260  1.00  0.00     0.184 C 
HETATM   15  C6  UNL     1      36.753  33.001  21.289  1.00  0.00     0.038 C 
HETATM   16  C7  UNL     1      36.370  31.505  21.437  1.00  0.00     0.054 C 
BRANCH  14  17
HETATM   17  N2  UNL     1      37.258  33.217  18.914  1.00  0.00    -0.075 N 
ATOM     18  H23 UNL     1      36.640  34.023  18.825  1.00  0.00     0.274 HD
ATOM     19  H22 UNL     1      37.964  33.483  18.229  1.00  0.00     0.274 HD
ATOM     20  H21 UNL     1      36.786  32.352  18.649  1.00  0.00     0.274 HD
ENDBRANCH  14  17
ENDBRANCH   9  11
ENDBRANCH   6   9
ENDBRANCH   1   3
BRANCH   1  21
HETATM   21  C20 UNL     1      39.236  24.285  20.445  1.00  0.00     0.108 A 
HETATM   22  C21 UNL     1      38.805  24.287  19.146  1.00  0.00     0.051 A 
HETATM   23  C22 UNL     1      39.685  24.275  18.098  1.00  0.00     0.036 A 
HETATM   24  C23 UNL     1      41.004  24.253  18.401  1.00  0.00     0.062 A 
HETATM   25  C24 UNL     1      41.482  24.228  19.740  1.00  0.00     0.070 A 
HETATM   26  N5  UNL     1      42.128  24.335  17.628  1.00  0.00    -0.343 N 
HETATM   27  N4  UNL     1      40.581  24.239  20.748  1.00  0.00    -0.340 N 
HETATM   28  C25 UNL     1      42.820  24.285  19.678  1.00  0.00     0.019 A 
ATOM     29  H4  UNL     1      40.891  24.214  21.719  1.00  0.00     0.167 HD
HETATM   30  C26 UNL     1      43.200  24.362  18.357  1.00  0.00     0.024 A 
HETATM   31  C32 UNL     1      43.962  24.086  20.639  1.00  0.00     0.275 C 
HETATM   32  C30 UNL     1      44.657  24.597  18.096  1.00  0.00     0.085 C 
HETATM   33  C31 UNL     1      45.432  23.487  18.780  1.00  0.00     0.238 C 
HETATM   34  N6  UNL     1      44.749  22.986  19.938  1.00  0.00    -0.071 N 
ATOM     35  H62 UNL     1      44.154  22.191  19.706  1.00  0.00     0.277 HD
ATOM     36  H61 UNL     1      45.392  22.520  20.579  1.00  0.00     0.277 HD
BRANCH  26  37
HETATM   37  C27 UNL     1      42.001  24.512  16.184  1.00  0.00     0.090 A 
HETATM   38  C28 UNL     1      42.770  23.556  15.272  1.00  0.00     0.028 A 
HETATM   39  C29 UNL     1      41.277  23.543  15.340  1.00  0.00     0.028 A 
ENDBRANCH  26  37
ENDBRANCH   1  21
BRANCH   2  40
HETATM   40  C13 UNL     1      37.347  22.512  22.337  1.00  0.00     0.018 A 
HETATM   41  C14 UNL     1      38.014  21.596  23.068  1.00  0.00     0.017 A 
HETATM   42  C15 UNL     1      37.964  20.221  22.763  1.00  0.00     0.017 A 
HETATM   43  C16 UNL     1      37.227  19.761  21.696  1.00  0.00     0.050 A 
HETATM   44  C18 UNL     1      36.521  20.682  20.935  1.00  0.00     0.059 A 
HETATM   45  C19 UNL     1      36.582  21.975  21.237  1.00  0.00     0.128 A 
HETATM   46  F4  UNL     1      35.822  22.876  20.537  1.00  0.00    -0.205 F 
BRANCH  43  47
HETATM   47  C17 UNL     1      37.270  18.352  21.204  1.00  0.00     0.417 C 
HETATM   48  F1  UNL     1      37.602  17.515  22.217  1.00  0.00    -0.166 F 
HETATM   49  F2  UNL     1      36.207  17.970  20.461  1.00  0.00    -0.166 F 
HETATM   50  F3  UNL     1      38.430  18.345  20.363  1.00  0.00    -0.166 F 
ENDBRANCH  43  47
ENDBRANCH   2  40
TORSDOF 8
ENDMDL
MODEL 3
REMARK VINA RESULT: -10.206716956      1.040      1.355
REMARK  8 active torsions:
REMARK  status: ('A' for Active; 'I' for Inactive)
REMARK    1  A    between atoms: N1_2  and  C2_3 
REMARK    2  A    between atoms: N1_2  and  C8_13 
REMARK    3  A    between atoms: C5_6  and  N2_7 
REMARK    4  A    between atoms: C11_16  and  N3_17 
REMARK    5  A    between atoms: N3_17  and  C20_30 
REMARK    6  A    between atoms: C12_18  and  C13_19 
REMARK    7  A    between atoms: C16_22  and  C17_23 
REMARK    8  A    between atoms: N5_39  and  C27_40 
ROOT
HETATM    1  N3  UNL     1      36.904  23.042  20.131  1.00  0.00    -0.338 N 
HETATM    2  C12 UNL     1      35.990  23.768  20.833  1.00  0.00     0.107 C 
ENDROOT
BRANCH   1   3
HETATM    3  C11 UNL     1      36.467  21.609  19.794  1.00  0.00     0.091 C 
HETATM    4  C10 UNL     1      35.541  21.010  20.742  1.00  0.00     0.031 C 
HETATM    5  C9  UNL     1      35.128  19.637  20.090  1.00  0.00     0.054 C 
HETATM    6  C8  UNL     1      36.324  18.765  20.212  1.00  0.00    -0.011 C 
HETATM    7  C34 UNL     1      37.648  19.327  19.925  1.00  0.00     0.054 C 
HETATM    8  C33 UNL     1      37.758  20.785  19.685  1.00  0.00     0.031 C 
BRANCH   6   9
HETATM    9  N1  UNL     1      36.133  17.436  19.697  1.00  0.00    -0.365 N 
HETATM   10  C1  UNL     1      35.547  17.229  18.435  1.00  0.00     0.155 C 
BRANCH   9  11
HETATM   11  C2  UNL     1      37.214  16.521  19.966  1.00  0.00    -0.011 C 
HETATM   12  C3  UNL     1      36.866  15.099  19.624  1.00  0.00     0.054 C 
HETATM   13  C4  UNL     1      38.019  14.192  19.981  1.00  0.00     0.038 C 
HETATM   14  C5  UNL     1      38.392  14.254  21.423  1.00  0.00     0.184 C 
HETATM   15  C6  UNL     1      37.855  15.454  22.127  1.00  0.00     0.038 C 
HETATM   16  C7  UNL     1      37.987  16.683  21.190  1.00  0.00     0.054 C 
BRANCH  14  17
HETATM   17  N2  UNL     1      39.839  14.138  21.605  1.00  0.00    -0.075 N 
ATOM     18  H23 UNL     1      40.112  13.183  21.835  1.00  0.00     0.274 HD
ATOM     19  H22 UNL     1      40.337  14.235  20.720  1.00  0.00     0.274 HD
ATOM     20  H21 UNL     1      40.181  14.802  22.300  1.00  0.00     0.274 HD
ENDBRANCH  14  17
ENDBRANCH   9  11
ENDBRANCH   6   9
ENDBRANCH   1   3
BRANCH   1  21
HETATM   21  C20 UNL     1      38.124  23.453  19.544  1.00  0.00     0.108 A 
HETATM   22  C21 UNL     1      38.100  23.972  18.278  1.00  0.00     0.051 A 
HETATM   23  C22 UNL     1      39.139  24.718  17.789  1.00  0.00     0.036 A 
HETATM   24  C23 UNL     1      40.197  24.914  18.610  1.00  0.00     0.062 A 
HETATM   25  C24 UNL     1      40.260  24.368  19.922  1.00  0.00     0.070 A 
HETATM   26  N5  UNL     1      41.329  25.670  18.489  1.00  0.00    -0.343 N 
HETATM   27  N4  UNL     1      39.215  23.636  20.368  1.00  0.00    -0.340 N 
HETATM   28  C25 UNL     1      41.397  24.814  20.475  1.00  0.00     0.019 A 
ATOM     29  H4  UNL     1      39.232  23.225  21.301  1.00  0.00     0.167 HD
HETATM   30  C26 UNL     1      42.041  25.630  19.572  1.00  0.00     0.024 A 
HETATM   31  C32 UNL     1      42.207  24.492  21.703  1.00  0.00     0.275 C 
HETATM   32  C30 UNL     1      43.254  26.353  20.074  1.00  0.00     0.085 C 
HETATM   33  C31 UNL     1      44.226  25.311  20.597  1.00  0.00     0.238 C 
HETATM   34  N6  UNL     1      43.554  24.142  21.085  1.00  0.00    -0.071 N 
ATOM     35  H62 UNL     1      43.458  23.435  20.357  1.00  0.00     0.277 HD
ATOM     36  H61 UNL     1      44.140  23.620  21.737  1.00  0.00     0.277 HD
BRANCH  26  37
HETATM   37  C27 UNL     1      41.527  26.489  17.295  1.00  0.00     0.090 A 
HETATM   38  C28 UNL     1      42.907  26.479  16.638  1.00  0.00     0.028 A 
HETATM   39  C29 UNL     1      41.712  25.890  15.960  1.00  0.00     0.028 A 
ENDBRANCH  26  37
ENDBRANCH   1  21
BRANCH   2  40
HETATM   40  C13 UNL     1      35.947  25.160  21.167  1.00  0.00     0.018 A 
HETATM   41  C14 UNL     1      36.510  26.220  20.553  1.00  0.00     0.017 A 
HETATM   42  C15 UNL     1      36.678  27.457  21.209  1.00  0.00     0.017 A 
HETATM   43  C16 UNL     1      36.273  27.626  22.512  1.00  0.00     0.050 A 
HETATM   44  C18 UNL     1      35.679  26.554  23.163  1.00  0.00     0.059 A 
HETATM   45  C19 UNL     1      35.529  25.395  22.529  1.00  0.00     0.128 A 
HETATM   46  F4  UNL     1      34.871  24.361  23.143  1.00  0.00    -0.205 F 
BRANCH  43  47
HETATM   47  C17 UNL     1      36.579  28.839  23.326  1.00  0.00     0.417 C 
HETATM   48  F1  UNL     1      35.592  29.056  24.229  1.00  0.00    -0.166 F 
HETATM   49  F2  UNL     1      37.838  28.900  23.817  1.00  0.00    -0.166 F 
HETATM   50  F3  UNL     1      36.414  29.904  22.381  1.00  0.00    -0.166 F 
ENDBRANCH  43  47
ENDBRANCH   2  40
TORSDOF 8
ENDMDL
MODEL 4
REMARK VINA RESULT: -10.201075565      1.328      1.581
REMARK  8 active torsions:
REMARK  status: ('A' for Active; 'I' for Inactive)
REMARK    1  A    between atoms: N1_2  and  C2_3 
REMARK    2  A    between atoms: N1_2  and  C8_13 
REMARK    3  A    between atoms: C5_6  and  N2_7 
REMARK    4  A    between atoms: C11_16  and  N3_17 
REMARK    5  A    between atoms: N3_17  and  C20_30 
REMARK    6  A    between atoms: C12_18  and  C13_19 
REMARK    7  A    between atoms: C16_22  and  C17_23 
REMARK    8  A    between atoms: N5_39  and  C27_40 
ROOT
HETATM    1  N3  UNL     1      37.840  23.058  21.316  1.00  0.00    -0.338 N 
HETATM    2  C12 UNL     1      37.192  23.906  22.164  1.00  0.00     0.107 C 
ENDROOT
BRANCH   1   3
HETATM    3  C11 UNL     1      37.295  21.623  21.300  1.00  0.00     0.091 C 
HETATM    4  C10 UNL     1      38.180  20.623  21.874  1.00  0.00     0.031 C 
HETATM    5  C9  UNL     1      37.333  19.295  21.889  1.00  0.00     0.054 C 
HETATM    6  C8  UNL     1      37.241  18.868  20.469  1.00  0.00    -0.011 C 
HETATM    7  C34 UNL     1      36.979  19.877  19.437  1.00  0.00     0.054 C 
HETATM    8  C33 UNL     1      36.979  21.305  19.831  1.00  0.00     0.031 C 
BRANCH   6   9
HETATM    9  N1  UNL     1      36.524  17.637  20.274  1.00  0.00    -0.365 N 
HETATM   10  C1  UNL     1      35.397  17.585  19.435  1.00  0.00     0.155 C 
BRANCH   9  11
HETATM   11  C2  UNL     1      37.355  16.463  20.165  1.00  0.00    -0.011 C 
HETATM   12  C3  UNL     1      36.696  15.360  19.383  1.00  0.00     0.054 C 
HETATM   13  C4  UNL     1      37.595  14.148  19.356  1.00  0.00     0.038 C 
HETATM   14  C5  UNL     1      37.927  13.632  20.714  1.00  0.00     0.184 C 
HETATM   15  C6  UNL     1      37.663  14.611  21.807  1.00  0.00     0.038 C 
HETATM   16  C7  UNL     1      38.106  16.020  21.332  1.00  0.00     0.054 C 
BRANCH  14  17
HETATM   17  N2  UNL     1      39.302  13.132  20.774  1.00  0.00    -0.075 N 
ATOM     18  H23 UNL     1      39.974  13.895  20.857  1.00  0.00     0.274 HD
ATOM     19  H22 UNL     1      39.490  12.659  21.657  1.00  0.00     0.274 HD
ATOM     20  H21 UNL     1      39.514  12.532  19.976  1.00  0.00     0.274 HD
ENDBRANCH  14  17
ENDBRANCH   9  11
ENDBRANCH   6   9
ENDBRANCH   1   3
BRANCH   1  21
HETATM   21  C20 UNL     1      38.837  23.336  20.351  1.00  0.00     0.108 A 
HETATM   22  C21 UNL     1      38.446  23.685  19.087  1.00  0.00     0.051 A 
HETATM   23  C22 UNL     1      39.298  24.315  18.221  1.00  0.00     0.036 A 
HETATM   24  C23 UNL     1      40.551  24.570  18.666  1.00  0.00     0.062 A 
HETATM   25  C24 UNL     1      40.993  24.199  19.966  1.00  0.00     0.070 A 
HETATM   26  N5  UNL     1      41.601  25.254  18.119  1.00  0.00    -0.343 N 
HETATM   27  N4  UNL     1      40.121  23.578  20.791  1.00  0.00    -0.340 N 
HETATM   28  C25 UNL     1      42.243  24.663  20.100  1.00  0.00     0.019 A 
ATOM     29  H4  UNL     1      40.409  23.292  21.727  1.00  0.00     0.167 HD
HETATM   30  C26 UNL     1      42.598  25.325  18.945  1.00  0.00     0.024 A 
HETATM   31  C32 UNL     1      43.376  24.470  21.073  1.00  0.00     0.275 C 
HETATM   32  C30 UNL     1      43.907  26.054  18.970  1.00  0.00     0.085 C 
HETATM   33  C31 UNL     1      44.986  25.049  19.328  1.00  0.00     0.238 C 
HETATM   34  N6  UNL     1      44.482  23.984  20.147  1.00  0.00    -0.071 N 
ATOM     35  H62 UNL     1      44.175  23.192  19.582  1.00  0.00     0.277 HD
ATOM     36  H61 UNL     1      45.231  23.527  20.667  1.00  0.00     0.277 HD
BRANCH  26  37
HETATM   37  C27 UNL     1      41.444  25.900  16.818  1.00  0.00     0.090 A 
HETATM   38  C28 UNL     1      42.427  25.528  15.709  1.00  0.00     0.028 A 
HETATM   39  C29 UNL     1      40.981  25.159  15.630  1.00  0.00     0.028 A 
ENDBRANCH  26  37
ENDBRANCH   1  21
BRANCH   2  40
HETATM   40  C13 UNL     1      37.278  25.327  22.325  1.00  0.00     0.018 A 
HETATM   41  C14 UNL     1      38.152  26.071  23.033  1.00  0.00     0.017 A 
HETATM   42  C15 UNL     1      37.877  27.409  23.383  1.00  0.00     0.017 A 
HETATM   43  C16 UNL     1      36.695  28.007  23.014  1.00  0.00     0.050 A 
HETATM   44  C18 UNL     1      35.783  27.267  22.274  1.00  0.00     0.059 A 
HETATM   45  C19 UNL     1      36.059  26.006  21.954  1.00  0.00     0.128 A 
HETATM   46  F4  UNL     1      35.196  25.300  21.157  1.00  0.00    -0.205 F 
BRANCH  43  47
HETATM   47  C17 UNL     1      36.258  29.349  23.498  1.00  0.00     0.417 C 
HETATM   48  F1  UNL     1      35.040  29.259  24.085  1.00  0.00    -0.166 F 
HETATM   49  F2  UNL     1      37.188  30.041  24.194  1.00  0.00    -0.166 F 
HETATM   50  F3  UNL     1      35.995  30.056  22.279  1.00  0.00    -0.166 F 
ENDBRANCH  43  47
ENDBRANCH   2  40
TORSDOF 8
ENDMDL
MODEL 5
REMARK VINA RESULT: -10.185145581      1.495      2.129
REMARK  8 active torsions:
REMARK  status: ('A' for Active; 'I' for Inactive)
REMARK    1  A    between atoms: N1_2  and  C2_3 
REMARK    2  A    between atoms: N1_2  and  C8_13 
REMARK    3  A    between atoms: C5_6  and  N2_7 
REMARK    4  A    between atoms: C11_16  and  N3_17 
REMARK    5  A    between atoms: N3_17  and  C20_30 
REMARK    6  A    between atoms: C12_18  and  C13_19 
REMARK    7  A    between atoms: C16_22  and  C17_23 
REMARK    8  A    between atoms: N5_39  and  C27_40 
ROOT
HETATM    1  N3  UNL     1      38.341  23.208  21.046  1.00  0.00    -0.338 N 
HETATM    2  C12 UNL     1      37.113  23.645  21.443  1.00  0.00     0.107 C 
ENDROOT
BRANCH   1   3
HETATM    3  C11 UNL     1      38.450  21.690  20.845  1.00  0.00     0.091 C 
HETATM    4  C10 UNL     1      37.548  21.134  19.849  1.00  0.00     0.031 C 
HETATM    5  C9  UNL     1      37.971  19.623  19.718  1.00  0.00     0.054 C 
HETATM    6  C8  UNL     1      37.510  18.972  20.970  1.00  0.00    -0.011 C 
HETATM    7  C34 UNL     1      37.706  19.665  22.248  1.00  0.00     0.054 C 
HETATM    8  C33 UNL     1      38.207  21.059  22.224  1.00  0.00     0.031 C 
BRANCH   6   9
HETATM    9  N1  UNL     1      37.776  17.561  21.027  1.00  0.00    -0.365 N 
HETATM   10  C1  UNL     1      37.758  16.873  22.255  1.00  0.00     0.155 C 
BRANCH   9  11
HETATM   11  C2  UNL     1      37.204  16.791  19.950  1.00  0.00    -0.011 C 
HETATM   12  C3  UNL     1      35.809  17.232  19.603  1.00  0.00     0.054 C 
HETATM   13  C4  UNL     1      35.255  16.351  18.510  1.00  0.00     0.038 C 
HETATM   14  C5  UNL     1      35.216  14.908  18.880  1.00  0.00     0.184 C 
HETATM   15  C6  UNL     1      36.080  14.567  20.046  1.00  0.00     0.038 C 
HETATM   16  C7  UNL     1      37.414  15.350  19.925  1.00  0.00     0.054 C 
BRANCH  14  17
HETATM   17  N2  UNL     1      35.520  14.054  17.730  1.00  0.00    -0.075 N 
ATOM     18  H23 UNL     1      34.702  13.923  17.135  1.00  0.00     0.274 HD
ATOM     19  H22 UNL     1      36.126  14.529  17.062  1.00  0.00     0.274 HD
ATOM     20  H21 UNL     1      35.915  13.161  18.025  1.00  0.00     0.274 HD
ENDBRANCH  14  17
ENDBRANCH   9  11
ENDBRANCH   6   9
ENDBRANCH   1   3
BRANCH   1  21
HETATM   21  C20 UNL     1      39.479  23.951  20.653  1.00  0.00     0.108 A 
HETATM   22  C21 UNL     1      39.567  24.379  19.357  1.00  0.00     0.051 A 
HETATM   23  C22 UNL     1      40.417  25.388  18.990  1.00  0.00     0.036 A 
HETATM   24  C23 UNL     1      41.175  25.939  19.966  1.00  0.00     0.062 A 
HETATM   25  C24 UNL     1      41.122  25.501  21.318  1.00  0.00     0.070 A 
HETATM   26  N5  UNL     1      42.033  27.003  19.975  1.00  0.00    -0.343 N 
HETATM   27  N4  UNL     1      40.271  24.501  21.640  1.00  0.00    -0.340 N 
HETATM   28  C25 UNL     1      41.935  26.302  22.020  1.00  0.00     0.019 A 
ATOM     29  H4  UNL     1      40.214  24.158  22.599  1.00  0.00     0.167 HD
HETATM   30  C26 UNL     1      42.483  27.235  21.169  1.00  0.00     0.024 A 
HETATM   31  C32 UNL     1      42.530  26.304  23.404  1.00  0.00     0.275 C 
HETATM   32  C30 UNL     1      43.297  28.321  21.805  1.00  0.00     0.085 C 
HETATM   33  C31 UNL     1      44.402  27.658  22.607  1.00  0.00     0.238 C 
HETATM   34  N6  UNL     1      44.018  26.362  23.085  1.00  0.00    -0.071 N 
ATOM     35  H62 UNL     1      44.289  25.627  22.432  1.00  0.00     0.277 HD
ATOM     36  H61 UNL     1      44.583  26.078  23.886  1.00  0.00     0.277 HD
BRANCH  26  37
HETATM   37  C27 UNL     1      42.224  27.788  18.758  1.00  0.00     0.090 A 
HETATM   38  C28 UNL     1      43.656  28.067  18.301  1.00  0.00     0.028 A 
HETATM   39  C29 UNL     1      42.739  27.186  17.514  1.00  0.00     0.028 A 
ENDBRANCH  26  37
ENDBRANCH   1  21
BRANCH   2  40
HETATM   40  C13 UNL     1      36.573  24.967  21.555  1.00  0.00     0.018 A 
HETATM   41  C14 UNL     1      36.676  26.022  20.722  1.00  0.00     0.017 A 
HETATM   42  C15 UNL     1      36.405  27.338  21.151  1.00  0.00     0.017 A 
HETATM   43  C16 UNL     1      36.024  27.594  22.447  1.00  0.00     0.050 A 
HETATM   44  C18 UNL     1      35.898  26.524  23.321  1.00  0.00     0.059 A 
HETATM   45  C19 UNL     1      36.160  25.290  22.900  1.00  0.00     0.128 A 
HETATM   46  F4  UNL     1      35.958  24.225  23.739  1.00  0.00    -0.205 F 
BRANCH  43  47
HETATM   47  C17 UNL     1      35.896  28.967  23.019  1.00  0.00     0.417 C 
HETATM   48  F1  UNL     1      34.640  29.160  23.489  1.00  0.00    -0.166 F 
HETATM   49  F2  UNL     1      36.892  29.337  23.855  1.00  0.00    -0.166 F 
HETATM   50  F3  UNL     1      35.954  29.801  21.855  1.00  0.00    -0.166 F 
ENDBRANCH  43  47
ENDBRANCH   2  40
TORSDOF 8
ENDMDL
