MODEL 1
REMARK VINA RESULT: -6.565481263      0.000      0.000
REMARK  5 active torsions:
REMARK  status: ('A' for Active; 'I' for Inactive)
REMARK    1  A    between atoms: C3_3  and  O1_5 
REMARK    2  A    between atoms: C3_3  and  O2_7 
REMARK    3  A    between atoms: O2_7  and  C5_8 
REMARK    4  A    between atoms: C5_8  and  C6_9 
REMARK    5  A    between atoms: C7_10  and  C8_11 
ROOT
HETATM    1  C1  UNL     1      17.281  14.986  16.438  1.00  0.00     0.017 C 
HETATM    2  C2  UNL     1      17.395  16.004  17.083  1.00  0.00    -0.050 C 
HETATM    3  C3  UNL     1      17.524  17.228  17.876  1.00  0.00     0.226 C 
HETATM    4  C4  UNL     1      16.135  17.757  18.190  1.00  0.00     0.095 C 
ENDROOT
BRANCH   3   5
HETATM    5  O1  UNL     1      18.254  18.188  17.169  1.00  0.00    -0.356 OA
ATOM      6  H1  UNL     1      19.137  18.251  17.515  1.00  0.00     0.214 HD
ENDBRANCH   3   5
BRANCH   3   7
HETATM    7  O2  UNL     1      18.172  16.870  19.067  1.00  0.00    -0.333 OA
BRANCH   7   8
HETATM    8  C5  UNL     1      19.546  16.788  18.874  1.00  0.00     0.266 C 
BRANCH   8   9
HETATM    9  C6  UNL     1      19.895  15.366  18.915  1.00  0.00    -0.080 C 
HETATM   10  C7  UNL     1      20.166  14.192  18.936  1.00  0.00    -0.100 C 
BRANCH  10  11
HETATM   11  C8  UNL     1      20.479  12.737  18.953  1.00  0.00     0.065 C 
HETATM   12  C9  UNL     1      21.580  12.518  17.999  1.00  0.00     0.017 C 
HETATM   13  C10 UNL     1      21.460  11.315  17.115  1.00  0.00     0.001 C 
HETATM   14  C11 UNL     1      20.067  11.412  16.475  1.00  0.00     0.000 C 
HETATM   15  C12 UNL     1      19.102  11.113  17.593  1.00  0.00     0.001 C 
HETATM   16  C13 UNL     1      19.243  11.958  18.792  1.00  0.00     0.017 C 
ENDBRANCH  10  11
ENDBRANCH   8   9
ENDBRANCH   7   8
ENDBRANCH   3   7
TORSDOF 5
ENDMDL
MODEL 2
REMARK VINA RESULT: -6.266411032      0.754      1.162
REMARK  5 active torsions:
REMARK  status: ('A' for Active; 'I' for Inactive)
REMARK    1  A    between atoms: C3_3  and  O1_5 
REMARK    2  A    between atoms: C3_3  and  O2_7 
REMARK    3  A    between atoms: O2_7  and  C5_8 
REMARK    4  A    between atoms: C5_8  and  C6_9 
REMARK    5  A    between atoms: C7_10  and  C8_11 
ROOT
HETATM    1  C1  UNL     1      17.265  14.955  16.421  1.00  0.00     0.017 C 
HETATM    2  C2  UNL     1      17.384  15.974  17.062  1.00  0.00    -0.050 C 
HETATM    3  C3  UNL     1      17.517  17.200  17.851  1.00  0.00     0.226 C 
HETATM    4  C4  UNL     1      16.130  17.745  18.148  1.00  0.00     0.095 C 
ENDROOT
BRANCH   3   5
HETATM    5  O1  UNL     1      18.264  18.150  17.148  1.00  0.00    -0.356 OA
ATOM      6  H1  UNL     1      18.631  17.764  16.360  1.00  0.00     0.214 HD
ENDBRANCH   3   5
BRANCH   3   7
HETATM    7  O2  UNL     1      18.149  16.841  19.050  1.00  0.00    -0.333 OA
BRANCH   7   8
HETATM    8  C5  UNL     1      19.528  16.799  18.887  1.00  0.00     0.266 C 
BRANCH   8   9
HETATM    9  C6  UNL     1      19.917  15.388  18.940  1.00  0.00    -0.080 C 
HETATM   10  C7  UNL     1      20.220  14.222  18.976  1.00  0.00    -0.100 C 
BRANCH  10  11
HETATM   11  C8  UNL     1      20.571  12.776  19.015  1.00  0.00     0.065 C 
HETATM   12  C9  UNL     1      21.991  12.683  19.395  1.00  0.00     0.017 C 
HETATM   13  C10 UNL     1      22.814  11.688  18.637  1.00  0.00     0.001 C 
HETATM   14  C11 UNL     1      22.566  11.994  17.153  1.00  0.00     0.000 C 
HETATM   15  C12 UNL     1      21.154  11.540  16.891  1.00  0.00     0.001 C 
HETATM   16  C13 UNL     1      20.129  12.121  17.776  1.00  0.00     0.017 C 
ENDBRANCH  10  11
ENDBRANCH   8   9
ENDBRANCH   7   8
ENDBRANCH   3   7
TORSDOF 5
ENDMDL
MODEL 3
REMARK VINA RESULT: -6.150868553      2.947      4.046
REMARK  5 active torsions:
REMARK  status: ('A' for Active; 'I' for Inactive)
REMARK    1  A    between atoms: C3_3  and  O1_5 
REMARK    2  A    between atoms: C3_3  and  O2_7 
REMARK    3  A    between atoms: O2_7  and  C5_8 
REMARK    4  A    between atoms: C5_8  and  C6_9 
REMARK    5  A    between atoms: C7_10  and  C8_11 
ROOT
HETATM    1  C1  UNL     1      17.575  14.877  16.756  1.00  0.00     0.017 C 
HETATM    2  C2  UNL     1      17.570  16.044  17.076  1.00  0.00    -0.050 C 
HETATM    3  C3  UNL     1      17.563  17.451  17.480  1.00  0.00     0.226 C 
HETATM    4  C4  UNL     1      16.291  17.730  18.262  1.00  0.00     0.095 C 
ENDROOT
BRANCH   3   5
HETATM    5  O1  UNL     1      17.625  18.278  16.355  1.00  0.00    -0.356 OA
ATOM      6  H1  UNL     1      16.861  18.843  16.318  1.00  0.00     0.214 HD
ENDBRANCH   3   5
BRANCH   3   7
HETATM    7  O2  UNL     1      18.677  17.637  18.311  1.00  0.00    -0.333 OA
BRANCH   7   8
HETATM    8  C5  UNL     1      18.589  16.833  19.441  1.00  0.00     0.266 C 
BRANCH   8   9
HETATM    9  C6  UNL     1      19.907  16.855  20.080  1.00  0.00    -0.080 C 
HETATM   10  C7  UNL     1      20.986  16.858  20.618  1.00  0.00    -0.100 C 
BRANCH  10  11
HETATM   11  C8  UNL     1      22.308  16.850  21.300  1.00  0.00     0.065 C 
HETATM   12  C9  UNL     1      23.331  17.100  20.270  1.00  0.00     0.017 C 
HETATM   13  C10 UNL     1      24.568  16.260  20.348  1.00  0.00     0.001 C 
HETATM   14  C11 UNL     1      24.076  14.808  20.422  1.00  0.00     0.000 C 
HETATM   15  C12 UNL     1      23.479  14.667  21.799  1.00  0.00     0.001 C 
HETATM   16  C13 UNL     1      22.431  15.647  22.136  1.00  0.00     0.017 C 
ENDBRANCH  10  11
ENDBRANCH   8   9
ENDBRANCH   7   8
ENDBRANCH   3   7
TORSDOF 5
ENDMDL
MODEL 4
REMARK VINA RESULT: -6.141368455      1.516      2.351
REMARK  5 active torsions:
REMARK  status: ('A' for Active; 'I' for Inactive)
REMARK    1  A    between atoms: C3_3  and  O1_5 
REMARK    2  A    between atoms: C3_3  and  O2_7 
REMARK    3  A    between atoms: O2_7  and  C5_8 
REMARK    4  A    between atoms: C5_8  and  C6_9 
REMARK    5  A    between atoms: C7_10  and  C8_11 
ROOT
HETATM    1  C1  UNL     1      17.331  14.984  16.406  1.00  0.00     0.017 C 
HETATM    2  C2  UNL     1      17.413  15.999  17.059  1.00  0.00    -0.050 C 
HETATM    3  C3  UNL     1      17.502  17.221  17.861  1.00  0.00     0.226 C 
HETATM    4  C4  UNL     1      16.097  17.709  18.169  1.00  0.00     0.095 C 
ENDROOT
BRANCH   3   5
HETATM    5  O1  UNL     1      18.210  18.206  17.166  1.00  0.00    -0.356 OA
ATOM      6  H1  UNL     1      17.956  19.070  17.469  1.00  0.00     0.214 HD
ENDBRANCH   3   5
BRANCH   3   7
HETATM    7  O2  UNL     1      18.152  16.873  19.054  1.00  0.00    -0.333 OA
BRANCH   7   8
HETATM    8  C5  UNL     1      19.512  17.150  18.973  1.00  0.00     0.266 C 
BRANCH   8   9
HETATM    9  C6  UNL     1      20.214  15.881  19.183  1.00  0.00    -0.080 C 
HETATM   10  C7  UNL     1      20.804  14.842  19.340  1.00  0.00    -0.100 C 
BRANCH  10  11
HETATM   11  C8  UNL     1      21.544  13.562  19.512  1.00  0.00     0.065 C 
HETATM   12  C9  UNL     1      22.711  13.845  20.365  1.00  0.00     0.017 C 
HETATM   13  C10 UNL     1      24.002  13.210  19.952  1.00  0.00     0.001 C 
HETATM   14  C11 UNL     1      24.186  13.576  18.472  1.00  0.00     0.000 C 
HETATM   15  C12 UNL     1      23.153  12.762  17.737  1.00  0.00     0.001 C 
HETATM   16  C13 UNL     1      21.766  12.933  18.202  1.00  0.00     0.017 C 
ENDBRANCH  10  11
ENDBRANCH   8   9
ENDBRANCH   7   8
ENDBRANCH   3   7
TORSDOF 5
ENDMDL
MODEL 5
REMARK VINA RESULT: -6.096940429      2.875      4.272
REMARK  5 active torsions:
REMARK  status: ('A' for Active; 'I' for Inactive)
REMARK    1  A    between atoms: C3_3  and  O1_5 
REMARK    2  A    between atoms: C3_3  and  O2_7 
REMARK    3  A    between atoms: O2_7  and  C5_8 
REMARK    4  A    between atoms: C5_8  and  C6_9 
REMARK    5  A    between atoms: C7_10  and  C8_11 
ROOT
HETATM    1  C1  UNL     1      17.604  14.838  16.833  1.00  0.00     0.017 C 
HETATM    2  C2  UNL     1      17.570  16.010  17.132  1.00  0.00    -0.050 C 
HETATM    3  C3  UNL     1      17.529  17.424  17.511  1.00  0.00     0.226 C 
HETATM    4  C4  UNL     1      16.277  17.674  18.335  1.00  0.00     0.095 C 
ENDROOT
BRANCH   3   5
HETATM    5  O1  UNL     1      17.521  18.231  16.370  1.00  0.00    -0.356 OA
ATOM      6  H1  UNL     1      16.628  18.442  16.121  1.00  0.00     0.214 HD
ENDBRANCH   3   5
BRANCH   3   7
HETATM    7  O2  UNL     1      18.666  17.663  18.296  1.00  0.00    -0.333 OA
BRANCH   7   8
HETATM    8  C5  UNL     1      18.637  16.893  19.453  1.00  0.00     0.266 C 
BRANCH   8   9
HETATM    9  C6  UNL     1      20.024  16.528  19.752  1.00  0.00    -0.080 C 
HETATM   10  C7  UNL     1      21.170  16.246  19.997  1.00  0.00    -0.100 C 
BRANCH  10  11
HETATM   11  C8  UNL     1      22.592  15.921  20.294  1.00  0.00     0.065 C 
HETATM   12  C9  UNL     1      22.614  14.578  20.897  1.00  0.00     0.017 C 
HETATM   13  C10 UNL     1      23.521  14.397  22.074  1.00  0.00     0.001 C 
HETATM   14  C11 UNL     1      23.163  15.530  23.047  1.00  0.00     0.000 C 
HETATM   15  C12 UNL     1      23.691  16.783  22.398  1.00  0.00     0.001 C 
HETATM   16  C13 UNL     1      23.216  17.033  21.027  1.00  0.00     0.017 C 
ENDBRANCH  10  11
ENDBRANCH   8   9
ENDBRANCH   7   8
ENDBRANCH   3   7
TORSDOF 5
ENDMDL
