MODEL 1
REMARK VINA RESULT: -5.237349079      0.000      0.000
REMARK  2 active torsions:
REMARK  status: ('A' for Active; 'I' for Inactive)
REMARK    1  A    between atoms: C2_2  and  C3_7 
REMARK    2  A    between atoms: N1_3  and  O1_5 
ROOT
HETATM    1  C3  UNL     1      20.064  11.624  18.375  1.00  0.00     0.061 C 
HETATM    2  C4  UNL     1      21.029  11.632  17.198  1.00  0.00     0.024 C 
HETATM    3  C5  UNL     1      22.394  11.921  17.776  1.00  0.00     0.011 C 
HETATM    4  C6  UNL     1      22.032  12.647  19.056  1.00  0.00    -0.042 C 
HETATM    5  C7  UNL     1      23.222  12.704  20.000  1.00  0.00     0.015 C 
HETATM    6  C8  UNL     1      21.555  14.008  18.756  1.00  0.00     0.021 C 
HETATM    7  C9  UNL     1      20.109  14.162  18.450  1.00  0.00     0.053 C 
HETATM    8  C10 UNL     1      19.487  15.079  19.513  1.00  0.00     0.018 C 
HETATM    9  C11 UNL     1      19.343  12.922  18.357  1.00  0.00     0.145 C 
HETATM   10  O2  UNL     1      18.137  12.899  18.264  1.00  0.00    -0.296 OA
HETATM   11  C12 UNL     1      20.960  11.712  19.614  1.00  0.00     0.032 C 
ENDROOT
BRANCH   1  12
HETATM   12  C2  UNL     1      19.199  10.457  18.390  1.00  0.00     0.022 C 
HETATM   13  C1  UNL     1      19.207   9.548  17.220  1.00  0.00     0.066 C 
HETATM   14  N1  UNL     1      18.446  10.216  19.390  1.00  0.00    -0.277 N 
ATOM     15  H1  UNL     1      18.463  10.861  20.180  1.00  0.00     0.193 HD
BRANCH  14  16
HETATM   16  O1  UNL     1      17.612   9.127  19.449  1.00  0.00    -0.290 OA
ATOM     17  H1  UNL     1      17.927   8.245  19.607  1.00  0.00     0.244 HD
ENDBRANCH  14  16
ENDBRANCH   1  12
TORSDOF 2
ENDMDL
MODEL 2
REMARK VINA RESULT: -5.125662221      2.259      3.559
REMARK  2 active torsions:
REMARK  status: ('A' for Active; 'I' for Inactive)
REMARK    1  A    between atoms: C2_2  and  C3_7 
REMARK    2  A    between atoms: N1_3  and  O1_5 
ROOT
HETATM    1  C3  UNL     1      19.336  11.863  17.251  1.00  0.00     0.061 C 
HETATM    2  C4  UNL     1      18.995  12.831  18.375  1.00  0.00     0.024 C 
HETATM    3  C5  UNL     1      20.287  13.524  18.739  1.00  0.00     0.011 C 
HETATM    4  C6  UNL     1      21.313  12.509  18.279  1.00  0.00    -0.042 C 
HETATM    5  C7  UNL     1      22.693  13.140  18.188  1.00  0.00     0.015 C 
HETATM    6  C8  UNL     1      21.340  11.355  19.194  1.00  0.00     0.021 C 
HETATM    7  C9  UNL     1      20.374  10.259  18.924  1.00  0.00     0.053 C 
HETATM    8  C10 UNL     1      21.168   8.979  18.626  1.00  0.00     0.018 C 
HETATM    9  C11 UNL     1      19.414  10.508  17.851  1.00  0.00     0.145 C 
HETATM   10  O2  UNL     1      18.672   9.655  17.422  1.00  0.00    -0.296 OA
HETATM   11  C12 UNL     1      20.785  12.192  16.881  1.00  0.00     0.032 C 
ENDROOT
BRANCH   1  12
HETATM   12  C2  UNL     1      18.431  11.968  16.120  1.00  0.00     0.022 C 
HETATM   13  C1  UNL     1      17.230  12.828  16.244  1.00  0.00     0.066 C 
HETATM   14  N1  UNL     1      18.661  11.334  15.038  1.00  0.00    -0.277 N 
ATOM     15  H1  UNL     1      19.496  10.751  14.984  1.00  0.00     0.193 HD
BRANCH  14  16
HETATM   16  O1  UNL     1      17.835  11.402  13.944  1.00  0.00    -0.290 OA
ATOM     17  H1  UNL     1      18.111  11.145  13.072  1.00  0.00     0.244 HD
ENDBRANCH  14  16
ENDBRANCH   1  12
TORSDOF 2
ENDMDL
MODEL 3
REMARK VINA RESULT: -5.043289805      2.177      4.398
REMARK  2 active torsions:
REMARK  status: ('A' for Active; 'I' for Inactive)
REMARK    1  A    between atoms: C2_2  and  C3_7 
REMARK    2  A    between atoms: N1_3  and  O1_5 
ROOT
HETATM    1  C3  UNL     1      19.500  11.722  17.463  1.00  0.00     0.061 C 
HETATM    2  C4  UNL     1      20.971  11.749  17.073  1.00  0.00     0.024 C 
HETATM    3  C5  UNL     1      21.051  11.137  15.694  1.00  0.00     0.011 C 
HETATM    4  C6  UNL     1      19.803  10.279  15.672  1.00  0.00    -0.042 C 
HETATM    5  C7  UNL     1      19.459   9.861  14.251  1.00  0.00     0.015 C 
HETATM    6  C8  UNL     1      19.983   9.090  16.523  1.00  0.00     0.021 C 
HETATM    7  C9  UNL     1      19.660   9.238  17.965  1.00  0.00     0.053 C 
HETATM    8  C10 UNL     1      18.513   8.276  18.304  1.00  0.00     0.018 C 
HETATM    9  C11 UNL     1      19.319  10.589  18.404  1.00  0.00     0.145 C 
HETATM   10  O2  UNL     1      18.890  10.833  19.509  1.00  0.00    -0.296 OA
HETATM   11  C12 UNL     1      18.769  11.275  16.194  1.00  0.00     0.032 C 
ENDROOT
BRANCH   1  12
HETATM   12  C2  UNL     1      19.025  13.001  17.963  1.00  0.00     0.022 C 
HETATM   13  C1  UNL     1      17.940  13.695  17.231  1.00  0.00     0.066 C 
HETATM   14  N1  UNL     1      19.529  13.519  19.013  1.00  0.00    -0.277 N 
ATOM     15  H1  UNL     1      20.275  13.016  19.495  1.00  0.00     0.193 HD
BRANCH  14  16
HETATM   16  O1  UNL     1      19.113  14.724  19.523  1.00  0.00    -0.290 OA
ATOM     17  H1  UNL     1      18.399  14.801  20.145  1.00  0.00     0.244 HD
ENDBRANCH  14  16
ENDBRANCH   1  12
TORSDOF 2
ENDMDL
MODEL 4
REMARK VINA RESULT: -4.991070696      2.939      4.442
REMARK  2 active torsions:
REMARK  status: ('A' for Active; 'I' for Inactive)
REMARK    1  A    between atoms: C2_2  and  C3_7 
REMARK    2  A    between atoms: N1_3  and  O1_5 
ROOT
HETATM    1  C3  UNL     1      19.762  11.075  16.013  1.00  0.00     0.061 C 
HETATM    2  C4  UNL     1      18.419  11.744  15.756  1.00  0.00     0.024 C 
HETATM    3  C5  UNL     1      18.313  12.871  16.757  1.00  0.00     0.011 C 
HETATM    4  C6  UNL     1      19.241  12.388  17.853  1.00  0.00    -0.042 C 
HETATM    5  C7  UNL     1      19.598  13.525  18.797  1.00  0.00     0.015 C 
HETATM    6  C8  UNL     1      18.620  11.282  18.602  1.00  0.00     0.021 C 
HETATM    7  C9  UNL     1      18.811   9.912  18.060  1.00  0.00     0.053 C 
HETATM    8  C10 UNL     1      19.572   9.083  19.105  1.00  0.00     0.018 C 
HETATM    9  C11 UNL     1      19.490   9.828  16.770  1.00  0.00     0.145 C 
HETATM   10  O2  UNL     1      19.847   8.779  16.282  1.00  0.00    -0.296 OA
HETATM   11  C12 UNL     1      20.461  11.983  17.028  1.00  0.00     0.032 C 
ENDROOT
BRANCH   1  12
HETATM   12  C2  UNL     1      20.540  10.885  14.801  1.00  0.00     0.022 C 
HETATM   13  C1  UNL     1      21.936  11.380  14.764  1.00  0.00     0.066 C 
HETATM   14  N1  UNL     1      20.035  10.303  13.786  1.00  0.00    -0.277 N 
ATOM     15  H1  UNL     1      19.071   9.973  13.843  1.00  0.00     0.193 HD
BRANCH  14  16
HETATM   16  O1  UNL     1      20.731  10.101  12.620  1.00  0.00    -0.290 OA
ATOM     17  H1  UNL     1      20.372  10.301  11.764  1.00  0.00     0.244 HD
ENDBRANCH  14  16
ENDBRANCH   1  12
TORSDOF 2
ENDMDL
MODEL 5
REMARK VINA RESULT: -4.974563556      1.762      3.728
REMARK  2 active torsions:
REMARK  status: ('A' for Active; 'I' for Inactive)
REMARK    1  A    between atoms: C2_2  and  C3_7 
REMARK    2  A    between atoms: N1_3  and  O1_5 
ROOT
HETATM    1  C3  UNL     1      19.626  12.787  18.000  1.00  0.00     0.061 C 
HETATM    2  C4  UNL     1      20.430  13.240  19.210  1.00  0.00     0.024 C 
HETATM    3  C5  UNL     1      21.848  12.773  18.970  1.00  0.00     0.011 C 
HETATM    4  C6  UNL     1      21.626  11.612  18.023  1.00  0.00    -0.042 C 
HETATM    5  C7  UNL     1      22.925  11.219  17.337  1.00  0.00     0.015 C 
HETATM    6  C8  UNL     1      21.064  10.459  18.747  1.00  0.00     0.021 C 
HETATM    7  C9  UNL     1      19.587  10.410  18.893  1.00  0.00     0.053 C 
HETATM    8  C10 UNL     1      19.073   9.150  18.182  1.00  0.00     0.018 C 
HETATM    9  C11 UNL     1      18.862  11.583  18.410  1.00  0.00     0.145 C 
HETATM   10  O2  UNL     1      17.655  11.621  18.327  1.00  0.00    -0.296 OA
HETATM   11  C12 UNL     1      20.670  12.250  17.017  1.00  0.00     0.032 C 
ENDROOT
BRANCH   1  12
HETATM   12  C2  UNL     1      18.814  13.849  17.431  1.00  0.00     0.022 C 
HETATM   13  C1  UNL     1      18.755  15.154  18.130  1.00  0.00     0.066 C 
HETATM   14  N1  UNL     1      18.163  13.665  16.351  1.00  0.00    -0.277 N 
ATOM     15  H1  UNL     1      18.224  12.755  15.894  1.00  0.00     0.193 HD
BRANCH  14  16
HETATM   16  O1  UNL     1      17.382  14.638  15.777  1.00  0.00    -0.290 OA
ATOM     17  H1  UNL     1      16.478  14.491  15.524  1.00  0.00     0.244 HD
ENDBRANCH  14  16
ENDBRANCH   1  12
TORSDOF 2
ENDMDL
