MODEL 1
REMARK VINA RESULT: -5.915046524      0.000      0.000
REMARK  2 active torsions:
REMARK  status: ('A' for Active; 'I' for Inactive)
REMARK    1  A    between atoms: O1_2  and  C2_3 
REMARK    2  A    between atoms: N1_9  and  O2_11 
ROOT
HETATM    1  C2  UNL     1      19.092  14.887  19.270  1.00  0.00     0.138 C 
HETATM    2  C3  UNL     1      19.525  13.845  18.627  1.00  0.00    -0.043 C 
HETATM    3  C4  UNL     1      20.976  13.506  18.666  1.00  0.00     0.038 C 
HETATM    4  C5  UNL     1      21.170  12.078  19.169  1.00  0.00     0.010 C 
HETATM    5  C6  UNL     1      20.314  11.102  18.429  1.00  0.00     0.056 C 
HETATM    6  C7  UNL     1      18.895  11.577  18.454  1.00  0.00     0.023 C 
HETATM    7  N1  UNL     1      17.991  10.850  18.983  1.00  0.00    -0.276 N 
ATOM      8  H1  UNL     1      17.021  11.168  19.005  1.00  0.00     0.193 HD
HETATM    9  C8  UNL     1      18.689  12.917  17.845  1.00  0.00     0.033 C 
HETATM   10  C9  UNL     1      17.387  13.309  17.343  1.00  0.00     0.005 C 
HETATM   11  C10 UNL     1      18.113  14.192  16.339  1.00  0.00     0.012 C 
HETATM   12  C11 UNL     1      18.905  12.911  16.357  1.00  0.00     0.005 C 
HETATM   13  C12 UNL     1      17.554  12.252  16.275  1.00  0.00     0.012 C 
ENDROOT
BRANCH   7  14
HETATM   14  O2  UNL     1      18.334   9.640  19.522  1.00  0.00    -0.290 OA
ATOM     15  H2  UNL     1      17.750   8.899  19.409  1.00  0.00     0.244 HD
ENDBRANCH   7  14
BRANCH   1  16
HETATM   16  O1  UNL     1      19.935  15.708  19.999  1.00  0.00    -0.368 OA
HETATM   17  C1  UNL     1      19.994  17.102  19.770  1.00  0.00     0.208 C 
ENDBRANCH   1  16
TORSDOF 2
ENDMDL
MODEL 2
REMARK VINA RESULT: -5.603459821      2.715      4.480
REMARK  2 active torsions:
REMARK  status: ('A' for Active; 'I' for Inactive)
REMARK    1  A    between atoms: O1_2  and  C2_3 
REMARK    2  A    between atoms: N1_9  and  O2_11 
ROOT
HETATM    1  C2  UNL     1      19.171  17.025  17.881  1.00  0.00     0.138 C 
HETATM    2  C3  UNL     1      19.285  15.941  18.588  1.00  0.00    -0.043 C 
HETATM    3  C4  UNL     1      18.274  14.855  18.440  1.00  0.00     0.038 C 
HETATM    4  C5  UNL     1      18.962  13.541  18.080  1.00  0.00     0.010 C 
HETATM    5  C6  UNL     1      20.093  13.228  19.006  1.00  0.00     0.056 C 
HETATM    6  C7  UNL     1      21.013  14.407  19.071  1.00  0.00     0.023 C 
HETATM    7  N1  UNL     1      22.232  14.283  18.719  1.00  0.00    -0.276 N 
ATOM      8  H1  UNL     1      22.864  15.083  18.761  1.00  0.00     0.193 HD
HETATM    9  C8  UNL     1      20.368  15.659  19.547  1.00  0.00     0.033 C 
HETATM   10  C9  UNL     1      21.159  16.723  20.132  1.00  0.00     0.005 C 
HETATM   11  C10 UNL     1      19.933  17.094  20.955  1.00  0.00     0.012 C 
HETATM   12  C11 UNL     1      19.976  15.588  20.998  1.00  0.00     0.005 C 
HETATM   13  C12 UNL     1      21.439  15.790  21.287  1.00  0.00     0.012 C 
ENDROOT
BRANCH   7  14
HETATM   14  O2  UNL     1      22.683  13.066  18.286  1.00  0.00    -0.290 OA
ATOM     15  H2  UNL     1      23.203  13.020  17.492  1.00  0.00     0.244 HD
ENDBRANCH   7  14
BRANCH   1  16
HETATM   16  O1  UNL     1      18.134  17.216  16.985  1.00  0.00    -0.368 OA
HETATM   17  C1  UNL     1      17.028  18.040  17.295  1.00  0.00     0.208 C 
ENDBRANCH   1  16
TORSDOF 2
ENDMDL
MODEL 3
REMARK VINA RESULT: -5.489366141      2.174      3.443
REMARK  2 active torsions:
REMARK  status: ('A' for Active; 'I' for Inactive)
REMARK    1  A    between atoms: O1_2  and  C2_3 
REMARK    2  A    between atoms: N1_9  and  O2_11 
ROOT
HETATM    1  C2  UNL     1      20.691  13.477  18.626  1.00  0.00     0.138 C 
HETATM    2  C3  UNL     1      19.582  13.002  18.145  1.00  0.00    -0.043 C 
HETATM    3  C4  UNL     1      18.390  13.890  18.025  1.00  0.00     0.038 C 
HETATM    4  C5  UNL     1      17.885  13.901  16.585  1.00  0.00     0.010 C 
HETATM    5  C6  UNL     1      17.698  12.519  16.046  1.00  0.00     0.056 C 
HETATM    6  C7  UNL     1      18.959  11.740  16.250  1.00  0.00     0.023 C 
HETATM    7  N1  UNL     1      19.579  11.257  15.246  1.00  0.00    -0.276 N 
ATOM      8  H1  UNL     1      20.440  10.726  15.378  1.00  0.00     0.193 HD
HETATM    9  C8  UNL     1      19.381  11.621  17.671  1.00  0.00     0.033 C 
HETATM   10  C9  UNL     1      20.245  10.539  18.099  1.00  0.00     0.005 C 
HETATM   11  C10 UNL     1      19.577  10.633  19.464  1.00  0.00     0.012 C 
HETATM   12  C11 UNL     1      18.445  10.765  18.479  1.00  0.00     0.005 C 
HETATM   13  C12 UNL     1      19.103   9.596  17.796  1.00  0.00     0.012 C 
ENDROOT
BRANCH   7  14
HETATM   14  O2  UNL     1      19.077  11.461  13.989  1.00  0.00    -0.290 OA
ATOM     15  H2  UNL     1      18.810  10.713  13.469  1.00  0.00     0.244 HD
ENDBRANCH   7  14
BRANCH   1  16
HETATM   16  O1  UNL     1      20.813  14.793  19.038  1.00  0.00    -0.368 OA
HETATM   17  C1  UNL     1      21.598  15.149  20.159  1.00  0.00     0.208 C 
ENDBRANCH   1  16
TORSDOF 2
ENDMDL
MODEL 4
REMARK VINA RESULT: -5.450193607      1.734      4.733
REMARK  2 active torsions:
REMARK  status: ('A' for Active; 'I' for Inactive)
REMARK    1  A    between atoms: O1_2  and  C2_3 
REMARK    2  A    between atoms: N1_9  and  O2_11 
ROOT
HETATM    1  C2  UNL     1      19.076  10.558  19.427  1.00  0.00     0.138 C 
HETATM    2  C3  UNL     1      19.274  11.504  18.559  1.00  0.00    -0.043 C 
HETATM    3  C4  UNL     1      18.390  11.603  17.362  1.00  0.00     0.038 C 
HETATM    4  C5  UNL     1      17.756  12.989  17.290  1.00  0.00     0.010 C 
HETATM    5  C6  UNL     1      18.772  14.078  17.415  1.00  0.00     0.056 C 
HETATM    6  C7  UNL     1      19.595  13.841  18.642  1.00  0.00     0.023 C 
HETATM    7  N1  UNL     1      19.619  14.714  19.571  1.00  0.00    -0.276 N 
ATOM      8  H1  UNL     1      20.177  14.559  20.411  1.00  0.00     0.193 HD
HETATM    9  C8  UNL     1      20.317  12.541  18.652  1.00  0.00     0.033 C 
HETATM   10  C9  UNL     1      21.499  12.357  19.470  1.00  0.00     0.005 C 
HETATM   11  C10 UNL     1      21.978  11.349  18.435  1.00  0.00     0.012 C 
HETATM   12  C11 UNL     1      21.412  12.484  17.623  1.00  0.00     0.005 C 
HETATM   13  C12 UNL     1      22.195  13.353  18.571  1.00  0.00     0.012 C 
ENDROOT
BRANCH   7  14
HETATM   14  O2  UNL     1      18.888  15.862  19.429  1.00  0.00    -0.290 OA
ATOM     15  H2  UNL     1      18.057  15.942  19.881  1.00  0.00     0.244 HD
ENDBRANCH   7  14
BRANCH   1  16
HETATM   16  O1  UNL     1      18.064   9.625  19.283  1.00  0.00    -0.368 OA
HETATM   17  C1  UNL     1      17.993   8.476  20.104  1.00  0.00     0.208 C 
ENDBRANCH   1  16
TORSDOF 2
ENDMDL
MODEL 5
REMARK VINA RESULT: -5.290031300      2.370      3.728
REMARK  2 active torsions:
REMARK  status: ('A' for Active; 'I' for Inactive)
REMARK    1  A    between atoms: O1_2  and  C2_3 
REMARK    2  A    between atoms: N1_9  and  O2_11 
ROOT
HETATM    1  C2  UNL     1      19.588  13.160  18.955  1.00  0.00     0.138 C 
HETATM    2  C3  UNL     1      19.072  12.373  18.060  1.00  0.00    -0.043 C 
HETATM    3  C4  UNL     1      17.786  12.744  17.405  1.00  0.00     0.038 C 
HETATM    4  C5  UNL     1      17.955  12.772  15.889  1.00  0.00     0.010 C 
HETATM    5  C6  UNL     1      18.586  11.518  15.373  1.00  0.00     0.056 C 
HETATM    6  C7  UNL     1      19.851  11.260  16.130  1.00  0.00     0.023 C 
HETATM    7  N1  UNL     1      20.963  11.204  15.510  1.00  0.00    -0.276 N 
ATOM      8  H1  UNL     1      21.830  11.028  16.019  1.00  0.00     0.193 HD
HETATM    9  C8  UNL     1      19.664  11.105  17.597  1.00  0.00     0.033 C 
HETATM   10  C9  UNL     1      20.637  10.385  18.395  1.00  0.00     0.005 C 
HETATM   11  C10 UNL     1      19.496  10.016  19.333  1.00  0.00     0.012 C 
HETATM   12  C11 UNL     1      18.919   9.848  17.952  1.00  0.00     0.005 C 
HETATM   13  C12 UNL     1      20.212   9.133  17.663  1.00  0.00     0.012 C 
ENDROOT
BRANCH   7  14
HETATM   14  O2  UNL     1      20.983  11.382  14.153  1.00  0.00    -0.290 OA
ATOM     15  H2  UNL     1      21.795  11.249  13.679  1.00  0.00     0.244 HD
ENDBRANCH   7  14
BRANCH   1  16
HETATM   16  O1  UNL     1      18.983  14.346  19.331  1.00  0.00    -0.368 OA
HETATM   17  C1  UNL     1      19.557  15.602  19.023  1.00  0.00     0.208 C 
ENDBRANCH   1  16
TORSDOF 2
ENDMDL
