MODEL 1
REMARK VINA RESULT: -8.399576551      0.000      0.000
REMARK  13 active torsions:
REMARK  status: ('A' for Active; 'I' for Inactive)
REMARK    1  A    between atoms: C2_2  and  C3_3 
REMARK    2  A    between atoms: C3_3  and  N1_4 
REMARK    3  A    between atoms: C3_3  and  C25_42 
REMARK       I    between atoms: N1_4  and  C4_6 
REMARK    4  A    between atoms: C4_6  and  C5_8 
REMARK    5  A    between atoms: C5_8  and  C6_9 
REMARK    6  A    between atoms: C5_8  and  N5_18 
REMARK    7  A    between atoms: C6_9  and  N2_10 
REMARK       I    between atoms: C7_12  and  N4_14 
REMARK    8  A    between atoms: N4_14  and  C8_16 
REMARK       I    between atoms: N5_18  and  C9_20 
REMARK    9  A    between atoms: C9_20  and  C10_22 
REMARK       I    between atoms: N6_26  and  C14_27 
REMARK   10  A    between atoms: C14_27  and  C15_29 
REMARK   11  A    between atoms: C15_29  and  C16_30 
REMARK   12  A    between atoms: C15_29  and  N7_37 
REMARK   13  A    between atoms: C16_30  and  C17_31 
REMARK       I    between atoms: N7_37  and  C23_39 
ROOT
HETATM    1  N5  UNL     1       4.321   5.609  22.508  1.00  0.00    -0.344 N 
ATOM      2  H5  UNL     1       4.684   5.894  21.598  1.00  0.00     0.163 HD
HETATM    3  C9  UNL     1       3.685   4.349  22.629  1.00  0.00     0.241 C 
HETATM    4  O3  UNL     1       3.241   4.011  23.747  1.00  0.00    -0.271 OA
ENDROOT
BRANCH   1   5
HETATM    5  C5  UNL     1       4.474   6.506  23.637  1.00  0.00     0.194 C 
BRANCH   5   6
HETATM    6  C4  UNL     1       3.336   7.440  23.758  1.00  0.00     0.242 C 
HETATM    7  N1  UNL     1       2.118   6.984  24.291  1.00  0.00    -0.351 N 
ATOM      8  H1  UNL     1       2.059   6.010  24.586  1.00  0.00     0.163 HD
HETATM    9  O1  UNL     1       3.457   8.620  23.389  1.00  0.00    -0.271 OA
BRANCH   7  10
HETATM   10  C3  UNL     1       0.940   7.817  24.444  1.00  0.00     0.110 C 
BRANCH  10  11
HETATM   11  C2  UNL     1       0.055   7.668  23.249  1.00  0.00    -0.012 C 
HETATM   12  C1  UNL     1      -0.120   8.654  22.383  1.00  0.00     0.009 C 
ENDBRANCH  10  11
BRANCH  10  13
HETATM   13  C25 UNL     1       0.203   7.320  25.683  1.00  0.00     0.004 C 
HETATM   14  C26 UNL     1      -0.799   6.234  25.327  1.00  0.00     0.012 C 
HETATM   15  C27 UNL     1      -0.547   8.502  26.308  1.00  0.00     0.012 C 
ENDBRANCH  10  13
ENDBRANCH   7  10
ENDBRANCH   5   6
BRANCH   5  16
HETATM   16  C6  UNL     1       5.737   7.298  23.540  1.00  0.00     0.157 C 
BRANCH  16  17
HETATM   17  N2  UNL     1       6.766   6.868  24.463  1.00  0.00    -0.362 N 
HETATM   18  C7  UNL     1       7.793   7.601  24.633  1.00  0.00     0.190 C 
HETATM   19  N3  UNL     1       7.930   8.816  23.929  1.00  0.00    -0.063 NA
HETATM   20  N4  UNL     1       8.804   7.184  25.538  1.00  0.00    -0.309 N 
ATOM     21  H4  UNL     1       8.686   6.302  26.036  1.00  0.00     0.170 HD
ATOM     22  H2  UNL     1       6.669   5.989  24.972  1.00  0.00     0.162 HD
BRANCH  20  23
HETATM   23  C8  UNL     1       9.978   7.954  25.772  1.00  0.00     0.355 C 
HETATM   24  O2  UNL     1      10.913   7.482  26.451  1.00  0.00    -0.283 OA
ENDBRANCH  20  23
ENDBRANCH  16  17
ENDBRANCH   5  16
ENDBRANCH   1   5
BRANCH   3  25
HETATM   25  C10 UNL     1       3.534   3.440  21.480  1.00  0.00     0.179 C 
HETATM   26  C11 UNL     1       3.246   2.008  21.867  1.00  0.00     0.037 C 
HETATM   27  C12 UNL     1       4.576   1.306  21.816  1.00  0.00     0.022 C 
HETATM   28  C13 UNL     1       5.599   2.437  21.607  1.00  0.00     0.127 C 
HETATM   29  N6  UNL     1       4.815   3.331  20.800  1.00  0.00    -0.337 N 
HETATM   30  C14 UNL     1       5.182   4.005  19.644  1.00  0.00     0.243 C 
HETATM   31  O4  UNL     1       4.371   4.860  19.144  1.00  0.00    -0.271 OA
BRANCH  30  32
HETATM   32  C15 UNL     1       6.442   3.831  18.931  1.00  0.00     0.177 C 
BRANCH  32  33
HETATM   33  C16 UNL     1       6.340   2.984  17.694  1.00  0.00     0.039 C 
BRANCH  33  34
HETATM   34  C17 UNL     1       6.859   1.626  17.683  1.00  0.00    -0.012 C 
HETATM   35  C18 UNL     1       7.920   1.541  18.804  1.00  0.00     0.005 C 
HETATM   36  C19 UNL     1       9.278   1.981  18.297  1.00  0.00     0.000 C 
HETATM   37  C20 UNL     1       9.822   0.808  17.507  1.00  0.00     0.000 C 
HETATM   38  C21 UNL     1       8.667   0.144  16.840  1.00  0.00     0.000 C 
HETATM   39  C22 UNL     1       7.553   1.117  16.458  1.00  0.00     0.005 C 
ENDBRANCH  33  34
ENDBRANCH  32  33
BRANCH  32  40
HETATM   40  N7  UNL     1       7.067   5.122  18.619  1.00  0.00    -0.348 N 
HETATM   41  C23 UNL     1       7.481   5.993  19.634  1.00  0.00     0.214 C 
HETATM   42  C24 UNL     1       8.111   7.300  19.433  1.00  0.00     0.117 C 
HETATM   43  O5  UNL     1       7.299   5.629  20.843  1.00  0.00    -0.274 OA
ATOM     44  H7  UNL     1       7.201   5.390  17.644  1.00  0.00     0.163 HD
ENDBRANCH  32  40
ENDBRANCH  30  32
ENDBRANCH   3  25
TORSDOF 13
ENDMDL
MODEL 2
REMARK VINA RESULT: -8.379784383      1.217      1.577
REMARK  13 active torsions:
REMARK  status: ('A' for Active; 'I' for Inactive)
REMARK    1  A    between atoms: C2_2  and  C3_3 
REMARK    2  A    between atoms: C3_3  and  N1_4 
REMARK    3  A    between atoms: C3_3  and  C25_42 
REMARK       I    between atoms: N1_4  and  C4_6 
REMARK    4  A    between atoms: C4_6  and  C5_8 
REMARK    5  A    between atoms: C5_8  and  C6_9 
REMARK    6  A    between atoms: C5_8  and  N5_18 
REMARK    7  A    between atoms: C6_9  and  N2_10 
REMARK       I    between atoms: C7_12  and  N4_14 
REMARK    8  A    between atoms: N4_14  and  C8_16 
REMARK       I    between atoms: N5_18  and  C9_20 
REMARK    9  A    between atoms: C9_20  and  C10_22 
REMARK       I    between atoms: N6_26  and  C14_27 
REMARK   10  A    between atoms: C14_27  and  C15_29 
REMARK   11  A    between atoms: C15_29  and  C16_30 
REMARK   12  A    between atoms: C15_29  and  N7_37 
REMARK   13  A    between atoms: C16_30  and  C17_31 
REMARK       I    between atoms: N7_37  and  C23_39 
ROOT
HETATM    1  N5  UNL     1       4.459   5.457  22.618  1.00  0.00    -0.344 N 
ATOM      2  H5  UNL     1       4.862   5.743  21.726  1.00  0.00     0.163 HD
HETATM    3  C9  UNL     1       3.747   4.234  22.688  1.00  0.00     0.241 C 
HETATM    4  O3  UNL     1       3.254   3.894  23.786  1.00  0.00    -0.271 OA
ENDROOT
BRANCH   1   5
HETATM    5  C5  UNL     1       4.633   6.314  23.774  1.00  0.00     0.194 C 
BRANCH   5   6
HETATM    6  C4  UNL     1       3.445   7.156  24.023  1.00  0.00     0.242 C 
HETATM    7  N1  UNL     1       2.789   7.766  22.940  1.00  0.00    -0.351 N 
ATOM      8  H1  UNL     1       3.155   7.602  22.003  1.00  0.00     0.163 HD
HETATM    9  O1  UNL     1       3.032   7.323  25.182  1.00  0.00    -0.271 OA
BRANCH   7  10
HETATM   10  C3  UNL     1       1.622   8.616  23.078  1.00  0.00     0.110 C 
BRANCH  10  11
HETATM   11  C2  UNL     1       2.043  10.050  23.133  1.00  0.00    -0.012 C 
HETATM   12  C1  UNL     1       1.968  10.840  22.074  1.00  0.00     0.009 C 
ENDBRANCH  10  11
BRANCH  10  13
HETATM   13  C25 UNL     1       0.759   8.391  21.841  1.00  0.00     0.004 C 
HETATM   14  C26 UNL     1      -0.695   8.161  22.220  1.00  0.00     0.012 C 
HETATM   15  C27 UNL     1       1.281   7.153  21.103  1.00  0.00     0.012 C 
ENDBRANCH  10  13
ENDBRANCH   7  10
ENDBRANCH   5   6
BRANCH   5  16
HETATM   16  C6  UNL     1       5.826   7.200  23.623  1.00  0.00     0.157 C 
BRANCH  16  17
HETATM   17  N2  UNL     1       6.700   7.202  24.778  1.00  0.00    -0.362 N 
HETATM   18  C7  UNL     1       7.945   7.417  24.614  1.00  0.00     0.190 C 
HETATM   19  N3  UNL     1       8.468   7.648  23.324  1.00  0.00    -0.063 NA
HETATM   20  N4  UNL     1       8.805   7.419  25.743  1.00  0.00    -0.309 N 
ATOM     21  H4  UNL     1       8.407   7.249  26.666  1.00  0.00     0.170 HD
ATOM     22  H2  UNL     1       6.324   7.033  25.711  1.00  0.00     0.162 HD
BRANCH  20  23
HETATM   23  C8  UNL     1      10.205   7.651  25.630  1.00  0.00     0.355 C 
HETATM   24  O2  UNL     1      10.658   8.809  25.723  1.00  0.00    -0.283 OA
ENDBRANCH  20  23
ENDBRANCH  16  17
ENDBRANCH   5  16
ENDBRANCH   1   5
BRANCH   3  25
HETATM   25  C10 UNL     1       3.574   3.366  21.511  1.00  0.00     0.179 C 
HETATM   26  C11 UNL     1       3.271   1.925  21.854  1.00  0.00     0.037 C 
HETATM   27  C12 UNL     1       4.593   1.209  21.767  1.00  0.00     0.022 C 
HETATM   28  C13 UNL     1       5.628   2.335  21.584  1.00  0.00     0.127 C 
HETATM   29  N6  UNL     1       4.846   3.264  20.815  1.00  0.00    -0.337 N 
HETATM   30  C14 UNL     1       5.211   3.972  19.679  1.00  0.00     0.243 C 
HETATM   31  O4  UNL     1       4.405   4.852  19.215  1.00  0.00    -0.271 OA
BRANCH  30  32
HETATM   32  C15 UNL     1       6.462   3.806  18.948  1.00  0.00     0.177 C 
BRANCH  32  33
HETATM   33  C16 UNL     1       6.347   2.960  17.711  1.00  0.00     0.039 C 
BRANCH  33  34
HETATM   34  C17 UNL     1       6.855   1.598  17.698  1.00  0.00    -0.012 C 
HETATM   35  C18 UNL     1       7.945   1.514  18.792  1.00  0.00     0.005 C 
HETATM   36  C19 UNL     1       9.293   1.939  18.246  1.00  0.00     0.000 C 
HETATM   37  C20 UNL     1       9.806   0.755  17.452  1.00  0.00     0.000 C 
HETATM   38  C21 UNL     1       8.630   0.095  16.821  1.00  0.00     0.000 C 
HETATM   39  C22 UNL     1       7.513   1.073  16.460  1.00  0.00     0.005 C 
ENDBRANCH  33  34
ENDBRANCH  32  33
BRANCH  32  40
HETATM   40  N7  UNL     1       7.073   5.102  18.628  1.00  0.00    -0.348 N 
HETATM   41  C23 UNL     1       7.496   5.974  19.638  1.00  0.00     0.214 C 
HETATM   42  C24 UNL     1       8.116   7.285  19.430  1.00  0.00     0.117 C 
HETATM   43  O5  UNL     1       7.334   5.607  20.850  1.00  0.00    -0.274 OA
ATOM     44  H7  UNL     1       7.192   5.371  17.652  1.00  0.00     0.163 HD
ENDBRANCH  32  40
ENDBRANCH  30  32
ENDBRANCH   3  25
TORSDOF 13
ENDMDL
MODEL 3
REMARK VINA RESULT: -8.313404384      1.980      6.002
REMARK  13 active torsions:
REMARK  status: ('A' for Active; 'I' for Inactive)
REMARK    1  A    between atoms: C2_2  and  C3_3 
REMARK    2  A    between atoms: C3_3  and  N1_4 
REMARK    3  A    between atoms: C3_3  and  C25_42 
REMARK       I    between atoms: N1_4  and  C4_6 
REMARK    4  A    between atoms: C4_6  and  C5_8 
REMARK    5  A    between atoms: C5_8  and  C6_9 
REMARK    6  A    between atoms: C5_8  and  N5_18 
REMARK    7  A    between atoms: C6_9  and  N2_10 
REMARK       I    between atoms: C7_12  and  N4_14 
REMARK    8  A    between atoms: N4_14  and  C8_16 
REMARK       I    between atoms: N5_18  and  C9_20 
REMARK    9  A    between atoms: C9_20  and  C10_22 
REMARK       I    between atoms: N6_26  and  C14_27 
REMARK   10  A    between atoms: C14_27  and  C15_29 
REMARK   11  A    between atoms: C15_29  and  C16_30 
REMARK   12  A    between atoms: C15_29  and  N7_37 
REMARK   13  A    between atoms: C16_30  and  C17_31 
REMARK       I    between atoms: N7_37  and  C23_39 
ROOT
HETATM    1  N5  UNL     1       5.921   6.732  22.123  1.00  0.00    -0.344 N 
ATOM      2  H5  UNL     1       6.400   5.865  22.367  1.00  0.00     0.163 HD
HETATM    3  C9  UNL     1       5.896   7.144  20.768  1.00  0.00     0.241 C 
HETATM    4  O3  UNL     1       5.310   8.211  20.480  1.00  0.00    -0.271 OA
ENDROOT
BRANCH   1   5
HETATM    5  C5  UNL     1       5.288   7.504  23.174  1.00  0.00     0.194 C 
BRANCH   5   6
HETATM    6  C4  UNL     1       6.277   8.209  24.016  1.00  0.00     0.242 C 
HETATM    7  N1  UNL     1       7.645   7.921  23.866  1.00  0.00    -0.351 N 
ATOM      8  H1  UNL     1       7.916   7.229  23.168  1.00  0.00     0.163 HD
HETATM    9  O1  UNL     1       5.900   9.048  24.850  1.00  0.00    -0.271 OA
BRANCH   7  10
HETATM   10  C3  UNL     1       8.693   8.550  24.648  1.00  0.00     0.110 C 
BRANCH  10  11
HETATM   11  C2  UNL     1       9.552   7.502  25.278  1.00  0.00    -0.012 C 
HETATM   12  C1  UNL     1       9.432   7.178  26.556  1.00  0.00     0.009 C 
ENDBRANCH  10  11
BRANCH  10  13
HETATM   13  C25 UNL     1       9.533   9.376  23.680  1.00  0.00     0.004 C 
HETATM   14  C26 UNL     1       9.144   9.095  22.237  1.00  0.00     0.012 C 
HETATM   15  C27 UNL     1      11.007   9.008  23.878  1.00  0.00     0.012 C 
ENDBRANCH  10  13
ENDBRANCH   7  10
ENDBRANCH   5   6
BRANCH   5  16
HETATM   16  C6  UNL     1       4.440   6.641  24.051  1.00  0.00     0.157 C 
BRANCH  16  17
HETATM   17  N2  UNL     1       3.652   7.384  25.012  1.00  0.00    -0.362 N 
HETATM   18  C7  UNL     1       2.445   7.679  24.729  1.00  0.00     0.190 C 
HETATM   19  N3  UNL     1       1.883   7.290  23.496  1.00  0.00    -0.063 NA
HETATM   20  N4  UNL     1       1.669   8.408  25.669  1.00  0.00    -0.309 N 
ATOM     21  H4  UNL     1       2.095   8.680  26.554  1.00  0.00     0.170 HD
ATOM     22  H2  UNL     1       4.058   7.668  25.904  1.00  0.00     0.162 HD
BRANCH  20  23
HETATM   23  C8  UNL     1       0.317   8.771  25.416  1.00  0.00     0.355 C 
HETATM   24  O2  UNL     1       0.046   9.899  24.955  1.00  0.00    -0.283 OA
ENDBRANCH  20  23
ENDBRANCH  16  17
ENDBRANCH   5  16
ENDBRANCH   1   5
BRANCH   3  25
HETATM   25  C10 UNL     1       6.539   6.356  19.703  1.00  0.00     0.179 C 
HETATM   26  C11 UNL     1       6.159   6.791  18.306  1.00  0.00     0.037 C 
HETATM   27  C12 UNL     1       5.066   5.848  17.879  1.00  0.00     0.022 C 
HETATM   28  C13 UNL     1       4.730   5.049  19.151  1.00  0.00     0.127 C 
HETATM   29  N6  UNL     1       6.031   4.995  19.759  1.00  0.00    -0.337 N 
HETATM   30  C14 UNL     1       6.676   3.909  20.332  1.00  0.00     0.243 C 
HETATM   31  O4  UNL     1       7.789   4.100  20.937  1.00  0.00    -0.271 OA
BRANCH  30  32
HETATM   32  C15 UNL     1       6.189   2.534  20.316  1.00  0.00     0.177 C 
BRANCH  32  33
HETATM   33  C16 UNL     1       7.220   1.518  19.912  1.00  0.00     0.039 C 
BRANCH  33  34
HETATM   34  C17 UNL     1       8.136   1.790  18.816  1.00  0.00    -0.012 C 
HETATM   35  C18 UNL     1       7.273   1.982  17.547  1.00  0.00     0.005 C 
HETATM   36  C19 UNL     1       6.992   0.652  16.879  1.00  0.00     0.000 C 
HETATM   37  C20 UNL     1       8.258   0.292  16.129  1.00  0.00     0.000 C 
HETATM   38  C21 UNL     1       9.410   0.789  16.931  1.00  0.00     0.000 C 
HETATM   39  C22 UNL     1       9.152   0.759  18.437  1.00  0.00     0.005 C 
ENDBRANCH  33  34
ENDBRANCH  32  33
BRANCH  32  40
HETATM   40  N7  UNL     1       5.580   2.164  21.599  1.00  0.00    -0.348 N 
HETATM   41  C23 UNL     1       4.313   1.573  21.657  1.00  0.00     0.214 C 
HETATM   42  C24 UNL     1       3.615   1.167  22.880  1.00  0.00     0.117 C 
HETATM   43  O5  UNL     1       3.701   1.364  20.557  1.00  0.00    -0.274 OA
ATOM     44  H7  UNL     1       6.090   2.341  22.464  1.00  0.00     0.163 HD
ENDBRANCH  32  40
ENDBRANCH  30  32
ENDBRANCH   3  25
TORSDOF 13
ENDMDL
MODEL 4
REMARK VINA RESULT: -8.236250017      1.795      3.769
REMARK  13 active torsions:
REMARK  status: ('A' for Active; 'I' for Inactive)
REMARK    1  A    between atoms: C2_2  and  C3_3 
REMARK    2  A    between atoms: C3_3  and  N1_4 
REMARK    3  A    between atoms: C3_3  and  C25_42 
REMARK       I    between atoms: N1_4  and  C4_6 
REMARK    4  A    between atoms: C4_6  and  C5_8 
REMARK    5  A    between atoms: C5_8  and  C6_9 
REMARK    6  A    between atoms: C5_8  and  N5_18 
REMARK    7  A    between atoms: C6_9  and  N2_10 
REMARK       I    between atoms: C7_12  and  N4_14 
REMARK    8  A    between atoms: N4_14  and  C8_16 
REMARK       I    between atoms: N5_18  and  C9_20 
REMARK    9  A    between atoms: C9_20  and  C10_22 
REMARK       I    between atoms: N6_26  and  C14_27 
REMARK   10  A    between atoms: C14_27  and  C15_29 
REMARK   11  A    between atoms: C15_29  and  C16_30 
REMARK   12  A    between atoms: C15_29  and  N7_37 
REMARK   13  A    between atoms: C16_30  and  C17_31 
REMARK       I    between atoms: N7_37  and  C23_39 
ROOT
HETATM    1  N5  UNL     1       7.116   6.725  22.856  1.00  0.00    -0.344 N 
ATOM      2  H5  UNL     1       7.247   5.714  22.858  1.00  0.00     0.163 HD
HETATM    3  C9  UNL     1       7.193   7.425  21.626  1.00  0.00     0.241 C 
HETATM    4  O3  UNL     1       7.035   8.665  21.635  1.00  0.00    -0.271 OA
ENDROOT
BRANCH   1   5
HETATM    5  C5  UNL     1       6.856   7.402  24.111  1.00  0.00     0.194 C 
BRANCH   5   6
HETATM    6  C4  UNL     1       5.587   8.158  24.080  1.00  0.00     0.242 C 
HETATM    7  N1  UNL     1       4.524   7.694  23.286  1.00  0.00    -0.351 N 
ATOM      8  H1  UNL     1       4.662   6.836  22.753  1.00  0.00     0.163 HD
HETATM    9  O1  UNL     1       5.463   9.196  24.751  1.00  0.00    -0.271 OA
BRANCH   7  10
HETATM   10  C3  UNL     1       3.243   8.366  23.179  1.00  0.00     0.110 C 
BRANCH  10  11
HETATM   11  C2  UNL     1       2.940   8.654  21.745  1.00  0.00    -0.012 C 
HETATM   12  C1  UNL     1       3.763   9.361  20.986  1.00  0.00     0.009 C 
ENDBRANCH  10  11
BRANCH  10  13
HETATM   13  C25 UNL     1       2.192   7.410  23.735  1.00  0.00     0.004 C 
HETATM   14  C26 UNL     1       2.099   7.516  25.249  1.00  0.00     0.012 C 
HETATM   15  C27 UNL     1       2.593   5.978  23.362  1.00  0.00     0.012 C 
ENDBRANCH  10  13
ENDBRANCH   7  10
ENDBRANCH   5   6
BRANCH   5  16
HETATM   16  C6  UNL     1       7.964   8.339  24.468  1.00  0.00     0.157 C 
BRANCH  16  17
HETATM   17  N2  UNL     1       8.988   7.741  25.299  1.00  0.00    -0.362 N 
HETATM   18  C7  UNL     1      10.207   8.051  25.101  1.00  0.00     0.190 C 
HETATM   19  N3  UNL     1      10.558   8.961  24.083  1.00  0.00    -0.063 NA
HETATM   20  N4  UNL     1      11.214   7.467  25.914  1.00  0.00    -0.309 N 
ATOM     21  H4  UNL     1      10.938   6.810  26.644  1.00  0.00     0.170 HD
ATOM     22  H2  UNL     1       8.735   7.081  26.035  1.00  0.00     0.162 HD
BRANCH  20  23
HETATM   23  C8  UNL     1      12.594   7.767  25.745  1.00  0.00     0.355 C 
HETATM   24  O2  UNL     1      13.464   7.003  26.211  1.00  0.00    -0.283 OA
ENDBRANCH  20  23
ENDBRANCH  16  17
ENDBRANCH   5  16
ENDBRANCH   1   5
BRANCH   3  25
HETATM   25  C10 UNL     1       7.455   6.733  20.353  1.00  0.00     0.179 C 
HETATM   26  C11 UNL     1       7.043   7.522  19.132  1.00  0.00     0.037 C 
HETATM   27  C12 UNL     1       5.686   6.990  18.753  1.00  0.00     0.022 C 
HETATM   28  C13 UNL     1       5.300   6.060  19.918  1.00  0.00     0.127 C 
HETATM   29  N6  UNL     1       6.599   5.560  20.275  1.00  0.00    -0.337 N 
HETATM   30  C14 UNL     1       6.982   4.254  20.545  1.00  0.00     0.243 C 
HETATM   31  O4  UNL     1       8.169   4.034  20.971  1.00  0.00    -0.271 OA
BRANCH  30  32
HETATM   32  C15 UNL     1       6.133   3.078  20.391  1.00  0.00     0.177 C 
BRANCH  32  33
HETATM   33  C16 UNL     1       6.833   1.884  19.805  1.00  0.00     0.039 C 
BRANCH  33  34
HETATM   34  C17 UNL     1       7.841   2.052  18.771  1.00  0.00    -0.012 C 
HETATM   35  C18 UNL     1       7.091   2.146  17.422  1.00  0.00     0.005 C 
HETATM   36  C19 UNL     1       6.842   0.768  16.845  1.00  0.00     0.000 C 
HETATM   37  C20 UNL     1       8.159   0.332  16.237  1.00  0.00     0.000 C 
HETATM   38  C21 UNL     1       9.249   0.882  17.091  1.00  0.00     0.000 C 
HETATM   39  C22 UNL     1       8.866   0.981  18.566  1.00  0.00     0.005 C 
ENDBRANCH  33  34
ENDBRANCH  32  33
BRANCH  32  40
HETATM   40  N7  UNL     1       5.477   2.719  21.654  1.00  0.00    -0.348 N 
HETATM   41  C23 UNL     1       4.083   2.747  21.781  1.00  0.00     0.214 C 
HETATM   42  C24 UNL     1       3.330   2.410  22.992  1.00  0.00     0.117 C 
HETATM   43  O5  UNL     1       3.398   3.095  20.763  1.00  0.00    -0.274 OA
ATOM     44  H7  UNL     1       6.047   2.444  22.453  1.00  0.00     0.163 HD
ENDBRANCH  32  40
ENDBRANCH  30  32
ENDBRANCH   3  25
TORSDOF 13
ENDMDL
MODEL 5
REMARK VINA RESULT: -8.234087126      2.080      8.597
REMARK  13 active torsions:
REMARK  status: ('A' for Active; 'I' for Inactive)
REMARK    1  A    between atoms: C2_2  and  C3_3 
REMARK    2  A    between atoms: C3_3  and  N1_4 
REMARK    3  A    between atoms: C3_3  and  C25_42 
REMARK       I    between atoms: N1_4  and  C4_6 
REMARK    4  A    between atoms: C4_6  and  C5_8 
REMARK    5  A    between atoms: C5_8  and  C6_9 
REMARK    6  A    between atoms: C5_8  and  N5_18 
REMARK    7  A    between atoms: C6_9  and  N2_10 
REMARK       I    between atoms: C7_12  and  N4_14 
REMARK    8  A    between atoms: N4_14  and  C8_16 
REMARK       I    between atoms: N5_18  and  C9_20 
REMARK    9  A    between atoms: C9_20  and  C10_22 
REMARK       I    between atoms: N6_26  and  C14_27 
REMARK   10  A    between atoms: C14_27  and  C15_29 
REMARK   11  A    between atoms: C15_29  and  C16_30 
REMARK   12  A    between atoms: C15_29  and  N7_37 
REMARK   13  A    between atoms: C16_30  and  C17_31 
REMARK       I    between atoms: N7_37  and  C23_39 
ROOT
HETATM    1  N5  UNL     1       5.306   4.531  19.991  1.00  0.00    -0.344 N 
ATOM      2  H5  UNL     1       5.530   4.304  20.959  1.00  0.00     0.163 HD
HETATM    3  C9  UNL     1       4.070   5.160  19.702  1.00  0.00     0.241 C 
HETATM    4  O3  UNL     1       3.803   5.430  18.511  1.00  0.00    -0.271 OA
ENDROOT
BRANCH   1   5
HETATM    5  C5  UNL     1       6.262   4.198  18.953  1.00  0.00     0.194 C 
BRANCH   5   6
HETATM    6  C4  UNL     1       6.383   2.738  18.760  1.00  0.00     0.242 C 
HETATM    7  N1  UNL     1       7.298   2.237  17.817  1.00  0.00    -0.351 N 
ATOM      8  H1  UNL     1       7.861   2.906  17.293  1.00  0.00     0.163 HD
HETATM    9  O1  UNL     1       5.679   1.961  19.426  1.00  0.00    -0.271 OA
BRANCH   7  10
HETATM   10  C3  UNL     1       7.487   0.825  17.547  1.00  0.00     0.110 C 
BRANCH  10  11
HETATM   11  C2  UNL     1       7.218   0.545  16.103  1.00  0.00    -0.012 C 
HETATM   12  C1  UNL     1       6.664   1.448  15.309  1.00  0.00     0.009 C 
ENDBRANCH  10  11
BRANCH  10  13
HETATM   13  C25 UNL     1       8.944   0.503  17.861  1.00  0.00     0.004 C 
HETATM   14  C26 UNL     1       9.755   1.774  18.063  1.00  0.00     0.012 C 
HETATM   15  C27 UNL     1       9.534  -0.280  16.683  1.00  0.00     0.012 C 
ENDBRANCH  10  13
ENDBRANCH   7  10
ENDBRANCH   5   6
BRANCH   5  16
HETATM   16  C6  UNL     1       7.614   4.756  19.255  1.00  0.00     0.157 C 
BRANCH  16  17
HETATM   17  N2  UNL     1       7.768   6.146  18.877  1.00  0.00    -0.362 N 
HETATM   18  C7  UNL     1       7.703   7.044  19.778  1.00  0.00     0.190 C 
HETATM   19  N3  UNL     1       7.482   6.693  21.126  1.00  0.00    -0.063 NA
HETATM   20  N4  UNL     1       7.853   8.408  19.412  1.00  0.00    -0.309 N 
ATOM     21  H4  UNL     1       8.012   8.640  18.432  1.00  0.00     0.170 HD
ATOM     22  H2  UNL     1       7.926   6.402  17.903  1.00  0.00     0.162 HD
BRANCH  20  23
HETATM   23  C8  UNL     1       7.789   9.461  20.367  1.00  0.00     0.355 C 
HETATM   24  O2  UNL     1       8.619  10.392  20.330  1.00  0.00    -0.283 OA
ENDBRANCH  20  23
ENDBRANCH  16  17
ENDBRANCH   5  16
ENDBRANCH   1   5
BRANCH   3  25
HETATM   25  C10 UNL     1       3.103   5.498  20.760  1.00  0.00     0.179 C 
HETATM   26  C11 UNL     1       1.887   6.244  20.261  1.00  0.00     0.037 C 
HETATM   27  C12 UNL     1       2.175   7.698  20.528  1.00  0.00     0.022 C 
HETATM   28  C13 UNL     1       3.647   7.722  20.977  1.00  0.00     0.127 C 
HETATM   29  N6  UNL     1       3.715   6.460  21.662  1.00  0.00    -0.337 N 
HETATM   30  C14 UNL     1       4.282   6.172  22.895  1.00  0.00     0.243 C 
HETATM   31  O4  UNL     1       4.351   4.951  23.273  1.00  0.00    -0.271 OA
BRANCH  30  32
HETATM   32  C15 UNL     1       4.827   7.157  23.823  1.00  0.00     0.177 C 
BRANCH  32  33
HETATM   33  C16 UNL     1       3.949   7.440  25.010  1.00  0.00     0.039 C 
BRANCH  33  34
HETATM   34  C17 UNL     1       3.087   8.611  25.029  1.00  0.00    -0.012 C 
HETATM   35  C18 UNL     1       1.652   8.108  25.314  1.00  0.00     0.005 C 
HETATM   36  C19 UNL     1       0.953   7.712  24.030  1.00  0.00     0.000 C 
HETATM   37  C20 UNL     1       0.516   9.010  23.383  1.00  0.00     0.000 C 
HETATM   38  C21 UNL     1       1.555  10.034  23.687  1.00  0.00     0.000 C 
HETATM   39  C22 UNL     1       2.962   9.449  23.796  1.00  0.00     0.005 C 
ENDBRANCH  33  34
ENDBRANCH  32  33
BRANCH  32  40
HETATM   40  N7  UNL     1       6.179   6.793  24.261  1.00  0.00    -0.348 N 
HETATM   41  C23 UNL     1       7.181   7.760  24.403  1.00  0.00     0.214 C 
HETATM   42  C24 UNL     1       8.559   7.505  24.832  1.00  0.00     0.117 C 
HETATM   43  O5  UNL     1       6.883   8.972  24.140  1.00  0.00    -0.274 OA
ATOM     44  H7  UNL     1       6.393   5.817  24.466  1.00  0.00     0.163 HD
ENDBRANCH  32  40
ENDBRANCH  30  32
ENDBRANCH   3  25
TORSDOF 13
ENDMDL
