MODEL 1
REMARK VINA RESULT: -6.790547564      0.000      0.000
REMARK  20 active torsions:
REMARK  status: ('A' for Active; 'I' for Inactive)
REMARK    1  A    between atoms: C2_2  and  C3_3 
REMARK    2  A    between atoms: C3_3  and  C4_4 
REMARK    3  A    between atoms: C4_4  and  C5_5 
REMARK    4  A    between atoms: C5_5  and  N1_6 
REMARK    5  A    between atoms: C5_5  and  C18_38 
REMARK    6  A    between atoms: N1_6  and  C6_8 
REMARK    7  A    between atoms: C6_8  and  N2_9 
REMARK    8  A    between atoms: C6_8  and  C11_14 
REMARK    9  A    between atoms: N2_9  and  C7_10 
REMARK   10  A    between atoms: N3_16  and  N4_18 
REMARK   11  A    between atoms: N4_18  and  N5_20 
REMARK   12  A    between atoms: N5_20  and  N6_21 
REMARK   13  A    between atoms: C15_29  and  O1_30 
REMARK   14  A    between atoms: C15_29  and  C16_32 
REMARK   15  A    between atoms: C16_32  and  N9_33 
REMARK       I    between atoms: N9_33  and  C17_35 
REMARK       I    between atoms: C18_38  and  N12_40 
REMARK   16  A    between atoms: N12_40  and  C19_41 
REMARK   17  A    between atoms: N12_40  and  C22_44 
REMARK   18  A    between atoms: C19_41  and  C20_42 
REMARK   19  A    between atoms: C22_44  and  C23_45 
REMARK   20  A    between atoms: C23_45  and  C24_46 
ROOT
HETATM    1  C11 UNL     1       4.810   6.752  22.275  1.00  0.00     0.237 C 
HETATM    2  C12 UNL     1       4.181   7.942  21.727  1.00  0.00     0.126 C 
HETATM    3  N3  UNL     1       4.117   8.338  20.514  1.00  0.00    -0.261 N 
ATOM      4  H3  UNL     1       4.554   7.778  19.784  1.00  0.00     0.191 HD
HETATM    5  N7  UNL     1       3.524   8.771  22.683  1.00  0.00    -0.375 N 
ATOM      6  H7  UNL     1       2.806   9.408  22.340  1.00  0.00     0.160 HD
HETATM    7  C13 UNL     1       3.800   8.778  24.104  1.00  0.00     0.141 C 
HETATM    8  C14 UNL     1       4.688   7.637  24.522  1.00  0.00     0.146 C 
HETATM    9  N8  UNL     1       5.578   7.254  23.429  1.00  0.00    -0.340 N 
HETATM   10  C15 UNL     1       6.927   7.338  23.541  1.00  0.00     0.154 C 
ENDROOT
BRANCH   1  11
HETATM   11  C6  UNL     1       5.468   5.778  21.446  1.00  0.00     0.177 C 
BRANCH  11  12
HETATM   12  N1  UNL     1       5.381   4.417  21.982  1.00  0.00    -0.354 N 
ATOM     13  H1  UNL     1       5.720   4.245  22.928  1.00  0.00     0.162 HD
BRANCH  12  14
HETATM   14  C5  UNL     1       4.834   3.299  21.228  1.00  0.00     0.176 C 
BRANCH  14  15
HETATM   15  C4  UNL     1       4.127   2.474  22.290  1.00  0.00     0.035 C 
BRANCH  15  16
HETATM   16  C3  UNL     1       3.662   1.136  21.918  1.00  0.00     0.002 C 
BRANCH  16  17
HETATM   17  C2  UNL     1       3.310   0.194  23.033  1.00  0.00    -0.004 C 
HETATM   18  C1  UNL     1       2.934  -1.177  22.521  1.00  0.00     0.005 C 
ENDBRANCH  16  17
ENDBRANCH  15  16
ENDBRANCH  14  15
BRANCH  14  19
HETATM   19  C18 UNL     1       6.051   2.479  20.822  1.00  0.00     0.242 C 
HETATM   20  O2  UNL     1       6.874   2.167  21.771  1.00  0.00    -0.271 OA
HETATM   21  N12 UNL     1       6.385   2.025  19.562  1.00  0.00    -0.350 N 
BRANCH  21  22
HETATM   22  C19 UNL     1       7.537   1.178  19.353  1.00  0.00     0.125 C 
BRANCH  22  23
HETATM   23  C20 UNL     1       8.580   1.761  18.466  1.00  0.00     0.015 C 
HETATM   24  C21 UNL     1       9.685   0.827  18.086  1.00  0.00     0.006 C 
ENDBRANCH  22  23
ENDBRANCH  21  22
BRANCH  21  25
HETATM   25  C22 UNL     1       5.653   2.412  18.394  1.00  0.00     0.126 C 
BRANCH  25  26
HETATM   26  C23 UNL     1       5.085   1.188  17.667  1.00  0.00     0.020 C 
BRANCH  26  27
HETATM   27  C24 UNL     1       5.407   1.257  16.203  1.00  0.00    -0.003 C 
HETATM   28  C25 UNL     1       6.474   0.240  15.817  1.00  0.00     0.005 C 
ENDBRANCH  26  27
ENDBRANCH  25  26
ENDBRANCH  21  25
ENDBRANCH  14  19
ENDBRANCH  12  14
ENDBRANCH  11  12
BRANCH  11  29
HETATM   29  N2  UNL     1       6.064   5.941  20.421  1.00  0.00    -0.422 NA
BRANCH  29  30
HETATM   30  C7  UNL     1       6.727   6.112  19.270  1.00  0.00     0.084 C 
HETATM   31  C8  UNL     1       7.386   7.530  19.139  1.00  0.00     0.053 C 
HETATM   32  C9  UNL     1       7.980   5.241  19.010  1.00  0.00     0.053 C 
HETATM   33  C10 UNL     1       5.850   6.046  18.021  1.00  0.00     0.053 C 
ENDBRANCH  29  30
ENDBRANCH  11  29
ENDBRANCH   1  11
BRANCH   3  34
HETATM   34  N4  UNL     1       3.470   9.510  20.170  1.00  0.00    -0.155 N 
ATOM     35  H4  UNL     1       2.458   9.558  20.286  1.00  0.00     0.225 HD
BRANCH  34  36
HETATM   36  N5  UNL     1       4.056  10.497  19.730  1.00  0.00    -0.228 NA
BRANCH  36  37
HETATM   37  N6  UNL     1       4.432  11.603  19.315  1.00  0.00    -0.259 N 
ATOM     38  H62 UNL     1       5.118  11.650  20.069  1.00  0.00     0.193 HD
ATOM     39  H61 UNL     1       4.602  12.485  18.833  1.00  0.00     0.193 HD
ENDBRANCH  36  37
ENDBRANCH  34  36
ENDBRANCH   3  34
BRANCH  10  40
HETATM   40  O1  UNL     1       7.552   6.767  22.524  1.00  0.00    -0.345 OA
ATOM     41  H1  UNL     1       7.797   7.393  21.853  1.00  0.00     0.219 HD
ENDBRANCH  10  40
BRANCH  10  42
HETATM   42  C16 UNL     1       7.893   7.885  24.464  1.00  0.00     0.146 C 
BRANCH  42  43
HETATM   43  N9  UNL     1       8.561   7.082  25.425  1.00  0.00    -0.339 N 
HETATM   44  C17 UNL     1       9.681   7.332  25.973  1.00  0.00     0.201 C 
HETATM   45  N10 UNL     1      10.219   6.431  26.916  1.00  0.00    -0.067 NA
HETATM   46  N11 UNL     1      10.383   8.505  25.628  1.00  0.00    -0.067 NA
ATOM     47  H9  UNL     1       8.096   6.218  25.703  1.00  0.00     0.167 HD
ENDBRANCH  42  43
ENDBRANCH  10  42
TORSDOF 20
ENDMDL
MODEL 2
REMARK VINA RESULT: -6.662948557      2.524      5.784
REMARK  20 active torsions:
REMARK  status: ('A' for Active; 'I' for Inactive)
REMARK    1  A    between atoms: C2_2  and  C3_3 
REMARK    2  A    between atoms: C3_3  and  C4_4 
REMARK    3  A    between atoms: C4_4  and  C5_5 
REMARK    4  A    between atoms: C5_5  and  N1_6 
REMARK    5  A    between atoms: C5_5  and  C18_38 
REMARK    6  A    between atoms: N1_6  and  C6_8 
REMARK    7  A    between atoms: C6_8  and  N2_9 
REMARK    8  A    between atoms: C6_8  and  C11_14 
REMARK    9  A    between atoms: N2_9  and  C7_10 
REMARK   10  A    between atoms: N3_16  and  N4_18 
REMARK   11  A    between atoms: N4_18  and  N5_20 
REMARK   12  A    between atoms: N5_20  and  N6_21 
REMARK   13  A    between atoms: C15_29  and  O1_30 
REMARK   14  A    between atoms: C15_29  and  C16_32 
REMARK   15  A    between atoms: C16_32  and  N9_33 
REMARK       I    between atoms: N9_33  and  C17_35 
REMARK       I    between atoms: C18_38  and  N12_40 
REMARK   16  A    between atoms: N12_40  and  C19_41 
REMARK   17  A    between atoms: N12_40  and  C22_44 
REMARK   18  A    between atoms: C19_41  and  C20_42 
REMARK   19  A    between atoms: C22_44  and  C23_45 
REMARK   20  A    between atoms: C23_45  and  C24_46 
ROOT
HETATM    1  C11 UNL     1       7.383   6.670  20.885  1.00  0.00     0.237 C 
HETATM    2  C12 UNL     1       7.466   7.215  22.229  1.00  0.00     0.126 C 
HETATM    3  N3  UNL     1       6.893   6.819  23.300  1.00  0.00    -0.261 N 
ATOM      4  H3  UNL     1       6.278   6.007  23.265  1.00  0.00     0.191 HD
HETATM    5  N7  UNL     1       8.327   8.343  22.371  1.00  0.00    -0.375 N 
ATOM      6  H7  UNL     1       8.680   8.551  23.304  1.00  0.00     0.160 HD
HETATM    7  C13 UNL     1       8.738   9.213  21.291  1.00  0.00     0.141 C 
HETATM    8  C14 UNL     1       8.362   8.668  19.939  1.00  0.00     0.146 C 
HETATM    9  N8  UNL     1       7.155   7.852  20.034  1.00  0.00    -0.340 N 
HETATM   10  C15 UNL     1       6.018   8.176  19.370  1.00  0.00     0.154 C 
ENDROOT
BRANCH   1  11
HETATM   11  C6  UNL     1       6.605   5.501  20.575  1.00  0.00     0.177 C 
BRANCH  11  12
HETATM   12  N1  UNL     1       7.116   4.763  19.416  1.00  0.00    -0.354 N 
ATOM     13  H1  UNL     1       7.990   5.071  18.991  1.00  0.00     0.162 HD
BRANCH  12  14
HETATM   14  C5  UNL     1       6.435   3.612  18.843  1.00  0.00     0.176 C 
BRANCH  14  15
HETATM   15  C4  UNL     1       7.576   2.754  18.323  1.00  0.00     0.035 C 
BRANCH  15  16
HETATM   16  C3  UNL     1       7.879   1.513  19.039  1.00  0.00     0.002 C 
BRANCH  16  17
HETATM   17  C2  UNL     1       8.872   0.580  18.410  1.00  0.00    -0.004 C 
HETATM   18  C1  UNL     1      10.008   1.324  17.747  1.00  0.00     0.005 C 
ENDBRANCH  16  17
ENDBRANCH  15  16
ENDBRANCH  14  15
BRANCH  14  19
HETATM   19  C18 UNL     1       5.740   4.157  17.603  1.00  0.00     0.242 C 
HETATM   20  O2  UNL     1       6.020   5.378  17.278  1.00  0.00    -0.271 OA
HETATM   21  N12 UNL     1       4.845   3.506  16.778  1.00  0.00    -0.350 N 
BRANCH  21  22
HETATM   22  C19 UNL     1       4.336   4.135  15.580  1.00  0.00     0.125 C 
BRANCH  22  23
HETATM   23  C20 UNL     1       5.285   4.140  14.434  1.00  0.00     0.015 C 
HETATM   24  C21 UNL     1       5.448   5.461  13.751  1.00  0.00     0.006 C 
ENDBRANCH  22  23
ENDBRANCH  21  22
BRANCH  21  25
HETATM   25  C22 UNL     1       4.328   2.207  17.088  1.00  0.00     0.126 C 
BRANCH  25  26
HETATM   26  C23 UNL     1       4.533   1.237  15.920  1.00  0.00     0.020 C 
BRANCH  26  27
HETATM   27  C24 UNL     1       5.798   0.452  16.112  1.00  0.00    -0.003 C 
HETATM   28  C25 UNL     1       6.914   0.960  15.209  1.00  0.00     0.005 C 
ENDBRANCH  26  27
ENDBRANCH  25  26
ENDBRANCH  21  25
ENDBRANCH  14  19
ENDBRANCH  12  14
ENDBRANCH  11  12
BRANCH  11  29
HETATM   29  N2  UNL     1       5.624   5.083  21.119  1.00  0.00    -0.422 NA
BRANCH  29  30
HETATM   30  C7  UNL     1       4.526   4.605  21.719  1.00  0.00     0.084 C 
HETATM   31  C8  UNL     1       3.280   4.539  20.768  1.00  0.00     0.053 C 
HETATM   32  C9  UNL     1       4.536   3.135  22.203  1.00  0.00     0.053 C 
HETATM   33  C10 UNL     1       4.010   5.468  22.869  1.00  0.00     0.053 C 
ENDBRANCH  29  30
ENDBRANCH  11  29
ENDBRANCH   1  11
BRANCH   3  34
HETATM   34  N4  UNL     1       7.087   7.465  24.506  1.00  0.00    -0.155 N 
ATOM     35  H4  UNL     1       6.320   8.016  24.891  1.00  0.00     0.225 HD
BRANCH  34  36
HETATM   36  N5  UNL     1       8.141   7.408  25.137  1.00  0.00    -0.228 NA
BRANCH  36  37
HETATM   37  N6  UNL     1       9.079   7.205  25.922  1.00  0.00    -0.259 N 
ATOM     38  H62 UNL     1       8.671   6.304  26.172  1.00  0.00     0.193 HD
ATOM     39  H61 UNL     1       9.915   7.217  26.505  1.00  0.00     0.193 HD
ENDBRANCH  36  37
ENDBRANCH  34  36
ENDBRANCH   3  34
BRANCH  10  40
HETATM   40  O1  UNL     1       5.110   7.215  19.431  1.00  0.00    -0.345 OA
ATOM     41  H1  UNL     1       5.152   6.630  18.684  1.00  0.00     0.219 HD
ENDBRANCH  10  40
BRANCH  10  42
HETATM   42  C16 UNL     1       5.503   9.287  18.606  1.00  0.00     0.146 C 
BRANCH  42  43
HETATM   43  N9  UNL     1       5.938   9.563  17.284  1.00  0.00    -0.339 N 
HETATM   44  C17 UNL     1       6.696  10.518  16.919  1.00  0.00     0.201 C 
HETATM   45  N10 UNL     1       7.042  10.662  15.560  1.00  0.00    -0.067 NA
HETATM   46  N11 UNL     1       7.179  11.432  17.878  1.00  0.00    -0.067 NA
ATOM     47  H9  UNL     1       5.610   8.933  16.552  1.00  0.00     0.167 HD
ENDBRANCH  42  43
ENDBRANCH  10  42
TORSDOF 20
ENDMDL
MODEL 3
REMARK VINA RESULT: -6.632930128      2.268      4.004
REMARK  20 active torsions:
REMARK  status: ('A' for Active; 'I' for Inactive)
REMARK    1  A    between atoms: C2_2  and  C3_3 
REMARK    2  A    between atoms: C3_3  and  C4_4 
REMARK    3  A    between atoms: C4_4  and  C5_5 
REMARK    4  A    between atoms: C5_5  and  N1_6 
REMARK    5  A    between atoms: C5_5  and  C18_38 
REMARK    6  A    between atoms: N1_6  and  C6_8 
REMARK    7  A    between atoms: C6_8  and  N2_9 
REMARK    8  A    between atoms: C6_8  and  C11_14 
REMARK    9  A    between atoms: N2_9  and  C7_10 
REMARK   10  A    between atoms: N3_16  and  N4_18 
REMARK   11  A    between atoms: N4_18  and  N5_20 
REMARK   12  A    between atoms: N5_20  and  N6_21 
REMARK   13  A    between atoms: C15_29  and  O1_30 
REMARK   14  A    between atoms: C15_29  and  C16_32 
REMARK   15  A    between atoms: C16_32  and  N9_33 
REMARK       I    between atoms: N9_33  and  C17_35 
REMARK       I    between atoms: C18_38  and  N12_40 
REMARK   16  A    between atoms: N12_40  and  C19_41 
REMARK   17  A    between atoms: N12_40  and  C22_44 
REMARK   18  A    between atoms: C19_41  and  C20_42 
REMARK   19  A    between atoms: C22_44  and  C23_45 
REMARK   20  A    between atoms: C23_45  and  C24_46 
ROOT
HETATM    1  C11 UNL     1       5.435   6.506  22.348  1.00  0.00     0.237 C 
HETATM    2  C12 UNL     1       4.779   7.657  22.943  1.00  0.00     0.126 C 
HETATM    3  N3  UNL     1       3.532   7.925  23.027  1.00  0.00    -0.261 N 
ATOM      4  H3  UNL     1       2.855   7.270  22.637  1.00  0.00     0.191 HD
HETATM    5  N7  UNL     1       5.656   8.613  23.534  1.00  0.00    -0.375 N 
ATOM      6  H7  UNL     1       5.265   9.241  24.235  1.00  0.00     0.160 HD
HETATM    7  C13 UNL     1       7.060   8.759  23.214  1.00  0.00     0.141 C 
HETATM    8  C14 UNL     1       7.576   7.630  22.363  1.00  0.00     0.146 C 
HETATM    9  N8  UNL     1       6.508   7.092  21.524  1.00  0.00    -0.340 N 
HETATM   10  C15 UNL     1       6.575   7.127  20.170  1.00  0.00     0.154 C 
ENDROOT
BRANCH   1  11
HETATM   11  C6  UNL     1       4.699   5.420  21.758  1.00  0.00     0.177 C 
BRANCH  11  12
HETATM   12  N1  UNL     1       5.450   4.161  21.741  1.00  0.00    -0.354 N 
ATOM     13  H1  UNL     1       6.118   3.984  22.491  1.00  0.00     0.162 HD
BRANCH  12  14
HETATM   14  C5  UNL     1       5.286   3.151  20.707  1.00  0.00     0.176 C 
BRANCH  14  15
HETATM   15  C4  UNL     1       5.119   1.864  21.496  1.00  0.00     0.035 C 
BRANCH  15  16
HETATM   16  C3  UNL     1       3.765   1.328  21.651  1.00  0.00     0.002 C 
BRANCH  16  17
HETATM   17  C2  UNL     1       3.252   1.147  23.049  1.00  0.00    -0.004 C 
HETATM   18  C1  UNL     1       2.820   2.456  23.669  1.00  0.00     0.005 C 
ENDBRANCH  16  17
ENDBRANCH  15  16
ENDBRANCH  14  15
BRANCH  14  19
HETATM   19  C18 UNL     1       6.657   3.049  20.051  1.00  0.00     0.242 C 
HETATM   20  O2  UNL     1       7.612   3.720  20.612  1.00  0.00    -0.271 OA
HETATM   21  N12 UNL     1       7.009   2.327  18.930  1.00  0.00    -0.350 N 
BRANCH  21  22
HETATM   22  C19 UNL     1       8.381   2.262  18.480  1.00  0.00     0.125 C 
BRANCH  22  23
HETATM   23  C20 UNL     1       8.969   0.895  18.486  1.00  0.00     0.015 C 
HETATM   24  C21 UNL     1      10.241   0.748  17.713  1.00  0.00     0.006 C 
ENDBRANCH  22  23
ENDBRANCH  21  22
BRANCH  21  25
HETATM   25  C22 UNL     1       6.037   1.656  18.119  1.00  0.00     0.126 C 
BRANCH  25  26
HETATM   26  C23 UNL     1       5.677   2.490  16.885  1.00  0.00     0.020 C 
BRANCH  26  27
HETATM   27  C24 UNL     1       6.159   1.810  15.638  1.00  0.00    -0.003 C 
HETATM   28  C25 UNL     1       6.385   0.321  15.865  1.00  0.00     0.005 C 
ENDBRANCH  26  27
ENDBRANCH  25  26
ENDBRANCH  21  25
ENDBRANCH  14  19
ENDBRANCH  12  14
ENDBRANCH  11  12
BRANCH  11  29
HETATM   29  N2  UNL     1       3.599   5.424  21.286  1.00  0.00    -0.422 NA
BRANCH  29  30
HETATM   30  C7  UNL     1       2.364   5.438  20.767  1.00  0.00     0.084 C 
HETATM   31  C8  UNL     1       2.056   6.732  19.936  1.00  0.00     0.053 C 
HETATM   32  C9  UNL     1       2.007   4.376  19.699  1.00  0.00     0.053 C 
HETATM   33  C10 UNL     1       1.244   5.446  21.806  1.00  0.00     0.053 C 
ENDBRANCH  29  30
ENDBRANCH  11  29
ENDBRANCH   1  11
BRANCH   3  34
HETATM   34  N4  UNL     1       3.080   9.081  23.634  1.00  0.00    -0.155 N 
ATOM     35  H4  UNL     1       2.673   9.810  23.048  1.00  0.00     0.225 HD
BRANCH  34  36
HETATM   36  N5  UNL     1       3.144   9.272  24.847  1.00  0.00    -0.228 NA
BRANCH  36  37
HETATM   37  N6  UNL     1       3.170   9.698  26.011  1.00  0.00    -0.259 N 
ATOM     38  H62 UNL     1       3.337  10.641  25.660  1.00  0.00     0.193 HD
ATOM     39  H61 UNL     1       3.158   9.857  27.018  1.00  0.00     0.193 HD
ENDBRANCH  36  37
ENDBRANCH  34  36
ENDBRANCH   3  34
BRANCH  10  40
HETATM   40  O1  UNL     1       5.610   6.422  19.601  1.00  0.00    -0.345 OA
ATOM     41  H1  UNL     1       5.113   6.932  18.972  1.00  0.00     0.219 HD
ENDBRANCH  10  40
BRANCH  10  42
HETATM   42  C16 UNL     1       7.407   7.725  19.154  1.00  0.00     0.146 C 
BRANCH  42  43
HETATM   43  N9  UNL     1       7.030   8.908  18.466  1.00  0.00    -0.339 N 
HETATM   44  C17 UNL     1       7.347  10.100  18.780  1.00  0.00     0.201 C 
HETATM   45  N10 UNL     1       6.892  11.178  17.993  1.00  0.00    -0.067 NA
HETATM   46  N11 UNL     1       8.144  10.335  19.919  1.00  0.00    -0.067 NA
ATOM     47  H9  UNL     1       6.447   8.791  17.637  1.00  0.00     0.167 HD
ENDBRANCH  42  43
ENDBRANCH  10  42
TORSDOF 20
ENDMDL
MODEL 4
REMARK VINA RESULT: -6.584897857      2.353      5.863
REMARK  20 active torsions:
REMARK  status: ('A' for Active; 'I' for Inactive)
REMARK    1  A    between atoms: C2_2  and  C3_3 
REMARK    2  A    between atoms: C3_3  and  C4_4 
REMARK    3  A    between atoms: C4_4  and  C5_5 
REMARK    4  A    between atoms: C5_5  and  N1_6 
REMARK    5  A    between atoms: C5_5  and  C18_38 
REMARK    6  A    between atoms: N1_6  and  C6_8 
REMARK    7  A    between atoms: C6_8  and  N2_9 
REMARK    8  A    between atoms: C6_8  and  C11_14 
REMARK    9  A    between atoms: N2_9  and  C7_10 
REMARK   10  A    between atoms: N3_16  and  N4_18 
REMARK   11  A    between atoms: N4_18  and  N5_20 
REMARK   12  A    between atoms: N5_20  and  N6_21 
REMARK   13  A    between atoms: C15_29  and  O1_30 
REMARK   14  A    between atoms: C15_29  and  C16_32 
REMARK   15  A    between atoms: C16_32  and  N9_33 
REMARK       I    between atoms: N9_33  and  C17_35 
REMARK       I    between atoms: C18_38  and  N12_40 
REMARK   16  A    between atoms: N12_40  and  C19_41 
REMARK   17  A    between atoms: N12_40  and  C22_44 
REMARK   18  A    between atoms: C19_41  and  C20_42 
REMARK   19  A    between atoms: C22_44  and  C23_45 
REMARK   20  A    between atoms: C23_45  and  C24_46 
ROOT
HETATM    1  C11 UNL     1       7.357   6.530  20.645  1.00  0.00     0.237 C 
HETATM    2  C12 UNL     1       7.544   7.099  21.968  1.00  0.00     0.126 C 
HETATM    3  N3  UNL     1       7.026   6.747  23.082  1.00  0.00    -0.261 N 
ATOM      4  H3  UNL     1       6.380   5.958  23.103  1.00  0.00     0.191 HD
HETATM    5  N7  UNL     1       8.453   8.196  22.030  1.00  0.00    -0.375 N 
ATOM      6  H7  UNL     1       8.872   8.410  22.934  1.00  0.00     0.160 HD
HETATM    7  C13 UNL     1       8.826   9.028  20.906  1.00  0.00     0.141 C 
HETATM    8  C14 UNL     1       8.346   8.469  19.594  1.00  0.00     0.146 C 
HETATM    9  N8  UNL     1       7.119   7.701  19.782  1.00  0.00    -0.340 N 
HETATM   10  C15 UNL     1       5.954   8.054  19.183  1.00  0.00     0.154 C 
ENDROOT
BRANCH   1  11
HETATM   11  C6  UNL     1       6.518   5.385  20.412  1.00  0.00     0.177 C 
BRANCH  11  12
HETATM   12  N1  UNL     1       6.947   4.586  19.259  1.00  0.00    -0.354 N 
ATOM     13  H1  UNL     1       7.338   5.070  18.451  1.00  0.00     0.162 HD
BRANCH  12  14
HETATM   14  C5  UNL     1       6.841   3.136  19.214  1.00  0.00     0.176 C 
BRANCH  14  15
HETATM   15  C4  UNL     1       8.230   2.696  18.783  1.00  0.00     0.035 C 
BRANCH  15  16
HETATM   16  C3  UNL     1       8.446   1.272  18.519  1.00  0.00     0.002 C 
BRANCH  16  17
HETATM   17  C2  UNL     1       9.801   0.861  18.023  1.00  0.00    -0.004 C 
HETATM   18  C1  UNL     1       9.714  -0.175  16.927  1.00  0.00     0.005 C 
ENDBRANCH  16  17
ENDBRANCH  15  16
ENDBRANCH  14  15
BRANCH  14  19
HETATM   19  C18 UNL     1       5.939   2.855  18.020  1.00  0.00     0.242 C 
HETATM   20  O2  UNL     1       6.193   3.522  16.940  1.00  0.00    -0.271 OA
HETATM   21  N12 UNL     1       4.880   1.973  17.946  1.00  0.00    -0.350 N 
BRANCH  21  22
HETATM   22  C19 UNL     1       4.172   1.755  16.706  1.00  0.00     0.125 C 
BRANCH  22  23
HETATM   23  C20 UNL     1       4.457   0.449  16.053  1.00  0.00     0.015 C 
HETATM   24  C21 UNL     1       5.899   0.193  15.748  1.00  0.00     0.006 C 
ENDBRANCH  22  23
ENDBRANCH  21  22
BRANCH  21  25
HETATM   25  C22 UNL     1       4.388   1.275  19.096  1.00  0.00     0.126 C 
BRANCH  25  26
HETATM   26  C23 UNL     1       2.860   1.366  19.185  1.00  0.00     0.020 C 
BRANCH  26  27
HETATM   27  C24 UNL     1       2.304   0.140  19.847  1.00  0.00    -0.003 C 
HETATM   28  C25 UNL     1       2.718   0.058  21.310  1.00  0.00     0.005 C 
ENDBRANCH  26  27
ENDBRANCH  25  26
ENDBRANCH  21  25
ENDBRANCH  14  19
ENDBRANCH  12  14
ENDBRANCH  11  12
BRANCH  11  29
HETATM   29  N2  UNL     1       5.545   5.028  21.011  1.00  0.00    -0.422 NA
BRANCH  29  30
HETATM   30  C7  UNL     1       4.450   4.636  21.674  1.00  0.00     0.084 C 
HETATM   31  C8  UNL     1       3.172   4.556  20.767  1.00  0.00     0.053 C 
HETATM   32  C9  UNL     1       4.420   3.203  22.258  1.00  0.00     0.053 C 
HETATM   33  C10 UNL     1       4.003   5.595  22.777  1.00  0.00     0.053 C 
ENDBRANCH  29  30
ENDBRANCH  11  29
ENDBRANCH   1  11
BRANCH   3  34
HETATM   34  N4  UNL     1       7.319   7.411  24.258  1.00  0.00    -0.155 N 
ATOM     35  H4  UNL     1       6.607   8.018  24.664  1.00  0.00     0.225 HD
BRANCH  34  36
HETATM   36  N5  UNL     1       8.398   7.304  24.838  1.00  0.00    -0.228 NA
BRANCH  36  37
HETATM   37  N6  UNL     1       9.377   7.325  25.599  1.00  0.00    -0.259 N 
ATOM     38  H62 UNL     1       9.221   8.319  25.769  1.00  0.00     0.193 HD
ATOM     39  H61 UNL     1      10.196   7.148  26.179  1.00  0.00     0.193 HD
ENDBRANCH  36  37
ENDBRANCH  34  36
ENDBRANCH   3  34
BRANCH  10  40
HETATM   40  O1  UNL     1       5.017   7.130  19.323  1.00  0.00    -0.345 OA
ATOM     41  H1  UNL     1       4.648   6.861  18.490  1.00  0.00     0.219 HD
ENDBRANCH  10  40
BRANCH  10  42
HETATM   42  C16 UNL     1       5.433   9.168  18.428  1.00  0.00     0.146 C 
BRANCH  42  43
HETATM   43  N9  UNL     1       5.910   9.493  17.131  1.00  0.00    -0.339 N 
HETATM   44  C17 UNL     1       6.649  10.481  16.821  1.00  0.00     0.201 C 
HETATM   45  N10 UNL     1       7.042  10.671  15.480  1.00  0.00    -0.067 NA
HETATM   46  N11 UNL     1       7.062  11.386  17.821  1.00  0.00    -0.067 NA
ATOM     47  H9  UNL     1       5.632   8.871  16.371  1.00  0.00     0.167 HD
ENDBRANCH  42  43
ENDBRANCH  10  42
TORSDOF 20
ENDMDL
MODEL 5
REMARK VINA RESULT: -6.563073856      0.764      1.124
REMARK  20 active torsions:
REMARK  status: ('A' for Active; 'I' for Inactive)
REMARK    1  A    between atoms: C2_2  and  C3_3 
REMARK    2  A    between atoms: C3_3  and  C4_4 
REMARK    3  A    between atoms: C4_4  and  C5_5 
REMARK    4  A    between atoms: C5_5  and  N1_6 
REMARK    5  A    between atoms: C5_5  and  C18_38 
REMARK    6  A    between atoms: N1_6  and  C6_8 
REMARK    7  A    between atoms: C6_8  and  N2_9 
REMARK    8  A    between atoms: C6_8  and  C11_14 
REMARK    9  A    between atoms: N2_9  and  C7_10 
REMARK   10  A    between atoms: N3_16  and  N4_18 
REMARK   11  A    between atoms: N4_18  and  N5_20 
REMARK   12  A    between atoms: N5_20  and  N6_21 
REMARK   13  A    between atoms: C15_29  and  O1_30 
REMARK   14  A    between atoms: C15_29  and  C16_32 
REMARK   15  A    between atoms: C16_32  and  N9_33 
REMARK       I    between atoms: N9_33  and  C17_35 
REMARK       I    between atoms: C18_38  and  N12_40 
REMARK   16  A    between atoms: N12_40  and  C19_41 
REMARK   17  A    between atoms: N12_40  and  C22_44 
REMARK   18  A    between atoms: C19_41  and  C20_42 
REMARK   19  A    between atoms: C22_44  and  C23_45 
REMARK   20  A    between atoms: C23_45  and  C24_46 
ROOT
HETATM    1  C11 UNL     1       4.761   7.026  22.464  1.00  0.00     0.237 C 
HETATM    2  C12 UNL     1       4.032   8.234  22.121  1.00  0.00     0.126 C 
HETATM    3  N3  UNL     1       3.898   8.806  20.986  1.00  0.00    -0.261 N 
ATOM      4  H3  UNL     1       4.349   8.398  20.167  1.00  0.00     0.191 HD
HETATM    5  N7  UNL     1       3.351   8.856  23.209  1.00  0.00    -0.375 N 
ATOM      6  H7  UNL     1       2.578   9.482  22.985  1.00  0.00     0.160 HD
HETATM    7  C13 UNL     1       3.675   8.667  24.606  1.00  0.00     0.141 C 
HETATM    8  C14 UNL     1       4.654   7.545  24.822  1.00  0.00     0.146 C 
HETATM    9  N8  UNL     1       5.531   7.401  23.664  1.00  0.00    -0.340 N 
HETATM   10  C15 UNL     1       6.874   7.568  23.756  1.00  0.00     0.154 C 
ENDROOT
BRANCH   1  11
HETATM   11  C6  UNL     1       5.457   6.242  21.478  1.00  0.00     0.177 C 
BRANCH  11  12
HETATM   12  N1  UNL     1       5.564   4.826  21.843  1.00  0.00    -0.354 N 
ATOM     13  H1  UNL     1       5.868   4.589  22.788  1.00  0.00     0.162 HD
BRANCH  12  14
HETATM   14  C5  UNL     1       5.257   3.742  20.923  1.00  0.00     0.176 C 
BRANCH  14  15
HETATM   15  C4  UNL     1       4.953   2.574  21.846  1.00  0.00     0.035 C 
BRANCH  15  16
HETATM   16  C3  UNL     1       4.265   1.414  21.276  1.00  0.00     0.002 C 
BRANCH  16  17
HETATM   17  C2  UNL     1       3.523   0.518  22.225  1.00  0.00    -0.004 C 
HETATM   18  C1  UNL     1       3.031   1.266  23.443  1.00  0.00     0.005 C 
ENDBRANCH  16  17
ENDBRANCH  15  16
ENDBRANCH  14  15
BRANCH  14  19
HETATM   19  C18 UNL     1       6.590   3.405  20.270  1.00  0.00     0.242 C 
HETATM   20  O2  UNL     1       7.647   3.599  20.992  1.00  0.00    -0.271 OA
HETATM   21  N12 UNL     1       6.812   2.917  18.998  1.00  0.00    -0.350 N 
BRANCH  21  22
HETATM   22  C19 UNL     1       8.141   2.562  18.553  1.00  0.00     0.125 C 
BRANCH  22  23
HETATM   23  C20 UNL     1       8.514   1.142  18.794  1.00  0.00     0.015 C 
HETATM   24  C21 UNL     1       9.709   0.662  18.031  1.00  0.00     0.006 C 
ENDBRANCH  22  23
ENDBRANCH  21  22
BRANCH  21  25
HETATM   25  C22 UNL     1       5.759   2.791  18.036  1.00  0.00     0.126 C 
BRANCH  25  26
HETATM   26  C23 UNL     1       5.345   1.326  17.859  1.00  0.00     0.020 C 
BRANCH  26  27
HETATM   27  C24 UNL     1       5.220   0.994  16.401  1.00  0.00    -0.003 C 
HETATM   28  C25 UNL     1       6.493   0.356  15.861  1.00  0.00     0.005 C 
ENDBRANCH  26  27
ENDBRANCH  25  26
ENDBRANCH  21  25
ENDBRANCH  14  19
ENDBRANCH  12  14
ENDBRANCH  11  12
BRANCH  11  29
HETATM   29  N2  UNL     1       5.950   6.594  20.446  1.00  0.00    -0.422 NA
BRANCH  29  30
HETATM   30  C7  UNL     1       6.496   6.979  19.285  1.00  0.00     0.084 C 
HETATM   31  C8  UNL     1       5.784   6.360  18.031  1.00  0.00     0.053 C 
HETATM   32  C9  UNL     1       6.412   8.474  18.895  1.00  0.00     0.053 C 
HETATM   33  C10 UNL     1       7.943   6.530  19.089  1.00  0.00     0.053 C 
ENDBRANCH  29  30
ENDBRANCH  11  29
ENDBRANCH   1  11
BRANCH   3  34
HETATM   34  N4  UNL     1       3.159   9.964  20.842  1.00  0.00    -0.155 N 
ATOM     35  H4  UNL     1       2.351  10.103  21.449  1.00  0.00     0.225 HD
BRANCH  34  36
HETATM   36  N5  UNL     1       3.429  10.836  20.017  1.00  0.00    -0.228 NA
BRANCH  36  37
HETATM   37  N6  UNL     1       3.855  11.794  19.357  1.00  0.00    -0.259 N 
ATOM     38  H62 UNL     1       3.979  11.181  18.552  1.00  0.00     0.193 HD
ATOM     39  H61 UNL     1       4.174  12.687  18.982  1.00  0.00     0.193 HD
ENDBRANCH  36  37
ENDBRANCH  34  36
ENDBRANCH   3  34
BRANCH  10  40
HETATM   40  O1  UNL     1       7.502   7.207  22.649  1.00  0.00    -0.345 OA
ATOM     41  H1  UNL     1       7.369   6.289  22.440  1.00  0.00     0.219 HD
ENDBRANCH  10  40
BRANCH  10  42
HETATM   42  C16 UNL     1       7.830   8.038  24.730  1.00  0.00     0.146 C 
BRANCH  42  43
HETATM   43  N9  UNL     1       8.532   7.153  25.589  1.00  0.00    -0.339 N 
HETATM   44  C17 UNL     1       9.734   7.278  25.987  1.00  0.00     0.201 C 
HETATM   45  N10 UNL     1      10.295   6.310  26.845  1.00  0.00    -0.067 NA
HETATM   46  N11 UNL     1      10.501   8.381  25.558  1.00  0.00    -0.067 NA
ATOM     47  H9  UNL     1       8.021   6.335  25.922  1.00  0.00     0.167 HD
ENDBRANCH  42  43
ENDBRANCH  10  42
TORSDOF 20
ENDMDL
