MODEL 1
REMARK VINA RESULT: -6.615794507      0.000      0.000
REMARK  17 active torsions:
REMARK  status: ('A' for Active; 'I' for Inactive)
REMARK    1  A    between atoms: C2_2  and  C3_3 
REMARK    2  A    between atoms: C3_3  and  C4_4 
REMARK    3  A    between atoms: C4_4  and  O1_5 
REMARK    4  A    between atoms: C4_4  and  C5_7 
REMARK    5  A    between atoms: C5_7  and  C6_8 
REMARK    6  A    between atoms: C5_7  and  N8_32 
REMARK       I    between atoms: C6_8  and  N1_10 
REMARK    7  A    between atoms: C7_11  and  C8_12 
REMARK    8  A    between atoms: C8_12  and  C9_13 
REMARK    9  A    between atoms: C9_13  and  C10_14 
REMARK   10  A    between atoms: C10_14  and  N2_15 
REMARK   11  A    between atoms: C12_20  and  C13_21 
REMARK   12  A    between atoms: C13_21  and  N5_22 
REMARK       I    between atoms: C14_24  and  N7_26 
REMARK   13  A    between atoms: N8_32  and  C21_34 
REMARK   14  A    between atoms: C21_34  and  O3_35 
REMARK   15  A    between atoms: C21_34  and  C22_37 
REMARK   16  A    between atoms: C22_37  and  C23_38 
REMARK   17  A    between atoms: C23_38  and  C24_39 
REMARK       I    between atoms: C24_39  and  N9_41 
ROOT
HETATM    1  C6  UNL     1       5.908   7.506  22.394  1.00  0.00     0.270 C 
HETATM    2  O2  UNL     1       6.262   6.791  23.399  1.00  0.00    -0.266 OA
HETATM    3  N1  UNL     1       4.750   8.283  22.644  1.00  0.00    -0.333 N 
HETATM    4  C7  UNL     1       3.900   9.267  22.046  1.00  0.00     0.096 C 
HETATM    5  C12 UNL     1       2.803   8.876  22.997  1.00  0.00     0.054 C 
HETATM    6  C17 UNL     1       3.905   8.343  23.829  1.00  0.00     0.036 C 
HETATM    7  C18 UNL     1       3.548   6.982  24.393  1.00  0.00     0.039 C 
HETATM    8  C19 UNL     1       4.410   9.266  24.903  1.00  0.00     0.039 C 
ENDROOT
BRANCH   1   9
HETATM    9  C5  UNL     1       6.711   7.445  21.167  1.00  0.00     0.110 C 
BRANCH   9  10
HETATM   10  C4  UNL     1       6.796   6.119  20.531  1.00  0.00     0.173 C 
BRANCH  10  11
HETATM   11  C3  UNL     1       5.680   5.245  20.225  1.00  0.00     0.038 C 
BRANCH  11  12
HETATM   12  C2  UNL     1       4.457   5.776  19.575  1.00  0.00    -0.002 C 
HETATM   13  C1  UNL     1       3.292   5.475  20.550  1.00  0.00     0.005 C 
ENDBRANCH  11  12
ENDBRANCH  10  11
BRANCH  10  14
HETATM   14  O1  UNL     1       7.650   5.346  21.427  1.00  0.00    -0.389 OA
ATOM     15  H1  UNL     1       8.518   5.389  21.042  1.00  0.00     0.210 HD
ENDBRANCH  10  14
ENDBRANCH   9  10
BRANCH   9  16
HETATM   16  N8  UNL     1       7.868   8.279  21.126  1.00  0.00    -0.332 N 
HETATM   17  C20 UNL     1       8.535   8.223  19.749  1.00  0.00     0.158 C 
BRANCH  16  18
HETATM   18  C21 UNL     1       8.538   9.111  21.996  1.00  0.00     0.118 C 
BRANCH  18  19
HETATM   19  O3  UNL     1       8.180  10.382  21.900  1.00  0.00    -0.349 OA
ATOM     20  H3  UNL     1       8.567  10.940  22.564  1.00  0.00     0.219 HD
ENDBRANCH  18  19
BRANCH  18  21
HETATM   21  C22 UNL     1       9.566   8.930  23.011  1.00  0.00     0.093 C 
BRANCH  21  22
HETATM   22  C23 UNL     1       9.009   8.365  24.318  1.00  0.00     0.111 C 
BRANCH  22  23
HETATM   23  C24 UNL     1      10.116   8.222  25.300  1.00  0.00     0.217 C 
HETATM   24  O4  UNL     1      10.923   9.166  25.475  1.00  0.00    -0.274 OA
HETATM   25  N9  UNL     1      10.294   7.040  26.057  1.00  0.00    -0.365 N 
HETATM   26  C25 UNL     1      11.383   6.940  27.002  1.00  0.00     0.149 C 
ATOM     27  H9  UNL     1       9.653   6.256  25.935  1.00  0.00     0.161 HD
ENDBRANCH  22  23
ENDBRANCH  21  22
ENDBRANCH  18  21
ENDBRANCH  16  18
ENDBRANCH   9  16
ENDBRANCH   1   9
BRANCH   4  28
HETATM   28  C8  UNL     1       3.471   9.114  20.636  1.00  0.00     0.027 C 
BRANCH  28  29
HETATM   29  C9  UNL     1       3.731  10.369  19.851  1.00  0.00     0.022 C 
BRANCH  29  30
HETATM   30  C10 UNL     1       5.054  10.121  19.109  1.00  0.00     0.122 C 
BRANCH  30  31
HETATM   31  N2  UNL     1       6.094  10.942  19.691  1.00  0.00    -0.367 N 
HETATM   32  C11 UNL     1       7.006  11.442  18.944  1.00  0.00     0.196 C 
HETATM   33  N3  UNL     1       7.005  11.198  17.542  1.00  0.00    -0.067 NA
HETATM   34  N4  UNL     1       8.060  12.258  19.447  1.00  0.00    -0.067 NA
ATOM     35  H2  UNL     1       6.102  11.121  20.696  1.00  0.00     0.161 HD
ENDBRANCH  30  31
ENDBRANCH  29  30
ENDBRANCH  28  29
ENDBRANCH   4  28
BRANCH   5  36
HETATM   36  C13 UNL     1       1.997   9.990  23.622  1.00  0.00     0.131 C 
BRANCH  36  37
HETATM   37  N5  UNL     1       0.720   9.372  24.018  1.00  0.00    -0.364 N 
HETATM   38  C14 UNL     1      -0.400   9.950  23.789  1.00  0.00     0.185 C 
HETATM   39  N6  UNL     1      -0.377  11.212  23.137  1.00  0.00    -0.064 NA
HETATM   40  N7  UNL     1      -1.655   9.418  24.137  1.00  0.00    -0.364 N 
HETATM   41  C15 UNL     1      -2.189   9.675  25.453  1.00  0.00     0.151 C 
HETATM   42  C16 UNL     1      -2.429   8.620  23.215  1.00  0.00     0.151 C 
ATOM     43  H5  UNL     1       0.728   8.465  24.485  1.00  0.00     0.162 HD
ENDBRANCH  36  37
ENDBRANCH   5  36
TORSDOF 17
ENDMDL
MODEL 2
REMARK VINA RESULT: -6.484517026      2.624      7.026
REMARK  17 active torsions:
REMARK  status: ('A' for Active; 'I' for Inactive)
REMARK    1  A    between atoms: C2_2  and  C3_3 
REMARK    2  A    between atoms: C3_3  and  C4_4 
REMARK    3  A    between atoms: C4_4  and  O1_5 
REMARK    4  A    between atoms: C4_4  and  C5_7 
REMARK    5  A    between atoms: C5_7  and  C6_8 
REMARK    6  A    between atoms: C5_7  and  N8_32 
REMARK       I    between atoms: C6_8  and  N1_10 
REMARK    7  A    between atoms: C7_11  and  C8_12 
REMARK    8  A    between atoms: C8_12  and  C9_13 
REMARK    9  A    between atoms: C9_13  and  C10_14 
REMARK   10  A    between atoms: C10_14  and  N2_15 
REMARK   11  A    between atoms: C12_20  and  C13_21 
REMARK   12  A    between atoms: C13_21  and  N5_22 
REMARK       I    between atoms: C14_24  and  N7_26 
REMARK   13  A    between atoms: N8_32  and  C21_34 
REMARK   14  A    between atoms: C21_34  and  O3_35 
REMARK   15  A    between atoms: C21_34  and  C22_37 
REMARK   16  A    between atoms: C22_37  and  C23_38 
REMARK   17  A    between atoms: C23_38  and  C24_39 
REMARK       I    between atoms: C24_39  and  N9_41 
ROOT
HETATM    1  C6  UNL     1       4.491   6.875  20.562  1.00  0.00     0.270 C 
HETATM    2  O2  UNL     1       3.218   6.857  20.399  1.00  0.00    -0.266 OA
HETATM    3  N1  UNL     1       5.133   7.891  19.813  1.00  0.00    -0.333 N 
HETATM    4  C7  UNL     1       6.416   8.479  19.575  1.00  0.00     0.096 C 
HETATM    5  C12 UNL     1       5.910   9.019  18.266  1.00  0.00     0.054 C 
HETATM    6  C17 UNL     1       4.571   8.857  18.876  1.00  0.00     0.036 C 
HETATM    7  C18 UNL     1       3.595   8.250  17.887  1.00  0.00     0.039 C 
HETATM    8  C19 UNL     1       4.001  10.087  19.524  1.00  0.00     0.039 C 
ENDROOT
BRANCH   1   9
HETATM    9  C5  UNL     1       5.100   5.894  21.467  1.00  0.00     0.110 C 
BRANCH   9  10
HETATM   10  C4  UNL     1       5.472   4.608  20.851  1.00  0.00     0.173 C 
BRANCH  10  11
HETATM   11  C3  UNL     1       6.799   4.225  20.409  1.00  0.00     0.038 C 
BRANCH  11  12
HETATM   12  C2  UNL     1       7.122   4.144  18.964  1.00  0.00    -0.002 C 
HETATM   13  C1  UNL     1       8.275   3.115  18.844  1.00  0.00     0.005 C 
ENDBRANCH  11  12
ENDBRANCH  10  11
BRANCH  10  14
HETATM   14  O1  UNL     1       4.634   4.527  19.658  1.00  0.00    -0.389 OA
ATOM     15  H1  UNL     1       3.741   4.555  19.980  1.00  0.00     0.210 HD
ENDBRANCH  10  14
ENDBRANCH   9  10
BRANCH   9  16
HETATM   16  N8  UNL     1       4.602   5.873  22.804  1.00  0.00    -0.332 N 
HETATM   17  C20 UNL     1       3.625   4.712  23.007  1.00  0.00     0.158 C 
BRANCH  16  18
HETATM   18  C21 UNL     1       4.768   6.619  23.950  1.00  0.00     0.118 C 
BRANCH  18  19
HETATM   19  O3  UNL     1       5.998   6.577  24.440  1.00  0.00    -0.349 OA
ATOM     20  H3  UNL     1       6.362   7.433  24.633  1.00  0.00     0.219 HD
ENDBRANCH  18  19
BRANCH  18  21
HETATM   21  C22 UNL     1       3.905   7.457  24.770  1.00  0.00     0.093 C 
BRANCH  21  22
HETATM   22  C23 UNL     1       3.962   8.931  24.368  1.00  0.00     0.111 C 
BRANCH  22  23
HETATM   23  C24 UNL     1       2.660   9.324  23.766  1.00  0.00     0.217 C 
HETATM   24  O4  UNL     1       1.863  10.045  24.413  1.00  0.00    -0.274 OA
HETATM   25  N9  UNL     1       2.283   8.908  22.467  1.00  0.00    -0.365 N 
HETATM   26  C25 UNL     1       1.009   9.311  21.916  1.00  0.00     0.149 C 
ATOM     27  H9  UNL     1       2.911   8.322  21.918  1.00  0.00     0.161 HD
ENDBRANCH  22  23
ENDBRANCH  21  22
ENDBRANCH  18  21
ENDBRANCH  16  18
ENDBRANCH   9  16
ENDBRANCH   1   9
BRANCH   4  28
HETATM   28  C8  UNL     1       7.600   7.610  19.378  1.00  0.00     0.027 C 
BRANCH  28  29
HETATM   29  C9  UNL     1       8.869   8.338  19.723  1.00  0.00     0.022 C 
BRANCH  29  30
HETATM   30  C10 UNL     1       8.510   9.244  20.912  1.00  0.00     0.122 C 
BRANCH  30  31
HETATM   31  N2  UNL     1       9.565   9.183  21.900  1.00  0.00    -0.367 N 
HETATM   32  C11 UNL     1       9.271   9.056  23.140  1.00  0.00     0.196 C 
HETATM   33  N3  UNL     1       7.913   8.975  23.557  1.00  0.00    -0.067 NA
HETATM   34  N4  UNL     1      10.257   8.991  24.168  1.00  0.00    -0.067 NA
ATOM     35  H2  UNL     1      10.541   9.241  21.610  1.00  0.00     0.161 HD
ENDBRANCH  30  31
ENDBRANCH  29  30
ENDBRANCH  28  29
ENDBRANCH   4  28
BRANCH   5  36
HETATM   36  C13 UNL     1       6.292  10.435  17.906  1.00  0.00     0.131 C 
BRANCH  36  37
HETATM   37  N5  UNL     1       6.707  10.380  16.494  1.00  0.00    -0.364 N 
HETATM   38  C14 UNL     1       5.901  10.695  15.549  1.00  0.00     0.185 C 
HETATM   39  N6  UNL     1       4.587  11.102  15.902  1.00  0.00    -0.064 NA
HETATM   40  N7  UNL     1       6.231  10.668  14.182  1.00  0.00    -0.364 N 
HETATM   41  C15 UNL     1       6.067   9.440  13.442  1.00  0.00     0.151 C 
HETATM   42  C16 UNL     1       6.730  11.835  13.493  1.00  0.00     0.151 C 
ATOM     43  H5  UNL     1       7.656  10.085  16.264  1.00  0.00     0.162 HD
ENDBRANCH  36  37
ENDBRANCH   5  36
TORSDOF 17
ENDMDL
MODEL 3
REMARK VINA RESULT: -6.472794056      6.556      9.869
REMARK  17 active torsions:
REMARK  status: ('A' for Active; 'I' for Inactive)
REMARK    1  A    between atoms: C2_2  and  C3_3 
REMARK    2  A    between atoms: C3_3  and  C4_4 
REMARK    3  A    between atoms: C4_4  and  O1_5 
REMARK    4  A    between atoms: C4_4  and  C5_7 
REMARK    5  A    between atoms: C5_7  and  C6_8 
REMARK    6  A    between atoms: C5_7  and  N8_32 
REMARK       I    between atoms: C6_8  and  N1_10 
REMARK    7  A    between atoms: C7_11  and  C8_12 
REMARK    8  A    between atoms: C8_12  and  C9_13 
REMARK    9  A    between atoms: C9_13  and  C10_14 
REMARK   10  A    between atoms: C10_14  and  N2_15 
REMARK   11  A    between atoms: C12_20  and  C13_21 
REMARK   12  A    between atoms: C13_21  and  N5_22 
REMARK       I    between atoms: C14_24  and  N7_26 
REMARK   13  A    between atoms: N8_32  and  C21_34 
REMARK   14  A    between atoms: C21_34  and  O3_35 
REMARK   15  A    between atoms: C21_34  and  C22_37 
REMARK   16  A    between atoms: C22_37  and  C23_38 
REMARK   17  A    between atoms: C23_38  and  C24_39 
REMARK       I    between atoms: C24_39  and  N9_41 
ROOT
HETATM    1  C6  UNL     1       5.699   3.742  18.927  1.00  0.00     0.270 C 
HETATM    2  O2  UNL     1       4.601   4.385  18.764  1.00  0.00    -0.266 OA
HETATM    3  N1  UNL     1       5.995   2.868  17.853  1.00  0.00    -0.333 N 
HETATM    4  C7  UNL     1       6.996   1.961  17.378  1.00  0.00     0.096 C 
HETATM    5  C12 UNL     1       5.961   1.294  16.516  1.00  0.00     0.054 C 
HETATM    6  C17 UNL     1       5.226   2.571  16.651  1.00  0.00     0.036 C 
HETATM    7  C18 UNL     1       3.754   2.322  16.915  1.00  0.00     0.039 C 
HETATM    8  C19 UNL     1       5.423   3.554  15.532  1.00  0.00     0.039 C 
ENDROOT
BRANCH   1   9
HETATM    9  C5  UNL     1       6.484   3.984  20.142  1.00  0.00     0.110 C 
BRANCH   9  10
HETATM   10  C4  UNL     1       6.079   3.204  21.325  1.00  0.00     0.173 C 
BRANCH  10  11
HETATM   11  C3  UNL     1       5.808   1.779  21.357  1.00  0.00     0.038 C 
BRANCH  11  12
HETATM   12  C2  UNL     1       4.477   1.269  21.766  1.00  0.00    -0.002 C 
HETATM   13  C1  UNL     1       3.685   1.048  20.453  1.00  0.00     0.005 C 
ENDBRANCH  11  12
ENDBRANCH  10  11
BRANCH  10  14
HETATM   14  O1  UNL     1       4.839   3.837  21.763  1.00  0.00    -0.389 OA
ATOM     15  H1  UNL     1       4.607   3.395  22.571  1.00  0.00     0.210 HD
ENDBRANCH  10  14
ENDBRANCH   9  10
BRANCH   9  16
HETATM   16  N8  UNL     1       6.934   5.322  20.350  1.00  0.00    -0.332 N 
HETATM   17  C20 UNL     1       7.651   5.859  19.109  1.00  0.00     0.158 C 
BRANCH  16  18
HETATM   18  C21 UNL     1       6.895   6.247  21.369  1.00  0.00     0.118 C 
BRANCH  18  19
HETATM   19  O3  UNL     1       5.707   6.357  21.944  1.00  0.00    -0.349 OA
ATOM     20  H3  UNL     1       5.545   5.706  22.616  1.00  0.00     0.219 HD
ENDBRANCH  18  19
BRANCH  18  21
HETATM   21  C22 UNL     1       7.858   7.153  21.979  1.00  0.00     0.093 C 
BRANCH  21  22
HETATM   22  C23 UNL     1       7.381   7.702  23.323  1.00  0.00     0.111 C 
BRANCH  22  23
HETATM   23  C24 UNL     1       8.544   7.825  24.242  1.00  0.00     0.217 C 
HETATM   24  O4  UNL     1       9.536   8.517  23.907  1.00  0.00    -0.274 OA
HETATM   25  N9  UNL     1       8.572   7.179  25.500  1.00  0.00    -0.365 N 
HETATM   26  C25 UNL     1       9.721   7.323  26.365  1.00  0.00     0.149 C 
ATOM     27  H9  UNL     1       7.780   6.611  25.798  1.00  0.00     0.161 HD
ENDBRANCH  22  23
ENDBRANCH  21  22
ENDBRANCH  18  21
ENDBRANCH  16  18
ENDBRANCH   9  16
ENDBRANCH   1   9
BRANCH   4  28
HETATM   28  C8  UNL     1       7.621   0.996  18.314  1.00  0.00     0.027 C 
BRANCH  28  29
HETATM   29  C9  UNL     1       9.118   1.131  18.310  1.00  0.00     0.022 C 
BRANCH  29  30
HETATM   30  C10 UNL     1       9.565   0.688  16.908  1.00  0.00     0.122 C 
BRANCH  30  31
HETATM   31  N2  UNL     1      10.555  -0.360  17.026  1.00  0.00    -0.367 N 
HETATM   32  C11 UNL     1      10.376  -1.479  16.429  1.00  0.00     0.196 C 
HETATM   33  N3  UNL     1       9.208  -1.702  15.648  1.00  0.00    -0.067 NA
HETATM   34  N4  UNL     1      11.308  -2.555  16.502  1.00  0.00    -0.067 NA
ATOM     35  H2  UNL     1      11.396  -0.208  17.585  1.00  0.00     0.161 HD
ENDBRANCH  30  31
ENDBRANCH  29  30
ENDBRANCH  28  29
ENDBRANCH   4  28
BRANCH   5  36
HETATM   36  C13 UNL     1       6.365   0.924  15.108  1.00  0.00     0.131 C 
BRANCH  36  37
HETATM   37  N5  UNL     1       6.442  -0.547  15.097  1.00  0.00    -0.364 N 
HETATM   38  C14 UNL     1       5.847  -1.239  14.198  1.00  0.00     0.185 C 
HETATM   39  N6  UNL     1       5.106  -0.545  13.205  1.00  0.00    -0.064 NA
HETATM   40  N7  UNL     1       5.880  -2.643  14.126  1.00  0.00    -0.364 N 
HETATM   41  C15 UNL     1       4.906  -3.410  14.866  1.00  0.00     0.151 C 
HETATM   42  C16 UNL     1       6.860  -3.346  13.332  1.00  0.00     0.151 C 
ATOM     43  H5  UNL     1       6.980  -1.024  15.821  1.00  0.00     0.162 HD
ENDBRANCH  36  37
ENDBRANCH   5  36
TORSDOF 17
ENDMDL
MODEL 4
REMARK VINA RESULT: -6.410447221      2.576      5.229
REMARK  17 active torsions:
REMARK  status: ('A' for Active; 'I' for Inactive)
REMARK    1  A    between atoms: C2_2  and  C3_3 
REMARK    2  A    between atoms: C3_3  and  C4_4 
REMARK    3  A    between atoms: C4_4  and  O1_5 
REMARK    4  A    between atoms: C4_4  and  C5_7 
REMARK    5  A    between atoms: C5_7  and  C6_8 
REMARK    6  A    between atoms: C5_7  and  N8_32 
REMARK       I    between atoms: C6_8  and  N1_10 
REMARK    7  A    between atoms: C7_11  and  C8_12 
REMARK    8  A    between atoms: C8_12  and  C9_13 
REMARK    9  A    between atoms: C9_13  and  C10_14 
REMARK   10  A    between atoms: C10_14  and  N2_15 
REMARK   11  A    between atoms: C12_20  and  C13_21 
REMARK   12  A    between atoms: C13_21  and  N5_22 
REMARK       I    between atoms: C14_24  and  N7_26 
REMARK   13  A    between atoms: N8_32  and  C21_34 
REMARK   14  A    between atoms: C21_34  and  O3_35 
REMARK   15  A    between atoms: C21_34  and  C22_37 
REMARK   16  A    between atoms: C22_37  and  C23_38 
REMARK   17  A    between atoms: C23_38  and  C24_39 
REMARK       I    between atoms: C24_39  and  N9_41 
ROOT
HETATM    1  C6  UNL     1       7.150   8.122  19.702  1.00  0.00     0.270 C 
HETATM    2  O2  UNL     1       8.340   8.564  19.515  1.00  0.00    -0.266 OA
HETATM    3  N1  UNL     1       6.147   9.041  19.309  1.00  0.00    -0.333 N 
HETATM    4  C7  UNL     1       4.727   9.182  19.191  1.00  0.00     0.096 C 
HETATM    5  C12 UNL     1       4.888  10.676  19.217  1.00  0.00     0.054 C 
HETATM    6  C17 UNL     1       6.275  10.395  18.785  1.00  0.00     0.036 C 
HETATM    7  C18 UNL     1       7.264  11.254  19.549  1.00  0.00     0.039 C 
HETATM    8  C19 UNL     1       6.519  10.464  17.304  1.00  0.00     0.039 C 
ENDROOT
BRANCH   1   9
HETATM    9  C5  UNL     1       6.978   6.778  20.264  1.00  0.00     0.110 C 
BRANCH   9  10
HETATM   10  C4  UNL     1       6.743   5.705  19.281  1.00  0.00     0.173 C 
BRANCH  10  11
HETATM   11  C3  UNL     1       7.693   4.679  18.894  1.00  0.00     0.038 C 
BRANCH  11  12
HETATM   12  C2  UNL     1       7.652   3.334  19.516  1.00  0.00    -0.002 C 
HETATM   13  C1  UNL     1       8.467   2.407  18.579  1.00  0.00     0.005 C 
ENDBRANCH  11  12
ENDBRANCH  10  11
BRANCH  10  14
HETATM   14  O1  UNL     1       6.423   6.414  18.046  1.00  0.00    -0.389 OA
ATOM     15  H1  UNL     1       5.545   6.131  17.818  1.00  0.00     0.210 HD
ENDBRANCH  10  14
ENDBRANCH   9  10
BRANCH   9  16
HETATM   16  N8  UNL     1       6.293   6.697  21.513  1.00  0.00    -0.332 N 
HETATM   17  C20 UNL     1       5.181   5.647  21.462  1.00  0.00     0.158 C 
BRANCH  16  18
HETATM   18  C21 UNL     1       6.369   7.315  22.741  1.00  0.00     0.118 C 
BRANCH  18  19
HETATM   19  O3  UNL     1       5.831   6.611  23.726  1.00  0.00    -0.349 OA
ATOM     20  H3  UNL     1       6.454   6.353  24.396  1.00  0.00     0.219 HD
ENDBRANCH  18  19
BRANCH  18  21
HETATM   21  C22 UNL     1       6.903   8.578  23.230  1.00  0.00     0.093 C 
BRANCH  21  22
HETATM   22  C23 UNL     1       8.414   8.695  23.029  1.00  0.00     0.111 C 
BRANCH  22  23
HETATM   23  C24 UNL     1       9.109   8.161  24.230  1.00  0.00     0.217 C 
HETATM   24  O4  UNL     1       8.621   7.189  24.856  1.00  0.00    -0.274 OA
HETATM   25  N9  UNL     1      10.322   8.718  24.700  1.00  0.00    -0.365 N 
HETATM   26  C25 UNL     1      10.967   8.170  25.872  1.00  0.00     0.149 C 
ATOM     27  H9  UNL     1      10.742   9.508  24.211  1.00  0.00     0.161 HD
ENDBRANCH  22  23
ENDBRANCH  21  22
ENDBRANCH  18  21
ENDBRANCH  16  18
ENDBRANCH   9  16
ENDBRANCH   1   9
BRANCH   4  28
HETATM   28  C8  UNL     1       3.846   8.716  20.288  1.00  0.00     0.027 C 
BRANCH  28  29
HETATM   29  C9  UNL     1       3.798   9.718  21.407  1.00  0.00     0.022 C 
BRANCH  29  30
HETATM   30  C10 UNL     1       2.631   9.274  22.304  1.00  0.00     0.122 C 
BRANCH  30  31
HETATM   31  N2  UNL     1       3.118   8.351  23.306  1.00  0.00    -0.367 N 
HETATM   32  C11 UNL     1       3.164   8.708  24.535  1.00  0.00     0.196 C 
HETATM   33  N3  UNL     1       2.741  10.010  24.925  1.00  0.00    -0.067 NA
HETATM   34  N4  UNL     1       3.632   7.853  25.575  1.00  0.00    -0.067 NA
ATOM     35  H2  UNL     1       3.424   7.416  23.034  1.00  0.00     0.161 HD
ENDBRANCH  30  31
ENDBRANCH  29  30
ENDBRANCH  28  29
ENDBRANCH   4  28
BRANCH   5  36
HETATM   36  C13 UNL     1       4.055  11.480  18.245  1.00  0.00     0.131 C 
BRANCH  36  37
HETATM   37  N5  UNL     1       3.426  12.538  19.052  1.00  0.00    -0.364 N 
HETATM   38  C14 UNL     1       2.674  13.427  18.517  1.00  0.00     0.185 C 
HETATM   39  N6  UNL     1       2.462  13.364  17.114  1.00  0.00    -0.064 NA
HETATM   40  N7  UNL     1       2.039  14.462  19.227  1.00  0.00    -0.364 N 
HETATM   41  C15 UNL     1       2.748  15.699  19.454  1.00  0.00     0.151 C 
HETATM   42  C16 UNL     1       0.695  14.327  19.738  1.00  0.00     0.151 C 
ATOM     43  H5  UNL     1       3.591  12.564  20.059  1.00  0.00     0.162 HD
ENDBRANCH  36  37
ENDBRANCH   5  36
TORSDOF 17
ENDMDL
MODEL 5
REMARK VINA RESULT: -6.373778126      3.086      6.621
REMARK  17 active torsions:
REMARK  status: ('A' for Active; 'I' for Inactive)
REMARK    1  A    between atoms: C2_2  and  C3_3 
REMARK    2  A    between atoms: C3_3  and  C4_4 
REMARK    3  A    between atoms: C4_4  and  O1_5 
REMARK    4  A    between atoms: C4_4  and  C5_7 
REMARK    5  A    between atoms: C5_7  and  C6_8 
REMARK    6  A    between atoms: C5_7  and  N8_32 
REMARK       I    between atoms: C6_8  and  N1_10 
REMARK    7  A    between atoms: C7_11  and  C8_12 
REMARK    8  A    between atoms: C8_12  and  C9_13 
REMARK    9  A    between atoms: C9_13  and  C10_14 
REMARK   10  A    between atoms: C10_14  and  N2_15 
REMARK   11  A    between atoms: C12_20  and  C13_21 
REMARK   12  A    between atoms: C13_21  and  N5_22 
REMARK       I    between atoms: C14_24  and  N7_26 
REMARK   13  A    between atoms: N8_32  and  C21_34 
REMARK   14  A    between atoms: C21_34  and  O3_35 
REMARK   15  A    between atoms: C21_34  and  C22_37 
REMARK   16  A    between atoms: C22_37  and  C23_38 
REMARK   17  A    between atoms: C23_38  and  C24_39 
REMARK       I    between atoms: C24_39  and  N9_41 
ROOT
HETATM    1  C6  UNL     1       7.107   8.105  23.693  1.00  0.00     0.270 C 
HETATM    2  O2  UNL     1       6.475   8.517  24.731  1.00  0.00    -0.266 OA
HETATM    3  N1  UNL     1       6.260   7.515  22.723  1.00  0.00    -0.333 N 
HETATM    4  C7  UNL     1       6.271   6.940  21.412  1.00  0.00     0.096 C 
HETATM    5  C12 UNL     1       4.985   6.229  21.728  1.00  0.00     0.054 C 
HETATM    6  C17 UNL     1       4.822   7.276  22.761  1.00  0.00     0.036 C 
HETATM    7  C18 UNL     1       4.338   6.677  24.067  1.00  0.00     0.039 C 
HETATM    8  C19 UNL     1       3.988   8.459  22.359  1.00  0.00     0.039 C 
ENDROOT
BRANCH   1   9
HETATM    9  C5  UNL     1       8.561   8.291  23.632  1.00  0.00     0.110 C 
BRANCH   9  10
HETATM   10  C4  UNL     1       9.266   8.204  24.923  1.00  0.00     0.173 C 
BRANCH  10  11
HETATM   11  C3  UNL     1      10.704   8.146  25.108  1.00  0.00     0.038 C 
BRANCH  11  12
HETATM   12  C2  UNL     1      11.287   7.522  26.320  1.00  0.00    -0.002 C 
HETATM   13  C1  UNL     1      12.819   7.491  26.086  1.00  0.00     0.005 C 
ENDBRANCH  11  12
ENDBRANCH  10  11
BRANCH  10  14
HETATM   14  O1  UNL     1       8.755   6.978  25.528  1.00  0.00    -0.389 OA
ATOM     15  H1  UNL     1       9.007   6.283  24.931  1.00  0.00     0.210 HD
ENDBRANCH  10  14
ENDBRANCH   9  10
BRANCH   9  16
HETATM   16  N8  UNL     1       9.038   9.237  22.676  1.00  0.00    -0.332 N 
HETATM   17  C20 UNL     1      10.249  10.000  23.217  1.00  0.00     0.158 C 
BRANCH  16  18
HETATM   18  C21 UNL     1       8.694   9.641  21.405  1.00  0.00     0.118 C 
BRANCH  18  19
HETATM   19  O3  UNL     1       9.526   9.214  20.467  1.00  0.00    -0.349 OA
ATOM     20  H3  UNL     1       9.439   9.675  19.640  1.00  0.00     0.219 HD
ENDBRANCH  18  19
BRANCH  18  21
HETATM   21  C22 UNL     1       7.621  10.440  20.831  1.00  0.00     0.093 C 
BRANCH  21  22
HETATM   22  C23 UNL     1       6.905   9.727  19.684  1.00  0.00     0.111 C 
BRANCH  22  23
HETATM   23  C24 UNL     1       7.002  10.558  18.455  1.00  0.00     0.217 C 
HETATM   24  O4  UNL     1       7.327  11.767  18.541  1.00  0.00    -0.274 OA
HETATM   25  N9  UNL     1       6.738  10.026  17.171  1.00  0.00    -0.365 N 
HETATM   26  C25 UNL     1       6.843  10.867  16.000  1.00  0.00     0.149 C 
ATOM     27  H9  UNL     1       6.473   9.047  17.071  1.00  0.00     0.161 HD
ENDBRANCH  22  23
ENDBRANCH  21  22
ENDBRANCH  18  21
ENDBRANCH  16  18
ENDBRANCH   9  16
ENDBRANCH   1   9
BRANCH   4  28
HETATM   28  C8  UNL     1       7.338   5.983  21.036  1.00  0.00     0.027 C 
BRANCH  28  29
HETATM   29  C9  UNL     1       7.534   5.948  19.547  1.00  0.00     0.022 C 
BRANCH  29  30
HETATM   30  C10 UNL     1       7.177   4.514  19.121  1.00  0.00     0.122 C 
BRANCH  30  31
HETATM   31  N2  UNL     1       7.313   3.626  20.255  1.00  0.00    -0.367 N 
HETATM   32  C11 UNL     1       6.519   2.631  20.386  1.00  0.00     0.196 C 
HETATM   33  N3  UNL     1       5.499   2.389  19.422  1.00  0.00    -0.067 NA
HETATM   34  N4  UNL     1       6.594   1.716  21.477  1.00  0.00    -0.067 NA
ATOM     35  H2  UNL     1       8.041   3.794  20.950  1.00  0.00     0.161 HD
ENDBRANCH  30  31
ENDBRANCH  29  30
ENDBRANCH  28  29
ENDBRANCH   4  28
BRANCH   5  36
HETATM   36  C13 UNL     1       3.923   6.207  20.654  1.00  0.00     0.131 C 
BRANCH  36  37
HETATM   37  N5  UNL     1       3.614   4.783  20.440  1.00  0.00    -0.364 N 
HETATM   38  C14 UNL     1       2.557   4.249  20.928  1.00  0.00     0.185 C 
HETATM   39  N6  UNL     1       1.684   5.074  21.687  1.00  0.00    -0.064 NA
HETATM   40  N7  UNL     1       2.199   2.899  20.762  1.00  0.00    -0.364 N 
HETATM   41  C15 UNL     1       2.703   1.917  21.691  1.00  0.00     0.151 C 
HETATM   42  C16 UNL     1       1.339   2.463  19.687  1.00  0.00     0.151 C 
ATOM     43  H5  UNL     1       4.256   4.209  19.892  1.00  0.00     0.162 HD
ENDBRANCH  36  37
ENDBRANCH   5  36
TORSDOF 17
ENDMDL
