MODEL 1
REMARK VINA RESULT: -7.466521383      0.000      0.000
REMARK  6 active torsions:
REMARK  status: ('A' for Active; 'I' for Inactive)
REMARK    1  A    between atoms: C3_3  and  N1_4 
REMARK    2  A    between atoms: N2_7  and  C6_8 
REMARK    3  A    between atoms: C6_8  and  C7_9 
REMARK    4  A    between atoms: C7_9  and  C8_10 
REMARK       I    between atoms: C8_10  and  N3_12 
REMARK    5  A    between atoms: N3_12  and  C9_14 
REMARK    6  A    between atoms: N4_16  and  C11_17 
ROOT
HETATM    1  C1  UNL     1     -10.471 -25.348  23.428  1.00  0.00     0.013 C 
HETATM    2  C2  UNL     1     -11.263 -25.749  22.611  1.00  0.00    -0.089 C 
HETATM    3  C3  UNL     1     -12.225 -26.233  21.632  1.00  0.00     0.330 C 
ENDROOT
BRANCH   3   4
HETATM    4  N1  UNL     1     -13.487 -25.553  21.713  1.00  0.00    -0.052 N 
HETATM    5  C4  UNL     1     -13.921 -25.346  23.081  1.00  0.00     0.266 C 
HETATM    6  C5  UNL     1     -15.136 -24.452  23.047  1.00  0.00     0.265 C 
HETATM    7  N2  UNL     1     -15.730 -24.412  21.704  1.00  0.00    -0.062 N 
HETATM    8  C21 UNL     1     -15.897 -25.780  21.278  1.00  0.00     0.265 C 
HETATM    9  C23 UNL     1     -14.792 -23.783  20.803  1.00  0.00     0.265 C 
HETATM   10  C22 UNL     1     -14.486 -26.329  21.048  1.00  0.00     0.266 C 
HETATM   11  C24 UNL     1     -13.374 -24.245  21.105  1.00  0.00     0.266 C 
BRANCH   7  12
HETATM   12  C6  UNL     1     -16.963 -23.683  21.826  1.00  0.00     0.247 C 
BRANCH  12  13
HETATM   13  C7  UNL     1     -18.065 -24.513  22.447  1.00  0.00     0.130 C 
BRANCH  13  14
HETATM   14  C8  UNL     1     -18.144 -24.281  23.911  1.00  0.00     0.219 C 
HETATM   15  O1  UNL     1     -18.170 -23.096  24.320  1.00  0.00    -0.274 OA
HETATM   16  N3  UNL     1     -18.190 -25.346  24.844  1.00  0.00    -0.349 N 
ATOM     17  H3  UNL     1     -18.169 -26.312  24.518  1.00  0.00     0.163 HD
BRANCH  16  18
HETATM   18  C9  UNL     1     -18.266 -25.064  26.240  1.00  0.00     0.152 C 
HETATM   19  C10 UNL     1     -18.932 -26.153  27.080  1.00  0.00     0.160 C 
HETATM   20  N4  UNL     1     -17.970 -25.645  28.111  1.00  0.00    -0.353 N 
HETATM   21  C19 UNL     1     -17.078 -25.515  27.051  1.00  0.00     0.026 C 
HETATM   22  C20 UNL     1     -15.803 -25.721  26.875  1.00  0.00     0.040 C 
BRANCH  20  23
HETATM   23  C11 UNL     1     -18.032 -25.435  29.516  1.00  0.00    -0.004 C 
HETATM   24  C12 UNL     1     -18.047 -26.732  30.274  1.00  0.00     0.056 C 
HETATM   25  C13 UNL     1     -16.846 -27.041  31.074  1.00  0.00     0.039 C 
HETATM   26  C14 UNL     1     -16.270 -25.922  31.877  1.00  0.00     0.136 C 
HETATM   27  O2  UNL     1     -15.346 -25.270  31.113  1.00  0.00    -0.384 OA
HETATM   28  C18 UNL     1     -17.244 -24.978  32.481  1.00  0.00     0.087 C 
HETATM   29  C15 UNL     1     -15.890 -24.265  30.323  1.00  0.00     0.178 C 
HETATM   30  C16 UNL     1     -17.338 -24.302  30.121  1.00  0.00     0.056 C 
HETATM   31  C17 UNL     1     -17.995 -24.102  31.514  1.00  0.00     0.031 C 
HETATM   32 BR1  UNL     1     -16.341 -23.771  33.729  1.00  0.00    -0.088 Br
ENDBRANCH  20  23
ENDBRANCH  16  18
ENDBRANCH  13  14
ENDBRANCH  12  13
ENDBRANCH   7  12
ENDBRANCH   3   4
TORSDOF 6
ENDMDL
MODEL 2
REMARK VINA RESULT: -7.462381975      0.145      1.050
REMARK  6 active torsions:
REMARK  status: ('A' for Active; 'I' for Inactive)
REMARK    1  A    between atoms: C3_3  and  N1_4 
REMARK    2  A    between atoms: N2_7  and  C6_8 
REMARK    3  A    between atoms: C6_8  and  C7_9 
REMARK    4  A    between atoms: C7_9  and  C8_10 
REMARK       I    between atoms: C8_10  and  N3_12 
REMARK    5  A    between atoms: N3_12  and  C9_14 
REMARK    6  A    between atoms: N4_16  and  C11_17 
ROOT
HETATM    1  C1  UNL     1     -10.471 -25.346  23.428  1.00  0.00     0.013 C 
HETATM    2  C2  UNL     1     -11.236 -25.776  22.601  1.00  0.00    -0.089 C 
HETATM    3  C3  UNL     1     -12.167 -26.294  21.608  1.00  0.00     0.330 C 
ENDROOT
BRANCH   3   4
HETATM    4  N1  UNL     1     -13.421 -25.597  21.608  1.00  0.00    -0.052 N 
HETATM    5  C4  UNL     1     -13.350 -24.323  20.920  1.00  0.00     0.266 C 
HETATM    6  C5  UNL     1     -14.754 -23.784  20.803  1.00  0.00     0.265 C 
HETATM    7  N2  UNL     1     -15.663 -24.461  21.737  1.00  0.00    -0.062 N 
HETATM    8  C21 UNL     1     -15.039 -24.417  23.037  1.00  0.00     0.265 C 
HETATM    9  C23 UNL     1     -15.774 -25.849  21.350  1.00  0.00     0.265 C 
HETATM   10  C22 UNL     1     -13.823 -25.346  22.957  1.00  0.00     0.266 C 
HETATM   11  C24 UNL     1     -14.418 -26.390  20.922  1.00  0.00     0.266 C 
BRANCH   7  12
HETATM   12  C6  UNL     1     -16.916 -23.759  21.668  1.00  0.00     0.247 C 
BRANCH  12  13
HETATM   13  C7  UNL     1     -18.050 -24.542  22.291  1.00  0.00     0.130 C 
BRANCH  13  14
HETATM   14  C8  UNL     1     -18.132 -24.287  23.752  1.00  0.00     0.219 C 
HETATM   15  O1  UNL     1     -18.186 -23.096  24.140  1.00  0.00    -0.274 OA
HETATM   16  N3  UNL     1     -18.151 -25.336  24.703  1.00  0.00    -0.349 N 
ATOM     17  H3  UNL     1     -18.107 -26.307  24.394  1.00  0.00     0.163 HD
BRANCH  16  18
HETATM   18  C9  UNL     1     -18.231 -25.032  26.094  1.00  0.00     0.152 C 
HETATM   19  C10 UNL     1     -18.920 -26.097  26.946  1.00  0.00     0.160 C 
HETATM   20  N4  UNL     1     -17.957 -25.590  27.976  1.00  0.00    -0.353 N 
HETATM   21  C19 UNL     1     -17.055 -25.491  26.919  1.00  0.00     0.026 C 
HETATM   22  C20 UNL     1     -15.783 -25.721  26.755  1.00  0.00     0.040 C 
BRANCH  20  23
HETATM   23  C11 UNL     1     -18.024 -25.359  29.377  1.00  0.00    -0.004 C 
HETATM   24  C12 UNL     1     -18.071 -26.644  30.153  1.00  0.00     0.056 C 
HETATM   25  C13 UNL     1     -16.882 -26.966  30.967  1.00  0.00     0.039 C 
HETATM   26  C14 UNL     1     -16.289 -25.847  31.757  1.00  0.00     0.136 C 
HETATM   27  O2  UNL     1     -15.346 -25.225  30.990  1.00  0.00    -0.384 OA
HETATM   28  C18 UNL     1     -17.247 -24.874  32.341  1.00  0.00     0.087 C 
HETATM   29  C15 UNL     1     -15.863 -24.221  30.182  1.00  0.00     0.178 C 
HETATM   30  C16 UNL     1     -17.310 -24.231  29.970  1.00  0.00     0.056 C 
HETATM   31  C17 UNL     1     -17.972 -23.997  31.355  1.00  0.00     0.031 C 
HETATM   32 BR1  UNL     1     -16.327 -23.668  33.577  1.00  0.00    -0.088 Br
ENDBRANCH  20  23
ENDBRANCH  16  18
ENDBRANCH  13  14
ENDBRANCH  12  13
ENDBRANCH   7  12
ENDBRANCH   3   4
TORSDOF 6
ENDMDL
MODEL 3
REMARK VINA RESULT: -7.387794763      0.623      1.229
REMARK  6 active torsions:
REMARK  status: ('A' for Active; 'I' for Inactive)
REMARK    1  A    between atoms: C3_3  and  N1_4 
REMARK    2  A    between atoms: N2_7  and  C6_8 
REMARK    3  A    between atoms: C6_8  and  C7_9 
REMARK    4  A    between atoms: C7_9  and  C8_10 
REMARK       I    between atoms: C8_10  and  N3_12 
REMARK    5  A    between atoms: N3_12  and  C9_14 
REMARK    6  A    between atoms: N4_16  and  C11_17 
ROOT
HETATM    1  C1  UNL     1     -10.426 -25.721  23.062  1.00  0.00     0.013 C 
HETATM    2  C2  UNL     1     -11.156 -25.003  22.424  1.00  0.00    -0.089 C 
HETATM    3  C3  UNL     1     -12.043 -24.144  21.652  1.00  0.00     0.330 C 
ENDROOT
BRANCH   3   4
HETATM    4  N1  UNL     1     -13.415 -24.560  21.720  1.00  0.00    -0.052 N 
HETATM    5  C4  UNL     1     -13.703 -25.675  20.840  1.00  0.00     0.266 C 
HETATM    6  C5  UNL     1     -15.100 -26.154  21.146  1.00  0.00     0.265 C 
HETATM    7  N2  UNL     1     -15.857 -25.142  21.896  1.00  0.00    -0.062 N 
HETATM    8  C21 UNL     1     -15.721 -23.898  21.178  1.00  0.00     0.265 C 
HETATM    9  C23 UNL     1     -15.240 -24.971  23.191  1.00  0.00     0.265 C 
HETATM   10  C22 UNL     1     -14.259 -23.471  21.340  1.00  0.00     0.266 C 
HETATM   11  C24 UNL     1     -13.724 -24.995  23.065  1.00  0.00     0.266 C 
BRANCH   7  12
HETATM   12  C6  UNL     1     -17.209 -25.623  21.980  1.00  0.00     0.247 C 
BRANCH  12  13
HETATM   13  C7  UNL     1     -18.192 -24.525  22.319  1.00  0.00     0.130 C 
BRANCH  13  14
HETATM   14  C8  UNL     1     -18.228 -24.278  23.783  1.00  0.00     0.219 C 
HETATM   15  O1  UNL     1     -18.113 -23.096  24.184  1.00  0.00    -0.274 OA
HETATM   16  N3  UNL     1     -18.387 -25.326  24.723  1.00  0.00    -0.349 N 
ATOM     17  H3  UNL     1     -18.480 -26.289  24.403  1.00  0.00     0.163 HD
BRANCH  16  18
HETATM   18  C9  UNL     1     -18.414 -25.029  26.118  1.00  0.00     0.152 C 
HETATM   19  C10 UNL     1     -19.071 -26.100  26.989  1.00  0.00     0.160 C 
HETATM   20  N4  UNL     1     -18.069 -25.598  27.985  1.00  0.00    -0.353 N 
HETATM   21  C19 UNL     1     -17.208 -25.493  26.895  1.00  0.00     0.026 C 
HETATM   22  C20 UNL     1     -15.943 -25.721  26.683  1.00  0.00     0.040 C 
BRANCH  20  23
HETATM   23  C11 UNL     1     -18.084 -25.375  29.389  1.00  0.00    -0.004 C 
HETATM   24  C12 UNL     1     -18.085 -26.664  30.159  1.00  0.00     0.056 C 
HETATM   25  C13 UNL     1     -16.862 -26.977  30.923  1.00  0.00     0.039 C 
HETATM   26  C14 UNL     1     -16.251 -25.855  31.696  1.00  0.00     0.136 C 
HETATM   27  O2  UNL     1     -15.346 -25.219  30.896  1.00  0.00    -0.384 OA
HETATM   28  C18 UNL     1     -17.196 -24.897  32.322  1.00  0.00     0.087 C 
HETATM   29  C15 UNL     1     -15.906 -24.216  30.114  1.00  0.00     0.178 C 
HETATM   30  C16 UNL     1     -17.360 -24.242  29.960  1.00  0.00     0.056 C 
HETATM   31  C17 UNL     1     -17.970 -24.023  31.371  1.00  0.00     0.031 C 
HETATM   32 BR1  UNL     1     -16.242 -23.686  33.528  1.00  0.00    -0.088 Br
ENDBRANCH  20  23
ENDBRANCH  16  18
ENDBRANCH  13  14
ENDBRANCH  12  13
ENDBRANCH   7  12
ENDBRANCH   3   4
TORSDOF 6
ENDMDL
MODEL 4
REMARK VINA RESULT: -7.352147798      4.835      6.385
REMARK  6 active torsions:
REMARK  status: ('A' for Active; 'I' for Inactive)
REMARK    1  A    between atoms: C3_3  and  N1_4 
REMARK    2  A    between atoms: N2_7  and  C6_8 
REMARK    3  A    between atoms: C6_8  and  C7_9 
REMARK    4  A    between atoms: C7_9  and  C8_10 
REMARK       I    between atoms: C8_10  and  N3_12 
REMARK    5  A    between atoms: N3_12  and  C9_14 
REMARK    6  A    between atoms: N4_16  and  C11_17 
ROOT
HETATM    1  C1  UNL     1     -10.133 -25.727  23.417  1.00  0.00     0.013 C 
HETATM    2  C2  UNL     1     -10.967 -25.981  22.582  1.00  0.00    -0.089 C 
HETATM    3  C3  UNL     1     -11.979 -26.287  21.582  1.00  0.00     0.330 C 
ENDROOT
BRANCH   3   4
HETATM    4  N1  UNL     1     -13.193 -25.547  21.779  1.00  0.00    -0.052 N 
HETATM    5  C4  UNL     1     -13.500 -25.343  23.181  1.00  0.00     0.266 C 
HETATM    6  C5  UNL     1     -14.666 -24.389  23.263  1.00  0.00     0.265 C 
HETATM    7  N2  UNL     1     -15.369 -24.295  21.976  1.00  0.00    -0.062 N 
HETATM    8  C21 UNL     1     -15.640 -25.645  21.546  1.00  0.00     0.265 C 
HETATM    9  C23 UNL     1     -14.478 -23.698  21.007  1.00  0.00     0.265 C 
HETATM   10  C22 UNL     1     -14.283 -26.260  21.190  1.00  0.00     0.266 C 
HETATM   11  C24 UNL     1     -13.065 -24.235  21.181  1.00  0.00     0.266 C 
BRANCH   7  12
HETATM   12  C6  UNL     1     -16.548 -23.508  22.211  1.00  0.00     0.247 C 
BRANCH  12  13
HETATM   13  C7  UNL     1     -16.880 -23.393  23.682  1.00  0.00     0.130 C 
BRANCH  13  14
HETATM   14  C8  UNL     1     -17.991 -24.307  24.050  1.00  0.00     0.219 C 
HETATM   15  O1  UNL     1     -17.710 -25.351  24.684  1.00  0.00    -0.274 OA
HETATM   16  N3  UNL     1     -19.339 -24.035  23.708  1.00  0.00    -0.349 N 
ATOM     17  H3  UNL     1     -19.574 -23.188  23.192  1.00  0.00     0.163 HD
BRANCH  16  18
HETATM   18  C9  UNL     1     -20.365 -24.949  24.088  1.00  0.00     0.152 C 
HETATM   19  C10 UNL     1     -21.790 -24.445  23.860  1.00  0.00     0.160 C 
HETATM   20  N4  UNL     1     -22.042 -25.906  23.639  1.00  0.00    -0.353 N 
HETATM   21  C19 UNL     1     -20.800 -25.908  23.009  1.00  0.00     0.026 C 
HETATM   22  C20 UNL     1     -20.292 -26.480  21.954  1.00  0.00     0.040 C 
BRANCH  20  23
HETATM   23  C11 UNL     1     -23.105 -26.795  23.958  1.00  0.00    -0.004 C 
HETATM   24  C12 UNL     1     -23.783 -27.320  22.725  1.00  0.00     0.056 C 
HETATM   25  C13 UNL     1     -23.598 -28.755  22.432  1.00  0.00     0.039 C 
HETATM   26  C14 UNL     1     -23.714 -29.694  23.586  1.00  0.00     0.136 C 
HETATM   27  O2  UNL     1     -22.477 -29.855  24.141  1.00  0.00    -0.384 OA
HETATM   28  C18 UNL     1     -24.733 -29.353  24.611  1.00  0.00     0.087 C 
HETATM   29  C15 UNL     1     -22.173 -28.900  25.103  1.00  0.00     0.178 C 
HETATM   30  C16 UNL     1     -22.994 -27.690  25.107  1.00  0.00     0.056 C 
HETATM   31  C17 UNL     1     -24.445 -28.129  25.439  1.00  0.00     0.031 C 
HETATM   32 BR1  UNL     1     -24.951 -30.831  25.874  1.00  0.00    -0.088 Br
ENDBRANCH  20  23
ENDBRANCH  16  18
ENDBRANCH  13  14
ENDBRANCH  12  13
ENDBRANCH   7  12
ENDBRANCH   3   4
TORSDOF 6
ENDMDL
MODEL 5
REMARK VINA RESULT: -7.227924599      1.292      1.917
REMARK  6 active torsions:
REMARK  status: ('A' for Active; 'I' for Inactive)
REMARK    1  A    between atoms: C3_3  and  N1_4 
REMARK    2  A    between atoms: N2_7  and  C6_8 
REMARK    3  A    between atoms: C6_8  and  C7_9 
REMARK    4  A    between atoms: C7_9  and  C8_10 
REMARK       I    between atoms: C8_10  and  N3_12 
REMARK    5  A    between atoms: N3_12  and  C9_14 
REMARK    6  A    between atoms: N4_16  and  C11_17 
ROOT
HETATM    1  C1  UNL     1     -10.470 -25.628  23.203  1.00  0.00     0.013 C 
HETATM    2  C2  UNL     1     -11.317 -26.033  22.445  1.00  0.00    -0.089 C 
HETATM    3  C3  UNL     1     -12.346 -26.518  21.536  1.00  0.00     0.330 C 
ENDROOT
BRANCH   3   4
HETATM    4  N1  UNL     1     -13.528 -25.705  21.554  1.00  0.00    -0.052 N 
HETATM    5  C4  UNL     1     -13.331 -24.419  20.916  1.00  0.00     0.266 C 
HETATM    6  C5  UNL     1     -14.677 -23.746  20.810  1.00  0.00     0.265 C 
HETATM    7  N2  UNL     1     -15.655 -24.367  21.713  1.00  0.00    -0.062 N 
HETATM    8  C21 UNL     1     -15.042 -24.431  23.017  1.00  0.00     0.265 C 
HETATM    9  C23 UNL     1     -15.892 -25.723  21.273  1.00  0.00     0.265 C 
HETATM   10  C22 UNL     1     -13.919 -25.467  22.909  1.00  0.00     0.266 C 
HETATM   11  C24 UNL     1     -14.589 -26.375  20.833  1.00  0.00     0.266 C 
BRANCH   7  12
HETATM   12  C6  UNL     1     -16.835 -23.549  21.662  1.00  0.00     0.247 C 
BRANCH  12  13
HETATM   13  C7  UNL     1     -18.097 -24.339  21.927  1.00  0.00     0.130 C 
BRANCH  13  14
HETATM   14  C8  UNL     1     -18.297 -24.550  23.383  1.00  0.00     0.219 C 
HETATM   15  O1  UNL     1     -18.497 -25.720  23.787  1.00  0.00    -0.274 OA
HETATM   16  N3  UNL     1     -18.268 -23.481  24.313  1.00  0.00    -0.349 N 
ATOM     17  H3  UNL     1     -18.107 -22.528  23.990  1.00  0.00     0.163 HD
BRANCH  16  18
HETATM   18  C9  UNL     1     -18.466 -23.743  25.701  1.00  0.00     0.152 C 
HETATM   19  C10 UNL     1     -17.221 -24.218  26.449  1.00  0.00     0.160 C 
HETATM   20  N4  UNL     1     -17.886 -23.491  27.579  1.00  0.00    -0.353 N 
HETATM   21  C19 UNL     1     -18.256 -22.561  26.612  1.00  0.00     0.026 C 
HETATM   22  C20 UNL     1     -18.347 -21.262  26.556  1.00  0.00     0.040 C 
BRANCH  20  23
HETATM   23  C11 UNL     1     -18.015 -23.724  28.975  1.00  0.00    -0.004 C 
HETATM   24  C12 UNL     1     -18.818 -24.961  29.263  1.00  0.00     0.056 C 
HETATM   25  C13 UNL     1     -18.084 -26.101  29.847  1.00  0.00     0.039 C 
HETATM   26  C14 UNL     1     -17.116 -25.785  30.940  1.00  0.00     0.136 C 
HETATM   27  O2  UNL     1     -15.894 -25.545  30.381  1.00  0.00    -0.384 OA
HETATM   28  C18 UNL     1     -17.512 -24.702  31.875  1.00  0.00     0.087 C 
HETATM   29  C15 UNL     1     -15.710 -24.222  29.999  1.00  0.00     0.178 C 
HETATM   30  C16 UNL     1     -16.915 -23.401  29.879  1.00  0.00     0.056 C 
HETATM   31  C17 UNL     1     -17.545 -23.313  31.295  1.00  0.00     0.031 C 
HETATM   32 BR1  UNL     1     -16.284 -24.632  33.397  1.00  0.00    -0.088 Br
ENDBRANCH  20  23
ENDBRANCH  16  18
ENDBRANCH  13  14
ENDBRANCH  12  13
ENDBRANCH   7  12
ENDBRANCH   3   4
TORSDOF 6
ENDMDL
