MODEL 1
REMARK VINA RESULT: -8.470817989      0.000      0.000
REMARK  7 active torsions:
REMARK  status: ('A' for Active; 'I' for Inactive)
REMARK    1  A    between atoms: C2_2  and  C4_4 
REMARK    2  A    between atoms: C8_9  and  O1_10 
REMARK    3  A    between atoms: O1_10  and  C9_11 
REMARK    4  A    between atoms: C9_11  and  C10_12 
REMARK    5  A    between atoms: C10_12  and  N2_13 
REMARK    6  A    between atoms: C10_12  and  C14_21 
REMARK       I    between atoms: N2_13  and  C11_15 
REMARK    7  A    between atoms: C11_15  and  C12_17 
ROOT
HETATM    1  C10 UNL     1      16.351 -28.100  37.305  1.00  0.00     0.113 C 
ENDROOT
BRANCH   1   2
HETATM    2  C9  UNL     1      15.361 -28.414  38.406  1.00  0.00     0.201 C 
BRANCH   2   3
HETATM    3  O1  UNL     1      14.838 -27.196  38.879  1.00  0.00    -0.347 OA
BRANCH   3   4
HETATM    4  C8  UNL     1      15.172 -26.667  40.118  1.00  0.00     0.093 A 
HETATM    5  C7  UNL     1      15.575 -25.359  40.204  1.00  0.00     0.079 A 
HETATM    6  C6  UNL     1      15.911 -24.814  41.423  1.00  0.00     0.030 A 
HETATM    7  N1  UNL     1      15.666 -24.511  39.057  1.00  0.00    -0.100 NA
HETATM    8  C5  UNL     1      15.845 -25.585  42.586  1.00  0.00     0.014 A 
HETATM    9  C4  UNL     1      15.442 -26.900  42.514  1.00  0.00    -0.028 A 
HETATM   10  C21 UNL     1      15.113 -27.411  41.269  1.00  0.00     0.050 A 
BRANCH   9  11
HETATM   11  C2  UNL     1      15.359 -27.741  43.698  1.00  0.00    -0.061 C 
HETATM   12  C1  UNL     1      15.033 -29.013  43.683  1.00  0.00     0.019 C 
HETATM   13  C3  UNL     1      15.664 -27.127  45.040  1.00  0.00     0.048 C 
ENDBRANCH   9  11
ENDBRANCH   3   4
ENDBRANCH   2   3
ENDBRANCH   1   2
BRANCH   1  14
HETATM   14  N2  UNL     1      15.641 -27.623  36.146  1.00  0.00    -0.349 N 
HETATM   15  C11 UNL     1      15.846 -26.350  35.557  1.00  0.00     0.290 C 
HETATM   16  O2  UNL     1      16.721 -25.608  36.117  1.00  0.00    -0.267 OA
ATOM     17  H2  UNL     1      14.948 -28.240  35.723  1.00  0.00     0.163 HD
BRANCH  15  18
HETATM   18  C12 UNL     1      15.110 -25.889  34.377  1.00  0.00     0.318 C 
HETATM   19  C13 UNL     1      14.718 -24.436  34.532  1.00  0.00     0.101 C 
HETATM   20  F1  UNL     1      13.988 -26.682  34.235  1.00  0.00    -0.196 F 
HETATM   21  F2  UNL     1      15.929 -25.983  33.269  1.00  0.00    -0.196 F 
ENDBRANCH  15  18
ENDBRANCH   1  14
BRANCH   1  22
HETATM   22  C14 UNL     1      17.259 -29.264  37.017  1.00  0.00     0.010 C 
HETATM   23  C15 UNL     1      16.510 -30.545  37.033  1.00  0.00     0.007 C 
HETATM   24  C16 UNL     1      17.274 -31.687  36.410  1.00  0.00     0.000 C 
HETATM   25  C17 UNL     1      18.716 -31.722  36.776  1.00  0.00     0.000 C 
HETATM   26  C18 UNL     1      18.967 -31.647  38.259  1.00  0.00     0.000 C 
HETATM   27  C19 UNL     1      18.534 -30.370  38.880  1.00  0.00     0.000 C 
HETATM   28  C20 UNL     1      18.435 -29.218  37.937  1.00  0.00     0.007 C 
ENDBRANCH   1  22
TORSDOF 7
ENDMDL
MODEL 2
REMARK VINA RESULT: -8.384773673      1.164      1.741
REMARK  7 active torsions:
REMARK  status: ('A' for Active; 'I' for Inactive)
REMARK    1  A    between atoms: C2_2  and  C4_4 
REMARK    2  A    between atoms: C8_9  and  O1_10 
REMARK    3  A    between atoms: O1_10  and  C9_11 
REMARK    4  A    between atoms: C9_11  and  C10_12 
REMARK    5  A    between atoms: C10_12  and  N2_13 
REMARK    6  A    between atoms: C10_12  and  C14_21 
REMARK       I    between atoms: N2_13  and  C11_15 
REMARK    7  A    between atoms: C11_15  and  C12_17 
ROOT
HETATM    1  C10 UNL     1      16.512 -27.888  38.305  1.00  0.00     0.113 C 
ENDROOT
BRANCH   1   2
HETATM    2  C9  UNL     1      15.303 -27.748  39.204  1.00  0.00     0.201 C 
BRANCH   2   3
HETATM    3  O1  UNL     1      15.453 -26.566  39.952  1.00  0.00    -0.347 OA
BRANCH   3   4
HETATM    4  C8  UNL     1      15.580 -26.563  41.335  1.00  0.00     0.093 A 
HETATM    5  C7  UNL     1      15.774 -25.374  41.989  1.00  0.00     0.079 A 
HETATM    6  C6  UNL     1      15.902 -25.349  43.361  1.00  0.00     0.030 A 
HETATM    7  N1  UNL     1      15.852 -24.125  41.298  1.00  0.00    -0.100 NA
HETATM    8  C5  UNL     1      15.836 -26.532  44.100  1.00  0.00     0.014 A 
HETATM    9  C4  UNL     1      15.642 -27.733  43.454  1.00  0.00    -0.028 A 
HETATM   10  C21 UNL     1      15.517 -27.717  42.075  1.00  0.00     0.050 A 
BRANCH   9  11
HETATM   11  C2  UNL     1      15.567 -28.989  44.183  1.00  0.00    -0.061 C 
HETATM   12  C1  UNL     1      14.653 -29.912  43.980  1.00  0.00     0.019 C 
HETATM   13  C3  UNL     1      16.599 -29.269  45.245  1.00  0.00     0.048 C 
ENDBRANCH   9  11
ENDBRANCH   3   4
ENDBRANCH   2   3
ENDBRANCH   1   2
BRANCH   1  14
HETATM   14  N2  UNL     1      16.171 -27.450  36.976  1.00  0.00    -0.349 N 
HETATM   15  C11 UNL     1      16.437 -26.151  36.475  1.00  0.00     0.290 C 
HETATM   16  O2  UNL     1      17.015 -25.348  37.281  1.00  0.00    -0.267 OA
ATOM     17  H2  UNL     1      15.709 -28.116  36.356  1.00  0.00     0.163 HD
BRANCH  15  18
HETATM   18  C12 UNL     1      16.079 -25.730  35.118  1.00  0.00     0.318 C 
HETATM   19  C13 UNL     1      15.125 -24.557  35.162  1.00  0.00     0.101 C 
HETATM   20  F1  UNL     1      15.497 -26.805  34.475  1.00  0.00    -0.196 F 
HETATM   21  F2  UNL     1      17.220 -25.314  34.460  1.00  0.00    -0.196 F 
ENDBRANCH  15  18
ENDBRANCH   1  14
BRANCH   1  22
HETATM   22  C14 UNL     1      17.088 -29.277  38.350  1.00  0.00     0.010 C 
HETATM   23  C15 UNL     1      18.527 -29.250  38.713  1.00  0.00     0.007 C 
HETATM   24  C16 UNL     1      19.062 -30.601  39.118  1.00  0.00     0.000 C 
HETATM   25  C17 UNL     1      18.583 -31.722  38.266  1.00  0.00     0.000 C 
HETATM   26  C18 UNL     1      18.769 -31.487  36.791  1.00  0.00     0.000 C 
HETATM   27  C19 UNL     1      17.977 -30.350  36.258  1.00  0.00     0.000 C 
HETATM   28  C20 UNL     1      16.780 -29.985  37.071  1.00  0.00     0.007 C 
ENDBRANCH   1  22
TORSDOF 7
ENDMDL
MODEL 3
REMARK VINA RESULT: -8.358390042      1.733      2.330
REMARK  7 active torsions:
REMARK  status: ('A' for Active; 'I' for Inactive)
REMARK    1  A    between atoms: C2_2  and  C4_4 
REMARK    2  A    between atoms: C8_9  and  O1_10 
REMARK    3  A    between atoms: O1_10  and  C9_11 
REMARK    4  A    between atoms: C9_11  and  C10_12 
REMARK    5  A    between atoms: C10_12  and  N2_13 
REMARK    6  A    between atoms: C10_12  and  C14_21 
REMARK       I    between atoms: N2_13  and  C11_15 
REMARK    7  A    between atoms: C11_15  and  C12_17 
ROOT
HETATM    1  C10 UNL     1      16.653 -27.981  38.321  1.00  0.00     0.113 C 
ENDROOT
BRANCH   1   2
HETATM    2  C9  UNL     1      15.604 -27.756  39.388  1.00  0.00     0.201 C 
BRANCH   2   3
HETATM    3  O1  UNL     1      16.176 -26.960  40.397  1.00  0.00    -0.347 OA
BRANCH   3   4
HETATM    4  C8  UNL     1      16.624 -27.484  41.603  1.00  0.00     0.093 A 
HETATM    5  C7  UNL     1      17.955 -27.395  41.922  1.00  0.00     0.079 A 
HETATM    6  C6  UNL     1      18.419 -27.908  43.113  1.00  0.00     0.030 A 
HETATM    7  N1  UNL     1      18.909 -26.780  41.054  1.00  0.00    -0.100 NA
HETATM    8  C5  UNL     1      17.542 -28.523  44.009  1.00  0.00     0.014 A 
HETATM    9  C4  UNL     1      16.203 -28.619  43.701  1.00  0.00    -0.028 A 
HETATM   10  C21 UNL     1      15.775 -28.090  42.494  1.00  0.00     0.050 A 
BRANCH   9  11
HETATM   11  C2  UNL     1      15.253 -29.250  44.603  1.00  0.00    -0.061 C 
HETATM   12  C1  UNL     1      14.773 -30.463  44.445  1.00  0.00     0.019 C 
HETATM   13  C3  UNL     1      14.778 -28.476  45.805  1.00  0.00     0.048 C 
ENDBRANCH   9  11
ENDBRANCH   3   4
ENDBRANCH   2   3
ENDBRANCH   1   2
BRANCH   1  14
HETATM   14  N2  UNL     1      16.135 -27.556  37.046  1.00  0.00    -0.349 N 
HETATM   15  C11 UNL     1      16.277 -26.243  36.530  1.00  0.00     0.290 C 
HETATM   16  O2  UNL     1      16.909 -25.416  37.269  1.00  0.00    -0.267 OA
ATOM     17  H2  UNL     1      15.635 -28.241  36.479  1.00  0.00     0.163 HD
BRANCH  15  18
HETATM   18  C12 UNL     1      15.741 -25.835  35.228  1.00  0.00     0.318 C 
HETATM   19  C13 UNL     1      16.795 -25.100  34.429  1.00  0.00     0.101 C 
HETATM   20  F1  UNL     1      14.647 -25.023  35.451  1.00  0.00    -0.196 F 
HETATM   21  F2  UNL     1      15.387 -26.962  34.513  1.00  0.00    -0.196 F 
ENDBRANCH  15  18
ENDBRANCH   1  14
BRANCH   1  22
HETATM   22  C14 UNL     1      17.159 -29.397  38.320  1.00  0.00     0.010 C 
HETATM   23  C15 UNL     1      18.580 -29.461  38.744  1.00  0.00     0.007 C 
HETATM   24  C16 UNL     1      19.031 -30.855  39.104  1.00  0.00     0.000 C 
HETATM   25  C17 UNL     1      18.536 -31.909  38.178  1.00  0.00     0.000 C 
HETATM   26  C18 UNL     1      18.798 -31.613  36.724  1.00  0.00     0.000 C 
HETATM   27  C19 UNL     1      18.087 -30.414  36.216  1.00  0.00     0.000 C 
HETATM   28  C20 UNL     1      16.874 -30.028  36.996  1.00  0.00     0.007 C 
ENDBRANCH   1  22
TORSDOF 7
ENDMDL
MODEL 4
REMARK VINA RESULT: -8.234060102      2.146      5.057
REMARK  7 active torsions:
REMARK  status: ('A' for Active; 'I' for Inactive)
REMARK    1  A    between atoms: C2_2  and  C4_4 
REMARK    2  A    between atoms: C8_9  and  O1_10 
REMARK    3  A    between atoms: O1_10  and  C9_11 
REMARK    4  A    between atoms: C9_11  and  C10_12 
REMARK    5  A    between atoms: C10_12  and  N2_13 
REMARK    6  A    between atoms: C10_12  and  C14_21 
REMARK       I    between atoms: N2_13  and  C11_15 
REMARK    7  A    between atoms: C11_15  and  C12_17 
ROOT
HETATM    1  C10 UNL     1      15.328 -27.224  36.641  1.00  0.00     0.113 C 
ENDROOT
BRANCH   1   2
HETATM    2  C9  UNL     1      15.473 -28.721  36.475  1.00  0.00     0.201 C 
BRANCH   2   3
HETATM    3  O1  UNL     1      16.842 -29.010  36.326  1.00  0.00    -0.347 OA
BRANCH   3   4
HETATM    4  C8  UNL     1      17.611 -29.550  37.348  1.00  0.00     0.093 A 
HETATM    5  C7  UNL     1      17.843 -30.901  37.373  1.00  0.00     0.079 A 
HETATM    6  C6  UNL     1      18.604 -31.457  38.379  1.00  0.00     0.030 A 
HETATM    7  N1  UNL     1      17.320 -31.785  36.379  1.00  0.00    -0.100 NA
HETATM    8  C5  UNL     1      19.146 -30.652  39.383  1.00  0.00     0.014 A 
HETATM    9  C4  UNL     1      18.920 -29.294  39.370  1.00  0.00    -0.028 A 
HETATM   10  C21 UNL     1      18.151 -28.773  38.342  1.00  0.00     0.050 A 
BRANCH   9  11
HETATM   11  C2  UNL     1      19.465 -28.418  40.395  1.00  0.00    -0.061 C 
HETATM   12  C1  UNL     1      19.903 -28.826  41.564  1.00  0.00     0.019 C 
HETATM   13  C3  UNL     1      19.540 -26.939  40.113  1.00  0.00     0.048 C 
ENDBRANCH   9  11
ENDBRANCH   3   4
ENDBRANCH   2   3
ENDBRANCH   1   2
BRANCH   1  14
HETATM   14  N2  UNL     1      16.029 -26.555  35.575  1.00  0.00    -0.349 N 
HETATM   15  C11 UNL     1      15.392 -25.949  34.463  1.00  0.00     0.290 C 
HETATM   16  O2  UNL     1      14.118 -26.020  34.440  1.00  0.00    -0.267 OA
ATOM     17  H2  UNL     1      17.047 -26.516  35.623  1.00  0.00     0.163 HD
BRANCH  15  18
HETATM   18  C12 UNL     1      16.130 -25.274  33.391  1.00  0.00     0.318 C 
HETATM   19  C13 UNL     1      15.597 -23.873  33.184  1.00  0.00     0.101 C 
HETATM   20  F1  UNL     1      15.991 -26.022  32.239  1.00  0.00    -0.196 F 
HETATM   21  F2  UNL     1      17.457 -25.164  33.757  1.00  0.00    -0.196 F 
ENDBRANCH  15  18
ENDBRANCH   1  14
BRANCH   1  22
HETATM   22  C14 UNL     1      15.744 -26.767  38.012  1.00  0.00     0.010 C 
HETATM   23  C15 UNL     1      14.749 -27.170  39.037  1.00  0.00     0.007 C 
HETATM   24  C16 UNL     1      15.273 -27.060  40.448  1.00  0.00     0.000 C 
HETATM   25  C17 UNL     1      16.072 -25.832  40.703  1.00  0.00     0.000 C 
HETATM   26  C18 UNL     1      15.384 -24.561  40.279  1.00  0.00     0.000 C 
HETATM   27  C19 UNL     1      15.147 -24.462  38.818  1.00  0.00     0.000 C 
HETATM   28  C20 UNL     1      16.049 -25.305  37.979  1.00  0.00     0.007 C 
ENDBRANCH   1  22
TORSDOF 7
ENDMDL
MODEL 5
REMARK VINA RESULT: -8.148412442      3.130      5.857
REMARK  7 active torsions:
REMARK  status: ('A' for Active; 'I' for Inactive)
REMARK    1  A    between atoms: C2_2  and  C4_4 
REMARK    2  A    between atoms: C8_9  and  O1_10 
REMARK    3  A    between atoms: O1_10  and  C9_11 
REMARK    4  A    between atoms: C9_11  and  C10_12 
REMARK    5  A    between atoms: C10_12  and  N2_13 
REMARK    6  A    between atoms: C10_12  and  C14_21 
REMARK       I    between atoms: N2_13  and  C11_15 
REMARK    7  A    between atoms: C11_15  and  C12_17 
ROOT
HETATM    1  C10 UNL     1      15.989 -26.345  36.751  1.00  0.00     0.113 C 
ENDROOT
BRANCH   1   2
HETATM    2  C9  UNL     1      15.468 -27.695  37.195  1.00  0.00     0.201 C 
BRANCH   2   3
HETATM    3  O1  UNL     1      15.852 -27.888  38.534  1.00  0.00    -0.347 OA
BRANCH   3   4
HETATM    4  C8  UNL     1      16.983 -28.608  38.896  1.00  0.00     0.093 A 
HETATM    5  C7  UNL     1      17.784 -28.140  39.906  1.00  0.00     0.079 A 
HETATM    6  C6  UNL     1      18.910 -28.840  40.279  1.00  0.00     0.030 A 
HETATM    7  N1  UNL     1      17.498 -26.929  40.609  1.00  0.00    -0.100 NA
HETATM    8  C5  UNL     1      19.250 -30.031  39.635  1.00  0.00     0.014 A 
HETATM    9  C4  UNL     1      18.455 -30.511  38.619  1.00  0.00    -0.028 A 
HETATM   10  C21 UNL     1      17.330 -29.780  38.273  1.00  0.00     0.050 A 
BRANCH   9  11
HETATM   11  C2  UNL     1      18.770 -31.748  37.920  1.00  0.00    -0.061 C 
HETATM   12  C1  UNL     1      18.922 -31.847  36.619  1.00  0.00     0.019 C 
HETATM   13  C3  UNL     1      18.936 -33.009  38.727  1.00  0.00     0.048 C 
ENDBRANCH   9  11
ENDBRANCH   3   4
ENDBRANCH   2   3
ENDBRANCH   1   2
BRANCH   1  14
HETATM   14  N2  UNL     1      15.274 -25.305  37.446  1.00  0.00    -0.349 N 
HETATM   15  C11 UNL     1      15.894 -24.319  38.253  1.00  0.00     0.290 C 
HETATM   16  O2  UNL     1      17.165 -24.388  38.345  1.00  0.00    -0.267 OA
ATOM     17  H2  UNL     1      14.259 -25.278  37.352  1.00  0.00     0.163 HD
BRANCH  15  18
HETATM   18  C12 UNL     1      15.143 -23.271  38.951  1.00  0.00     0.318 C 
HETATM   19  C13 UNL     1      13.886 -22.924  38.185  1.00  0.00     0.101 C 
HETATM   20  F1  UNL     1      15.961 -22.165  39.070  1.00  0.00    -0.196 F 
HETATM   21  F2  UNL     1      14.759 -23.742  40.191  1.00  0.00    -0.196 F 
ENDBRANCH  15  18
ENDBRANCH   1  14
BRANCH   1  22
HETATM   22  C14 UNL     1      15.959 -26.196  35.255  1.00  0.00     0.010 C 
HETATM   23  C15 UNL     1      16.634 -24.945  34.825  1.00  0.00     0.007 C 
HETATM   24  C16 UNL     1      16.948 -24.917  33.350  1.00  0.00     0.000 C 
HETATM   25  C17 UNL     1      15.857 -25.446  32.488  1.00  0.00     0.000 C 
HETATM   26  C18 UNL     1      14.510 -24.833  32.768  1.00  0.00     0.000 C 
HETATM   27  C19 UNL     1      13.985 -25.125  34.125  1.00  0.00     0.000 C 
HETATM   28  C20 UNL     1      14.555 -26.346  34.767  1.00  0.00     0.007 C 
ENDBRANCH   1  22
TORSDOF 7
ENDMDL
