MODEL 1
REMARK VINA RESULT: -7.337220499      0.000      0.000
REMARK  11 active torsions:
REMARK  status: ('A' for Active; 'I' for Inactive)
REMARK    1  A    between atoms: C2_2  and  C3_3 
REMARK    2  A    between atoms: C3_3  and  C4_4 
REMARK    3  A    between atoms: C4_4  and  C5_5 
REMARK    4  A    between atoms: C5_5  and  C6_6 
REMARK    5  A    between atoms: C6_6  and  C7_7 
REMARK    6  A    between atoms: C7_7  and  O1_8 
REMARK    7  A    between atoms: C7_7  and  C8_10 
REMARK    8  A    between atoms: C9_11  and  C10_12 
REMARK    9  A    between atoms: C15_18  and  C16_20 
REMARK   10  A    between atoms: C16_20  and  O2_21 
REMARK   11  A    between atoms: N1_23  and  O3_25 
ROOT
HETATM    1  C10 UNL     1      15.908 -27.501  35.608  1.00  0.00     0.003 C 
HETATM    2  C11 UNL     1      15.224 -26.442  35.228  1.00  0.00    -0.076 C 
HETATM    3  C12 UNL     1      14.214 -25.879  36.144  1.00  0.00     0.035 C 
HETATM    4  C13 UNL     1      13.325 -24.949  35.309  1.00  0.00     0.024 C 
HETATM    5  C14 UNL     1      14.202 -23.863  34.757  1.00  0.00     0.106 C 
HETATM    6 BR1  UNL     1      14.983 -22.918  36.259  1.00  0.00    -0.087 Br
HETATM    7  C15 UNL     1      15.277 -24.373  33.845  1.00  0.00     0.185 C 
HETATM    8  F1  UNL     1      16.465 -23.735  34.147  1.00  0.00    -0.232 F 
HETATM    9  C17 UNL     1      15.480 -25.854  33.916  1.00  0.00     0.087 C 
ENDROOT
BRANCH   1  10
HETATM   10  C9  UNL     1      15.674 -28.110  36.912  1.00  0.00    -0.001 C 
HETATM   11  C8  UNL     1      16.619 -28.027  37.823  1.00  0.00     0.004 C 
BRANCH  11  12
HETATM   12  C7  UNL     1      16.401 -28.639  39.156  1.00  0.00     0.141 C 
BRANCH  12  13
HETATM   13  C6  UNL     1      17.761 -28.950  39.744  1.00  0.00     0.036 C 
BRANCH  13  14
HETATM   14  C5  UNL     1      18.603 -29.558  38.653  1.00  0.00     0.003 C 
BRANCH  14  15
HETATM   15  C4  UNL     1      18.970 -30.993  38.948  1.00  0.00     0.000 C 
BRANCH  15  16
HETATM   16  C3  UNL     1      18.945 -31.851  37.705  1.00  0.00    -0.000 C 
BRANCH  16  17
HETATM   17  C2  UNL     1      18.332 -31.008  36.594  1.00  0.00    -0.005 C 
HETATM   18  C1  UNL     1      17.009 -31.633  36.232  1.00  0.00     0.005 C 
ENDBRANCH  16  17
ENDBRANCH  15  16
ENDBRANCH  14  15
ENDBRANCH  13  14
ENDBRANCH  12  13
BRANCH  12  19
HETATM   19  O1  UNL     1      15.708 -29.848  38.938  1.00  0.00    -0.392 OA
ATOM     20  H1  UNL     1      14.805 -29.652  38.718  1.00  0.00     0.210 HD
ENDBRANCH  12  19
ENDBRANCH  11  12
ENDBRANCH   1  10
BRANCH   7  21
HETATM   21  C16 UNL     1      14.966 -24.035  32.412  1.00  0.00     0.177 C 
HETATM   22  N1  UNL     1      13.880 -23.463  32.078  1.00  0.00    -0.248 N 
ATOM     23  H1  UNL     1      13.187 -23.219  32.786  1.00  0.00     0.196 HD
BRANCH  21  24
HETATM   24  O2  UNL     1      15.920 -24.377  31.480  1.00  0.00    -0.346 OA
ATOM     25  H2  UNL     1      16.145 -25.298  31.423  1.00  0.00     0.219 HD
ENDBRANCH  21  24
BRANCH  22  26
HETATM   26  O3  UNL     1      13.649 -23.179  30.756  1.00  0.00    -0.288 OA
ATOM     27  H3  UNL     1      13.356 -23.871  30.176  1.00  0.00     0.244 HD
ENDBRANCH  22  26
ENDBRANCH   7  21
TORSDOF 11
ENDMDL
MODEL 2
REMARK VINA RESULT: -7.198859329      1.713      1.968
REMARK  11 active torsions:
REMARK  status: ('A' for Active; 'I' for Inactive)
REMARK    1  A    between atoms: C2_2  and  C3_3 
REMARK    2  A    between atoms: C3_3  and  C4_4 
REMARK    3  A    between atoms: C4_4  and  C5_5 
REMARK    4  A    between atoms: C5_5  and  C6_6 
REMARK    5  A    between atoms: C6_6  and  C7_7 
REMARK    6  A    between atoms: C7_7  and  O1_8 
REMARK    7  A    between atoms: C7_7  and  C8_10 
REMARK    8  A    between atoms: C9_11  and  C10_12 
REMARK    9  A    between atoms: C15_18  and  C16_20 
REMARK   10  A    between atoms: C16_20  and  O2_21 
REMARK   11  A    between atoms: N1_23  and  O3_25 
ROOT
HETATM    1  C10 UNL     1      15.524 -27.254  35.724  1.00  0.00     0.003 C 
HETATM    2  C11 UNL     1      14.949 -26.184  35.216  1.00  0.00    -0.076 C 
HETATM    3  C12 UNL     1      15.107 -24.892  35.910  1.00  0.00     0.035 C 
HETATM    4  C13 UNL     1      14.037 -23.950  35.346  1.00  0.00     0.024 C 
HETATM    5  C14 UNL     1      14.299 -23.797  33.877  1.00  0.00     0.106 C 
HETATM    6 BR1  UNL     1      16.071 -23.039  33.672  1.00  0.00    -0.087 Br
HETATM    7  C15 UNL     1      14.191 -25.084  33.116  1.00  0.00     0.185 C 
HETATM    8  F1  UNL     1      15.246 -25.174  32.229  1.00  0.00    -0.232 F 
HETATM    9  C17 UNL     1      14.172 -26.302  33.985  1.00  0.00     0.087 C 
ENDROOT
BRANCH   1  10
HETATM   10  C9  UNL     1      16.305 -27.168  36.952  1.00  0.00    -0.001 C 
HETATM   11  C8  UNL     1      15.992 -27.960  37.954  1.00  0.00     0.004 C 
BRANCH  11  12
HETATM   12  C7  UNL     1      16.774 -27.889  39.212  1.00  0.00     0.141 C 
BRANCH  12  13
HETATM   13  C6  UNL     1      18.207 -28.252  38.880  1.00  0.00     0.036 C 
BRANCH  13  14
HETATM   14  C5  UNL     1      18.659 -29.286  39.877  1.00  0.00     0.003 C 
BRANCH  14  15
HETATM   15  C4  UNL     1      19.141 -30.552  39.207  1.00  0.00     0.000 C 
BRANCH  15  16
HETATM   16  C3  UNL     1      18.494 -30.760  37.858  1.00  0.00    -0.000 C 
BRANCH  16  17
HETATM   17  C2  UNL     1      18.897 -32.150  37.380  1.00  0.00    -0.005 C 
HETATM   18  C1  UNL     1      18.971 -33.038  38.595  1.00  0.00     0.005 C 
ENDBRANCH  16  17
ENDBRANCH  15  16
ENDBRANCH  14  15
ENDBRANCH  13  14
ENDBRANCH  12  13
BRANCH  12  19
HETATM   19  O1  UNL     1      16.242 -28.868  40.076  1.00  0.00    -0.392 OA
ATOM     20  H1  UNL     1      15.813 -28.437  40.806  1.00  0.00     0.210 HD
ENDBRANCH  12  19
ENDBRANCH  11  12
ENDBRANCH   1  10
BRANCH   7  21
HETATM   21  C16 UNL     1      12.936 -25.110  32.287  1.00  0.00     0.177 C 
HETATM   22  N1  UNL     1      12.177 -26.131  32.249  1.00  0.00    -0.248 N 
ATOM     23  H1  UNL     1      12.408 -26.965  32.788  1.00  0.00     0.196 HD
BRANCH  21  24
HETATM   24  O2  UNL     1      12.650 -23.970  31.571  1.00  0.00    -0.346 OA
ATOM     25  H2  UNL     1      13.085 -23.876  30.731  1.00  0.00     0.219 HD
ENDBRANCH  21  24
BRANCH  22  26
HETATM   26  O3  UNL     1      11.045 -26.098  31.474  1.00  0.00    -0.288 OA
ATOM     27  H3  UNL     1      10.469 -25.345  31.525  1.00  0.00     0.244 HD
ENDBRANCH  22  26
ENDBRANCH   7  21
TORSDOF 11
ENDMDL
MODEL 3
REMARK VINA RESULT: -7.038310615      1.499      1.975
REMARK  11 active torsions:
REMARK  status: ('A' for Active; 'I' for Inactive)
REMARK    1  A    between atoms: C2_2  and  C3_3 
REMARK    2  A    between atoms: C3_3  and  C4_4 
REMARK    3  A    between atoms: C4_4  and  C5_5 
REMARK    4  A    between atoms: C5_5  and  C6_6 
REMARK    5  A    between atoms: C6_6  and  C7_7 
REMARK    6  A    between atoms: C7_7  and  O1_8 
REMARK    7  A    between atoms: C7_7  and  C8_10 
REMARK    8  A    between atoms: C9_11  and  C10_12 
REMARK    9  A    between atoms: C15_18  and  C16_20 
REMARK   10  A    between atoms: C16_20  and  O2_21 
REMARK   11  A    between atoms: N1_23  and  O3_25 
ROOT
HETATM    1  C10 UNL     1      15.954 -26.364  35.017  1.00  0.00     0.003 C 
HETATM    2  C11 UNL     1      15.453 -25.162  34.823  1.00  0.00    -0.076 C 
HETATM    3  C12 UNL     1      14.822 -24.460  35.957  1.00  0.00     0.035 C 
HETATM    4  C13 UNL     1      13.997 -23.311  35.366  1.00  0.00     0.024 C 
HETATM    5  C14 UNL     1      14.945 -22.401  34.643  1.00  0.00     0.106 C 
HETATM    6 BR1  UNL     1      16.231 -21.743  35.936  1.00  0.00    -0.087 Br
HETATM    7  C15 UNL     1      15.650 -23.064  33.498  1.00  0.00     0.185 C 
HETATM    8  F1  UNL     1      16.986 -22.713  33.525  1.00  0.00    -0.232 F 
HETATM    9  C17 UNL     1      15.533 -24.556  33.496  1.00  0.00     0.087 C 
ENDROOT
BRANCH   1  10
HETATM   10  C9  UNL     1      15.889 -26.995  36.330  1.00  0.00    -0.001 C 
HETATM   11  C8  UNL     1      15.580 -28.271  36.399  1.00  0.00     0.004 C 
BRANCH  11  12
HETATM   12  C7  UNL     1      15.510 -28.933  37.724  1.00  0.00     0.141 C 
BRANCH  12  13
HETATM   13  C6  UNL     1      15.923 -30.378  37.536  1.00  0.00     0.036 C 
BRANCH  13  14
HETATM   14  C5  UNL     1      16.750 -30.457  36.280  1.00  0.00     0.003 C 
BRANCH  14  15
HETATM   15  C4  UNL     1      18.232 -30.393  36.568  1.00  0.00     0.000 C 
BRANCH  15  16
HETATM   16  C3  UNL     1      18.832 -31.766  36.754  1.00  0.00    -0.000 C 
BRANCH  16  17
HETATM   17  C2  UNL     1      19.240 -31.880  38.218  1.00  0.00    -0.005 C 
HETATM   18  C1  UNL     1      18.845 -33.255  38.690  1.00  0.00     0.005 C 
ENDBRANCH  16  17
ENDBRANCH  15  16
ENDBRANCH  14  15
ENDBRANCH  13  14
ENDBRANCH  12  13
BRANCH  12  19
HETATM   19  O1  UNL     1      14.159 -28.892  38.126  1.00  0.00    -0.392 OA
ATOM     20  H1  UNL     1      13.683 -28.302  37.553  1.00  0.00     0.210 HD
ENDBRANCH  12  19
ENDBRANCH  11  12
ENDBRANCH   1  10
BRANCH   7  21
HETATM   21  C16 UNL     1      15.109 -22.575  32.182  1.00  0.00     0.177 C 
HETATM   22  N1  UNL     1      14.458 -23.336  31.399  1.00  0.00    -0.248 N 
ATOM     23  H1  UNL     1      14.288 -24.310  31.650  1.00  0.00     0.196 HD
BRANCH  21  24
HETATM   24  O2  UNL     1      15.354 -21.256  31.871  1.00  0.00    -0.346 OA
ATOM     25  H2  UNL     1      15.038 -20.954  31.027  1.00  0.00     0.219 HD
ENDBRANCH  21  24
BRANCH  22  26
HETATM   26  O3  UNL     1      13.989 -22.835  30.211  1.00  0.00    -0.288 OA
ATOM     27  H3  UNL     1      13.378 -23.350  29.698  1.00  0.00     0.244 HD
ENDBRANCH  22  26
ENDBRANCH   7  21
TORSDOF 11
ENDMDL
MODEL 4
REMARK VINA RESULT: -7.022030043      2.394      3.261
REMARK  11 active torsions:
REMARK  status: ('A' for Active; 'I' for Inactive)
REMARK    1  A    between atoms: C2_2  and  C3_3 
REMARK    2  A    between atoms: C3_3  and  C4_4 
REMARK    3  A    between atoms: C4_4  and  C5_5 
REMARK    4  A    between atoms: C5_5  and  C6_6 
REMARK    5  A    between atoms: C6_6  and  C7_7 
REMARK    6  A    between atoms: C7_7  and  O1_8 
REMARK    7  A    between atoms: C7_7  and  C8_10 
REMARK    8  A    between atoms: C9_11  and  C10_12 
REMARK    9  A    between atoms: C15_18  and  C16_20 
REMARK   10  A    between atoms: C16_20  and  O2_21 
REMARK   11  A    between atoms: N1_23  and  O3_25 
ROOT
HETATM    1  C10 UNL     1      15.915 -26.215  35.936  1.00  0.00     0.003 C 
HETATM    2  C11 UNL     1      15.977 -25.419  34.889  1.00  0.00    -0.076 C 
HETATM    3  C12 UNL     1      15.711 -25.980  33.551  1.00  0.00     0.035 C 
HETATM    4  C13 UNL     1      16.237 -24.963  32.530  1.00  0.00     0.024 C 
HETATM    5  C14 UNL     1      15.473 -23.687  32.730  1.00  0.00     0.106 C 
HETATM    6 BR1  UNL     1      13.597 -24.072  32.427  1.00  0.00    -0.087 Br
HETATM    7  C15 UNL     1      15.669 -23.083  34.087  1.00  0.00     0.185 C 
HETATM    8  F1  UNL     1      14.447 -22.663  34.576  1.00  0.00    -0.232 F 
HETATM    9  C17 UNL     1      16.304 -24.008  35.077  1.00  0.00     0.087 C 
ENDROOT
BRANCH   1  10
HETATM   10  C9  UNL     1      15.591 -27.628  35.780  1.00  0.00    -0.001 C 
HETATM   11  C8  UNL     1      16.187 -28.500  36.563  1.00  0.00     0.004 C 
BRANCH  11  12
HETATM   12  C7  UNL     1      15.871 -29.942  36.422  1.00  0.00     0.141 C 
BRANCH  12  13
HETATM   13  C6  UNL     1      17.070 -30.612  35.785  1.00  0.00     0.036 C 
BRANCH  13  14
HETATM   14  C5  UNL     1      18.264 -30.345  36.664  1.00  0.00     0.003 C 
BRANCH  14  15
HETATM   15  C4  UNL     1      18.668 -31.562  37.463  1.00  0.00     0.000 C 
BRANCH  15  16
HETATM   16  C3  UNL     1      18.995 -31.215  38.896  1.00  0.00    -0.000 C 
BRANCH  16  17
HETATM   17  C2  UNL     1      18.659 -29.740  39.085  1.00  0.00    -0.005 C 
HETATM   18  C1  UNL     1      19.405 -29.261  40.303  1.00  0.00     0.005 C 
ENDBRANCH  16  17
ENDBRANCH  15  16
ENDBRANCH  14  15
ENDBRANCH  13  14
ENDBRANCH  12  13
BRANCH  12  19
HETATM   19  O1  UNL     1      14.774 -30.032  35.541  1.00  0.00    -0.392 OA
ATOM     20  H1  UNL     1      13.998 -29.704  35.979  1.00  0.00     0.210 HD
ENDBRANCH  12  19
ENDBRANCH  11  12
ENDBRANCH   1  10
BRANCH   7  21
HETATM   21  C16 UNL     1      16.537 -21.857  34.005  1.00  0.00     0.177 C 
HETATM   22  N1  UNL     1      17.287 -21.499  34.968  1.00  0.00    -0.248 N 
ATOM     23  H1  UNL     1      17.316 -22.046  35.828  1.00  0.00     0.196 HD
BRANCH  21  24
HETATM   24  O2  UNL     1      16.477 -21.140  32.831  1.00  0.00    -0.346 OA
ATOM     25  H2  UNL     1      16.948 -20.315  32.813  1.00  0.00     0.219 HD
ENDBRANCH  21  24
BRANCH  22  26
HETATM   26  O3  UNL     1      18.057 -20.371  34.837  1.00  0.00    -0.288 OA
ATOM     27  H3  UNL     1      18.482 -20.192  34.007  1.00  0.00     0.244 HD
ENDBRANCH  22  26
ENDBRANCH   7  21
TORSDOF 11
ENDMDL
MODEL 5
REMARK VINA RESULT: -6.922431623      5.043      6.537
REMARK  11 active torsions:
REMARK  status: ('A' for Active; 'I' for Inactive)
REMARK    1  A    between atoms: C2_2  and  C3_3 
REMARK    2  A    between atoms: C3_3  and  C4_4 
REMARK    3  A    between atoms: C4_4  and  C5_5 
REMARK    4  A    between atoms: C5_5  and  C6_6 
REMARK    5  A    between atoms: C6_6  and  C7_7 
REMARK    6  A    between atoms: C7_7  and  O1_8 
REMARK    7  A    between atoms: C7_7  and  C8_10 
REMARK    8  A    between atoms: C9_11  and  C10_12 
REMARK    9  A    between atoms: C15_18  and  C16_20 
REMARK   10  A    between atoms: C16_20  and  O2_21 
REMARK   11  A    between atoms: N1_23  and  O3_25 
ROOT
HETATM    1  C10 UNL     1      18.870 -30.486  38.839  1.00  0.00     0.003 C 
HETATM    2  C11 UNL     1      17.697 -30.447  38.245  1.00  0.00    -0.076 C 
HETATM    3  C12 UNL     1      16.653 -29.554  38.783  1.00  0.00     0.035 C 
HETATM    4  C13 UNL     1      15.322 -30.004  38.171  1.00  0.00     0.024 C 
HETATM    5  C14 UNL     1      15.434 -29.849  36.683  1.00  0.00     0.106 C 
HETATM    6 BR1  UNL     1      15.773 -27.977  36.312  1.00  0.00    -0.087 Br
HETATM    7  C15 UNL     1      16.504 -30.705  36.075  1.00  0.00     0.185 C 
HETATM    8  F1  UNL     1      17.211 -29.956  35.153  1.00  0.00    -0.232 F 
HETATM    9  C17 UNL     1      17.456 -31.285  37.073  1.00  0.00     0.087 C 
ENDROOT
BRANCH   1  10
HETATM   10  C9  UNL     1      19.140 -29.661  40.012  1.00  0.00    -0.001 C 
HETATM   11  C8  UNL     1      19.369 -28.379  39.838  1.00  0.00     0.004 C 
BRANCH  11  12
HETATM   12  C7  UNL     1      19.644 -27.521  41.017  1.00  0.00     0.141 C 
BRANCH  12  13
HETATM   13  C6  UNL     1      19.185 -28.275  42.247  1.00  0.00     0.036 C 
BRANCH  13  14
HETATM   14  C5  UNL     1      18.154 -27.427  42.945  1.00  0.00     0.003 C 
BRANCH  14  15
HETATM   15  C4  UNL     1      16.924 -28.219  43.322  1.00  0.00     0.000 C 
BRANCH  15  16
HETATM   16  C3  UNL     1      15.913 -28.264  42.201  1.00  0.00    -0.000 C 
BRANCH  16  17
HETATM   17  C2  UNL     1      15.439 -26.834  41.972  1.00  0.00    -0.005 C 
HETATM   18  C1  UNL     1      15.339 -26.626  40.483  1.00  0.00     0.005 C 
ENDBRANCH  16  17
ENDBRANCH  15  16
ENDBRANCH  14  15
ENDBRANCH  13  14
ENDBRANCH  12  13
BRANCH  12  19
HETATM   19  O1  UNL     1      18.855 -26.362  40.868  1.00  0.00    -0.392 OA
ATOM     20  H1  UNL     1      17.957 -26.568  41.099  1.00  0.00     0.210 HD
ENDBRANCH  12  19
ENDBRANCH  11  12
ENDBRANCH   1  10
BRANCH   7  21
HETATM   21  C16 UNL     1      15.901 -31.854  35.315  1.00  0.00     0.177 C 
HETATM   22  N1  UNL     1      16.115 -33.064  35.646  1.00  0.00    -0.248 N 
ATOM     23  H1  UNL     1      16.709 -33.282  36.446  1.00  0.00     0.196 HD
BRANCH  21  24
HETATM   24  O2  UNL     1      15.103 -31.529  34.242  1.00  0.00    -0.346 OA
ATOM     25  H2  UNL     1      15.329 -30.735  33.771  1.00  0.00     0.219 HD
ENDBRANCH  21  24
BRANCH  22  26
HETATM   26  O3  UNL     1      15.539 -34.072  34.916  1.00  0.00    -0.288 OA
ATOM     27  H3  UNL     1      15.348 -33.930  33.997  1.00  0.00     0.244 HD
ENDBRANCH  22  26
ENDBRANCH   7  21
TORSDOF 11
ENDMDL
