MODEL 1
REMARK VINA RESULT: -8.367271858      0.000      0.000
REMARK  8 active torsions:
REMARK  status: ('A' for Active; 'I' for Inactive)
REMARK    1  A    between atoms: C2_2  and  C4_4 
REMARK    2  A    between atoms: C6_6  and  C7_7 
REMARK    3  A    between atoms: C7_7  and  N1_10 
REMARK       I    between atoms: N1_10  and  C8_12 
REMARK       I    between atoms: C8_12  and  N2_14 
REMARK    4  A    between atoms: N2_14  and  C9_16 
REMARK    5  A    between atoms: N3_23  and  C16_24 
REMARK    6  A    between atoms: C16_24  and  C17_25 
REMARK    7  A    between atoms: C17_25  and  C18_26 
REMARK    8  A    between atoms: C18_26  and  O2_27 
ROOT
HETATM    1  C7  UNL     1      14.601 -25.519  35.368  1.00  0.00     0.369 C 
HETATM    2  F1  UNL     1      13.377 -25.934  35.758  1.00  0.00    -0.176 F 
HETATM    3  F2  UNL     1      15.122 -24.814  36.482  1.00  0.00    -0.176 F 
ENDROOT
BRANCH   1   4
HETATM    4  C6  UNL     1      14.649 -24.662  34.174  1.00  0.00     0.107 A 
HETATM    5  C5  UNL     1      15.609 -23.657  34.001  1.00  0.00     0.042 A 
HETATM    6  C4  UNL     1      15.411 -23.046  32.783  1.00  0.00    -0.037 A 
HETATM    7  C19 UNL     1      14.333 -23.688  32.229  1.00  0.00     0.098 A 
HETATM    8  N3  UNL     1      13.881 -24.662  33.079  1.00  0.00    -0.353 N 
BRANCH   6   9
HETATM    9  C2  UNL     1      16.230 -21.912  32.237  1.00  0.00     0.012 C 
HETATM   10  C1  UNL     1      16.659 -21.029  33.375  1.00  0.00     0.015 C 
HETATM   11  C3  UNL     1      15.285 -21.056  31.379  1.00  0.00     0.015 C 
ENDBRANCH   6   9
BRANCH   8  12
HETATM   12  C16 UNL     1      12.762 -25.536  32.808  1.00  0.00     0.130 C 
BRANCH  12  13
HETATM   13  C17 UNL     1      11.813 -24.996  31.768  1.00  0.00     0.046 C 
BRANCH  13  14
HETATM   14  C18 UNL     1      10.573 -25.857  31.645  1.00  0.00     0.165 C 
BRANCH  14  15
HETATM   15  O2  UNL     1      10.646 -26.806  30.656  1.00  0.00    -0.401 OA
ATOM     16  H2  UNL     1       9.874 -27.355  30.588  1.00  0.00     0.209 HD
ENDBRANCH  14  15
ENDBRANCH  13  14
ENDBRANCH  12  13
ENDBRANCH   8  12
ENDBRANCH   1   4
BRANCH   1  17
HETATM   17  N1  UNL     1      15.489 -26.666  35.254  1.00  0.00    -0.275 N 
HETATM   18  C8  UNL     1      15.759 -27.571  36.302  1.00  0.00     0.321 C 
HETATM   19  O1  UNL     1      15.202 -27.364  37.419  1.00  0.00    -0.247 OA
HETATM   20  N2  UNL     1      16.607 -28.704  36.214  1.00  0.00    -0.338 N 
ATOM     21  H2  UNL     1      17.072 -28.917  35.331  1.00  0.00     0.164 HD
ATOM     22  H1  UNL     1      15.947 -26.827  34.357  1.00  0.00     0.170 HD
BRANCH  20  23
HETATM   23  C9  UNL     1      16.824 -29.572  37.376  1.00  0.00     0.086 C 
HETATM   24  C10 UNL     1      16.398 -30.980  37.159  1.00  0.00     0.025 C 
HETATM   25  C11 UNL     1      17.335 -31.865  36.428  1.00  0.00     0.002 C 
HETATM   26  C12 UNL     1      18.765 -31.815  36.818  1.00  0.00     0.000 C 
HETATM   27  C13 UNL     1      19.029 -31.680  38.283  1.00  0.00     0.000 C 
HETATM   28  C14 UNL     1      18.605 -30.398  38.902  1.00  0.00     0.002 C 
HETATM   29  C15 UNL     1      18.210 -29.374  37.883  1.00  0.00     0.025 C 
ENDBRANCH  20  23
ENDBRANCH   1  17
TORSDOF 8
ENDMDL
MODEL 2
REMARK VINA RESULT: -7.919416318      2.679      8.691
REMARK  8 active torsions:
REMARK  status: ('A' for Active; 'I' for Inactive)
REMARK    1  A    between atoms: C2_2  and  C4_4 
REMARK    2  A    between atoms: C6_6  and  C7_7 
REMARK    3  A    between atoms: C7_7  and  N1_10 
REMARK       I    between atoms: N1_10  and  C8_12 
REMARK       I    between atoms: C8_12  and  N2_14 
REMARK    4  A    between atoms: N2_14  and  C9_16 
REMARK    5  A    between atoms: N3_23  and  C16_24 
REMARK    6  A    between atoms: C16_24  and  C17_25 
REMARK    7  A    between atoms: C17_25  and  C18_26 
REMARK    8  A    between atoms: C18_26  and  O2_27 
ROOT
HETATM    1  C7  UNL     1      15.098 -28.879  37.925  1.00  0.00     0.369 C 
HETATM    2  F1  UNL     1      14.453 -28.061  38.783  1.00  0.00    -0.176 F 
HETATM    3  F2  UNL     1      14.239 -29.997  37.769  1.00  0.00    -0.176 F 
ENDROOT
BRANCH   1   4
HETATM    4  C6  UNL     1      16.433 -29.336  38.338  1.00  0.00     0.107 A 
HETATM    5  C5  UNL     1      17.059 -30.456  37.777  1.00  0.00     0.042 A 
HETATM    6  C4  UNL     1      18.301 -30.616  38.349  1.00  0.00    -0.037 A 
HETATM    7  C19 UNL     1      18.416 -29.589  39.251  1.00  0.00     0.098 A 
HETATM    8  N3  UNL     1      17.282 -28.822  39.236  1.00  0.00    -0.353 N 
BRANCH   6   9
HETATM    9  C2  UNL     1      19.275 -31.710  38.020  1.00  0.00     0.012 C 
HETATM   10  C1  UNL     1      19.102 -32.098  36.578  1.00  0.00     0.015 C 
HETATM   11  C3  UNL     1      18.849 -32.941  38.835  1.00  0.00     0.015 C 
ENDBRANCH   6   9
BRANCH   8  12
HETATM   12  C16 UNL     1      17.066 -27.654  40.060  1.00  0.00     0.130 C 
BRANCH  12  13
HETATM   13  C17 UNL     1      16.851 -27.975  41.518  1.00  0.00     0.046 C 
BRANCH  13  14
HETATM   14  C18 UNL     1      15.487 -27.520  41.993  1.00  0.00     0.165 C 
BRANCH  14  15
HETATM   15  O2  UNL     1      14.771 -28.489  42.649  1.00  0.00    -0.401 OA
ATOM     16  H2  UNL     1      14.693 -29.306  42.169  1.00  0.00     0.209 HD
ENDBRANCH  14  15
ENDBRANCH  13  14
ENDBRANCH  12  13
ENDBRANCH   8  12
ENDBRANCH   1   4
BRANCH   1  17
HETATM   17  N1  UNL     1      15.110 -28.281  36.599  1.00  0.00    -0.275 N 
HETATM   18  C8  UNL     1      15.365 -26.917  36.344  1.00  0.00     0.321 C 
HETATM   19  O1  UNL     1      15.585 -26.162  37.335  1.00  0.00    -0.247 OA
HETATM   20  N2  UNL     1      15.398 -26.312  35.062  1.00  0.00    -0.338 N 
ATOM     21  H2  UNL     1      15.235 -26.881  34.231  1.00  0.00     0.164 HD
ATOM     22  H1  UNL     1      14.922 -28.887  35.800  1.00  0.00     0.170 HD
BRANCH  20  23
HETATM   23  C9  UNL     1      15.662 -24.876  34.916  1.00  0.00     0.086 C 
HETATM   24  C10 UNL     1      16.724 -24.562  33.924  1.00  0.00     0.025 C 
HETATM   25  C11 UNL     1      16.335 -24.549  32.495  1.00  0.00     0.002 C 
HETATM   26  C12 UNL     1      15.075 -23.853  32.138  1.00  0.00     0.000 C 
HETATM   27  C13 UNL     1      14.808 -22.583  32.881  1.00  0.00     0.000 C 
HETATM   28  C14 UNL     1      14.555 -22.727  34.337  1.00  0.00     0.002 C 
HETATM   29  C15 UNL     1      14.370 -24.155  34.748  1.00  0.00     0.025 C 
ENDBRANCH  20  23
ENDBRANCH   1  17
TORSDOF 8
ENDMDL
MODEL 3
REMARK VINA RESULT: -7.907973256      5.525      8.973
REMARK  8 active torsions:
REMARK  status: ('A' for Active; 'I' for Inactive)
REMARK    1  A    between atoms: C2_2  and  C4_4 
REMARK    2  A    between atoms: C6_6  and  C7_7 
REMARK    3  A    between atoms: C7_7  and  N1_10 
REMARK       I    between atoms: N1_10  and  C8_12 
REMARK       I    between atoms: C8_12  and  N2_14 
REMARK    4  A    between atoms: N2_14  and  C9_16 
REMARK    5  A    between atoms: N3_23  and  C16_24 
REMARK    6  A    between atoms: C16_24  and  C17_25 
REMARK    7  A    between atoms: C17_25  and  C18_26 
REMARK    8  A    between atoms: C18_26  and  O2_27 
ROOT
HETATM    1  C7  UNL     1      19.182 -27.882  40.658  1.00  0.00     0.369 C 
HETATM    2  F1  UNL     1      18.884 -26.565  40.638  1.00  0.00    -0.176 F 
HETATM    3  F2  UNL     1      20.588 -27.943  40.485  1.00  0.00    -0.176 F 
ENDROOT
BRANCH   1   4
HETATM    4  C6  UNL     1      18.522 -28.714  39.641  1.00  0.00     0.107 A 
HETATM    5  C5  UNL     1      18.924 -30.026  39.359  1.00  0.00     0.042 A 
HETATM    6  C4  UNL     1      18.106 -30.551  38.383  1.00  0.00    -0.037 A 
HETATM    7  C19 UNL     1      17.215 -29.551  38.085  1.00  0.00     0.098 A 
HETATM    8  N3  UNL     1      17.477 -28.447  38.851  1.00  0.00    -0.353 N 
BRANCH   6   9
HETATM    9  C2  UNL     1      18.222 -31.930  37.802  1.00  0.00     0.012 C 
HETATM   10  C1  UNL     1      19.078 -32.769  38.707  1.00  0.00     0.015 C 
HETATM   11  C3  UNL     1      19.014 -31.793  36.491  1.00  0.00     0.015 C 
ENDBRANCH   6   9
BRANCH   8  12
HETATM   12  C16 UNL     1      16.727 -27.212  38.798  1.00  0.00     0.130 C 
BRANCH  12  13
HETATM   13  C17 UNL     1      15.312 -27.344  39.305  1.00  0.00     0.046 C 
BRANCH  13  14
HETATM   14  C18 UNL     1      14.307 -27.269  38.174  1.00  0.00     0.165 C 
BRANCH  14  15
HETATM   15  O2  UNL     1      13.233 -28.110  38.323  1.00  0.00    -0.401 OA
ATOM     16  H2  UNL     1      13.154 -28.763  37.637  1.00  0.00     0.209 HD
ENDBRANCH  14  15
ENDBRANCH  13  14
ENDBRANCH  12  13
ENDBRANCH   8  12
ENDBRANCH   1   4
BRANCH   1  17
HETATM   17  N1  UNL     1      18.988 -28.403  42.003  1.00  0.00    -0.275 N 
HETATM   18  C8  UNL     1      17.836 -28.179  42.785  1.00  0.00     0.321 C 
HETATM   19  O1  UNL     1      16.916 -27.465  42.289  1.00  0.00    -0.247 OA
HETATM   20  N2  UNL     1      17.615 -28.686  44.090  1.00  0.00    -0.338 N 
ATOM     21  H2  UNL     1      18.324 -29.274  44.529  1.00  0.00     0.164 HD
ATOM     22  H1  UNL     1      19.734 -28.969  42.406  1.00  0.00     0.170 HD
BRANCH  20  23
HETATM   23  C9  UNL     1      16.379 -28.377  44.817  1.00  0.00     0.086 C 
HETATM   24  C10 UNL     1      15.740 -29.565  45.443  1.00  0.00     0.025 C 
HETATM   25  C11 UNL     1      16.289 -30.025  46.739  1.00  0.00     0.002 C 
HETATM   26  C12 UNL     1      16.570 -28.992  47.766  1.00  0.00     0.000 C 
HETATM   27  C13 UNL     1      15.570 -27.884  47.855  1.00  0.00     0.000 C 
HETATM   28  C14 UNL     1      15.494 -26.984  46.677  1.00  0.00     0.002 C 
HETATM   29  C15 UNL     1      16.617 -27.210  45.711  1.00  0.00     0.025 C 
ENDBRANCH  20  23
ENDBRANCH   1  17
TORSDOF 8
ENDMDL
MODEL 4
REMARK VINA RESULT: -7.802311982      2.676      8.037
REMARK  8 active torsions:
REMARK  status: ('A' for Active; 'I' for Inactive)
REMARK    1  A    between atoms: C2_2  and  C4_4 
REMARK    2  A    between atoms: C6_6  and  C7_7 
REMARK    3  A    between atoms: C7_7  and  N1_10 
REMARK       I    between atoms: N1_10  and  C8_12 
REMARK       I    between atoms: C8_12  and  N2_14 
REMARK    4  A    between atoms: N2_14  and  C9_16 
REMARK    5  A    between atoms: N3_23  and  C16_24 
REMARK    6  A    between atoms: C16_24  and  C17_25 
REMARK    7  A    between atoms: C17_25  and  C18_26 
REMARK    8  A    between atoms: C18_26  and  O2_27 
ROOT
HETATM    1  C7  UNL     1      15.063 -28.867  37.790  1.00  0.00     0.369 C 
HETATM    2  F1  UNL     1      14.291 -28.180  38.658  1.00  0.00    -0.176 F 
HETATM    3  F2  UNL     1      14.392 -30.102  37.600  1.00  0.00    -0.176 F 
ENDROOT
BRANCH   1   4
HETATM    4  C6  UNL     1      16.450 -29.119  38.210  1.00  0.00     0.107 A 
HETATM    5  C5  UNL     1      16.962 -28.678  39.437  1.00  0.00     0.042 A 
HETATM    6  C4  UNL     1      18.273 -29.083  39.552  1.00  0.00    -0.037 A 
HETATM    7  C19 UNL     1      18.542 -29.767  38.394  1.00  0.00     0.098 A 
HETATM    8  N3  UNL     1      17.433 -29.782  37.591  1.00  0.00    -0.353 N 
BRANCH   6   9
HETATM    9  C2  UNL     1      19.171 -28.796  40.721  1.00  0.00     0.012 C 
HETATM   10  C1  UNL     1      18.324 -28.425  41.906  1.00  0.00     0.015 C 
HETATM   11  C3  UNL     1      19.967 -27.530  40.367  1.00  0.00     0.015 C 
ENDBRANCH   6   9
BRANCH   8  12
HETATM   12  C16 UNL     1      17.363 -30.421  36.296  1.00  0.00     0.130 C 
BRANCH  12  13
HETATM   13  C17 UNL     1      16.899 -31.855  36.357  1.00  0.00     0.046 C 
BRANCH  13  14
HETATM   14  C18 UNL     1      15.763 -32.114  35.389  1.00  0.00     0.165 C 
BRANCH  14  15
HETATM   15  O2  UNL     1      15.485 -33.443  35.194  1.00  0.00    -0.401 OA
ATOM     16  H2  UNL     1      15.220 -33.903  35.982  1.00  0.00     0.209 HD
ENDBRANCH  14  15
ENDBRANCH  13  14
ENDBRANCH  12  13
ENDBRANCH   8  12
ENDBRANCH   1   4
BRANCH   1  17
HETATM   17  N1  UNL     1      14.993 -28.243  36.477  1.00  0.00    -0.275 N 
HETATM   18  C8  UNL     1      15.302 -26.891  36.222  1.00  0.00     0.321 C 
HETATM   19  O1  UNL     1      15.649 -26.169  37.201  1.00  0.00    -0.247 OA
HETATM   20  N2  UNL     1      15.255 -26.262  34.952  1.00  0.00    -0.338 N 
ATOM     21  H2  UNL     1      14.989 -26.805  34.130  1.00  0.00     0.164 HD
ATOM     22  H1  UNL     1      14.702 -28.822  35.690  1.00  0.00     0.170 HD
BRANCH  20  23
HETATM   23  C9  UNL     1      15.586 -24.840  34.806  1.00  0.00     0.086 C 
HETATM   24  C10 UNL     1      16.603 -24.568  33.755  1.00  0.00     0.025 C 
HETATM   25  C11 UNL     1      16.130 -24.516  32.352  1.00  0.00     0.002 C 
HETATM   26  C12 UNL     1      14.890 -23.750  32.078  1.00  0.00     0.000 C 
HETATM   27  C13 UNL     1      14.735 -22.478  32.849  1.00  0.00     0.000 C 
HETATM   28  C14 UNL     1      14.562 -22.628  34.317  1.00  0.00     0.002 C 
HETATM   29  C15 UNL     1      14.327 -24.051  34.723  1.00  0.00     0.025 C 
ENDBRANCH  20  23
ENDBRANCH   1  17
TORSDOF 8
ENDMDL
MODEL 5
REMARK VINA RESULT: -7.781012536      5.558      8.942
REMARK  8 active torsions:
REMARK  status: ('A' for Active; 'I' for Inactive)
REMARK    1  A    between atoms: C2_2  and  C4_4 
REMARK    2  A    between atoms: C6_6  and  C7_7 
REMARK    3  A    between atoms: C7_7  and  N1_10 
REMARK       I    between atoms: N1_10  and  C8_12 
REMARK       I    between atoms: C8_12  and  N2_14 
REMARK    4  A    between atoms: N2_14  and  C9_16 
REMARK    5  A    between atoms: N3_23  and  C16_24 
REMARK    6  A    between atoms: C16_24  and  C17_25 
REMARK    7  A    between atoms: C17_25  and  C18_26 
REMARK    8  A    between atoms: C18_26  and  O2_27 
ROOT
HETATM    1  C7  UNL     1      18.835 -28.158  40.391  1.00  0.00     0.369 C 
HETATM    2  F1  UNL     1      19.103 -26.837  40.328  1.00  0.00    -0.176 F 
HETATM    3  F2  UNL     1      20.044 -28.757  40.827  1.00  0.00    -0.176 F 
ENDROOT
BRANCH   1   4
HETATM    4  C6  UNL     1      18.391 -28.794  39.142  1.00  0.00     0.107 A 
HETATM    5  C5  UNL     1      18.871 -30.038  38.712  1.00  0.00     0.042 A 
HETATM    6  C4  UNL     1      18.256 -30.377  37.529  1.00  0.00    -0.037 A 
HETATM    7  C19 UNL     1      17.408 -29.334  37.252  1.00  0.00     0.098 A 
HETATM    8  N3  UNL     1      17.499 -28.384  38.234  1.00  0.00    -0.353 N 
BRANCH   6   9
HETATM    9  C2  UNL     1      18.510 -31.633  36.746  1.00  0.00     0.012 C 
HETATM   10  C1  UNL     1      17.191 -32.236  36.352  1.00  0.00     0.015 C 
HETATM   11  C3  UNL     1      19.153 -32.637  37.715  1.00  0.00     0.015 C 
ENDBRANCH   6   9
BRANCH   8  12
HETATM   12  C16 UNL     1      16.739 -27.155  38.262  1.00  0.00     0.130 C 
BRANCH  12  13
HETATM   13  C17 UNL     1      15.423 -27.276  38.989  1.00  0.00     0.046 C 
BRANCH  13  14
HETATM   14  C18 UNL     1      14.251 -27.228  38.030  1.00  0.00     0.165 C 
BRANCH  14  15
HETATM   15  O2  UNL     1      13.227 -28.082  38.353  1.00  0.00    -0.401 OA
ATOM     16  H2  UNL     1      13.508 -28.970  38.541  1.00  0.00     0.209 HD
ENDBRANCH  14  15
ENDBRANCH  13  14
ENDBRANCH  12  13
ENDBRANCH   8  12
ENDBRANCH   1   4
BRANCH   1  17
HETATM   17  N1  UNL     1      17.919 -28.416  41.492  1.00  0.00    -0.275 N 
HETATM   18  C8  UNL     1      18.143 -28.011  42.825  1.00  0.00     0.321 C 
HETATM   19  O1  UNL     1      19.217 -27.394  43.082  1.00  0.00    -0.247 OA
HETATM   20  N2  UNL     1      17.262 -28.236  43.912  1.00  0.00    -0.338 N 
ATOM     21  H2  UNL     1      16.379 -28.722  43.753  1.00  0.00     0.164 HD
ATOM     22  H1  UNL     1      17.058 -28.923  41.287  1.00  0.00     0.170 HD
BRANCH  20  23
HETATM   23  C9  UNL     1      17.604 -27.779  45.263  1.00  0.00     0.086 C 
HETATM   24  C10 UNL     1      16.983 -26.478  45.630  1.00  0.00     0.025 C 
HETATM   25  C11 UNL     1      15.574 -26.506  46.087  1.00  0.00     0.002 C 
HETATM   26  C12 UNL     1      15.196 -27.551  47.069  1.00  0.00     0.000 C 
HETATM   27  C13 UNL     1      16.213 -27.840  48.125  1.00  0.00     0.000 C 
HETATM   28  C14 UNL     1      17.480 -28.454  47.653  1.00  0.00     0.002 C 
HETATM   29  C15 UNL     1      17.403 -28.898  46.224  1.00  0.00     0.025 C 
ENDBRANCH  20  23
ENDBRANCH   1  17
TORSDOF 8
ENDMDL
