MODEL 1
REMARK VINA RESULT: -8.306963372      0.000      0.000
REMARK  8 active torsions:
REMARK  status: ('A' for Active; 'I' for Inactive)
REMARK    1  A    between atoms: C3_3  and  C4_4 
REMARK    2  A    between atoms: N2_6  and  O1_8 
REMARK    3  A    between atoms: C7_12  and  C8_13 
REMARK    4  A    between atoms: C8_13  and  C9_14 
REMARK    5  A    between atoms: C12_17  and  C13_18 
REMARK    6  A    between atoms: C13_18  and  C14_20 
REMARK    7  A    between atoms: C14_20  and  C15_21 
REMARK    8  A    between atoms: C15_21  and  C16_22 
ROOT
HETATM    1  C1  UNL     1      15.115 -27.421  42.186  1.00  0.00     0.050 C 
HETATM    2  C2  UNL     1      16.442 -27.708  42.792  1.00  0.00    -0.036 A 
HETATM    3  C3  UNL     1      16.550 -27.841  44.144  1.00  0.00     0.013 A 
HETATM    4  C5  UNL     1      17.763 -28.266  44.693  1.00  0.00     0.016 A 
HETATM    5  C6  UNL     1      18.790 -28.526  43.866  1.00  0.00     0.009 A 
HETATM    6  C7  UNL     1      18.712 -28.390  42.458  1.00  0.00    -0.045 A 
HETATM    7  C12 UNL     1      17.515 -27.971  41.942  1.00  0.00    -0.003 A 
ENDROOT
BRANCH   7   8
HETATM    8  C13 UNL     1      17.502 -27.501  40.555  1.00  0.00     0.035 C 
HETATM    9  N3  UNL     1      17.602 -26.060  40.499  1.00  0.00    -0.106 NA
BRANCH   8  10
HETATM   10  C14 UNL     1      16.609 -28.160  39.579  1.00  0.00     0.055 C 
BRANCH  10  11
HETATM   11  C15 UNL     1      17.026 -29.597  39.228  1.00  0.00     0.010 C 
BRANCH  11  12
HETATM   12  C16 UNL     1      18.400 -29.552  38.598  1.00  0.00    -0.014 C 
HETATM   13  C17 UNL     1      19.184 -30.819  38.890  1.00  0.00     0.010 C 
HETATM   14  C18 UNL     1      18.389 -32.041  38.396  1.00  0.00     0.079 C 
HETATM   15  C19 UNL     1      18.113 -31.879  36.952  1.00  0.00     0.243 C 
HETATM   16  F1  UNL     1      17.201 -32.876  36.521  1.00  0.00    -0.206 F 
HETATM   17  F2  UNL     1      19.271 -32.120  36.238  1.00  0.00    -0.206 F 
HETATM   18  C20 UNL     1      17.540 -30.574  36.504  1.00  0.00     0.079 C 
HETATM   19  C21 UNL     1      18.286 -29.411  37.110  1.00  0.00     0.010 C 
ENDBRANCH  11  12
ENDBRANCH  10  11
ENDBRANCH   8  10
ENDBRANCH   7   8
BRANCH   6  20
HETATM   20  C8  UNL     1      19.939 -28.713  41.747  1.00  0.00     0.044 C 
BRANCH  20  21
HETATM   21  C9  UNL     1      20.781 -27.566  41.258  1.00  0.00    -0.010 A 
HETATM   22  C10 UNL     1      20.977 -26.372  42.105  1.00  0.00     0.005 A 
HETATM   23  C11 UNL     1      22.129 -27.351  41.961  1.00  0.00     0.005 A 
ENDBRANCH  20  21
ENDBRANCH   6  20
BRANCH   3  24
HETATM   24  C4  UNL     1      15.507 -27.541  45.089  1.00  0.00     0.146 C 
HETATM   25  N1  UNL     1      15.403 -26.222  45.667  1.00  0.00    -0.080 NA
HETATM   26  N2  UNL     1      14.644 -28.378  45.461  1.00  0.00    -0.255 N 
ATOM     27  H2  UNL     1      14.713 -29.310  45.051  1.00  0.00     0.195 HD
BRANCH  26  28
HETATM   28  O1  UNL     1      13.623 -28.182  46.356  1.00  0.00    -0.288 OA
ATOM     29  H1  UNL     1      12.756 -27.838  46.176  1.00  0.00     0.244 HD
ENDBRANCH  26  28
ENDBRANCH   3  24
TORSDOF 8
ENDMDL
MODEL 2
REMARK VINA RESULT: -8.134581658      4.333      6.439
REMARK  8 active torsions:
REMARK  status: ('A' for Active; 'I' for Inactive)
REMARK    1  A    between atoms: C3_3  and  C4_4 
REMARK    2  A    between atoms: N2_6  and  O1_8 
REMARK    3  A    between atoms: C7_12  and  C8_13 
REMARK    4  A    between atoms: C8_13  and  C9_14 
REMARK    5  A    between atoms: C12_17  and  C13_18 
REMARK    6  A    between atoms: C13_18  and  C14_20 
REMARK    7  A    between atoms: C14_20  and  C15_21 
REMARK    8  A    between atoms: C15_21  and  C16_22 
ROOT
HETATM    1  C1  UNL     1      14.730 -26.663  35.568  1.00  0.00     0.050 C 
HETATM    2  C2  UNL     1      15.725 -26.115  36.527  1.00  0.00    -0.036 A 
HETATM    3  C3  UNL     1      16.486 -25.043  36.168  1.00  0.00     0.013 A 
HETATM    4  C5  UNL     1      17.304 -24.436  37.125  1.00  0.00     0.016 A 
HETATM    5  C6  UNL     1      17.316 -24.934  38.373  1.00  0.00     0.009 A 
HETATM    6  C7  UNL     1      16.543 -26.050  38.776  1.00  0.00    -0.045 A 
HETATM    7  C12 UNL     1      15.751 -26.630  37.822  1.00  0.00    -0.003 A 
ENDROOT
BRANCH   7   8
HETATM    8  C13 UNL     1      15.213 -27.962  38.106  1.00  0.00     0.035 C 
HETATM    9  N3  UNL     1      13.856 -27.877  38.596  1.00  0.00    -0.106 NA
BRANCH   8  10
HETATM   10  C14 UNL     1      16.094 -28.980  38.717  1.00  0.00     0.055 C 
BRANCH  10  11
HETATM   11  C15 UNL     1      16.556 -30.070  37.737  1.00  0.00     0.010 C 
BRANCH  11  12
HETATM   12  C16 UNL     1      18.025 -29.858  37.449  1.00  0.00    -0.014 C 
HETATM   13  C17 UNL     1      18.872 -30.101  38.685  1.00  0.00     0.010 C 
HETATM   14  C18 UNL     1      18.612 -31.521  39.216  1.00  0.00     0.079 C 
HETATM   15  C19 UNL     1      18.908 -32.494  38.141  1.00  0.00     0.243 C 
HETATM   16  F1  UNL     1      18.471 -33.787  38.528  1.00  0.00    -0.206 F 
HETATM   17  F2  UNL     1      20.277 -32.607  37.994  1.00  0.00    -0.206 F 
HETATM   18  C20 UNL     1      18.303 -32.239  36.799  1.00  0.00     0.079 C 
HETATM   19  C21 UNL     1      18.488 -30.802  36.380  1.00  0.00     0.010 C 
ENDBRANCH  11  12
ENDBRANCH  10  11
ENDBRANCH   8  10
ENDBRANCH   7   8
BRANCH   6  20
HETATM   20  C8  UNL     1      16.707 -26.433  40.169  1.00  0.00     0.044 C 
BRANCH  20  21
HETATM   21  C9  UNL     1      15.573 -26.128  41.111  1.00  0.00    -0.010 A 
HETATM   22  C10 UNL     1      15.175 -27.110  42.139  1.00  0.00     0.005 A 
HETATM   23  C11 UNL     1      15.945 -25.878  42.579  1.00  0.00     0.005 A 
ENDBRANCH  20  21
ENDBRANCH   6  20
BRANCH   3  24
HETATM   24  C4  UNL     1      16.555 -24.486  34.843  1.00  0.00     0.146 C 
HETATM   25  N1  UNL     1      15.714 -23.372  34.474  1.00  0.00    -0.080 NA
HETATM   26  N2  UNL     1      17.329 -24.916  33.948  1.00  0.00    -0.255 N 
ATOM     27  H2  UNL     1      17.928 -25.700  34.207  1.00  0.00     0.195 HD
BRANCH  26  28
HETATM   28  O1  UNL     1      17.458 -24.451  32.663  1.00  0.00    -0.288 OA
ATOM     29  H1  UNL     1      18.264 -24.284  32.188  1.00  0.00     0.244 HD
ENDBRANCH  26  28
ENDBRANCH   3  24
TORSDOF 8
ENDMDL
MODEL 3
REMARK VINA RESULT: -8.046659743      4.311      7.352
REMARK  8 active torsions:
REMARK  status: ('A' for Active; 'I' for Inactive)
REMARK    1  A    between atoms: C3_3  and  C4_4 
REMARK    2  A    between atoms: N2_6  and  O1_8 
REMARK    3  A    between atoms: C7_12  and  C8_13 
REMARK    4  A    between atoms: C8_13  and  C9_14 
REMARK    5  A    between atoms: C12_17  and  C13_18 
REMARK    6  A    between atoms: C13_18  and  C14_20 
REMARK    7  A    between atoms: C14_20  and  C15_21 
REMARK    8  A    between atoms: C15_21  and  C16_22 
ROOT
HETATM    1  C1  UNL     1      16.544 -25.645  37.936  1.00  0.00     0.050 C 
HETATM    2  C2  UNL     1      16.611 -27.078  37.544  1.00  0.00    -0.036 A 
HETATM    3  C3  UNL     1      16.074 -27.476  36.356  1.00  0.00     0.013 A 
HETATM    4  C5  UNL     1      16.278 -28.788  35.921  1.00  0.00     0.016 A 
HETATM    5  C6  UNL     1      16.998 -29.619  36.694  1.00  0.00     0.009 A 
HETATM    6  C7  UNL     1      17.563 -29.239  37.936  1.00  0.00    -0.045 A 
HETATM    7  C12 UNL     1      17.349 -27.950  38.343  1.00  0.00    -0.003 A 
ENDROOT
BRANCH   7   8
HETATM    8  C13 UNL     1      17.619 -27.628  39.746  1.00  0.00     0.035 C 
HETATM    9  N3  UNL     1      19.037 -27.671  40.021  1.00  0.00    -0.106 NA
BRANCH   8  10
HETATM   10  C14 UNL     1      16.707 -28.140  40.791  1.00  0.00     0.055 C 
BRANCH  10  11
HETATM   11  C15 UNL     1      17.378 -28.335  42.159  1.00  0.00     0.010 C 
BRANCH  11  12
HETATM   12  C16 UNL     1      16.733 -27.386  43.145  1.00  0.00    -0.014 C 
HETATM   13  C17 UNL     1      15.261 -27.704  43.335  1.00  0.00     0.010 C 
HETATM   14  C18 UNL     1      15.104 -29.165  43.792  1.00  0.00     0.079 C 
HETATM   15  C19 UNL     1      15.881 -29.361  45.036  1.00  0.00     0.243 C 
HETATM   16  F1  UNL     1      15.933 -30.742  45.357  1.00  0.00    -0.206 F 
HETATM   17  F2  UNL     1      15.208 -28.774  46.090  1.00  0.00    -0.206 F 
HETATM   18  C20 UNL     1      17.295 -28.882  45.046  1.00  0.00     0.079 C 
HETATM   19  C21 UNL     1      17.405 -27.487  44.481  1.00  0.00     0.010 C 
ENDBRANCH  11  12
ENDBRANCH  10  11
ENDBRANCH   8  10
ENDBRANCH   7   8
BRANCH   6  20
HETATM   20  C8  UNL     1      18.298 -30.291  38.618  1.00  0.00     0.044 C 
BRANCH  20  21
HETATM   21  C9  UNL     1      18.144 -31.695  38.097  1.00  0.00    -0.010 A 
HETATM   22  C10 UNL     1      19.276 -32.371  37.433  1.00  0.00     0.005 A 
HETATM   23  C11 UNL     1      18.910 -32.796  38.844  1.00  0.00     0.005 A 
ENDBRANCH  20  21
ENDBRANCH   6  20
BRANCH   3  24
HETATM   24  C4  UNL     1      15.259 -26.654  35.501  1.00  0.00     0.146 C 
HETATM   25  N1  UNL     1      15.864 -25.861  34.457  1.00  0.00    -0.080 NA
HETATM   26  N2  UNL     1      14.007 -26.575  35.601  1.00  0.00    -0.255 N 
ATOM     27  H2  UNL     1      13.576 -27.138  36.334  1.00  0.00     0.195 HD
BRANCH  26  28
HETATM   28  O1  UNL     1      13.155 -25.819  34.836  1.00  0.00    -0.288 OA
ATOM     29  H1  UNL     1      12.542 -26.126  34.178  1.00  0.00     0.244 HD
ENDBRANCH  26  28
ENDBRANCH   3  24
TORSDOF 8
ENDMDL
MODEL 4
REMARK VINA RESULT: -8.043566150      4.500      7.312
REMARK  8 active torsions:
REMARK  status: ('A' for Active; 'I' for Inactive)
REMARK    1  A    between atoms: C3_3  and  C4_4 
REMARK    2  A    between atoms: N2_6  and  O1_8 
REMARK    3  A    between atoms: C7_12  and  C8_13 
REMARK    4  A    between atoms: C8_13  and  C9_14 
REMARK    5  A    between atoms: C12_17  and  C13_18 
REMARK    6  A    between atoms: C13_18  and  C14_20 
REMARK    7  A    between atoms: C14_20  and  C15_21 
REMARK    8  A    between atoms: C15_21  and  C16_22 
ROOT
HETATM    1  C1  UNL     1      16.764 -25.821  38.452  1.00  0.00     0.050 C 
HETATM    2  C2  UNL     1      16.786 -27.231  37.981  1.00  0.00    -0.036 A 
HETATM    3  C3  UNL     1      16.105 -27.572  36.850  1.00  0.00     0.013 A 
HETATM    4  C5  UNL     1      16.258 -28.859  36.325  1.00  0.00     0.016 A 
HETATM    5  C6  UNL     1      17.071 -29.722  36.957  1.00  0.00     0.009 A 
HETATM    6  C7  UNL     1      17.786 -29.400  38.137  1.00  0.00    -0.045 A 
HETATM    7  C12 UNL     1      17.621 -28.136  38.634  1.00  0.00    -0.003 A 
ENDROOT
BRANCH   7   8
HETATM    8  C13 UNL     1      18.064 -27.884  40.008  1.00  0.00     0.035 C 
HETATM    9  N3  UNL     1      19.506 -27.842  40.085  1.00  0.00    -0.106 NA
BRANCH   8  10
HETATM   10  C14 UNL     1      17.341 -28.525  41.127  1.00  0.00     0.055 C 
BRANCH  10  11
HETATM   11  C15 UNL     1      17.251 -27.652  42.388  1.00  0.00     0.010 C 
BRANCH  11  12
HETATM   12  C16 UNL     1      15.791 -27.378  42.673  1.00  0.00    -0.014 C 
HETATM   13  C17 UNL     1      15.070 -28.634  43.125  1.00  0.00     0.010 C 
HETATM   14  C18 UNL     1      15.774 -29.214  44.364  1.00  0.00     0.079 C 
HETATM   15  C19 UNL     1      15.806 -28.181  45.422  1.00  0.00     0.243 C 
HETATM   16  F1  UNL     1      16.637 -28.611  46.489  1.00  0.00    -0.206 F 
HETATM   17  F2  UNL     1      14.547 -28.058  45.976  1.00  0.00    -0.206 F 
HETATM   18  C20 UNL     1      16.295 -26.822  45.041  1.00  0.00     0.079 C 
HETATM   19  C21 UNL     1      15.657 -26.351  43.757  1.00  0.00     0.010 C 
ENDBRANCH  11  12
ENDBRANCH  10  11
ENDBRANCH   8  10
ENDBRANCH   7   8
BRANCH   6  20
HETATM   20  C8  UNL     1      18.604 -30.479  38.666  1.00  0.00     0.044 C 
BRANCH  20  21
HETATM   21  C9  UNL     1      18.426 -31.846  38.061  1.00  0.00    -0.010 A 
HETATM   22  C10 UNL     1      19.602 -32.634  37.641  1.00  0.00     0.005 A 
HETATM   23  C11 UNL     1      18.878 -33.041  38.912  1.00  0.00     0.005 A 
ENDBRANCH  20  21
ENDBRANCH   6  20
BRANCH   3  24
HETATM   24  C4  UNL     1      15.188 -26.715  36.148  1.00  0.00     0.146 C 
HETATM   25  N1  UNL     1      15.630 -25.951  35.006  1.00  0.00    -0.080 NA
HETATM   26  N2  UNL     1      13.978 -26.581  36.469  1.00  0.00    -0.255 N 
ATOM     27  H2  UNL     1      13.661 -27.124  37.273  1.00  0.00     0.195 HD
BRANCH  26  28
HETATM   28  O1  UNL     1      13.037 -25.788  35.863  1.00  0.00    -0.288 OA
ATOM     29  H1  UNL     1      12.142 -25.635  36.144  1.00  0.00     0.244 HD
ENDBRANCH  26  28
ENDBRANCH   3  24
TORSDOF 8
ENDMDL
MODEL 5
REMARK VINA RESULT: -7.983183961      2.174      3.654
REMARK  8 active torsions:
REMARK  status: ('A' for Active; 'I' for Inactive)
REMARK    1  A    between atoms: C3_3  and  C4_4 
REMARK    2  A    between atoms: N2_6  and  O1_8 
REMARK    3  A    between atoms: C7_12  and  C8_13 
REMARK    4  A    between atoms: C8_13  and  C9_14 
REMARK    5  A    between atoms: C12_17  and  C13_18 
REMARK    6  A    between atoms: C13_18  and  C14_20 
REMARK    7  A    between atoms: C14_20  and  C15_21 
REMARK    8  A    between atoms: C15_21  and  C16_22 
ROOT
HETATM    1  C1  UNL     1      18.118 -28.445  43.191  1.00  0.00     0.050 C 
HETATM    2  C2  UNL     1      17.210 -27.845  42.178  1.00  0.00    -0.036 A 
HETATM    3  C3  UNL     1      15.869 -27.801  42.420  1.00  0.00     0.013 A 
HETATM    4  C5  UNL     1      15.042 -27.096  41.541  1.00  0.00     0.016 A 
HETATM    5  C6  UNL     1      15.597 -26.487  40.480  1.00  0.00     0.009 A 
HETATM    6  C7  UNL     1      16.984 -26.520  40.198  1.00  0.00    -0.045 A 
HETATM    7  C12 UNL     1      17.776 -27.217  41.071  1.00  0.00    -0.003 A 
ENDROOT
BRANCH   7   8
HETATM    8  C13 UNL     1      19.133 -27.553  40.634  1.00  0.00     0.035 C 
HETATM    9  N3  UNL     1      19.821 -26.381  40.142  1.00  0.00    -0.106 NA
BRANCH   8  10
HETATM   10  C14 UNL     1      19.367 -28.828  39.924  1.00  0.00     0.055 C 
BRANCH  10  11
HETATM   11  C15 UNL     1      18.581 -28.961  38.611  1.00  0.00     0.010 C 
BRANCH  11  12
HETATM   12  C16 UNL     1      17.819 -30.266  38.643  1.00  0.00    -0.014 C 
HETATM   13  C17 UNL     1      16.337 -30.036  38.878  1.00  0.00     0.010 C 
HETATM   14  C18 UNL     1      15.783 -29.099  37.790  1.00  0.00     0.079 C 
HETATM   15  C19 UNL     1      16.048 -29.699  36.464  1.00  0.00     0.243 C 
HETATM   16  F1  UNL     1      15.746 -28.761  35.443  1.00  0.00    -0.206 F 
HETATM   17  F2  UNL     1      15.174 -30.748  36.256  1.00  0.00    -0.206 F 
HETATM   18  C20 UNL     1      17.437 -30.174  36.190  1.00  0.00     0.079 C 
HETATM   19  C21 UNL     1      17.973 -30.992  37.340  1.00  0.00     0.010 C 
ENDBRANCH  11  12
ENDBRANCH  10  11
ENDBRANCH   8  10
ENDBRANCH   7   8
BRANCH   6  20
HETATM   20  C8  UNL     1      17.378 -25.802  38.996  1.00  0.00     0.044 C 
BRANCH  20  21
HETATM   21  C9  UNL     1      16.289 -25.402  38.038  1.00  0.00    -0.010 A 
HETATM   22  C10 UNL     1      16.502 -24.292  37.089  1.00  0.00     0.005 A 
HETATM   23  C11 UNL     1      16.527 -25.713  36.554  1.00  0.00     0.005 A 
ENDBRANCH  20  21
ENDBRANCH   6  20
BRANCH   3  24
HETATM   24  C4  UNL     1      15.204 -28.464  43.509  1.00  0.00     0.146 C 
HETATM   25  N1  UNL     1      14.989 -27.778  44.761  1.00  0.00    -0.080 NA
HETATM   26  N2  UNL     1      14.776 -29.646  43.445  1.00  0.00    -0.255 N 
ATOM     27  H2  UNL     1      14.921 -30.132  42.560  1.00  0.00     0.195 HD
BRANCH  26  28
HETATM   28  O1  UNL     1      14.136 -30.356  44.430  1.00  0.00    -0.288 OA
ATOM     29  H1  UNL     1      13.201 -30.497  44.526  1.00  0.00     0.244 HD
ENDBRANCH  26  28
ENDBRANCH   3  24
TORSDOF 8
ENDMDL
