MODEL 1
REMARK VINA RESULT: -6.962218102      0.000      0.000
REMARK  10 active torsions:
REMARK  status: ('A' for Active; 'I' for Inactive)
REMARK    1  A    between atoms: O1_2  and  C2_3 
REMARK    2  A    between atoms: C4_5  and  N1_6 
REMARK    3  A    between atoms: C6_11  and  N2_12 
REMARK    4  A    between atoms: C7_16  and  O2_17 
REMARK    5  A    between atoms: O2_17  and  C8_18 
REMARK    6  A    between atoms: C9_19  and  N3_20 
REMARK    7  A    between atoms: C11_26  and  N4_27 
REMARK    8  A    between atoms: C12_31  and  O4_32 
REMARK    9  A    between atoms: O4_32  and  C13_33 
REMARK   10  A    between atoms: C14_36  and  O6_37 
ROOT
HETATM    1  C2  UNL     1       5.245  -6.698  16.759  1.00  0.00     0.113 C 
HETATM    2  C3  UNL     1       6.596  -6.336  17.350  1.00  0.00     0.051 C 
HETATM    3  C4  UNL     1       4.358  -7.187  17.864  1.00  0.00     0.222 C 
HETATM    4  C5  UNL     1       2.987  -7.458  17.289  1.00  0.00     0.071 C 
HETATM    5  C6  UNL     1       3.046  -8.244  16.014  1.00  0.00     0.217 C 
HETATM    6  C7  UNL     1       4.407  -8.853  15.778  1.00  0.00     0.184 C 
HETATM    7  C14 UNL     1       5.522  -7.873  15.817  1.00  0.00     0.185 C 
ENDROOT
BRANCH   6   8
HETATM    8  O2  UNL     1       4.392  -9.590  14.621  1.00  0.00    -0.371 OA
BRANCH   8   9
HETATM    9  C8  UNL     1       4.028 -10.905  14.795  1.00  0.00     0.188 C 
HETATM   10  C9  UNL     1       5.002 -11.913  14.305  1.00  0.00     0.238 C 
HETATM   11  C10 UNL     1       4.498 -12.695  13.091  1.00  0.00     0.206 C 
HETATM   12  O3  UNL     1       3.286 -13.291  13.305  1.00  0.00    -0.355 OA
HETATM   13  C11 UNL     1       2.520 -12.729  14.292  1.00  0.00     0.351 C 
HETATM   14  C12 UNL     1       2.672 -11.224  14.200  1.00  0.00     0.220 C 
BRANCH  10  15
HETATM   15  N3  UNL     1       6.292 -11.389  13.948  1.00  0.00    -0.070 N 
ATOM     16  H33 UNL     1       6.279 -11.049  12.987  1.00  0.00     0.274 HD
ATOM     17  H32 UNL     1       6.466 -10.515  14.444  1.00  0.00     0.274 HD
ATOM     18  H31 UNL     1       7.072 -12.032  14.083  1.00  0.00     0.274 HD
ENDBRANCH  10  15
BRANCH  13  19
HETATM   19  N4  UNL     1       1.139 -13.140  14.103  1.00  0.00    -0.050 N 
ATOM     20  H43 UNL     1       1.047 -13.897  13.426  1.00  0.00     0.277 HD
ATOM     21  H42 UNL     1       0.764 -13.630  14.915  1.00  0.00     0.277 HD
ATOM     22  H41 UNL     1       0.584 -12.322  13.851  1.00  0.00     0.277 HD
ENDBRANCH  13  19
BRANCH  14  23
HETATM   23  O4  UNL     1       2.559 -10.861  12.855  1.00  0.00    -0.294 OA
BRANCH  23  24
HETATM   24  C13 UNL     1       1.782  -9.833  12.366  1.00  0.00     0.373 C 
HETATM   25  N5  UNL     1       0.500  -9.501  12.903  1.00  0.00    -0.032 NA
HETATM   26  O5  UNL     1       2.238  -9.166  11.401  1.00  0.00    -0.242 OA
ENDBRANCH  23  24
ENDBRANCH  14  23
ENDBRANCH   8   9
ENDBRANCH   6   8
BRANCH   5  27
HETATM   27  N2  UNL     1       2.549  -7.500  14.886  1.00  0.00    -0.072 N 
ATOM     28  H23 UNL     1       1.530  -7.459  14.895  1.00  0.00     0.274 HD
ATOM     29  H22 UNL     1       2.754  -6.506  14.982  1.00  0.00     0.274 HD
ATOM     30  H21 UNL     1       2.895  -7.862  13.997  1.00  0.00     0.274 HD
ENDBRANCH   5  27
BRANCH   7  31
HETATM   31  O6  UNL     1       5.822  -7.309  14.571  1.00  0.00    -0.390 OA
ATOM     32  H6  UNL     1       6.033  -8.036  13.998  1.00  0.00     0.210 HD
ENDBRANCH   7  31
BRANCH   1  33
HETATM   33  O1  UNL     1       4.688  -5.710  16.025  1.00  0.00    -0.381 OA
HETATM   34  C1  UNL     1       4.988  -4.416  16.254  1.00  0.00     0.202 C 
ENDBRANCH   1  33
BRANCH   3  35
HETATM   35  N1  UNL     1       4.257  -6.196  18.889  1.00  0.00    -0.072 N 
ATOM     36  H13 UNL     1       4.899  -5.419  18.733  1.00  0.00     0.274 HD
ATOM     37  H12 UNL     1       3.380  -5.678  18.834  1.00  0.00     0.274 HD
ATOM     38  H11 UNL     1       4.391  -6.623  19.805  1.00  0.00     0.274 HD
ENDBRANCH   3  35
TORSDOF 10
ENDMDL
MODEL 2
REMARK VINA RESULT: -6.532743116      4.605      8.151
REMARK  10 active torsions:
REMARK  status: ('A' for Active; 'I' for Inactive)
REMARK    1  A    between atoms: O1_2  and  C2_3 
REMARK    2  A    between atoms: C4_5  and  N1_6 
REMARK    3  A    between atoms: C6_11  and  N2_12 
REMARK    4  A    between atoms: C7_16  and  O2_17 
REMARK    5  A    between atoms: O2_17  and  C8_18 
REMARK    6  A    between atoms: C9_19  and  N3_20 
REMARK    7  A    between atoms: C11_26  and  N4_27 
REMARK    8  A    between atoms: C12_31  and  O4_32 
REMARK    9  A    between atoms: O4_32  and  C13_33 
REMARK   10  A    between atoms: C14_36  and  O6_37 
ROOT
HETATM    1  C2  UNL     1       4.610  -6.436  17.373  1.00  0.00     0.113 C 
HETATM    2  C3  UNL     1       5.262  -7.580  18.129  1.00  0.00     0.051 C 
HETATM    3  C4  UNL     1       5.483  -5.224  17.498  1.00  0.00     0.222 C 
HETATM    4  C5  UNL     1       4.880  -4.115  16.669  1.00  0.00     0.071 C 
HETATM    5  C6  UNL     1       3.406  -3.965  16.898  1.00  0.00     0.217 C 
HETATM    6  C7  UNL     1       2.935  -4.719  18.119  1.00  0.00     0.184 C 
HETATM    7  C14 UNL     1       3.301  -6.158  18.118  1.00  0.00     0.185 C 
ENDROOT
BRANCH   6   8
HETATM    8  O2  UNL     1       1.591  -4.516  18.301  1.00  0.00    -0.371 OA
BRANCH   8   9
HETATM    9  C8  UNL     1       1.288  -3.468  19.140  1.00  0.00     0.188 C 
HETATM   10  C9  UNL     1       0.388  -3.792  20.275  1.00  0.00     0.238 C 
HETATM   11  C10 UNL     1      -0.990  -3.140  20.155  1.00  0.00     0.206 C 
HETATM   12  O3  UNL     1      -0.926  -1.784  19.989  1.00  0.00    -0.355 OA
HETATM   13  C11 UNL     1       0.252  -1.308  19.477  1.00  0.00     0.351 C 
HETATM   14  C12 UNL     1       0.717  -2.273  18.405  1.00  0.00     0.220 C 
BRANCH  10  15
HETATM   15  N3  UNL     1       0.159  -5.195  20.489  1.00  0.00    -0.070 N 
ATOM     16  H33 UNL     1      -0.839  -5.399  20.443  1.00  0.00     0.274 HD
ATOM     17  H32 UNL     1       0.489  -5.731  19.687  1.00  0.00     0.274 HD
ATOM     18  H31 UNL     1       0.555  -5.570  21.351  1.00  0.00     0.274 HD
ENDBRANCH  10  15
BRANCH  13  19
HETATM   19  N4  UNL     1       0.024   0.022  18.938  1.00  0.00    -0.050 N 
ATOM     20  H43 UNL     1      -0.876   0.102  18.465  1.00  0.00     0.277 HD
ATOM     21  H42 UNL     1      -0.137   0.716  19.668  1.00  0.00     0.277 HD
ATOM     22  H41 UNL     1       0.806   0.269  18.331  1.00  0.00     0.277 HD
ENDBRANCH  13  19
BRANCH  14  23
HETATM   23  O4  UNL     1      -0.383  -2.590  17.603  1.00  0.00    -0.294 OA
BRANCH  23  24
HETATM   24  C13 UNL     1      -0.529  -2.254  16.275  1.00  0.00     0.373 C 
HETATM   25  N5  UNL     1       0.562  -2.230  15.352  1.00  0.00    -0.032 NA
HETATM   26  O5  UNL     1      -1.684  -1.958  15.872  1.00  0.00    -0.242 OA
ENDBRANCH  23  24
ENDBRANCH  14  23
ENDBRANCH   8   9
ENDBRANCH   6   8
BRANCH   5  27
HETATM   27  N2  UNL     1       2.634  -4.251  15.717  1.00  0.00    -0.072 N 
ATOM     28  H23 UNL     1       1.634  -4.197  15.911  1.00  0.00     0.274 HD
ATOM     29  H22 UNL     1       2.710  -3.495  15.037  1.00  0.00     0.274 HD
ATOM     30  H21 UNL     1       2.879  -5.148  15.298  1.00  0.00     0.274 HD
ENDBRANCH   5  27
BRANCH   7  31
HETATM   31  O6  UNL     1       2.337  -6.985  17.529  1.00  0.00    -0.390 OA
ATOM     32  H6  UNL     1       1.755  -7.251  18.231  1.00  0.00     0.210 HD
ENDBRANCH   7  31
BRANCH   1  33
HETATM   33  O1  UNL     1       4.295  -6.736  16.094  1.00  0.00    -0.381 OA
HETATM   34  C1  UNL     1       4.792  -7.836  15.492  1.00  0.00     0.202 C 
ENDBRANCH   1  33
BRANCH   3  35
HETATM   35  N1  UNL     1       6.798  -5.514  17.021  1.00  0.00    -0.072 N 
ATOM     36  H13 UNL     1       7.462  -5.644  17.784  1.00  0.00     0.274 HD
ATOM     37  H12 UNL     1       6.859  -6.445  16.610  1.00  0.00     0.274 HD
ATOM     38  H11 UNL     1       7.103  -4.789  16.370  1.00  0.00     0.274 HD
ENDBRANCH   3  35
TORSDOF 10
ENDMDL
MODEL 3
REMARK VINA RESULT: -5.990420859      2.119      6.509
REMARK  10 active torsions:
REMARK  status: ('A' for Active; 'I' for Inactive)
REMARK    1  A    between atoms: O1_2  and  C2_3 
REMARK    2  A    between atoms: C4_5  and  N1_6 
REMARK    3  A    between atoms: C6_11  and  N2_12 
REMARK    4  A    between atoms: C7_16  and  O2_17 
REMARK    5  A    between atoms: O2_17  and  C8_18 
REMARK    6  A    between atoms: C9_19  and  N3_20 
REMARK    7  A    between atoms: C11_26  and  N4_27 
REMARK    8  A    between atoms: C12_31  and  O4_32 
REMARK    9  A    between atoms: O4_32  and  C13_33 
REMARK   10  A    between atoms: C14_36  and  O6_37 
ROOT
HETATM    1  C2  UNL     1       3.495 -10.976  13.887  1.00  0.00     0.113 C 
HETATM    2  C3  UNL     1       4.467 -11.866  13.133  1.00  0.00     0.051 C 
HETATM    3  C4  UNL     1       2.722 -10.165  12.891  1.00  0.00     0.222 C 
HETATM    4  C5  UNL     1       1.693  -9.348  13.638  1.00  0.00     0.071 C 
HETATM    5  C6  UNL     1       2.270  -8.656  14.835  1.00  0.00     0.217 C 
HETATM    6  C7  UNL     1       3.780  -8.666  14.832  1.00  0.00     0.184 C 
HETATM    7  C14 UNL     1       4.375 -10.020  14.699  1.00  0.00     0.185 C 
ENDROOT
BRANCH   6   8
HETATM    8  O2  UNL     1       4.252  -7.988  15.926  1.00  0.00    -0.371 OA
BRANCH   8   9
HETATM    9  C8  UNL     1       4.451  -6.643  15.714  1.00  0.00     0.188 C 
HETATM   10  C9  UNL     1       5.832  -6.151  15.952  1.00  0.00     0.238 C 
HETATM   11  C10 UNL     1       5.940  -5.231  17.169  1.00  0.00     0.206 C 
HETATM   12  O3  UNL     1       5.076  -4.172  17.115  1.00  0.00    -0.355 OA
HETATM   13  C11 UNL     1       3.975  -4.349  16.319  1.00  0.00     0.351 C 
HETATM   14  C12 UNL     1       3.493  -5.774  16.501  1.00  0.00     0.220 C 
BRANCH  10  15
HETATM   15  N3  UNL     1       6.822  -7.178  16.127  1.00  0.00    -0.070 N 
ATOM     16  H33 UNL     1       6.607  -7.978  15.531  1.00  0.00     0.274 HD
ATOM     17  H32 UNL     1       7.709  -6.884  15.719  1.00  0.00     0.274 HD
ATOM     18  H31 UNL     1       6.960  -7.484  17.090  1.00  0.00     0.274 HD
ENDBRANCH  10  15
BRANCH  13  19
HETATM   19  N4  UNL     1       2.959  -3.386  16.704  1.00  0.00    -0.050 N 
ATOM     20  H43 UNL     1       3.355  -2.554  17.142  1.00  0.00     0.277 HD
ATOM     21  H42 UNL     1       2.528  -2.930  15.900  1.00  0.00     0.277 HD
ATOM     22  H41 UNL     1       2.274  -3.851  17.300  1.00  0.00     0.277 HD
ENDBRANCH  13  19
BRANCH  14  23
HETATM   23  O4  UNL     1       3.489  -6.055  17.870  1.00  0.00    -0.294 OA
BRANCH  23  24
HETATM   24  C13 UNL     1       2.368  -6.297  18.635  1.00  0.00     0.373 C 
HETATM   25  N5  UNL     1       1.850  -7.609  18.866  1.00  0.00    -0.032 NA
HETATM   26  O5  UNL     1       1.786  -5.305  19.146  1.00  0.00    -0.242 OA
ENDBRANCH  23  24
ENDBRANCH  14  23
ENDBRANCH   8   9
ENDBRANCH   6   8
BRANCH   5  27
HETATM   27  N2  UNL     1       1.698  -9.124  16.070  1.00  0.00    -0.072 N 
ATOM     28  H23 UNL     1       0.977  -9.825  15.898  1.00  0.00     0.274 HD
ATOM     29  H22 UNL     1       2.363  -9.698  16.588  1.00  0.00     0.274 HD
ATOM     30  H21 UNL     1       1.341  -8.363  16.649  1.00  0.00     0.274 HD
ENDBRANCH   5  27
BRANCH   7  31
HETATM   31  O6  UNL     1       4.611 -10.655  15.923  1.00  0.00    -0.390 OA
ATOM     32  H6  UNL     1       3.770 -10.991  16.212  1.00  0.00     0.210 HD
ENDBRANCH   7  31
BRANCH   1  33
HETATM   33  O1  UNL     1       2.706 -11.642  14.759  1.00  0.00    -0.381 OA
HETATM   34  C1  UNL     1       2.470 -12.962  14.618  1.00  0.00     0.202 C 
ENDBRANCH   1  33
BRANCH   3  35
HETATM   35  N1  UNL     1       2.063 -11.026  11.961  1.00  0.00    -0.072 N 
ATOM     36  H13 UNL     1       1.695 -10.513  11.160  1.00  0.00     0.274 HD
ATOM     37  H12 UNL     1       2.721 -11.626  11.464  1.00  0.00     0.274 HD
ATOM     38  H11 UNL     1       1.337 -11.565  12.434  1.00  0.00     0.274 HD
ENDBRANCH   3  35
TORSDOF 10
ENDMDL
MODEL 4
REMARK VINA RESULT: -5.982652183      8.669     11.533
REMARK  10 active torsions:
REMARK  status: ('A' for Active; 'I' for Inactive)
REMARK    1  A    between atoms: O1_2  and  C2_3 
REMARK    2  A    between atoms: C4_5  and  N1_6 
REMARK    3  A    between atoms: C6_11  and  N2_12 
REMARK    4  A    between atoms: C7_16  and  O2_17 
REMARK    5  A    between atoms: O2_17  and  C8_18 
REMARK    6  A    between atoms: C9_19  and  N3_20 
REMARK    7  A    between atoms: C11_26  and  N4_27 
REMARK    8  A    between atoms: C12_31  and  O4_32 
REMARK    9  A    between atoms: O4_32  and  C13_33 
REMARK   10  A    between atoms: C14_36  and  O6_37 
ROOT
HETATM    1  C2  UNL     1      -0.807  -1.578  24.255  1.00  0.00     0.113 C 
HETATM    2  C3  UNL     1      -0.825  -2.804  25.151  1.00  0.00     0.051 C 
HETATM    3  C4  UNL     1      -2.218  -1.259  23.858  1.00  0.00     0.222 C 
HETATM    4  C5  UNL     1      -2.206   0.013  23.043  1.00  0.00     0.071 C 
HETATM    5  C6  UNL     1      -1.146   0.006  21.984  1.00  0.00     0.217 C 
HETATM    6  C7  UNL     1      -0.565  -1.371  21.763  1.00  0.00     0.184 C 
HETATM    7  C14 UNL     1      -0.047  -2.012  22.999  1.00  0.00     0.185 C 
ENDROOT
BRANCH   6   8
HETATM    8  O2  UNL     1       0.369  -1.325  20.761  1.00  0.00    -0.371 OA
BRANCH   8   9
HETATM    9  C8  UNL     1       0.024  -2.038  19.635  1.00  0.00     0.188 C 
HETATM   10  C9  UNL     1       1.144  -2.712  18.931  1.00  0.00     0.238 C 
HETATM   11  C10 UNL     1       1.447  -2.101  17.562  1.00  0.00     0.206 C 
HETATM   12  O3  UNL     1       0.350  -2.053  16.745  1.00  0.00    -0.355 OA
HETATM   13  C11 UNL     1      -0.861  -2.070  17.384  1.00  0.00     0.351 C 
HETATM   14  C12 UNL     1      -0.745  -1.210  18.627  1.00  0.00     0.220 C 
BRANCH  10  15
HETATM   15  N3  UNL     1       2.388  -2.737  19.651  1.00  0.00    -0.070 N 
ATOM     16  H33 UNL     1       3.139  -2.370  19.067  1.00  0.00     0.274 HD
ATOM     17  H32 UNL     1       2.379  -2.037  20.393  1.00  0.00     0.274 HD
ATOM     18  H31 UNL     1       2.649  -3.648  20.029  1.00  0.00     0.274 HD
ENDBRANCH  10  15
BRANCH  13  19
HETATM   19  N4  UNL     1      -1.876  -1.563  16.476  1.00  0.00    -0.050 N 
ATOM     20  H43 UNL     1      -2.227  -2.282  15.843  1.00  0.00     0.277 HD
ATOM     21  H42 UNL     1      -2.753  -1.352  16.951  1.00  0.00     0.277 HD
ATOM     22  H41 UNL     1      -1.498  -0.757  15.978  1.00  0.00     0.277 HD
ENDBRANCH  13  19
BRANCH  14  23
HETATM   23  O4  UNL     1      -0.093  -0.026  18.272  1.00  0.00    -0.294 OA
BRANCH  23  24
HETATM   24  C13 UNL     1      -0.617   1.243  18.390  1.00  0.00     0.373 C 
HETATM   25  N5  UNL     1      -0.097   2.220  19.294  1.00  0.00    -0.032 NA
HETATM   26  O5  UNL     1      -1.599   1.538  17.661  1.00  0.00    -0.242 OA
ENDBRANCH  23  24
ENDBRANCH  14  23
ENDBRANCH   8   9
ENDBRANCH   6   8
BRANCH   5  27
HETATM   27  N2  UNL     1      -0.148   1.020  22.197  1.00  0.00    -0.072 N 
ATOM     28  H23 UNL     1      -0.298   1.819  21.580  1.00  0.00     0.274 HD
ATOM     29  H22 UNL     1      -0.279   1.482  23.097  1.00  0.00     0.274 HD
ATOM     30  H21 UNL     1       0.802   0.659  22.106  1.00  0.00     0.274 HD
ENDBRANCH   5  27
BRANCH   7  31
HETATM   31  O6  UNL     1       1.304  -1.742  23.250  1.00  0.00    -0.390 OA
ATOM     32  H6  UNL     1       1.686  -1.511  22.412  1.00  0.00     0.210 HD
ENDBRANCH   7  31
BRANCH   1  33
HETATM   33  O1  UNL     1      -0.151  -0.523  24.785  1.00  0.00    -0.381 OA
HETATM   34  C1  UNL     1       0.130  -0.465  26.103  1.00  0.00     0.202 C 
ENDBRANCH   1  33
BRANCH   3  35
HETATM   35  N1  UNL     1      -3.026  -1.072  25.022  1.00  0.00    -0.072 N 
ATOM     36  H13 UNL     1      -3.827  -0.469  24.837  1.00  0.00     0.274 HD
ATOM     37  H12 UNL     1      -3.532  -1.920  25.275  1.00  0.00     0.274 HD
ATOM     38  H11 UNL     1      -2.456  -0.723  25.793  1.00  0.00     0.274 HD
ENDBRANCH   3  35
TORSDOF 10
ENDMDL
MODEL 5
REMARK VINA RESULT: -5.978075788      2.290      3.450
REMARK  10 active torsions:
REMARK  status: ('A' for Active; 'I' for Inactive)
REMARK    1  A    between atoms: O1_2  and  C2_3 
REMARK    2  A    between atoms: C4_5  and  N1_6 
REMARK    3  A    between atoms: C6_11  and  N2_12 
REMARK    4  A    between atoms: C7_16  and  O2_17 
REMARK    5  A    between atoms: O2_17  and  C8_18 
REMARK    6  A    between atoms: C9_19  and  N3_20 
REMARK    7  A    between atoms: C11_26  and  N4_27 
REMARK    8  A    between atoms: C12_31  and  O4_32 
REMARK    9  A    between atoms: O4_32  and  C13_33 
REMARK   10  A    between atoms: C14_36  and  O6_37 
ROOT
HETATM    1  C2  UNL     1       4.473  -5.515  16.837  1.00  0.00     0.113 C 
HETATM    2  C3  UNL     1       4.708  -4.147  16.219  1.00  0.00     0.051 C 
HETATM    3  C4  UNL     1       5.750  -6.297  16.760  1.00  0.00     0.222 C 
HETATM    4  C5  UNL     1       5.539  -7.621  17.456  1.00  0.00     0.071 C 
HETATM    5  C6  UNL     1       4.262  -8.288  17.045  1.00  0.00     0.217 C 
HETATM    6  C7  UNL     1       3.656  -7.658  15.813  1.00  0.00     0.184 C 
HETATM    7  C14 UNL     1       3.445  -6.193  15.927  1.00  0.00     0.185 C 
ENDROOT
BRANCH   6   8
HETATM    8  O2  UNL     1       2.514  -8.331  15.461  1.00  0.00    -0.371 OA
BRANCH   8   9
HETATM    9  C8  UNL     1       2.731  -9.433  14.666  1.00  0.00     0.188 C 
HETATM   10  C9  UNL     1       1.962  -9.474  13.397  1.00  0.00     0.238 C 
HETATM   11  C10 UNL     1       0.899 -10.574  13.374  1.00  0.00     0.206 C 
HETATM   12  O3  UNL     1       1.410 -11.814  13.643  1.00  0.00    -0.355 OA
HETATM   13  C11 UNL     1       2.586 -11.827  14.345  1.00  0.00     0.351 C 
HETATM   14  C12 UNL     1       2.511 -10.740  15.399  1.00  0.00     0.220 C 
BRANCH  10  15
HETATM   15  N3  UNL     1       1.290  -8.250  13.053  1.00  0.00    -0.070 N 
ATOM     16  H33 UNL     1       1.911  -7.649  12.511  1.00  0.00     0.274 HD
ATOM     17  H32 UNL     1       0.565  -8.430  12.359  1.00  0.00     0.274 HD
ATOM     18  H31 UNL     1       0.902  -7.734  13.843  1.00  0.00     0.274 HD
ENDBRANCH  10  15
BRANCH  13  19
HETATM   19  N4  UNL     1       2.760 -13.140  14.942  1.00  0.00    -0.050 N 
ATOM     20  H43 UNL     1       2.218 -13.254  15.799  1.00  0.00     0.277 HD
ATOM     21  H42 UNL     1       2.316 -13.878  14.396  1.00  0.00     0.277 HD
ATOM     22  H41 UNL     1       3.756 -13.306  15.085  1.00  0.00     0.277 HD
ENDBRANCH  13  19
BRANCH  14  23
HETATM   23  O4  UNL     1       1.260 -10.824  16.017  1.00  0.00    -0.294 OA
BRANCH  23  24
HETATM   24  C13 UNL     1       1.036 -11.195  17.325  1.00  0.00     0.373 C 
HETATM   25  N5  UNL     1       1.034 -12.556  17.759  1.00  0.00    -0.032 NA
HETATM   26  O5  UNL     1       0.826 -10.280  18.162  1.00  0.00    -0.242 OA
ENDBRANCH  23  24
ENDBRANCH  14  23
ENDBRANCH   8   9
ENDBRANCH   6   8
BRANCH   5  27
HETATM   27  N2  UNL     1       3.332  -8.419  18.136  1.00  0.00    -0.072 N 
ATOM     28  H23 UNL     1       3.661  -7.916  18.960  1.00  0.00     0.274 HD
ATOM     29  H22 UNL     1       2.477  -7.893  17.954  1.00  0.00     0.274 HD
ATOM     30  H21 UNL     1       3.124  -9.393  18.357  1.00  0.00     0.274 HD
ENDBRANCH   5  27
BRANCH   7  31
HETATM   31  O6  UNL     1       2.188  -5.842  16.433  1.00  0.00    -0.390 OA
ATOM     32  H6  UNL     1       1.555  -6.355  15.945  1.00  0.00     0.210 HD
ENDBRANCH   7  31
BRANCH   1  33
HETATM   33  O1  UNL     1       3.949  -5.470  18.081  1.00  0.00    -0.381 OA
HETATM   34  C1  UNL     1       3.945  -4.327  18.796  1.00  0.00     0.202 C 
ENDBRANCH   1  33
BRANCH   3  35
HETATM   35  N1  UNL     1       6.804  -5.582  17.406  1.00  0.00    -0.072 N 
ATOM     36  H13 UNL     1       7.415  -5.114  16.736  1.00  0.00     0.274 HD
ATOM     37  H12 UNL     1       6.461  -4.757  17.897  1.00  0.00     0.274 HD
ATOM     38  H11 UNL     1       7.324  -6.205  18.024  1.00  0.00     0.274 HD
ENDBRANCH   3  35
TORSDOF 10
ENDMDL
