MODEL 1
REMARK VINA RESULT: -7.020797491      0.000      0.000
REMARK  8 active torsions:
REMARK  status: ('A' for Active; 'I' for Inactive)
REMARK    1  A    between atoms: N1_2  and  C2_5 
REMARK    2  A    between atoms: C3_6  and  N2_7 
REMARK    3  A    between atoms: C4_11  and  C5_12 
REMARK    4  A    between atoms: C5_12  and  O2_14 
REMARK    5  A    between atoms: O2_14  and  C6_15 
REMARK    6  A    between atoms: C6_15  and  O3_16 
REMARK    7  A    between atoms: N3_18  and  N4_19 
REMARK    8  A    between atoms: C11_29  and  N6_30 
REMARK       I    between atoms: N6_30  and  C12_32 
ROOT
HETATM    1  C2  UNL     1       3.312  -5.051  18.987  1.00  0.00     0.248 C 
HETATM    2  C3  UNL     1       2.991  -6.061  17.954  1.00  0.00     0.245 C 
HETATM    3  C4  UNL     1       3.858  -5.759  16.750  1.00  0.00     0.214 C 
HETATM    4  N3  UNL     1       3.151  -5.039  15.733  1.00  0.00    -0.191 NA
HETATM    5  C8  UNL     1       2.946  -3.677  16.194  1.00  0.00     0.249 C 
HETATM    6  O4  UNL     1       3.747  -3.373  17.286  1.00  0.00    -0.358 OA
HETATM    7  C9  UNL     1       3.055  -3.679  18.425  1.00  0.00     0.189 C 
HETATM    8  C10 UNL     1       1.593  -3.436  18.157  1.00  0.00     0.256 C 
HETATM    9  N5  UNL     1       1.198  -2.124  18.668  1.00  0.00    -0.020 N 
ATOM     10  H51 UNL     1       1.967  -1.556  19.025  1.00  0.00     0.282 HD
ATOM     11  H52 UNL     1       0.673  -2.148  19.542  1.00  0.00     0.282 HD
HETATM   12  C11 UNL     1       0.466  -1.528  17.518  1.00  0.00     0.488 C 
HETATM   13  N7  UNL     1       1.327  -1.928  16.445  1.00  0.00    -0.018 N 
ATOM     14  H71 UNL     1       2.179  -1.372  16.371  1.00  0.00     0.282 HD
ATOM     15  H72 UNL     1       0.962  -1.708  15.518  1.00  0.00     0.282 HD
HETATM   16  C14 UNL     1       1.570  -3.365  16.662  1.00  0.00     0.268 C 
ENDROOT
BRANCH   3  17
HETATM   17  C5  UNL     1       4.584  -6.962  16.242  1.00  0.00     0.282 C 
HETATM   18  O1  UNL     1       5.615  -7.416  16.792  1.00  0.00    -0.263 OA
BRANCH  17  19
HETATM   19  O2  UNL     1       4.089  -7.582  15.131  1.00  0.00    -0.294 OA
BRANCH  19  20
HETATM   20  C6  UNL     1       3.487  -8.863  15.120  1.00  0.00     0.347 C 
BRANCH  20  21
HETATM   21  O3  UNL     1       2.222  -8.706  15.702  1.00  0.00    -0.371 OA
HETATM   22  C7  UNL     1       1.711  -9.917  16.099  1.00  0.00     0.204 C 
ENDBRANCH  20  21
ENDBRANCH  19  20
ENDBRANCH  17  19
ENDBRANCH   3  17
BRANCH   2  23
HETATM   23  N2  UNL     1       3.055  -7.442  18.380  1.00  0.00    -0.071 N 
ATOM     24  H23 UNL     1       4.008  -7.791  18.282  1.00  0.00     0.274 HD
ATOM     25  H22 UNL     1       2.943  -7.498  19.392  1.00  0.00     0.274 HD
ATOM     26  H21 UNL     1       2.403  -8.079  17.923  1.00  0.00     0.274 HD
ENDBRANCH   2  23
BRANCH   4  27
HETATM   27  N4  UNL     1       1.919  -5.602  15.399  1.00  0.00    -0.360 NA
ATOM     28  H42 UNL     1       2.045  -6.596  15.207  1.00  0.00     0.171 HD
ATOM     29  H41 UNL     1       1.477  -5.170  14.587  1.00  0.00     0.171 HD
ENDBRANCH   4  27
BRANCH   1  30
HETATM   30  N1  UNL     1       2.694  -5.189  20.266  1.00  0.00    -0.070 N 
HETATM   31  C1  UNL     1       3.264  -4.187  21.178  1.00  0.00     0.267 C 
ATOM     32  H12 UNL     1       2.768  -6.138  20.634  1.00  0.00     0.277 HD
ATOM     33  H11 UNL     1       1.677  -5.136  20.215  1.00  0.00     0.277 HD
ENDBRANCH   1  30
BRANCH  12  34
HETATM   34  N6  UNL     1       0.466  -0.124  17.807  1.00  0.00    -0.311 N 
HETATM   35  C12 UNL     1      -0.535   0.418  18.641  1.00  0.00     0.216 C 
HETATM   36  C13 UNL     1      -0.550   1.878  18.953  1.00  0.00     0.117 C 
HETATM   37  O5  UNL     1      -1.454  -0.311  19.155  1.00  0.00    -0.274 OA
ATOM     38  H6  UNL     1       1.186   0.480  17.411  1.00  0.00     0.166 HD
ENDBRANCH  12  34
TORSDOF 8
ENDMDL
MODEL 2
REMARK VINA RESULT: -7.015294247      3.787      6.444
REMARK  8 active torsions:
REMARK  status: ('A' for Active; 'I' for Inactive)
REMARK    1  A    between atoms: N1_2  and  C2_5 
REMARK    2  A    between atoms: C3_6  and  N2_7 
REMARK    3  A    between atoms: C4_11  and  C5_12 
REMARK    4  A    between atoms: C5_12  and  O2_14 
REMARK    5  A    between atoms: O2_14  and  C6_15 
REMARK    6  A    between atoms: C6_15  and  O3_16 
REMARK    7  A    between atoms: N3_18  and  N4_19 
REMARK    8  A    between atoms: C11_29  and  N6_30 
REMARK       I    between atoms: N6_30  and  C12_32 
ROOT
HETATM    1  C2  UNL     1      -0.942   0.184  19.251  1.00  0.00     0.248 C 
HETATM    2  C3  UNL     1      -0.058  -0.840  18.651  1.00  0.00     0.245 C 
HETATM    3  C4  UNL     1      -0.927  -2.027  18.296  1.00  0.00     0.214 C 
HETATM    4  N3  UNL     1      -0.854  -3.072  19.273  1.00  0.00    -0.191 NA
HETATM    5  C8  UNL     1      -1.563  -2.638  20.464  1.00  0.00     0.249 C 
HETATM    6  O4  UNL     1      -2.364  -1.531  20.216  1.00  0.00    -0.358 OA
HETATM    7  C9  UNL     1      -1.626  -0.405  20.454  1.00  0.00     0.189 C 
HETATM    8  C10 UNL     1      -0.661  -0.711  21.568  1.00  0.00     0.256 C 
HETATM    9  N5  UNL     1      -1.192  -0.231  22.842  1.00  0.00    -0.020 N 
ATOM     10  H51 UNL     1      -2.143   0.135  22.797  1.00  0.00     0.282 HD
ATOM     11  H52 UNL     1      -0.766   0.631  23.184  1.00  0.00     0.282 HD
HETATM   12  C11 UNL     1      -1.021  -1.407  23.737  1.00  0.00     0.488 C 
HETATM   13  N7  UNL     1      -1.436  -2.453  22.849  1.00  0.00    -0.018 N 
ATOM     14  H71 UNL     1      -2.447  -2.515  22.730  1.00  0.00     0.282 HD
ATOM     15  H72 UNL     1      -1.304  -3.392  23.227  1.00  0.00     0.282 HD
HETATM   16  C14 UNL     1      -0.702  -2.207  21.596  1.00  0.00     0.268 C 
ENDROOT
BRANCH   3  17
HETATM   17  C5  UNL     1      -0.720  -2.499  16.894  1.00  0.00     0.282 C 
HETATM   18  O1  UNL     1      -1.293  -1.976  15.909  1.00  0.00    -0.263 OA
BRANCH  17  19
HETATM   19  O2  UNL     1       0.134  -3.545  16.693  1.00  0.00    -0.294 OA
BRANCH  19  20
HETATM   20  C6  UNL     1       1.408  -3.443  16.083  1.00  0.00     0.347 C 
BRANCH  20  21
HETATM   21  O3  UNL     1       1.674  -4.699  15.522  1.00  0.00    -0.371 OA
HETATM   22  C7  UNL     1       2.935  -5.129  15.857  1.00  0.00     0.204 C 
ENDBRANCH  20  21
ENDBRANCH  19  20
ENDBRANCH  17  19
ENDBRANCH   3  17
BRANCH   2  23
HETATM   23  N2  UNL     1       0.781  -0.391  17.561  1.00  0.00    -0.071 N 
ATOM     24  H23 UNL     1       0.200  -0.104  16.773  1.00  0.00     0.274 HD
ATOM     25  H22 UNL     1       1.216   0.500  17.802  1.00  0.00     0.274 HD
ATOM     26  H21 UNL     1       1.492  -1.051  17.246  1.00  0.00     0.274 HD
ENDBRANCH   2  23
BRANCH   4  27
HETATM   27  N4  UNL     1       0.451  -3.427  19.619  1.00  0.00    -0.360 NA
ATOM     28  H42 UNL     1       0.525  -4.443  19.650  1.00  0.00     0.171 HD
ATOM     29  H41 UNL     1       0.753  -3.054  20.519  1.00  0.00     0.171 HD
ENDBRANCH   4  27
BRANCH   1  30
HETATM   30  N1  UNL     1      -0.368   1.451  19.575  1.00  0.00    -0.070 N 
HETATM   31  C1  UNL     1      -0.751   2.423  18.541  1.00  0.00     0.267 C 
ATOM     32  H12 UNL     1       0.643   1.398  19.705  1.00  0.00     0.277 HD
ATOM     33  H11 UNL     1      -0.615   1.762  20.514  1.00  0.00     0.277 HD
ENDBRANCH   1  30
BRANCH  12  34
HETATM   34  N6  UNL     1      -1.916  -1.141  24.824  1.00  0.00    -0.311 N 
HETATM   35  C12 UNL     1      -3.299  -1.008  24.573  1.00  0.00     0.216 C 
HETATM   36  C13 UNL     1      -4.247  -0.732  25.693  1.00  0.00     0.117 C 
HETATM   37  O5  UNL     1      -3.786  -1.121  23.394  1.00  0.00    -0.274 OA
ATOM     38  H6  UNL     1      -1.557  -1.047  25.773  1.00  0.00     0.166 HD
ENDBRANCH  12  34
TORSDOF 8
ENDMDL
MODEL 3
REMARK VINA RESULT: -6.818562396      0.664      1.027
REMARK  8 active torsions:
REMARK  status: ('A' for Active; 'I' for Inactive)
REMARK    1  A    between atoms: N1_2  and  C2_5 
REMARK    2  A    between atoms: C3_6  and  N2_7 
REMARK    3  A    between atoms: C4_11  and  C5_12 
REMARK    4  A    between atoms: C5_12  and  O2_14 
REMARK    5  A    between atoms: O2_14  and  C6_15 
REMARK    6  A    between atoms: C6_15  and  O3_16 
REMARK    7  A    between atoms: N3_18  and  N4_19 
REMARK    8  A    between atoms: C11_29  and  N6_30 
REMARK       I    between atoms: N6_30  and  C12_32 
ROOT
HETATM    1  C2  UNL     1       3.290  -5.015  18.972  1.00  0.00     0.248 C 
HETATM    2  C3  UNL     1       2.964  -6.017  17.932  1.00  0.00     0.245 C 
HETATM    3  C4  UNL     1       3.827  -5.706  16.727  1.00  0.00     0.214 C 
HETATM    4  N3  UNL     1       3.118  -4.976  15.719  1.00  0.00    -0.191 NA
HETATM    5  C8  UNL     1       2.916  -3.617  16.192  1.00  0.00     0.249 C 
HETATM    6  O4  UNL     1       3.721  -3.323  17.284  1.00  0.00    -0.358 OA
HETATM    7  C9  UNL     1       3.033  -3.638  18.422  1.00  0.00     0.189 C 
HETATM    8  C10 UNL     1       1.571  -3.390  18.162  1.00  0.00     0.256 C 
HETATM    9  N5  UNL     1       1.180  -2.083  18.684  1.00  0.00    -0.020 N 
ATOM     10  H51 UNL     1       1.950  -1.519  19.043  1.00  0.00     0.282 HD
ATOM     11  H52 UNL     1       0.658  -2.113  19.560  1.00  0.00     0.282 HD
HETATM   12  C11 UNL     1       0.445  -1.476  17.542  1.00  0.00     0.488 C 
HETATM   13  N7  UNL     1       1.301  -1.868  16.463  1.00  0.00    -0.018 N 
ATOM     14  H71 UNL     1       2.154  -1.313  16.391  1.00  0.00     0.282 HD
ATOM     15  H72 UNL     1       0.934  -1.640  15.539  1.00  0.00     0.282 HD
HETATM   16  C14 UNL     1       1.543  -3.307  16.667  1.00  0.00     0.268 C 
ENDROOT
BRANCH   3  17
HETATM   17  C5  UNL     1       4.549  -6.905  16.207  1.00  0.00     0.282 C 
HETATM   18  O1  UNL     1       5.617  -7.327  16.710  1.00  0.00    -0.263 OA
BRANCH  17  19
HETATM   19  O2  UNL     1       4.009  -7.559  15.137  1.00  0.00    -0.294 OA
BRANCH  19  20
HETATM   20  C6  UNL     1       3.728  -8.946  15.094  1.00  0.00     0.347 C 
BRANCH  20  21
HETATM   21  O3  UNL     1       4.237  -9.412  13.875  1.00  0.00    -0.371 OA
HETATM   22  C7  UNL     1       5.569  -9.726  13.989  1.00  0.00     0.204 C 
ENDBRANCH  20  21
ENDBRANCH  19  20
ENDBRANCH  17  19
ENDBRANCH   3  17
BRANCH   2  23
HETATM   23  N2  UNL     1       3.027  -7.401  18.345  1.00  0.00    -0.071 N 
ATOM     24  H23 UNL     1       3.474  -7.469  19.260  1.00  0.00     0.274 HD
ATOM     25  H22 UNL     1       2.091  -7.737  18.574  1.00  0.00     0.274 HD
ATOM     26  H21 UNL     1       3.475  -8.042  17.691  1.00  0.00     0.274 HD
ENDBRANCH   2  23
BRANCH   4  27
HETATM   27  N4  UNL     1       1.884  -5.534  15.384  1.00  0.00    -0.360 NA
ATOM     28  H42 UNL     1       1.852  -6.499  15.712  1.00  0.00     0.171 HD
ATOM     29  H41 UNL     1       1.688  -5.528  14.383  1.00  0.00     0.171 HD
ENDBRANCH   4  27
BRANCH   1  30
HETATM   30  N1  UNL     1       2.676  -5.163  20.252  1.00  0.00    -0.070 N 
HETATM   31  C1  UNL     1       3.249  -4.167  21.170  1.00  0.00     0.267 C 
ATOM     32  H12 UNL     1       2.752  -6.114  20.613  1.00  0.00     0.277 HD
ATOM     33  H11 UNL     1       1.659  -5.110  20.205  1.00  0.00     0.277 HD
ENDBRANCH   1  30
BRANCH  12  34
HETATM   34  N6  UNL     1       0.448  -0.074  17.843  1.00  0.00    -0.311 N 
HETATM   35  C12 UNL     1      -0.553   0.464  18.680  1.00  0.00     0.216 C 
HETATM   36  C13 UNL     1      -0.564   1.920  19.004  1.00  0.00     0.117 C 
HETATM   37  O5  UNL     1      -1.475  -0.267  19.187  1.00  0.00    -0.274 OA
ATOM     38  H6  UNL     1       1.170   0.532  17.453  1.00  0.00     0.166 HD
ENDBRANCH  12  34
TORSDOF 8
ENDMDL
MODEL 4
REMARK VINA RESULT: -6.554271717      1.027      1.560
REMARK  8 active torsions:
REMARK  status: ('A' for Active; 'I' for Inactive)
REMARK    1  A    between atoms: N1_2  and  C2_5 
REMARK    2  A    between atoms: C3_6  and  N2_7 
REMARK    3  A    between atoms: C4_11  and  C5_12 
REMARK    4  A    between atoms: C5_12  and  O2_14 
REMARK    5  A    between atoms: O2_14  and  C6_15 
REMARK    6  A    between atoms: C6_15  and  O3_16 
REMARK    7  A    between atoms: N3_18  and  N4_19 
REMARK    8  A    between atoms: C11_29  and  N6_30 
REMARK       I    between atoms: N6_30  and  C12_32 
ROOT
HETATM    1  C2  UNL     1       3.119  -5.072  18.937  1.00  0.00     0.248 C 
HETATM    2  C3  UNL     1       2.782  -6.034  17.865  1.00  0.00     0.245 C 
HETATM    3  C4  UNL     1       3.677  -5.719  16.685  1.00  0.00     0.214 C 
HETATM    4  N3  UNL     1       3.010  -4.941  15.684  1.00  0.00    -0.191 NA
HETATM    5  C8  UNL     1       2.842  -3.590  16.190  1.00  0.00     0.249 C 
HETATM    6  O4  UNL     1       3.635  -3.351  17.304  1.00  0.00    -0.358 OA
HETATM    7  C9  UNL     1       2.915  -3.673  18.421  1.00  0.00     0.189 C 
HETATM    8  C10 UNL     1       1.467  -3.372  18.140  1.00  0.00     0.256 C 
HETATM    9  N5  UNL     1       1.107  -2.067  18.691  1.00  0.00    -0.020 N 
ATOM     10  H51 UNL     1       1.888  -1.538  19.079  1.00  0.00     0.282 HD
ATOM     11  H52 UNL     1       0.568  -2.104  19.556  1.00  0.00     0.282 HD
HETATM   12  C11 UNL     1       0.413  -1.407  17.553  1.00  0.00     0.488 C 
HETATM   13  N7  UNL     1       1.278  -1.798  16.479  1.00  0.00    -0.018 N 
ATOM     14  H71 UNL     1       2.148  -1.268  16.437  1.00  0.00     0.282 HD
ATOM     15  H72 UNL     1       0.935  -1.533  15.555  1.00  0.00     0.282 HD
HETATM   16  C14 UNL     1       1.470  -3.248  16.649  1.00  0.00     0.268 C 
ENDROOT
BRANCH   3  17
HETATM   17  C5  UNL     1       4.371  -6.927  16.145  1.00  0.00     0.282 C 
HETATM   18  O1  UNL     1       3.913  -7.609  15.199  1.00  0.00    -0.263 OA
BRANCH  17  19
HETATM   19  O2  UNL     1       5.557  -7.289  16.718  1.00  0.00    -0.294 OA
BRANCH  19  20
HETATM   20  C6  UNL     1       5.859  -8.584  17.203  1.00  0.00     0.347 C 
BRANCH  20  21
HETATM   21  O3  UNL     1       5.581  -8.563  18.575  1.00  0.00    -0.371 OA
HETATM   22  C7  UNL     1       5.448  -9.839  19.068  1.00  0.00     0.204 C 
ENDBRANCH  20  21
ENDBRANCH  19  20
ENDBRANCH  17  19
ENDBRANCH   3  17
BRANCH   2  23
HETATM   23  N2  UNL     1       2.793  -7.430  18.242  1.00  0.00    -0.071 N 
ATOM     24  H23 UNL     1       3.147  -7.529  19.194  1.00  0.00     0.274 HD
ATOM     25  H22 UNL     1       1.837  -7.764  18.367  1.00  0.00     0.274 HD
ATOM     26  H21 UNL     1       3.300  -8.057  17.617  1.00  0.00     0.274 HD
ENDBRANCH   2  23
BRANCH   4  27
HETATM   27  N4  UNL     1       1.766  -5.451  15.312  1.00  0.00    -0.360 NA
ATOM     28  H42 UNL     1       1.054  -4.734  15.448  1.00  0.00     0.171 HD
ATOM     29  H41 UNL     1       1.490  -6.282  15.835  1.00  0.00     0.171 HD
ENDBRANCH   4  27
BRANCH   1  30
HETATM   30  N1  UNL     1       2.477  -5.234  20.202  1.00  0.00    -0.070 N 
HETATM   31  C1  UNL     1       3.099  -4.319  21.170  1.00  0.00     0.267 C 
ATOM     32  H12 UNL     1       2.483  -6.203  20.521  1.00  0.00     0.277 HD
ATOM     33  H11 UNL     1       1.466  -5.112  20.144  1.00  0.00     0.277 HD
ENDBRANCH   1  30
BRANCH  12  34
HETATM   34  N6  UNL     1       0.455  -0.015  17.891  1.00  0.00    -0.311 N 
HETATM   35  C12 UNL     1      -0.559   0.538  18.703  1.00  0.00     0.216 C 
HETATM   36  C13 UNL     1      -0.531   1.985  19.066  1.00  0.00     0.117 C 
HETATM   37  O5  UNL     1      -1.525  -0.172  19.154  1.00  0.00    -0.274 OA
ATOM     38  H6  UNL     1       1.213   0.574  17.546  1.00  0.00     0.166 HD
ENDBRANCH  12  34
TORSDOF 8
ENDMDL
MODEL 5
REMARK VINA RESULT: -6.541860338      4.035      6.517
REMARK  8 active torsions:
REMARK  status: ('A' for Active; 'I' for Inactive)
REMARK    1  A    between atoms: N1_2  and  C2_5 
REMARK    2  A    between atoms: C3_6  and  N2_7 
REMARK    3  A    between atoms: C4_11  and  C5_12 
REMARK    4  A    between atoms: C5_12  and  O2_14 
REMARK    5  A    between atoms: O2_14  and  C6_15 
REMARK    6  A    between atoms: C6_15  and  O3_16 
REMARK    7  A    between atoms: N3_18  and  N4_19 
REMARK    8  A    between atoms: C11_29  and  N6_30 
REMARK       I    between atoms: N6_30  and  C12_32 
ROOT
HETATM    1  C2  UNL     1      -0.950  -0.085  19.668  1.00  0.00     0.248 C 
HETATM    2  C3  UNL     1       0.163  -0.796  19.000  1.00  0.00     0.245 C 
HETATM    3  C4  UNL     1      -0.117  -2.279  19.123  1.00  0.00     0.214 C 
HETATM    4  N3  UNL     1       0.623  -2.890  20.187  1.00  0.00    -0.191 NA
HETATM    5  C8  UNL     1       0.052  -2.461  21.451  1.00  0.00     0.249 C 
HETATM    6  O4  UNL     1      -1.199  -1.881  21.284  1.00  0.00    -0.358 OA
HETATM    7  C9  UNL     1      -1.029  -0.537  21.102  1.00  0.00     0.189 C 
HETATM    8  C10 UNL     1       0.173  -0.110  21.902  1.00  0.00     0.256 C 
HETATM    9  N5  UNL     1      -0.248   0.454  23.183  1.00  0.00    -0.020 N 
ATOM     10  H51 UNL     1      -1.248   0.383  23.372  1.00  0.00     0.282 HD
ATOM     11  H52 UNL     1      -0.206   1.472  23.235  1.00  0.00     0.282 HD
HETATM   12  C11 UNL     1       0.621  -0.257  24.160  1.00  0.00     0.488 C 
HETATM   13  N7  UNL     1       0.561  -1.583  23.621  1.00  0.00    -0.018 N 
ATOM     14  H71 UNL     1      -0.310  -2.073  23.828  1.00  0.00     0.282 HD
ATOM     15  H72 UNL     1       1.181  -2.246  24.086  1.00  0.00     0.282 HD
HETATM   16  C14 UNL     1       0.829  -1.426  22.182  1.00  0.00     0.268 C 
ENDROOT
BRANCH   3  17
HETATM   17  C5  UNL     1      -0.006  -3.000  17.820  1.00  0.00     0.282 C 
HETATM   18  O1  UNL     1      -0.977  -3.151  17.042  1.00  0.00    -0.263 OA
BRANCH  17  19
HETATM   19  O2  UNL     1       1.213  -3.509  17.475  1.00  0.00    -0.294 OA
BRANCH  19  20
HETATM   20  C6  UNL     1       1.797  -3.409  16.189  1.00  0.00     0.347 C 
BRANCH  20  21
HETATM   21  O3  UNL     1       1.620  -4.659  15.582  1.00  0.00    -0.371 OA
HETATM   22  C7  UNL     1       2.711  -5.466  15.794  1.00  0.00     0.204 C 
ENDBRANCH  20  21
ENDBRANCH  19  20
ENDBRANCH  17  19
ENDBRANCH   3  17
BRANCH   2  23
HETATM   23  N2  UNL     1       0.462  -0.375  17.650  1.00  0.00    -0.071 N 
ATOM     24  H23 UNL     1      -0.176   0.370  17.370  1.00  0.00     0.274 HD
ATOM     25  H22 UNL     1       1.349   0.129  17.632  1.00  0.00     0.274 HD
ATOM     26  H21 UNL     1       0.466  -1.111  16.944  1.00  0.00     0.274 HD
ENDBRANCH   2  23
BRANCH   4  27
HETATM   27  N4  UNL     1       1.985  -2.586  20.170  1.00  0.00    -0.360 NA
ATOM     28  H42 UNL     1       2.520  -3.443  20.034  1.00  0.00     0.171 HD
ATOM     29  H41 UNL     1       2.314  -2.132  21.022  1.00  0.00     0.171 HD
ENDBRANCH   4  27
BRANCH   1  30
HETATM   30  N1  UNL     1      -0.968   1.340  19.594  1.00  0.00    -0.070 N 
HETATM   31  C1  UNL     1      -2.326   1.780  19.244  1.00  0.00     0.267 C 
ATOM     32  H12 UNL     1      -0.263   1.706  18.953  1.00  0.00     0.277 HD
ATOM     33  H11 UNL     1      -0.624   1.779  20.448  1.00  0.00     0.277 HD
ENDBRANCH   1  30
BRANCH  12  34
HETATM   34  N6  UNL     1      -0.057  -0.077  25.410  1.00  0.00    -0.311 N 
HETATM   35  C12 UNL     1       0.032   1.162  26.081  1.00  0.00     0.216 C 
HETATM   36  C13 UNL     1      -0.668   1.367  27.383  1.00  0.00     0.117 C 
HETATM   37  O5  UNL     1       0.704   2.142  25.604  1.00  0.00    -0.274 OA
ATOM     38  H6  UNL     1      -0.600  -0.840  25.813  1.00  0.00     0.166 HD
ENDBRANCH  12  34
TORSDOF 8
ENDMDL
