MODEL 1
REMARK VINA RESULT: -7.884559197      0.000      0.000
REMARK  9 active torsions:
REMARK  status: ('A' for Active; 'I' for Inactive)
REMARK    1  A    between atoms: N1_1  and  C1_4 
REMARK    2  A    between atoms: C2_7  and  N3_8 
REMARK    3  A    between atoms: N4_11  and  C3_12 
REMARK    4  A    between atoms: C5_14  and  O1_15 
REMARK    5  A    between atoms: C5_14  and  C6_17 
REMARK    6  A    between atoms: C7_20  and  C8_21 
REMARK    7  A    between atoms: C8_21  and  O5_23 
REMARK    8  A    between atoms: O5_23  and  N5_24 
REMARK    9  A    between atoms: N7_31  and  O7_32 
ROOT
HETATM    1  C3  UNL     1       2.895  -4.039  16.911  1.00  0.00     0.203 C 
HETATM    2  C4  UNL     1       1.845  -3.603  15.941  1.00  0.00     0.086 C 
HETATM    3  C5  UNL     1       1.091  -2.501  16.736  1.00  0.00     0.167 C 
HETATM    4  C7  UNL     1       1.440  -2.747  18.172  1.00  0.00     0.204 C 
HETATM    5  C12 UNL     1       2.038  -4.116  18.161  1.00  0.00     0.169 C 
HETATM    6  O6  UNL     1       1.865  -4.990  18.934  1.00  0.00    -0.295 OA
ENDROOT
BRANCH   1   7
HETATM    7  N4  UNL     1       3.606  -5.241  16.651  1.00  0.00    -0.070 N 
HETATM    8  C2  UNL     1       3.228  -6.277  15.901  1.00  0.00     0.710 A 
HETATM    9  N2  UNL     1       4.282  -7.180  15.987  1.00  0.00    -0.018 N 
HETATM   10  C1  UNL     1       5.217  -6.646  16.767  1.00  0.00     0.733 A 
ATOM     11  H2  UNL     1       4.330  -8.092  15.532  1.00  0.00     0.203 HD
HETATM   12  N7  UNL     1       4.831  -5.448  17.193  1.00  0.00     0.034 N 
BRANCH   8  13
HETATM   13  N3  UNL     1       2.190  -6.537  15.197  1.00  0.00    -0.233 N 
ATOM     14  H32 UNL     1       2.042  -6.956  14.279  1.00  0.00     0.174 HD
ATOM     15  H31 UNL     1       1.253  -6.324  15.540  1.00  0.00     0.174 HD
ENDBRANCH   8  13
BRANCH  10  16
HETATM   16  N1  UNL     1       6.335  -7.261  17.036  1.00  0.00    -0.231 N 
ATOM     17  H12 UNL     1       7.132  -7.398  16.416  1.00  0.00     0.174 HD
ATOM     18  H11 UNL     1       6.518  -7.685  17.946  1.00  0.00     0.174 HD
ENDBRANCH  10  16
BRANCH  12  19
HETATM   19  O7  UNL     1       5.568  -4.624  18.003  1.00  0.00    -0.254 OA
ATOM     20  H7  UNL     1       5.358  -3.718  18.197  1.00  0.00     0.247 HD
ENDBRANCH  12  19
ENDBRANCH   1   7
BRANCH   3  21
HETATM   21  O1  UNL     1       1.503  -1.252  16.319  1.00  0.00    -0.377 OA
ATOM     22  H1  UNL     1       2.000  -0.827  17.008  1.00  0.00     0.211 HD
ENDBRANCH   3  21
BRANCH   3  23
HETATM   23  C6  UNL     1      -0.348  -2.648  16.417  1.00  0.00     0.210 C 
HETATM   24  O2  UNL     1      -0.906  -1.789  15.673  1.00  0.00    -0.646 OA
HETATM   25  O3  UNL     1      -1.150  -3.680  16.881  1.00  0.00    -0.646 OA
ENDBRANCH   3  23
BRANCH   4  26
HETATM   26  C8  UNL     1       0.399  -2.522  19.154  1.00  0.00     0.292 C 
HETATM   27  O4  UNL     1       0.239  -3.280  20.120  1.00  0.00    -0.263 OA
BRANCH  26  28
HETATM   28  O5  UNL     1      -0.496  -1.439  19.081  1.00  0.00    -0.207 OA
BRANCH  28  29
HETATM   29  N5  UNL     1      -0.064  -0.150  19.288  1.00  0.00    -0.100 NA
HETATM   30  C9  UNL     1      -0.806   0.520  20.303  1.00  0.00     0.143 C 
HETATM   31  C10 UNL     1      -1.185   1.884  19.785  1.00  0.00     0.035 C 
HETATM   32  C11 UNL     1      -0.414   1.967  18.496  1.00  0.00     0.132 C 
HETATM   33  N6  UNL     1      -0.044   0.617  18.149  1.00  0.00    -0.139 NA
ENDBRANCH  28  29
ENDBRANCH  26  28
ENDBRANCH   4  26
TORSDOF 9
ENDMDL
MODEL 2
REMARK VINA RESULT: -7.737670645      0.981      1.654
REMARK  9 active torsions:
REMARK  status: ('A' for Active; 'I' for Inactive)
REMARK    1  A    between atoms: N1_1  and  C1_4 
REMARK    2  A    between atoms: C2_7  and  N3_8 
REMARK    3  A    between atoms: N4_11  and  C3_12 
REMARK    4  A    between atoms: C5_14  and  O1_15 
REMARK    5  A    between atoms: C5_14  and  C6_17 
REMARK    6  A    between atoms: C7_20  and  C8_21 
REMARK    7  A    between atoms: C8_21  and  O5_23 
REMARK    8  A    between atoms: O5_23  and  N5_24 
REMARK    9  A    between atoms: N7_31  and  O7_32 
ROOT
HETATM    1  C3  UNL     1       2.810  -3.873  16.921  1.00  0.00     0.203 C 
HETATM    2  C4  UNL     1       1.758  -3.415  15.964  1.00  0.00     0.086 C 
HETATM    3  C5  UNL     1       0.995  -2.345  16.793  1.00  0.00     0.167 C 
HETATM    4  C7  UNL     1       1.344  -2.634  18.221  1.00  0.00     0.204 C 
HETATM    5  C12 UNL     1       1.954  -3.997  18.167  1.00  0.00     0.169 C 
HETATM    6  O6  UNL     1       1.787  -4.896  18.912  1.00  0.00    -0.295 OA
ENDROOT
BRANCH   1   7
HETATM    7  N4  UNL     1       3.531  -5.061  16.624  1.00  0.00    -0.070 N 
HETATM    8  C2  UNL     1       4.725  -5.438  17.084  1.00  0.00     0.710 A 
HETATM    9  N2  UNL     1       4.964  -6.668  16.481  1.00  0.00    -0.018 N 
HETATM   10  C1  UNL     1       3.921  -6.956  15.710  1.00  0.00     0.733 A 
ATOM     11  H2  UNL     1       5.795  -7.247  16.608  1.00  0.00     0.203 HD
HETATM   12  N7  UNL     1       3.017  -5.985  15.776  1.00  0.00     0.034 N 
BRANCH   8  13
HETATM   13  N3  UNL     1       5.572  -4.922  17.895  1.00  0.00    -0.233 N 
ATOM     14  H32 UNL     1       6.301  -4.215  17.805  1.00  0.00     0.174 HD
ATOM     15  H31 UNL     1       5.604  -5.205  18.874  1.00  0.00     0.174 HD
ENDBRANCH   8  13
BRANCH  10  16
HETATM   16  N1  UNL     1       3.854  -8.056  15.012  1.00  0.00    -0.231 N 
ATOM     17  H12 UNL     1       3.028  -8.460  14.570  1.00  0.00     0.174 HD
ATOM     18  H11 UNL     1       4.670  -8.642  14.837  1.00  0.00     0.174 HD
ENDBRANCH  10  16
BRANCH  12  19
HETATM   19  O7  UNL     1       1.818  -5.977  15.113  1.00  0.00    -0.254 OA
ATOM     20  H7  UNL     1       1.306  -5.201  14.918  1.00  0.00     0.247 HD
ENDBRANCH  12  19
ENDBRANCH   1   7
BRANCH   3  21
HETATM   21  O1  UNL     1       1.396  -1.081  16.416  1.00  0.00    -0.377 OA
ATOM     22  H1  UNL     1       0.726  -0.674  15.880  1.00  0.00     0.211 HD
ENDBRANCH   3  21
BRANCH   3  23
HETATM   23  C6  UNL     1      -0.443  -2.494  16.468  1.00  0.00     0.210 C 
HETATM   24  O2  UNL     1      -1.050  -1.537  15.903  1.00  0.00    -0.646 OA
HETATM   25  O3  UNL     1      -1.193  -3.628  16.742  1.00  0.00    -0.646 OA
ENDBRANCH   3  23
BRANCH   4  26
HETATM   26  C8  UNL     1       0.302  -2.448  19.208  1.00  0.00     0.292 C 
HETATM   27  O4  UNL     1       0.172  -3.215  20.173  1.00  0.00    -0.263 OA
BRANCH  26  28
HETATM   28  O5  UNL     1      -0.632  -1.398  19.143  1.00  0.00    -0.207 OA
BRANCH  28  29
HETATM   29  N5  UNL     1      -0.265  -0.107  19.444  1.00  0.00    -0.100 NA
HETATM   30  C9  UNL     1      -1.188   0.536  20.319  1.00  0.00     0.143 C 
HETATM   31  C10 UNL     1      -1.488   1.903  19.762  1.00  0.00     0.035 C 
HETATM   32  C11 UNL     1      -0.499   2.019  18.634  1.00  0.00     0.132 C 
HETATM   33  N6  UNL     1      -0.052   0.680  18.339  1.00  0.00    -0.139 NA
ENDBRANCH  28  29
ENDBRANCH  26  28
ENDBRANCH   4  26
TORSDOF 9
ENDMDL
MODEL 3
REMARK VINA RESULT: -7.702025598      3.642      7.622
REMARK  9 active torsions:
REMARK  status: ('A' for Active; 'I' for Inactive)
REMARK    1  A    between atoms: N1_1  and  C1_4 
REMARK    2  A    between atoms: C2_7  and  N3_8 
REMARK    3  A    between atoms: N4_11  and  C3_12 
REMARK    4  A    between atoms: C5_14  and  O1_15 
REMARK    5  A    between atoms: C5_14  and  C6_17 
REMARK    6  A    between atoms: C7_20  and  C8_21 
REMARK    7  A    between atoms: C8_21  and  O5_23 
REMARK    8  A    between atoms: O5_23  and  N5_24 
REMARK    9  A    between atoms: N7_31  and  O7_32 
ROOT
HETATM    1  C3  UNL     1      -1.666  -0.059  21.538  1.00  0.00     0.203 C 
HETATM    2  C4  UNL     1      -1.844   1.338  21.038  1.00  0.00     0.086 C 
HETATM    3  C5  UNL     1      -1.960   1.130  19.502  1.00  0.00     0.167 C 
HETATM    4  C7  UNL     1      -1.372  -0.224  19.244  1.00  0.00     0.204 C 
HETATM    5  C12 UNL     1      -0.656  -0.545  20.516  1.00  0.00     0.169 C 
HETATM    6  O6  UNL     1       0.406  -1.044  20.644  1.00  0.00    -0.295 OA
ENDROOT
BRANCH   1   7
HETATM    7  N4  UNL     1      -1.234  -0.252  22.878  1.00  0.00    -0.070 N 
HETATM    8  C2  UNL     1      -0.177   0.283  23.489  1.00  0.00     0.710 A 
HETATM    9  N2  UNL     1      -0.214  -0.235  24.779  1.00  0.00    -0.018 N 
HETATM   10  C1  UNL     1      -1.271  -1.035  24.870  1.00  0.00     0.733 A 
ATOM     11  H2  UNL     1       0.454  -0.037  25.525  1.00  0.00     0.203 HD
HETATM   12  N7  UNL     1      -1.924  -1.067  23.713  1.00  0.00     0.034 N 
BRANCH   8  13
HETATM   13  N3  UNL     1       0.742   1.099  23.130  1.00  0.00    -0.233 N 
ATOM     14  H32 UNL     1       1.235   1.863  23.594  1.00  0.00     0.174 HD
ATOM     15  H31 UNL     1       1.148   1.058  22.195  1.00  0.00     0.174 HD
ENDBRANCH   8  13
BRANCH  10  16
HETATM   16  N1  UNL     1      -1.573  -1.670  25.969  1.00  0.00    -0.231 N 
ATOM     17  H12 UNL     1      -1.816  -1.264  26.872  1.00  0.00     0.174 HD
ATOM     18  H11 UNL     1      -1.592  -2.688  26.022  1.00  0.00     0.174 HD
ENDBRANCH  10  16
BRANCH  12  19
HETATM   19  O7  UNL     1      -3.067  -1.783  23.472  1.00  0.00    -0.254 OA
ATOM     20  H7  UNL     1      -3.141  -2.508  22.862  1.00  0.00     0.247 HD
ENDBRANCH  12  19
ENDBRANCH   1   7
BRANCH   3  21
HETATM   21  O1  UNL     1      -3.283   1.193  19.115  1.00  0.00    -0.377 OA
ATOM     22  H1  UNL     1      -3.619   0.317  18.965  1.00  0.00     0.211 HD
ENDBRANCH   3  21
BRANCH   3  23
HETATM   23  C6  UNL     1      -1.233   2.250  18.860  1.00  0.00     0.210 C 
HETATM   24  O2  UNL     1      -1.654   2.707  17.756  1.00  0.00    -0.646 OA
HETATM   25  O3  UNL     1      -0.100   2.851  19.387  1.00  0.00    -0.646 OA
ENDBRANCH   3  23
BRANCH   4  26
HETATM   26  C8  UNL     1      -0.604  -0.392  18.028  1.00  0.00     0.292 C 
HETATM   27  O4  UNL     1       0.512   0.126  17.886  1.00  0.00    -0.263 OA
BRANCH  26  28
HETATM   28  O5  UNL     1      -1.066  -1.142  16.932  1.00  0.00    -0.207 OA
BRANCH  28  29
HETATM   29  N5  UNL     1      -0.414  -2.285  16.534  1.00  0.00    -0.100 NA
HETATM   30  C9  UNL     1       0.209  -2.967  17.619  1.00  0.00     0.143 C 
HETATM   31  C10 UNL     1       1.614  -3.321  17.206  1.00  0.00     0.035 C 
HETATM   32  C11 UNL     1       1.625  -2.959  15.746  1.00  0.00     0.132 C 
HETATM   33  N6  UNL     1       0.502  -2.080  15.531  1.00  0.00    -0.139 NA
ENDBRANCH  28  29
ENDBRANCH  26  28
ENDBRANCH   4  26
TORSDOF 9
ENDMDL
MODEL 4
REMARK VINA RESULT: -7.395025406      1.951      2.502
REMARK  9 active torsions:
REMARK  status: ('A' for Active; 'I' for Inactive)
REMARK    1  A    between atoms: N1_1  and  C1_4 
REMARK    2  A    between atoms: C2_7  and  N3_8 
REMARK    3  A    between atoms: N4_11  and  C3_12 
REMARK    4  A    between atoms: C5_14  and  O1_15 
REMARK    5  A    between atoms: C5_14  and  C6_17 
REMARK    6  A    between atoms: C7_20  and  C8_21 
REMARK    7  A    between atoms: C8_21  and  O5_23 
REMARK    8  A    between atoms: O5_23  and  N5_24 
REMARK    9  A    between atoms: N7_31  and  O7_32 
ROOT
HETATM    1  C3  UNL     1       2.524  -3.732  17.302  1.00  0.00     0.203 C 
HETATM    2  C4  UNL     1       1.478  -3.213  16.370  1.00  0.00     0.086 C 
HETATM    3  C5  UNL     1       0.722  -2.184  17.256  1.00  0.00     0.167 C 
HETATM    4  C7  UNL     1       1.065  -2.555  18.666  1.00  0.00     0.204 C 
HETATM    5  C12 UNL     1       1.663  -3.918  18.538  1.00  0.00     0.169 C 
HETATM    6  O6  UNL     1       1.487  -4.856  19.232  1.00  0.00    -0.295 OA
ENDROOT
BRANCH   1   7
HETATM    7  N4  UNL     1       3.236  -4.908  16.942  1.00  0.00    -0.070 N 
HETATM    8  C2  UNL     1       4.369  -5.379  17.464  1.00  0.00     0.710 A 
HETATM    9  N2  UNL     1       4.630  -6.544  16.752  1.00  0.00    -0.018 N 
HETATM   10  C1  UNL     1       3.657  -6.706  15.861  1.00  0.00     0.733 A 
ATOM     11  H2  UNL     1       5.427  -7.166  16.889  1.00  0.00     0.203 HD
HETATM   12  N7  UNL     1       2.779  -5.713  15.952  1.00  0.00     0.034 N 
BRANCH   8  13
HETATM   13  N3  UNL     1       5.149  -4.988  18.402  1.00  0.00    -0.233 N 
ATOM     14  H32 UNL     1       6.122  -4.685  18.436  1.00  0.00     0.174 HD
ATOM     15  H31 UNL     1       4.822  -4.921  19.366  1.00  0.00     0.174 HD
ENDBRANCH   8  13
BRANCH  10  16
HETATM   16  N1  UNL     1       3.626  -7.720  15.040  1.00  0.00    -0.231 N 
ATOM     17  H12 UNL     1       3.712  -8.709  15.273  1.00  0.00     0.174 HD
ATOM     18  H11 UNL     1       3.506  -7.603  14.034  1.00  0.00     0.174 HD
ENDBRANCH  10  16
BRANCH  12  19
HETATM   19  O7  UNL     1       1.650  -5.586  15.186  1.00  0.00    -0.254 OA
ATOM     20  H7  UNL     1       1.463  -4.859  14.604  1.00  0.00     0.247 HD
ENDBRANCH  12  19
ENDBRANCH   1   7
BRANCH   3  21
HETATM   21  O1  UNL     1       1.135  -0.904  16.950  1.00  0.00    -0.377 OA
ATOM     22  H1  UNL     1       1.652  -0.911  16.154  1.00  0.00     0.211 HD
ENDBRANCH   3  21
BRANCH   3  23
HETATM   23  C6  UNL     1      -0.716  -2.303  16.919  1.00  0.00     0.210 C 
HETATM   24  O2  UNL     1      -1.425  -1.255  16.861  1.00  0.00    -0.646 OA
HETATM   25  O3  UNL     1      -1.362  -3.502  16.658  1.00  0.00    -0.646 OA
ENDBRANCH   3  23
BRANCH   4  26
HETATM   26  C8  UNL     1       0.021  -2.415  19.660  1.00  0.00     0.292 C 
HETATM   27  O4  UNL     1      -0.764  -3.339  19.915  1.00  0.00    -0.263 OA
BRANCH  26  28
HETATM   28  O5  UNL     1      -0.178  -1.233  20.396  1.00  0.00    -0.207 OA
BRANCH  28  29
HETATM   29  N5  UNL     1      -0.231  -1.258  21.770  1.00  0.00    -0.100 NA
HETATM   30  C9  UNL     1      -1.238  -0.399  22.296  1.00  0.00     0.143 C 
HETATM   31  C10 UNL     1      -0.632   0.406  23.416  1.00  0.00     0.035 C 
HETATM   32  C11 UNL     1       0.719  -0.236  23.582  1.00  0.00     0.132 C 
HETATM   33  N6  UNL     1       0.971  -0.984  22.376  1.00  0.00    -0.139 NA
ENDBRANCH  28  29
ENDBRANCH  26  28
ENDBRANCH   4  26
TORSDOF 9
ENDMDL
MODEL 5
REMARK VINA RESULT: -7.328271906      4.005      6.599
REMARK  9 active torsions:
REMARK  status: ('A' for Active; 'I' for Inactive)
REMARK    1  A    between atoms: N1_1  and  C1_4 
REMARK    2  A    between atoms: C2_7  and  N3_8 
REMARK    3  A    between atoms: N4_11  and  C3_12 
REMARK    4  A    between atoms: C5_14  and  O1_15 
REMARK    5  A    between atoms: C5_14  and  C6_17 
REMARK    6  A    between atoms: C7_20  and  C8_21 
REMARK    7  A    between atoms: C8_21  and  O5_23 
REMARK    8  A    between atoms: O5_23  and  N5_24 
REMARK    9  A    between atoms: N7_31  and  O7_32 
ROOT
HETATM    1  C3  UNL     1       2.364  -9.650  15.951  1.00  0.00     0.203 C 
HETATM    2  C4  UNL     1       2.807  -9.518  17.371  1.00  0.00     0.086 C 
HETATM    3  C5  UNL     1       2.945  -7.979  17.537  1.00  0.00     0.167 C 
HETATM    4  C7  UNL     1       3.047  -7.442  16.142  1.00  0.00     0.204 C 
HETATM    5  C12 UNL     1       3.319  -8.657  15.315  1.00  0.00     0.169 C 
HETATM    6  O6  UNL     1       4.079  -8.770  14.420  1.00  0.00    -0.295 OA
ENDROOT
BRANCH   1   7
HETATM    7  N4  UNL     1       2.409 -10.931  15.339  1.00  0.00    -0.070 N 
HETATM    8  C2  UNL     1       3.305 -11.901  15.522  1.00  0.00     0.710 A 
HETATM    9  N2  UNL     1       2.888 -12.931  14.686  1.00  0.00    -0.018 N 
HETATM   10  C1  UNL     1       1.786 -12.531  14.061  1.00  0.00     0.733 A 
ATOM     11  H2  UNL     1       3.348 -13.835  14.572  1.00  0.00     0.203 HD
HETATM   12  N7  UNL     1       1.462 -11.300  14.442  1.00  0.00     0.034 N 
BRANCH   8  13
HETATM   13  N3  UNL     1       4.347 -12.026  16.257  1.00  0.00    -0.233 N 
ATOM     14  H32 UNL     1       4.569 -12.578  17.085  1.00  0.00     0.174 HD
ATOM     15  H31 UNL     1       5.202 -11.510  16.051  1.00  0.00     0.174 HD
ENDBRANCH   8  13
BRANCH  10  16
HETATM   16  N1  UNL     1       1.156 -13.288  13.205  1.00  0.00    -0.231 N 
ATOM     17  H12 UNL     1       1.563 -13.964  12.559  1.00  0.00     0.174 HD
ATOM     18  H11 UNL     1       0.142 -13.267  13.102  1.00  0.00     0.174 HD
ENDBRANCH  10  16
BRANCH  12  19
HETATM   19  O7  UNL     1       0.371 -10.599  13.999  1.00  0.00    -0.254 OA
ATOM     20  H7  UNL     1       0.406  -9.784  13.511  1.00  0.00     0.247 HD
ENDBRANCH  12  19
ENDBRANCH   1   7
BRANCH   3  21
HETATM   21  O1  UNL     1       1.845  -7.474  18.198  1.00  0.00    -0.377 OA
ATOM     22  H1  UNL     1       1.204  -7.161  17.571  1.00  0.00     0.211 HD
ENDBRANCH   3  21
BRANCH   3  23
HETATM   23  C6  UNL     1       4.142  -7.742  18.377  1.00  0.00     0.210 C 
HETATM   24  O2  UNL     1       4.097  -6.856  19.280  1.00  0.00    -0.646 OA
HETATM   25  O3  UNL     1       5.338  -8.433  18.247  1.00  0.00    -0.646 OA
ENDBRANCH   3  23
BRANCH   4  26
HETATM   26  C8  UNL     1       3.937  -6.321  15.927  1.00  0.00     0.292 C 
HETATM   27  O4  UNL     1       5.108  -6.480  15.557  1.00  0.00    -0.263 OA
BRANCH  26  28
HETATM   28  O5  UNL     1       3.542  -4.985  16.124  1.00  0.00    -0.207 OA
BRANCH  28  29
HETATM   29  N5  UNL     1       2.271  -4.680  16.551  1.00  0.00    -0.100 NA
HETATM   30  C9  UNL     1       1.687  -3.610  15.815  1.00  0.00     0.143 C 
HETATM   31  C10 UNL     1       1.079  -2.641  16.795  1.00  0.00     0.035 C 
HETATM   32  C11 UNL     1       1.204  -3.379  18.101  1.00  0.00     0.132 C 
HETATM   33  N6  UNL     1       2.187  -4.414  17.896  1.00  0.00    -0.139 NA
ENDBRANCH  28  29
ENDBRANCH  26  28
ENDBRANCH   4  26
TORSDOF 9
ENDMDL
