MODEL 1
REMARK VINA RESULT: -8.103938759      0.000      0.000
REMARK  6 active torsions:
REMARK  status: ('A' for Active; 'I' for Inactive)
REMARK    1  A    between atoms: N1_1  and  C1_4 
REMARK    2  A    between atoms: C2_9  and  C3_10 
REMARK    3  A    between atoms: C3_10  and  N4_11 
REMARK    4  A    between atoms: C5_13  and  C6_14 
REMARK    5  A    between atoms: C6_14  and  O1_15 
REMARK    6  A    between atoms: N6_21  and  N7_22 
ROOT
HETATM    1  C6  UNL     1       4.288 -10.447  15.124  1.00  0.00     0.220 A 
HETATM    2  N5  UNL     1       5.166 -11.460  14.569  1.00  0.00    -0.300 N 
ATOM      3  H5  UNL     1       6.021 -11.664  15.087  1.00  0.00     0.168 HD
HETATM    4  C7  UNL     1       4.951 -12.183  13.392  1.00  0.00     0.345 A 
HETATM    5  O2  UNL     1       5.800 -13.044  12.978  1.00  0.00    -0.245 OA
HETATM    6  N6  UNL     1       3.760 -11.934  12.664  1.00  0.00    -0.195 N 
HETATM    7  C8  UNL     1       2.823 -10.972  13.134  1.00  0.00     0.149 A 
HETATM    8  N8  UNL     1       1.685 -10.743  12.444  1.00  0.00    -0.336 N 
ATOM      9  H8  UNL     1       1.526 -11.270  11.585  1.00  0.00     0.168 HD
HETATM   10  C9  UNL     1       0.752  -9.857  12.831  1.00  0.00     0.185 A 
HETATM   11  N9  UNL     1       0.963  -9.161  13.966  1.00  0.00    -0.319 N 
ATOM     12  H9  UNL     1       0.268  -8.482  14.279  1.00  0.00     0.169 HD
HETATM   13  C10 UNL     1       2.097  -9.354  14.700  1.00  0.00     0.261 A 
HETATM   14  O3  UNL     1       2.214  -8.670  15.737  1.00  0.00    -0.267 OA
HETATM   15  C11 UNL     1       3.061 -10.260  14.314  1.00  0.00     0.117 A 
ENDROOT
BRANCH   1  16
HETATM   16  C5  UNL     1       5.109  -9.202  15.168  1.00  0.00     0.104 A 
HETATM   17  C4  UNL     1       5.530  -8.471  16.245  1.00  0.00     0.144 A 
HETATM   18  N4  UNL     1       6.236  -7.442  15.775  1.00  0.00    -0.280 N 
HETATM   19  N11 UNL     1       6.244  -7.540  14.462  1.00  0.00    -0.240 N 
HETATM   20  N10 UNL     1       5.567  -8.600  14.070  1.00  0.00    -0.284 N 
ATOM     21  H11 UNL     1       6.712  -6.886  13.834  1.00  0.00     0.208 HD
ATOM     22  H10 UNL     1       5.421  -8.903  13.107  1.00  0.00     0.188 HD
BRANCH  18  23
HETATM   23  C3  UNL     1       6.880  -6.398  16.564  1.00  0.00     0.228 C 
BRANCH  23  24
HETATM   24  C2  UNL     1       5.806  -5.452  16.956  1.00  0.00     0.132 A 
HETATM   25  N3  UNL     1       5.265  -5.337  18.169  1.00  0.00    -0.273 N 
HETATM   26  N2  UNL     1       4.336  -4.383  18.124  1.00  0.00    -0.131 N 
ATOM     27  H3  UNL     1       5.518  -5.887  18.991  1.00  0.00     0.189 HD
HETATM   28  C1  UNL     1       4.319  -3.911  16.849  1.00  0.00     0.691 A 
ATOM     29  H2  UNL     1       3.750  -4.066  18.897  1.00  0.00     0.205 HD
HETATM   30  N12 UNL     1       5.229  -4.567  16.109  1.00  0.00    -0.177 N 
ATOM     31  H12 UNL     1       5.441  -4.429  15.120  1.00  0.00     0.185 HD
BRANCH  28  32
HETATM   32  N1  UNL     1       3.544  -2.978  16.426  1.00  0.00    -0.233 N 
ATOM     33  H12 UNL     1       3.285  -2.817  15.452  1.00  0.00     0.174 HD
ATOM     34  H11 UNL     1       3.094  -2.284  17.023  1.00  0.00     0.174 HD
ENDBRANCH  28  32
ENDBRANCH  23  24
ENDBRANCH  18  23
ENDBRANCH   1  16
BRANCH   1  35
HETATM   35  O1  UNL     1       4.023 -10.825  16.432  1.00  0.00    -0.361 OA
ATOM     36  H1  UNL     1       3.220 -11.333  16.430  1.00  0.00     0.213 HD
ENDBRANCH   1  35
BRANCH   6  37
HETATM   37  N7  UNL     1       3.552 -12.662  11.487  1.00  0.00    -0.333 N 
ATOM     38  H72 UNL     1       4.171 -13.422  11.203  1.00  0.00     0.177 HD
ATOM     39  H71 UNL     1       2.750 -12.410  10.908  1.00  0.00     0.177 HD
ENDBRANCH   6  37
TORSDOF 6
ENDMDL
MODEL 2
REMARK VINA RESULT: -7.767798456      5.249      9.732
REMARK  6 active torsions:
REMARK  status: ('A' for Active; 'I' for Inactive)
REMARK    1  A    between atoms: N1_1  and  C1_4 
REMARK    2  A    between atoms: C2_9  and  C3_10 
REMARK    3  A    between atoms: C3_10  and  N4_11 
REMARK    4  A    between atoms: C5_13  and  C6_14 
REMARK    5  A    between atoms: C6_14  and  O1_15 
REMARK    6  A    between atoms: N6_21  and  N7_22 
ROOT
HETATM    1  C6  UNL     1      -0.148  -2.347  18.202  1.00  0.00     0.220 A 
HETATM    2  N5  UNL     1      -0.008  -0.976  17.748  1.00  0.00    -0.300 N 
ATOM      3  H5  UNL     1       0.206  -0.836  16.761  1.00  0.00     0.168 HD
HETATM    4  C7  UNL     1      -0.139   0.172  18.536  1.00  0.00     0.345 A 
HETATM    5  O2  UNL     1       0.022   1.339  18.040  1.00  0.00    -0.245 OA
HETATM    6  N6  UNL     1      -0.458   0.007  19.907  1.00  0.00    -0.195 N 
HETATM    7  C8  UNL     1      -0.635  -1.298  20.449  1.00  0.00     0.149 A 
HETATM    8  N8  UNL     1      -0.946  -1.452  21.753  1.00  0.00    -0.336 N 
ATOM      9  H8  UNL     1      -1.043  -0.616  22.330  1.00  0.00     0.168 HD
HETATM   10  C9  UNL     1      -1.136  -2.651  22.330  1.00  0.00     0.185 A 
HETATM   11  N9  UNL     1      -1.007  -3.755  21.568  1.00  0.00    -0.319 N 
ATOM     12  H9  UNL     1      -1.146  -4.675  21.985  1.00  0.00     0.169 HD
HETATM   13  C10 UNL     1      -0.693  -3.654  20.244  1.00  0.00     0.261 A 
HETATM   14  O3  UNL     1      -0.594  -4.724  19.611  1.00  0.00    -0.267 OA
HETATM   15  C11 UNL     1      -0.497  -2.430  19.640  1.00  0.00     0.117 A 
ENDROOT
BRANCH   1  16
HETATM   16  C5  UNL     1       1.170  -2.986  17.921  1.00  0.00     0.104 A 
HETATM   17  C4  UNL     1       1.583  -3.690  16.823  1.00  0.00     0.144 A 
HETATM   18  N4  UNL     1       2.845  -4.061  17.040  1.00  0.00    -0.280 N 
HETATM   19  N11 UNL     1       3.189  -3.603  18.226  1.00  0.00    -0.240 N 
HETATM   20  N10 UNL     1       2.190  -2.947  18.779  1.00  0.00    -0.284 N 
ATOM     21  H11 UNL     1       4.105  -3.736  18.657  1.00  0.00     0.208 HD
ATOM     22  H10 UNL     1       2.195  -2.495  19.694  1.00  0.00     0.188 HD
BRANCH  18  23
HETATM   23  C3  UNL     1       3.692  -4.832  16.137  1.00  0.00     0.228 C 
BRANCH  23  24
HETATM   24  C2  UNL     1       3.166  -6.220  16.160  1.00  0.00     0.132 A 
HETATM   25  N3  UNL     1       2.613  -6.868  15.134  1.00  0.00    -0.273 N 
HETATM   26  N2  UNL     1       2.267  -8.087  15.547  1.00  0.00    -0.131 N 
ATOM     27  H3  UNL     1       2.477  -6.494  14.195  1.00  0.00     0.189 HD
HETATM   28  C1  UNL     1       2.623  -8.174  16.856  1.00  0.00     0.691 A 
ATOM     29  H2  UNL     1       1.822  -8.815  14.988  1.00  0.00     0.205 HD
HETATM   30  N12 UNL     1       3.184  -7.019  17.253  1.00  0.00    -0.177 N 
ATOM     31  H12 UNL     1       3.546  -6.792  18.180  1.00  0.00     0.185 HD
BRANCH  28  32
HETATM   32  N1  UNL     1       2.443  -9.210  17.594  1.00  0.00    -0.233 N 
ATOM     33  H12 UNL     1       1.711  -9.320  18.296  1.00  0.00     0.174 HD
ATOM     34  H11 UNL     1       3.019 -10.051  17.560  1.00  0.00     0.174 HD
ENDBRANCH  28  32
ENDBRANCH  23  24
ENDBRANCH  18  23
ENDBRANCH   1  16
BRANCH   1  35
HETATM   35  O1  UNL     1      -1.092  -2.943  17.379  1.00  0.00    -0.361 OA
ATOM     36  H1  UNL     1      -1.479  -2.262  16.842  1.00  0.00     0.213 HD
ENDBRANCH   1  35
BRANCH   6  37
HETATM   37  N7  UNL     1      -0.588   1.161  20.689  1.00  0.00    -0.333 N 
ATOM     38  H72 UNL     1      -0.666   2.090  20.275  1.00  0.00     0.177 HD
ATOM     39  H71 UNL     1      -0.604   1.048  21.703  1.00  0.00     0.177 HD
ENDBRANCH   6  37
TORSDOF 6
ENDMDL
MODEL 3
REMARK VINA RESULT: -7.627107295      4.464      7.371
REMARK  6 active torsions:
REMARK  status: ('A' for Active; 'I' for Inactive)
REMARK    1  A    between atoms: N1_1  and  C1_4 
REMARK    2  A    between atoms: C2_9  and  C3_10 
REMARK    3  A    between atoms: C3_10  and  N4_11 
REMARK    4  A    between atoms: C5_13  and  C6_14 
REMARK    5  A    between atoms: C6_14  and  O1_15 
REMARK    6  A    between atoms: N6_21  and  N7_22 
ROOT
HETATM    1  C6  UNL     1       3.229  -4.458  17.036  1.00  0.00     0.220 A 
HETATM    2  N5  UNL     1       3.077  -5.310  15.870  1.00  0.00    -0.300 N 
ATOM      3  H5  UNL     1       3.187  -4.867  14.958  1.00  0.00     0.168 HD
HETATM    4  C7  UNL     1       2.797  -6.679  15.880  1.00  0.00     0.345 A 
HETATM    5  O2  UNL     1       2.665  -7.338  14.793  1.00  0.00    -0.245 OA
HETATM    6  N6  UNL     1       2.662  -7.324  17.136  1.00  0.00    -0.195 N 
HETATM    7  C8  UNL     1       2.810  -6.580  18.341  1.00  0.00     0.149 A 
HETATM    8  N8  UNL     1       2.690  -7.198  19.535  1.00  0.00    -0.336 N 
ATOM      9  H8  UNL     1       2.486  -8.198  19.545  1.00  0.00     0.168 HD
HETATM   10  C9  UNL     1       2.825  -6.563  20.712  1.00  0.00     0.185 A 
HETATM   11  N9  UNL     1       3.095  -5.242  20.699  1.00  0.00    -0.319 N 
ATOM     12  H9  UNL     1       3.201  -4.740  21.580  1.00  0.00     0.169 HD
HETATM   13  C10 UNL     1       3.226  -4.571  19.517  1.00  0.00     0.261 A 
HETATM   14  O3  UNL     1       3.476  -3.351  19.594  1.00  0.00    -0.267 OA
HETATM   15  C11 UNL     1       3.090  -5.210  18.304  1.00  0.00     0.117 A 
ENDROOT
BRANCH   1  16
HETATM   16  C5  UNL     1       2.168  -3.418  16.897  1.00  0.00     0.104 A 
HETATM   17  C4  UNL     1       0.928  -3.353  17.472  1.00  0.00     0.144 A 
HETATM   18  N4  UNL     1       0.348  -2.233  17.040  1.00  0.00    -0.280 N 
HETATM   19  N11 UNL     1       1.201  -1.638  16.231  1.00  0.00    -0.240 N 
HETATM   20  N10 UNL     1       2.311  -2.338  16.129  1.00  0.00    -0.284 N 
ATOM     21  H11 UNL     1       1.025  -0.755  15.750  1.00  0.00     0.208 HD
ATOM     22  H10 UNL     1       3.128  -2.099  15.567  1.00  0.00     0.188 HD
BRANCH  18  23
HETATM   23  C3  UNL     1      -0.983  -1.751  17.393  1.00  0.00     0.228 C 
BRANCH  23  24
HETATM   24  C2  UNL     1      -0.779  -0.633  18.347  1.00  0.00     0.132 A 
HETATM   25  N3  UNL     1      -0.610  -0.746  19.665  1.00  0.00    -0.273 N 
HETATM   26  N2  UNL     1      -0.458   0.478  20.173  1.00  0.00    -0.131 N 
ATOM     27  H3  UNL     1      -0.599  -1.618  20.193  1.00  0.00     0.189 HD
HETATM   28  C1  UNL     1      -0.539   1.348  19.132  1.00  0.00     0.691 A 
ATOM     29  H2  UNL     1      -0.311   0.715  21.154  1.00  0.00     0.205 HD
HETATM   30  N12 UNL     1      -0.738   0.672  17.987  1.00  0.00    -0.177 N 
ATOM     31  H12 UNL     1      -0.838   1.058  17.048  1.00  0.00     0.185 HD
BRANCH  28  32
HETATM   32  N1  UNL     1      -0.439   2.624  19.238  1.00  0.00    -0.233 N 
ATOM     33  H12 UNL     1      -0.411   3.147  20.114  1.00  0.00     0.174 HD
ATOM     34  H11 UNL     1      -0.374   3.268  18.450  1.00  0.00     0.174 HD
ENDBRANCH  28  32
ENDBRANCH  23  24
ENDBRANCH  18  23
ENDBRANCH   1  16
BRANCH   1  35
HETATM   35  O1  UNL     1       4.458  -3.828  16.910  1.00  0.00    -0.361 OA
ATOM     36  H1  UNL     1       4.958  -4.298  16.253  1.00  0.00     0.213 HD
ENDBRANCH   1  35
BRANCH   6  37
HETATM   37  N7  UNL     1       2.382  -8.695  17.138  1.00  0.00    -0.333 N 
ATOM     38  H72 UNL     1       2.016  -9.175  16.315  1.00  0.00     0.177 HD
ATOM     39  H71 UNL     1       2.555  -9.214  17.999  1.00  0.00     0.177 HD
ENDBRANCH   6  37
TORSDOF 6
ENDMDL
MODEL 4
REMARK VINA RESULT: -7.625796527      6.164     10.529
REMARK  6 active torsions:
REMARK  status: ('A' for Active; 'I' for Inactive)
REMARK    1  A    between atoms: N1_1  and  C1_4 
REMARK    2  A    between atoms: C2_9  and  C3_10 
REMARK    3  A    between atoms: C3_10  and  N4_11 
REMARK    4  A    between atoms: C5_13  and  C6_14 
REMARK    5  A    between atoms: C6_14  and  O1_15 
REMARK    6  A    between atoms: N6_21  and  N7_22 
ROOT
HETATM    1  C6  UNL     1      -0.961  -1.244  18.329  1.00  0.00     0.220 A 
HETATM    2  N5  UNL     1      -1.283   0.014  17.680  1.00  0.00    -0.300 N 
ATOM      3  H5  UNL     1      -1.601  -0.035  16.713  1.00  0.00     0.168 HD
HETATM    4  C7  UNL     1      -1.199   1.285  18.257  1.00  0.00     0.345 A 
HETATM    5  O2  UNL     1      -1.491   2.336  17.591  1.00  0.00    -0.245 OA
HETATM    6  N6  UNL     1      -0.780   1.378  19.608  1.00  0.00    -0.195 N 
HETATM    7  C8  UNL     1      -0.458   0.200  20.340  1.00  0.00     0.149 A 
HETATM    8  N8  UNL     1      -0.067   0.292  21.629  1.00  0.00    -0.336 N 
ATOM      9  H8  UNL     1      -0.006   1.218  22.053  1.00  0.00     0.168 HD
HETATM   10  C9  UNL     1       0.244  -0.776  22.383  1.00  0.00     0.185 A 
HETATM   11  N9  UNL     1       0.164  -2.000  21.824  1.00  0.00    -0.319 N 
ATOM     12  H9  UNL     1       0.396  -2.825  22.378  1.00  0.00     0.169 HD
HETATM   13  C10 UNL     1      -0.225  -2.146  20.524  1.00  0.00     0.261 A 
HETATM   14  O3  UNL     1      -0.274  -3.313  20.084  1.00  0.00    -0.267 OA
HETATM   15  C11 UNL     1      -0.549  -1.060  19.740  1.00  0.00     0.117 A 
ENDROOT
BRANCH   1  16
HETATM   16  C5  UNL     1       0.139  -1.832  17.510  1.00  0.00     0.104 A 
HETATM   17  C4  UNL     1       0.417  -3.143  17.233  1.00  0.00     0.144 A 
HETATM   18  N4  UNL     1       1.503  -3.165  16.461  1.00  0.00    -0.280 N 
HETATM   19  N11 UNL     1       1.876  -1.915  16.275  1.00  0.00    -0.240 N 
HETATM   20  N10 UNL     1       1.064  -1.089  16.901  1.00  0.00    -0.284 N 
ATOM     21  H11 UNL     1       2.682  -1.627  15.720  1.00  0.00     0.208 HD
ATOM     22  H10 UNL     1       1.130  -0.072  16.918  1.00  0.00     0.188 HD
BRANCH  18  23
HETATM   23  C3  UNL     1       2.161  -4.349  15.920  1.00  0.00     0.228 C 
BRANCH  23  24
HETATM   24  C2  UNL     1       3.364  -4.574  16.760  1.00  0.00     0.132 A 
HETATM   25  N3  UNL     1       3.380  -4.720  18.086  1.00  0.00    -0.273 N 
HETATM   26  N2  UNL     1       4.643  -4.902  18.471  1.00  0.00    -0.131 N 
ATOM     27  H3  UNL     1       2.565  -4.697  18.699  1.00  0.00     0.189 HD
HETATM   28  C1  UNL     1       5.406  -4.863  17.347  1.00  0.00     0.691 A 
ATOM     29  H2  UNL     1       4.974  -5.043  19.426  1.00  0.00     0.205 HD
HETATM   30  N12 UNL     1       4.624  -4.659  16.272  1.00  0.00    -0.177 N 
ATOM     31  H12 UNL     1       4.917  -4.585  15.298  1.00  0.00     0.185 HD
BRANCH  28  32
HETATM   32  N1  UNL     1       6.683  -5.002  17.326  1.00  0.00    -0.233 N 
ATOM     33  H12 UNL     1       7.357  -4.267  17.109  1.00  0.00     0.174 HD
ATOM     34  H11 UNL     1       7.174  -5.872  17.528  1.00  0.00     0.174 HD
ENDBRANCH  28  32
ENDBRANCH  23  24
ENDBRANCH  18  23
ENDBRANCH   1  16
BRANCH   1  35
HETATM   35  O1  UNL     1      -2.074  -2.059  18.190  1.00  0.00    -0.361 OA
ATOM     36  H1  UNL     1      -1.770  -2.957  18.131  1.00  0.00     0.213 HD
ENDBRANCH   1  35
BRANCH   6  37
HETATM   37  N7  UNL     1      -0.700   2.654  20.179  1.00  0.00    -0.333 N 
ATOM     38  H72 UNL     1      -1.134   3.469  19.746  1.00  0.00     0.177 HD
ATOM     39  H71 UNL     1      -0.186   2.750  21.055  1.00  0.00     0.177 HD
ENDBRANCH   6  37
TORSDOF 6
ENDMDL
MODEL 5
REMARK VINA RESULT: -7.569112575      2.058      7.300
REMARK  6 active torsions:
REMARK  status: ('A' for Active; 'I' for Inactive)
REMARK    1  A    between atoms: N1_1  and  C1_4 
REMARK    2  A    between atoms: C2_9  and  C3_10 
REMARK    3  A    between atoms: C3_10  and  N4_11 
REMARK    4  A    between atoms: C5_13  and  C6_14 
REMARK    5  A    between atoms: C6_14  and  O1_15 
REMARK    6  A    between atoms: N6_21  and  N7_22 
ROOT
HETATM    1  C6  UNL     1       3.451  -8.851  17.036  1.00  0.00     0.220 A 
HETATM    2  N5  UNL     1       2.468  -8.435  18.019  1.00  0.00    -0.300 N 
ATOM      3  H5  UNL     1       1.665  -9.049  18.157  1.00  0.00     0.168 HD
HETATM    4  C7  UNL     1       2.518  -7.273  18.795  1.00  0.00     0.345 A 
HETATM    5  O2  UNL     1       1.587  -6.987  19.623  1.00  0.00    -0.245 OA
HETATM    6  N6  UNL     1       3.634  -6.413  18.637  1.00  0.00    -0.195 N 
HETATM    7  C8  UNL     1       4.664  -6.740  17.711  1.00  0.00     0.149 A 
HETATM    8  N8  UNL     1       5.730  -5.924  17.570  1.00  0.00    -0.336 N 
ATOM      9  H8  UNL     1       5.769  -5.076  18.135  1.00  0.00     0.168 HD
HETATM   10  C9  UNL     1       6.743  -6.173  16.723  1.00  0.00     0.185 A 
HETATM   11  N9  UNL     1       6.692  -7.294  15.976  1.00  0.00    -0.319 N 
ATOM     12  H9  UNL     1       7.450  -7.503  15.326  1.00  0.00     0.169 HD
HETATM   13  C10 UNL     1       5.635  -8.152  16.081  1.00  0.00     0.261 A 
HETATM   14  O3  UNL     1       5.667  -9.166  15.354  1.00  0.00    -0.267 OA
HETATM   15  C11 UNL     1       4.591  -7.909  16.946  1.00  0.00     0.117 A 
ENDROOT
BRANCH   1  16
HETATM   16  C5  UNL     1       2.703  -8.930  15.748  1.00  0.00     0.104 A 
HETATM   17  C4  UNL     1       1.995  -9.970  15.211  1.00  0.00     0.144 A 
HETATM   18  N4  UNL     1       1.509  -9.558  14.040  1.00  0.00    -0.280 N 
HETATM   19  N11 UNL     1       1.906  -8.314  13.868  1.00  0.00    -0.240 N 
HETATM   20  N10 UNL     1       2.632  -7.911  14.890  1.00  0.00    -0.284 N 
ATOM     21  H11 UNL     1       1.681  -7.741  13.054  1.00  0.00     0.208 HD
ATOM     22  H10 UNL     1       3.059  -6.992  15.005  1.00  0.00     0.188 HD
BRANCH  18  23
HETATM   23  C3  UNL     1       0.690 -10.336  13.117  1.00  0.00     0.228 C 
BRANCH  23  24
HETATM   24  C2  UNL     1       1.431 -11.598  12.868  1.00  0.00     0.132 A 
HETATM   25  N3  UNL     1       1.115 -12.801  13.347  1.00  0.00    -0.273 N 
HETATM   26  N2  UNL     1       2.016 -13.677  12.903  1.00  0.00    -0.131 N 
ATOM     27  H3  UNL     1       0.321 -13.015  13.950  1.00  0.00     0.189 HD
HETATM   28  C1  UNL     1       2.897 -12.980  12.137  1.00  0.00     0.691 A 
ATOM     29  H2  UNL     1       2.041 -14.678  13.100  1.00  0.00     0.205 HD
HETATM   30  N12 UNL     1       2.546 -11.683  12.105  1.00  0.00    -0.177 N 
ATOM     31  H12 UNL     1       3.019 -10.925  11.613  1.00  0.00     0.185 HD
BRANCH  28  32
HETATM   32  N1  UNL     1       3.910 -13.495  11.539  1.00  0.00    -0.233 N 
ATOM     33  H12 UNL     1       4.011 -14.477  11.279  1.00  0.00     0.174 HD
ATOM     34  H11 UNL     1       4.739 -12.976  11.251  1.00  0.00     0.174 HD
ENDBRANCH  28  32
ENDBRANCH  23  24
ENDBRANCH  18  23
ENDBRANCH   1  16
BRANCH   1  35
HETATM   35  O1  UNL     1       3.837 -10.138  17.381  1.00  0.00    -0.361 OA
ATOM     36  H1  UNL     1       4.353 -10.082  18.177  1.00  0.00     0.213 HD
ENDBRANCH   1  35
BRANCH   6  37
HETATM   37  N7  UNL     1       3.677  -5.252  19.418  1.00  0.00    -0.333 N 
ATOM     38  H72 UNL     1       3.124  -4.425  19.190  1.00  0.00     0.177 HD
ATOM     39  H71 UNL     1       4.287  -5.252  20.236  1.00  0.00     0.177 HD
ENDBRANCH   6  37
TORSDOF 6
ENDMDL
