MODEL 1
REMARK VINA RESULT: -8.254335193      0.000      0.000
REMARK  8 active torsions:
REMARK  status: ('A' for Active; 'I' for Inactive)
REMARK    1  A    between atoms: C3_5  and  N2_6 
REMARK    2  A    between atoms: N2_6  and  C5_8 
REMARK    3  A    between atoms: C6_11  and  N4_12 
REMARK    4  A    between atoms: C7_17  and  N6_18 
REMARK    5  A    between atoms: C8_25  and  N9_26 
REMARK    6  A    between atoms: N9_26  and  C9_28 
REMARK    7  A    between atoms: C9_28  and  O1_29 
REMARK    8  A    between atoms: C9_28  and  C10_31 
ROOT
HETATM    1  C1  UNL     1       6.625  -5.761  17.043  1.00  0.00     0.090 C 
HETATM    2  C2  UNL     1       5.207  -6.043  16.609  1.00  0.00     0.109 A 
HETATM    3  N1  UNL     1       4.781  -7.299  16.417  1.00  0.00    -0.179 N 
ATOM      4  H1  UNL     1       5.422  -8.075  16.581  1.00  0.00     0.185 HD
HETATM    5  C3  UNL     1       3.500  -7.561  16.006  1.00  0.00     0.714 A 
HETATM    6  N8  UNL     1       2.675  -6.516  15.796  1.00  0.00    -0.021 N 
ATOM      7  H8  UNL     1       1.719  -6.698  15.487  1.00  0.00     0.203 HD
HETATM    8  C8  UNL     1       3.066  -5.241  15.981  1.00  0.00     0.696 A 
HETATM    9  N13 UNL     1       4.329  -5.048  16.384  1.00  0.00    -0.180 N 
ATOM     10  H13 UNL     1       4.645  -4.090  16.529  1.00  0.00     0.185 HD
ENDROOT
BRANCH   5  11
HETATM   11  N2  UNL     1       3.104  -8.918  15.855  1.00  0.00    -0.017 N 
HETATM   12  C4  UNL     1       3.397  -9.873  16.930  1.00  0.00     0.195 C 
BRANCH  11  13
HETATM   13  C5  UNL     1       2.449  -9.448  14.719  1.00  0.00     0.727 A 
HETATM   14  N3  UNL     1       2.183  -8.762  13.593  1.00  0.00    -0.021 N 
HETATM   15  C6  UNL     1       1.533  -9.341  12.554  1.00  0.00     0.705 A 
ATOM     16  H3  UNL     1       2.476  -7.788  13.519  1.00  0.00     0.203 HD
HETATM   17  N5  UNL     1       1.136 -10.626  12.620  1.00  0.00    -0.022 N 
HETATM   18  C7  UNL     1       1.388 -11.339  13.736  1.00  0.00     0.705 A 
ATOM     19  H5  UNL     1       0.648 -11.055  11.834  1.00  0.00     0.203 HD
HETATM   20  N7  UNL     1       2.027 -10.749  14.745  1.00  0.00    -0.021 N 
ATOM     21  H7  UNL     1       2.213 -11.299  15.584  1.00  0.00     0.203 HD
BRANCH  15  22
HETATM   22  N4  UNL     1       1.300  -8.621  11.494  1.00  0.00    -0.234 N 
ATOM     23  H42 UNL     1       1.945  -8.626  10.704  1.00  0.00     0.174 HD
ATOM     24  H41 UNL     1       0.453  -8.053  11.472  1.00  0.00     0.174 HD
ENDBRANCH  15  22
BRANCH  18  25
HETATM   25  N6  UNL     1       1.017 -12.571  13.833  1.00  0.00    -0.234 N 
ATOM     26  H62 UNL     1       0.581 -13.040  13.039  1.00  0.00     0.174 HD
ATOM     27  H61 UNL     1       1.156 -13.093  14.699  1.00  0.00     0.174 HD
ENDBRANCH  18  25
ENDBRANCH  11  13
ENDBRANCH   5  11
BRANCH   8  28
HETATM   28  N9  UNL     1       2.206  -4.311  15.769  1.00  0.00    -0.192 N 
ATOM     29  H9  UNL     1       1.576  -4.411  14.973  1.00  0.00     0.180 HD
BRANCH  28  30
HETATM   30  C9  UNL     1       2.079  -3.130  16.591  1.00  0.00     0.304 C 
BRANCH  30  31
HETATM   31  O1  UNL     1       2.914  -2.164  15.978  1.00  0.00    -0.369 OA
ATOM     32  H1  UNL     1       2.598  -1.327  16.299  1.00  0.00     0.212 HD
ENDBRANCH  30  31
BRANCH  30  33
HETATM   33  C10 UNL     1       0.672  -2.651  16.627  1.00  0.00     0.149 A 
HETATM   34  N10 UNL     1      -0.010  -2.132  15.576  1.00  0.00    -0.284 N 
HETATM   35  N11 UNL     1      -1.246  -1.814  15.936  1.00  0.00    -0.295 N 
ATOM     36  H10 UNL     1       0.374  -2.005  14.640  1.00  0.00     0.188 HD
HETATM   37  C11 UNL     1      -1.377  -2.127  17.240  1.00  0.00     0.201 A 
ATOM     38  H11 UNL     1      -1.964  -1.406  15.337  1.00  0.00     0.187 HD
HETATM   39  N12 UNL     1      -0.211  -2.631  17.636  1.00  0.00    -0.331 N 
HETATM   40  C12 UNL     1       0.055  -3.101  18.988  1.00  0.00     0.158 C 
ENDBRANCH  30  33
ENDBRANCH  28  30
ENDBRANCH   8  28
TORSDOF 8
ENDMDL
MODEL 2
REMARK VINA RESULT: -8.188893768      0.568      1.662
REMARK  8 active torsions:
REMARK  status: ('A' for Active; 'I' for Inactive)
REMARK    1  A    between atoms: C3_5  and  N2_6 
REMARK    2  A    between atoms: N2_6  and  C5_8 
REMARK    3  A    between atoms: C6_11  and  N4_12 
REMARK    4  A    between atoms: C7_17  and  N6_18 
REMARK    5  A    between atoms: C8_25  and  N9_26 
REMARK    6  A    between atoms: N9_26  and  C9_28 
REMARK    7  A    between atoms: C9_28  and  O1_29 
REMARK    8  A    between atoms: C9_28  and  C10_31 
ROOT
HETATM    1  C1  UNL     1       6.795  -6.651  16.658  1.00  0.00     0.090 C 
HETATM    2  C2  UNL     1       5.310  -6.721  16.395  1.00  0.00     0.109 A 
HETATM    3  N1  UNL     1       4.682  -7.901  16.298  1.00  0.00    -0.179 N 
ATOM      4  H1  UNL     1       5.215  -8.763  16.417  1.00  0.00     0.185 HD
HETATM    5  C3  UNL     1       3.338  -7.972  16.042  1.00  0.00     0.714 A 
HETATM    6  N8  UNL     1       2.659  -6.819  15.889  1.00  0.00    -0.021 N 
ATOM      7  H8  UNL     1       1.658  -6.858  15.696  1.00  0.00     0.203 HD
HETATM    8  C8  UNL     1       3.254  -5.614  15.982  1.00  0.00     0.696 A 
HETATM    9  N13 UNL     1       4.570  -5.609  16.234  1.00  0.00    -0.180 N 
ATOM     10  H13 UNL     1       5.040  -4.707  16.308  1.00  0.00     0.185 HD
ENDROOT
BRANCH   5  11
HETATM   11  N2  UNL     1       2.729  -9.256  15.985  1.00  0.00    -0.017 N 
HETATM   12  C4  UNL     1       2.634 -10.058  17.211  1.00  0.00     0.195 C 
BRANCH  11  13
HETATM   13  C5  UNL     1       2.207  -9.853  14.814  1.00  0.00     0.727 A 
HETATM   14  N3  UNL     1       1.823 -11.137  14.709  1.00  0.00    -0.021 N 
HETATM   15  C6  UNL     1       1.350 -11.636  13.542  1.00  0.00     0.705 A 
ATOM     16  H3  UNL     1       1.889 -11.747  15.524  1.00  0.00     0.203 HD
HETATM   17  N5  UNL     1       1.248 -10.855  12.449  1.00  0.00    -0.022 N 
HETATM   18  C7  UNL     1       1.625  -9.564  12.524  1.00  0.00     0.705 A 
ATOM     19  H5  UNL     1       0.889 -11.237  11.574  1.00  0.00     0.203 HD
HETATM   20  N7  UNL     1       2.089  -9.095  13.682  1.00  0.00    -0.021 N 
ATOM     21  H7  UNL     1       2.371  -8.115  13.726  1.00  0.00     0.203 HD
BRANCH  15  22
HETATM   22  N4  UNL     1       1.000 -12.891  13.503  1.00  0.00    -0.234 N 
ATOM     23  H42 UNL     1       1.658 -13.627  13.757  1.00  0.00     0.174 HD
ATOM     24  H41 UNL     1       0.048 -13.118  13.216  1.00  0.00     0.174 HD
ENDBRANCH  15  22
BRANCH  18  25
HETATM   25  N6  UNL     1       1.545  -8.789  11.494  1.00  0.00    -0.234 N 
ATOM     26  H62 UNL     1       1.986  -9.057  10.614  1.00  0.00     0.174 HD
ATOM     27  H61 UNL     1       1.039  -7.904  11.543  1.00  0.00     0.174 HD
ENDBRANCH  18  25
ENDBRANCH  11  13
ENDBRANCH   5  11
BRANCH   8  28
HETATM   28  N9  UNL     1       2.524  -4.568  15.835  1.00  0.00    -0.192 N 
ATOM     29  H9  UNL     1       1.900  -4.528  15.028  1.00  0.00     0.180 HD
BRANCH  28  30
HETATM   30  C9  UNL     1       2.534  -3.446  16.744  1.00  0.00     0.304 C 
BRANCH  30  31
HETATM   31  O1  UNL     1       3.421  -2.509  16.160  1.00  0.00    -0.369 OA
ATOM     32  H1  UNL     1       3.655  -1.918  16.866  1.00  0.00     0.212 HD
ENDBRANCH  30  31
BRANCH  30  33
HETATM   33  C10 UNL     1       1.176  -2.857  16.882  1.00  0.00     0.149 A 
HETATM   34  N10 UNL     1       0.498  -2.202  15.907  1.00  0.00    -0.284 N 
HETATM   35  N11 UNL     1      -0.689  -1.812  16.348  1.00  0.00    -0.295 N 
ATOM     36  H10 UNL     1       0.853  -2.033  14.966  1.00  0.00     0.188 HD
HETATM   37  C11 UNL     1      -0.794  -2.216  17.630  1.00  0.00     0.201 A 
ATOM     38  H11 UNL     1      -1.394  -1.300  15.816  1.00  0.00     0.187 HD
HETATM   39  N12 UNL     1       0.340  -2.844  17.930  1.00  0.00    -0.331 N 
HETATM   40  C12 UNL     1       0.620  -3.440  19.229  1.00  0.00     0.158 C 
ENDBRANCH  30  33
ENDBRANCH  28  30
ENDBRANCH   8  28
TORSDOF 8
ENDMDL
MODEL 3
REMARK VINA RESULT: -8.034178416      2.651      4.918
REMARK  8 active torsions:
REMARK  status: ('A' for Active; 'I' for Inactive)
REMARK    1  A    between atoms: C3_5  and  N2_6 
REMARK    2  A    between atoms: N2_6  and  C5_8 
REMARK    3  A    between atoms: C6_11  and  N4_12 
REMARK    4  A    between atoms: C7_17  and  N6_18 
REMARK    5  A    between atoms: C8_25  and  N9_26 
REMARK    6  A    between atoms: N9_26  and  C9_28 
REMARK    7  A    between atoms: C9_28  and  O1_29 
REMARK    8  A    between atoms: C9_28  and  C10_31 
ROOT
HETATM    1  C1  UNL     1       1.253  -5.498  20.879  1.00  0.00     0.090 C 
HETATM    2  C2  UNL     1       1.359  -4.552  19.706  1.00  0.00     0.109 A 
HETATM    3  N1  UNL     1       2.276  -4.743  18.748  1.00  0.00    -0.179 N 
ATOM      4  H1  UNL     1       2.902  -5.547  18.807  1.00  0.00     0.185 HD
HETATM    5  C3  UNL     1       2.390  -3.879  17.691  1.00  0.00     0.714 A 
HETATM    6  N8  UNL     1       1.551  -2.826  17.638  1.00  0.00    -0.021 N 
ATOM      7  H8  UNL     1       1.627  -2.174  16.857  1.00  0.00     0.203 HD
HETATM    8  C8  UNL     1       0.615  -2.603  18.581  1.00  0.00     0.696 A 
HETATM    9  N13 UNL     1       0.553  -3.482  19.590  1.00  0.00    -0.180 N 
ATOM     10  H13 UNL     1      -0.149  -3.331  20.314  1.00  0.00     0.185 HD
ENDROOT
BRANCH   5  11
HETATM   11  N2  UNL     1       3.362  -4.159  16.691  1.00  0.00    -0.017 N 
HETATM   12  C4  UNL     1       4.122  -3.051  16.101  1.00  0.00     0.195 C 
BRANCH  11  13
HETATM   13  C5  UNL     1       3.656  -5.448  16.188  1.00  0.00     0.727 A 
HETATM   14  N3  UNL     1       2.739  -6.370  15.848  1.00  0.00    -0.021 N 
HETATM   15  C6  UNL     1       3.106  -7.591  15.389  1.00  0.00     0.705 A 
ATOM     16  H3  UNL     1       1.747  -6.147  15.937  1.00  0.00     0.203 HD
HETATM   17  N5  UNL     1       4.406  -7.915  15.258  1.00  0.00    -0.022 N 
HETATM   18  C7  UNL     1       5.348  -7.012  15.590  1.00  0.00     0.705 A 
ATOM     19  H5  UNL     1       4.675  -8.836  14.910  1.00  0.00     0.203 HD
HETATM   20  N7  UNL     1       4.965  -5.818  16.040  1.00  0.00    -0.021 N 
ATOM     21  H7  UNL     1       5.687  -5.142  16.288  1.00  0.00     0.203 HD
BRANCH  15  22
HETATM   22  N4  UNL     1       2.168  -8.443  15.083  1.00  0.00    -0.234 N 
ATOM     23  H42 UNL     1       1.631  -8.916  15.809  1.00  0.00     0.174 HD
ATOM     24  H41 UNL     1       1.982  -8.622  14.096  1.00  0.00     0.174 HD
ENDBRANCH  15  22
BRANCH  18  25
HETATM   25  N6  UNL     1       6.604  -7.292  15.480  1.00  0.00    -0.234 N 
ATOM     26  H62 UNL     1       7.070  -7.216  14.576  1.00  0.00     0.174 HD
ATOM     27  H61 UNL     1       7.148  -7.589  16.291  1.00  0.00     0.174 HD
ENDBRANCH  18  25
ENDBRANCH  11  13
ENDBRANCH   5  11
BRANCH   8  28
HETATM   28  N9  UNL     1      -0.149  -1.580  18.441  1.00  0.00    -0.192 N 
ATOM     29  H9  UNL     1      -1.102  -1.734  18.111  1.00  0.00     0.180 HD
BRANCH  28  30
HETATM   30  C9  UNL     1       0.264  -0.224  18.721  1.00  0.00     0.304 C 
BRANCH  30  31
HETATM   31  O1  UNL     1       1.043   0.162  17.604  1.00  0.00    -0.369 OA
ATOM     32  H1  UNL     1       0.797  -0.442  16.913  1.00  0.00     0.212 HD
ENDBRANCH  30  31
BRANCH  30  33
HETATM   33  C10 UNL     1      -0.912   0.674  18.868  1.00  0.00     0.149 A 
HETATM   34  N10 UNL     1      -1.268   1.653  17.999  1.00  0.00    -0.284 N 
HETATM   35  N11 UNL     1      -2.371   2.261  18.413  1.00  0.00    -0.295 N 
ATOM     36  H10 UNL     1      -0.759   1.888  17.148  1.00  0.00     0.188 HD
HETATM   37  C11 UNL     1      -2.745   1.675  19.567  1.00  0.00     0.201 A 
ATOM     38  H11 UNL     1      -2.848   3.031  17.944  1.00  0.00     0.187 HD
HETATM   39  N12 UNL     1      -1.853   0.721  19.822  1.00  0.00    -0.331 N 
HETATM   40  C12 UNL     1      -1.908  -0.155  20.984  1.00  0.00     0.158 C 
ENDBRANCH  30  33
ENDBRANCH  28  30
ENDBRANCH   8  28
TORSDOF 8
ENDMDL
MODEL 4
REMARK VINA RESULT: -7.826215313      5.126     10.772
REMARK  8 active torsions:
REMARK  status: ('A' for Active; 'I' for Inactive)
REMARK    1  A    between atoms: C3_5  and  N2_6 
REMARK    2  A    between atoms: N2_6  and  C5_8 
REMARK    3  A    between atoms: C6_11  and  N4_12 
REMARK    4  A    between atoms: C7_17  and  N6_18 
REMARK    5  A    between atoms: C8_25  and  N9_26 
REMARK    6  A    between atoms: N9_26  and  C9_28 
REMARK    7  A    between atoms: C9_28  and  O1_29 
REMARK    8  A    between atoms: C9_28  and  C10_31 
ROOT
HETATM    1  C1  UNL     1      -2.897   1.827  19.323  1.00  0.00     0.090 C 
HETATM    2  C2  UNL     1      -1.739   0.866  19.450  1.00  0.00     0.109 A 
HETATM    3  N1  UNL     1      -1.310   0.459  20.653  1.00  0.00    -0.179 N 
ATOM      4  H1  UNL     1      -1.782   0.794  21.492  1.00  0.00     0.185 HD
HETATM    5  C3  UNL     1      -0.248  -0.398  20.776  1.00  0.00     0.714 A 
HETATM    6  N8  UNL     1       0.358  -0.824  19.650  1.00  0.00    -0.021 N 
ATOM      7  H8  UNL     1       1.151  -1.461  19.728  1.00  0.00     0.203 HD
HETATM    8  C8  UNL     1      -0.047  -0.439  18.424  1.00  0.00     0.696 A 
HETATM    9  N13 UNL     1      -1.090   0.400  18.368  1.00  0.00    -0.180 N 
ATOM     10  H13 UNL     1      -1.412   0.703  17.450  1.00  0.00     0.185 HD
ENDROOT
BRANCH   5  11
HETATM   11  N2  UNL     1       0.134  -0.817  22.080  1.00  0.00    -0.017 N 
HETATM   12  C4  UNL     1       0.894  -2.062  22.238  1.00  0.00     0.195 C 
BRANCH  11  13
HETATM   13  C5  UNL     1      -0.180  -0.128  23.275  1.00  0.00     0.727 A 
HETATM   14  N3  UNL     1      -1.410  -0.034  23.810  1.00  0.00    -0.021 N 
HETATM   15  C6  UNL     1      -1.628   0.662  24.952  1.00  0.00     0.705 A 
ATOM     16  H3  UNL     1      -2.193  -0.496  23.348  1.00  0.00     0.203 HD
HETATM   17  N5  UNL     1      -0.614   1.280  25.587  1.00  0.00    -0.022 N 
HETATM   18  C7  UNL     1       0.629   1.204  25.074  1.00  0.00     0.705 A 
ATOM     19  H5  UNL     1      -0.787   1.801  26.447  1.00  0.00     0.203 HD
HETATM   20  N7  UNL     1       0.821   0.515  23.950  1.00  0.00    -0.021 N 
ATOM     21  H7  UNL     1       1.767   0.464  23.572  1.00  0.00     0.203 HD
BRANCH  15  22
HETATM   22  N4  UNL     1      -2.845   0.720  25.416  1.00  0.00    -0.234 N 
ATOM     23  H42 UNL     1      -3.555   0.055  25.110  1.00  0.00     0.174 HD
ATOM     24  H41 UNL     1      -3.068   1.446  26.097  1.00  0.00     0.174 HD
ENDBRANCH  15  22
BRANCH  18  25
HETATM   25  N6  UNL     1       1.623   1.788  25.656  1.00  0.00    -0.234 N 
ATOM     26  H62 UNL     1       1.479   2.301  26.526  1.00  0.00     0.174 HD
ATOM     27  H61 UNL     1       2.561   1.746  25.258  1.00  0.00     0.174 HD
ENDBRANCH  18  25
ENDBRANCH  11  13
ENDBRANCH   5  11
BRANCH   8  28
HETATM   28  N9  UNL     1       0.584  -0.907  17.408  1.00  0.00    -0.192 N 
ATOM     29  H9  UNL     1       1.135  -0.259  16.845  1.00  0.00     0.180 HD
BRANCH  28  30
HETATM   30  C9  UNL     1       0.558  -2.297  17.016  1.00  0.00     0.304 C 
BRANCH  30  31
HETATM   31  O1  UNL     1       0.100  -2.292  15.676  1.00  0.00    -0.369 OA
ATOM     32  H1  UNL     1      -0.848  -2.287  15.740  1.00  0.00     0.212 HD
ENDBRANCH  30  31
BRANCH  30  33
HETATM   33  C10 UNL     1       1.914  -2.902  17.097  1.00  0.00     0.149 A 
HETATM   34  N10 UNL     1       2.918  -2.706  16.207  1.00  0.00    -0.284 N 
HETATM   35  N11 UNL     1       4.001  -3.377  16.574  1.00  0.00    -0.295 N 
ATOM     36  H10 UNL     1       2.850  -2.123  15.373  1.00  0.00     0.188 HD
HETATM   37  C11 UNL     1       3.704  -4.022  17.719  1.00  0.00     0.201 A 
ATOM     38  H11 UNL     1       4.893  -3.401  16.080  1.00  0.00     0.187 HD
HETATM   39  N12 UNL     1       2.443  -3.721  18.017  1.00  0.00    -0.331 N 
HETATM   40  C12 UNL     1       1.744  -4.218  19.194  1.00  0.00     0.158 C 
ENDBRANCH  30  33
ENDBRANCH  28  30
ENDBRANCH   8  28
TORSDOF 8
ENDMDL
MODEL 5
REMARK VINA RESULT: -7.792915080      5.094     10.639
REMARK  8 active torsions:
REMARK  status: ('A' for Active; 'I' for Inactive)
REMARK    1  A    between atoms: C3_5  and  N2_6 
REMARK    2  A    between atoms: N2_6  and  C5_8 
REMARK    3  A    between atoms: C6_11  and  N4_12 
REMARK    4  A    between atoms: C7_17  and  N6_18 
REMARK    5  A    between atoms: C8_25  and  N9_26 
REMARK    6  A    between atoms: N9_26  and  C9_28 
REMARK    7  A    between atoms: C9_28  and  O1_29 
REMARK    8  A    between atoms: C9_28  and  C10_31 
ROOT
HETATM    1  C1  UNL     1      -2.723   1.853  19.192  1.00  0.00     0.090 C 
HETATM    2  C2  UNL     1      -1.592   0.864  19.333  1.00  0.00     0.109 A 
HETATM    3  N1  UNL     1      -1.203   0.427  20.539  1.00  0.00    -0.179 N 
ATOM      4  H1  UNL     1      -1.690   0.759  21.372  1.00  0.00     0.185 HD
HETATM    5  C3  UNL     1      -0.166  -0.457  20.675  1.00  0.00     0.714 A 
HETATM    6  N8  UNL     1       0.459  -0.879  19.559  1.00  0.00    -0.021 N 
ATOM      7  H8  UNL     1       1.235  -1.536  19.647  1.00  0.00     0.203 HD
HETATM    8  C8  UNL     1       0.096  -0.465  18.330  1.00  0.00     0.696 A 
HETATM    9  N13 UNL     1      -0.925   0.399  18.261  1.00  0.00    -0.180 N 
ATOM     10  H13 UNL     1      -1.216   0.725  17.339  1.00  0.00     0.185 HD
ENDROOT
BRANCH   5  11
HETATM   11  N2  UNL     1       0.172  -0.905  21.982  1.00  0.00    -0.017 N 
HETATM   12  C4  UNL     1       0.769  -2.236  22.150  1.00  0.00     0.195 C 
BRANCH  11  13
HETATM   13  C5  UNL     1      -0.040  -0.168  23.170  1.00  0.00     0.727 A 
HETATM   14  N3  UNL     1       0.881   0.602  23.774  1.00  0.00    -0.021 N 
HETATM   15  C6  UNL     1       0.601   1.263  24.923  1.00  0.00     0.705 A 
ATOM     16  H3  UNL     1       1.809   0.691  23.360  1.00  0.00     0.203 HD
HETATM   17  N5  UNL     1      -0.615   1.167  25.494  1.00  0.00    -0.022 N 
HETATM   18  C7  UNL     1      -1.559   0.403  24.912  1.00  0.00     0.705 A 
ATOM     19  H5  UNL     1      -0.819   1.669  26.359  1.00  0.00     0.203 HD
HETATM   20  N7  UNL     1      -1.261  -0.238  23.783  1.00  0.00    -0.021 N 
ATOM     21  H7  UNL     1      -1.985  -0.814  23.351  1.00  0.00     0.203 HD
BRANCH  15  22
HETATM   22  N4  UNL     1       1.540   1.988  25.463  1.00  0.00    -0.234 N 
ATOM     23  H42 UNL     1       2.522   1.734  25.363  1.00  0.00     0.174 HD
ATOM     24  H41 UNL     1       1.267   2.821  25.985  1.00  0.00     0.174 HD
ENDBRANCH  15  22
BRANCH  18  25
HETATM   25  N6  UNL     1      -2.734   0.287  25.435  1.00  0.00    -0.234 N 
ATOM     26  H62 UNL     1      -3.498   0.884  25.119  1.00  0.00     0.174 HD
ATOM     27  H61 UNL     1      -2.916  -0.402  26.166  1.00  0.00     0.174 HD
ENDBRANCH  18  25
ENDBRANCH  11  13
ENDBRANCH   5  11
BRANCH   8  28
HETATM   28  N9  UNL     1       0.742  -0.932  17.322  1.00  0.00    -0.192 N 
ATOM     29  H9  UNL     1       1.312  -0.285  16.776  1.00  0.00     0.180 HD
BRANCH  28  30
HETATM   30  C9  UNL     1       0.707  -2.318  16.917  1.00  0.00     0.304 C 
BRANCH  30  31
HETATM   31  O1  UNL     1       0.298  -2.294  15.561  1.00  0.00    -0.369 OA
ATOM     32  H1  UNL     1       0.731  -1.536  15.187  1.00  0.00     0.212 HD
ENDBRANCH  30  31
BRANCH  30  33
HETATM   33  C10 UNL     1       2.049  -2.945  17.041  1.00  0.00     0.149 A 
HETATM   34  N10 UNL     1       3.083  -2.770  16.181  1.00  0.00    -0.284 N 
HETATM   35  N11 UNL     1       4.143  -3.459  16.583  1.00  0.00    -0.295 N 
ATOM     36  H10 UNL     1       3.050  -2.191  15.343  1.00  0.00     0.188 HD
HETATM   37  C11 UNL     1       3.801  -4.094  17.721  1.00  0.00     0.201 A 
ATOM     38  H11 UNL     1       5.049  -3.501  16.116  1.00  0.00     0.187 HD
HETATM   39  N12 UNL     1       2.536  -3.770  17.979  1.00  0.00    -0.331 N 
HETATM   40  C12 UNL     1       1.793  -4.249  19.137  1.00  0.00     0.158 C 
ENDBRANCH  30  33
ENDBRANCH  28  30
ENDBRANCH   8  28
TORSDOF 8
ENDMDL
