MODEL 1
REMARK VINA RESULT: -9.047685000      0.000      0.000
REMARK  6 active torsions:
REMARK  status: ('A' for Active; 'I' for Inactive)
REMARK    1  A    between atoms: C2_3  and  N2_4 
REMARK    2  A    between atoms: N5_14  and  N6_15 
REMARK       I    between atoms: N6_15  and  C6_17 
REMARK    3  A    between atoms: C6_17  and  C7_19 
REMARK    4  A    between atoms: C7_19  and  N7_20 
REMARK    5  A    between atoms: N7_20  and  N8_22 
REMARK       I    between atoms: N8_22  and  C8_23 
REMARK       I    between atoms: C8_23  and  N9_25 
REMARK    6  A    between atoms: C9_28  and  N10_29 
ROOT
HETATM    1  C1  UNL     1       2.858  -5.255  16.500  1.00  0.00     0.177 C 
HETATM    2  N1  UNL     1       2.600  -4.383  17.628  1.00  0.00    -0.170 N 
HETATM    3  C2  UNL     1       3.190  -4.296  18.800  1.00  0.00     0.681 A 
HETATM    4  N3  UNL     1       2.628  -3.337  19.558  1.00  0.00    -0.180 N 
HETATM    5  C3  UNL     1       3.040  -3.001  20.872  1.00  0.00     0.176 C 
HETATM    6  C4  UNL     1       1.621  -2.781  18.830  1.00  0.00     0.142 A 
HETATM    7  C5  UNL     1       0.733  -1.785  19.098  1.00  0.00     0.170 A 
HETATM    8  N4  UNL     1       0.724  -1.173  20.181  1.00  0.00    -0.382 N 
ATOM      9  H41 UNL     1       0.059  -0.426  20.382  1.00  0.00     0.157 HD
ATOM     10  H42 UNL     1       1.414  -1.440  20.884  1.00  0.00     0.157 HD
HETATM   11  N5  UNL     1      -0.211  -1.419  18.135  1.00  0.00    -0.065 N 
HETATM   12  C9  UNL     1      -0.173  -2.094  16.982  1.00  0.00     0.700 A 
HETATM   13  N11 UNL     1       0.712  -3.090  16.710  1.00  0.00    -0.172 N 
ATOM     14  H11 UNL     1       0.685  -3.563  15.808  1.00  0.00     0.186 HD
HETATM   15  C10 UNL     1       1.616  -3.448  17.621  1.00  0.00     0.170 A 
ENDROOT
BRANCH  11  16
HETATM   16  N6  UNL     1      -1.085  -0.411  18.451  1.00  0.00    -0.242 N 
HETATM   17  C6  UNL     1      -0.982   0.944  18.694  1.00  0.00     0.278 C 
HETATM   18  O1  UNL     1       0.021   1.687  18.694  1.00  0.00    -0.265 OA
ATOM     19  H6  UNL     1      -2.047  -0.744  18.526  1.00  0.00     0.191 HD
BRANCH  17  20
HETATM   20  C7  UNL     1      -2.253   1.678  19.013  1.00  0.00     0.196 C 
BRANCH  20  21
HETATM   21  N7  UNL     1      -2.626   2.644  18.250  1.00  0.00    -0.236 N 
ATOM     22  H7  UNL     1      -1.943   3.029  17.596  1.00  0.00     0.201 HD
BRANCH  21  23
HETATM   23  N8  UNL     1      -3.862   3.176  18.261  1.00  0.00    -0.261 NA
HETATM   24  C8  UNL     1      -5.063   3.693  18.273  1.00  0.00     0.476 C 
HETATM   25  O2  UNL     1      -6.067   3.497  17.482  1.00  0.00    -0.222 OA
HETATM   26  N9  UNL     1      -5.426   4.666  19.320  1.00  0.00    -0.040 N 
HETATM   27  O3  UNL     1      -4.571   4.970  20.168  1.00  0.00    -0.527 OA
HETATM   28  O4  UNL     1      -6.671   5.180  19.310  1.00  0.00    -0.527 OA
ENDBRANCH  21  23
ENDBRANCH  20  21
ENDBRANCH  17  20
ENDBRANCH  11  16
BRANCH  12  29
HETATM   29  N10 UNL     1      -1.009  -1.817  16.041  1.00  0.00    -0.233 N 
ATOM     30 2H10 UNL     1      -0.598  -1.478  15.170  1.00  0.00     0.174 HD
ATOM     31 1H10 UNL     1      -2.010  -1.941  16.191  1.00  0.00     0.174 HD
ENDBRANCH  12  29
BRANCH   3  32
HETATM   32  N2  UNL     1       4.190  -5.048  19.167  1.00  0.00    -0.234 N 
ATOM     33  H22 UNL     1       4.224  -6.063  19.072  1.00  0.00     0.174 HD
ATOM     34  H21 UNL     1       5.047  -4.689  19.590  1.00  0.00     0.174 HD
ENDBRANCH   3  32
TORSDOF 6
ENDMDL
MODEL 2
REMARK VINA RESULT: -8.537354143      1.295      1.637
REMARK  6 active torsions:
REMARK  status: ('A' for Active; 'I' for Inactive)
REMARK    1  A    between atoms: C2_3  and  N2_4 
REMARK    2  A    between atoms: N5_14  and  N6_15 
REMARK       I    between atoms: N6_15  and  C6_17 
REMARK    3  A    between atoms: C6_17  and  C7_19 
REMARK    4  A    between atoms: C7_19  and  N7_20 
REMARK    5  A    between atoms: N7_20  and  N8_22 
REMARK       I    between atoms: N8_22  and  C8_23 
REMARK       I    between atoms: C8_23  and  N9_25 
REMARK    6  A    between atoms: C9_28  and  N10_29 
ROOT
HETATM    1  C1  UNL     1       3.631  -4.979  18.986  1.00  0.00     0.177 C 
HETATM    2  N1  UNL     1       2.816  -4.267  19.950  1.00  0.00    -0.170 N 
HETATM    3  C2  UNL     1       2.726  -4.389  21.256  1.00  0.00     0.681 A 
HETATM    4  N3  UNL     1       1.835  -3.518  21.765  1.00  0.00    -0.180 N 
HETATM    5  C3  UNL     1       1.513  -3.404  23.141  1.00  0.00     0.176 C 
HETATM    6  C4  UNL     1       1.327  -2.801  20.726  1.00  0.00     0.142 A 
HETATM    7  C5  UNL     1       0.405  -1.802  20.661  1.00  0.00     0.170 A 
HETATM    8  N4  UNL     1      -0.167  -1.355  21.671  1.00  0.00    -0.382 N 
ATOM      9  H41 UNL     1      -0.858  -0.606  21.623  1.00  0.00     0.157 HD
ATOM     10  H42 UNL     1       0.075  -1.764  22.574  1.00  0.00     0.157 HD
HETATM   11  N5  UNL     1       0.075  -1.242  19.424  1.00  0.00    -0.065 N 
HETATM   12  C9  UNL     1       0.709  -1.742  18.358  1.00  0.00     0.700 A 
HETATM   13  N11 UNL     1       1.631  -2.740  18.420  1.00  0.00    -0.172 N 
ATOM     14  H11 UNL     1       2.076  -3.074  17.566  1.00  0.00     0.186 HD
HETATM   15  C10 UNL     1       1.953  -3.282  19.593  1.00  0.00     0.170 A 
ENDROOT
BRANCH  11  16
HETATM   16  N6  UNL     1      -0.860  -0.239  19.409  1.00  0.00    -0.242 N 
HETATM   17  C6  UNL     1      -0.924   1.042  18.899  1.00  0.00     0.278 C 
HETATM   18  O1  UNL     1      -0.076   1.697  18.259  1.00  0.00    -0.265 OA
ATOM     19  H6  UNL     1      -1.719  -0.505  19.892  1.00  0.00     0.191 HD
BRANCH  17  20
HETATM   20  C7  UNL     1      -2.198   1.805  19.130  1.00  0.00     0.196 C 
BRANCH  20  21
HETATM   21  N7  UNL     1      -2.597   2.639  18.236  1.00  0.00    -0.236 N 
ATOM     22  H7  UNL     1      -1.944   2.898  17.496  1.00  0.00     0.201 HD
BRANCH  21  23
HETATM   23  N8  UNL     1      -3.825   3.191  18.219  1.00  0.00    -0.261 NA
HETATM   24  C8  UNL     1      -5.017   3.728  18.203  1.00  0.00     0.476 C 
HETATM   25  O2  UNL     1      -5.995   3.572  17.372  1.00  0.00    -0.222 OA
HETATM   26  N9  UNL     1      -5.402   4.676  19.265  1.00  0.00    -0.040 N 
HETATM   27  O3  UNL     1      -4.574   4.941  20.152  1.00  0.00    -0.527 OA
HETATM   28  O4  UNL     1      -6.639   5.211  19.226  1.00  0.00    -0.527 OA
ENDBRANCH  21  23
ENDBRANCH  20  21
ENDBRANCH  17  20
ENDBRANCH  11  16
BRANCH  12  29
HETATM   29  N10 UNL     1       0.463  -1.280  17.181  1.00  0.00    -0.233 N 
ATOM     30 2H10 UNL     1       0.518  -0.266  17.084  1.00  0.00     0.174 HD
ATOM     31 1H10 UNL     1       0.230  -1.916  16.418  1.00  0.00     0.174 HD
ENDBRANCH  12  29
BRANCH   3  32
HETATM   32  N2  UNL     1       3.416  -5.247  21.955  1.00  0.00    -0.234 N 
ATOM     33  H22 UNL     1       3.738  -6.153  21.616  1.00  0.00     0.174 HD
ATOM     34  H21 UNL     1       3.703  -5.092  22.922  1.00  0.00     0.174 HD
ENDBRANCH   3  32
TORSDOF 6
ENDMDL
MODEL 3
REMARK VINA RESULT: -8.390759962      1.287      2.778
REMARK  6 active torsions:
REMARK  status: ('A' for Active; 'I' for Inactive)
REMARK    1  A    between atoms: C2_3  and  N2_4 
REMARK    2  A    between atoms: N5_14  and  N6_15 
REMARK       I    between atoms: N6_15  and  C6_17 
REMARK    3  A    between atoms: C6_17  and  C7_19 
REMARK    4  A    between atoms: C7_19  and  N7_20 
REMARK    5  A    between atoms: N7_20  and  N8_22 
REMARK       I    between atoms: N8_22  and  C8_23 
REMARK       I    between atoms: C8_23  and  N9_25 
REMARK    6  A    between atoms: C9_28  and  N10_29 
ROOT
HETATM    1  C1  UNL     1       3.410  -3.924  20.381  1.00  0.00     0.177 C 
HETATM    2  N1  UNL     1       2.501  -3.409  19.376  1.00  0.00    -0.170 N 
HETATM    3  C2  UNL     1       2.414  -3.656  18.088  1.00  0.00     0.681 A 
HETATM    4  N3  UNL     1       1.414  -2.954  17.525  1.00  0.00    -0.180 N 
HETATM    5  C3  UNL     1       1.066  -3.003  16.151  1.00  0.00     0.176 C 
HETATM    6  C4  UNL     1       0.829  -2.217  18.509  1.00  0.00     0.142 A 
HETATM    7  C5  UNL     1      -0.212  -1.341  18.507  1.00  0.00     0.170 A 
HETATM    8  N4  UNL     1      -0.849  -1.064  17.475  1.00  0.00    -0.382 N 
ATOM      9  H41 UNL     1      -1.630  -0.408  17.473  1.00  0.00     0.157 HD
ATOM     10  H42 UNL     1      -0.567  -1.518  16.606  1.00  0.00     0.157 HD
HETATM   11  N5  UNL     1      -0.599  -0.719  19.697  1.00  0.00    -0.065 N 
HETATM   12  C9  UNL     1       0.104  -1.040  20.788  1.00  0.00     0.700 A 
HETATM   13  N11 UNL     1       1.145  -1.916  20.794  1.00  0.00    -0.172 N 
ATOM     14  H11 UNL     1       1.637  -2.115  21.665  1.00  0.00     0.186 HD
HETATM   15  C10 UNL     1       1.523  -2.513  19.666  1.00  0.00     0.170 A 
ENDROOT
BRANCH  11  16
HETATM   16  N6  UNL     1      -1.652   0.156  19.645  1.00  0.00    -0.242 N 
HETATM   17  C6  UNL     1      -1.798   1.512  19.435  1.00  0.00     0.278 C 
HETATM   18  O1  UNL     1      -0.938   2.390  19.218  1.00  0.00    -0.265 OA
ATOM     19  H6  UNL     1      -2.548  -0.309  19.799  1.00  0.00     0.191 HD
BRANCH  17  20
HETATM   20  C7  UNL     1      -3.197   2.060  19.464  1.00  0.00     0.196 C 
BRANCH  20  21
HETATM   21  N7  UNL     1      -3.609   2.775  18.478  1.00  0.00    -0.236 N 
ATOM     22  H7  UNL     1      -3.054   2.776  17.621  1.00  0.00     0.201 HD
BRANCH  21  23
HETATM   23  N8  UNL     1      -4.728   3.523  18.507  1.00  0.00    -0.261 NA
HETATM   24  C8  UNL     1      -5.816   4.248  18.535  1.00  0.00     0.476 C 
HETATM   25  O2  UNL     1      -5.980   5.501  18.811  1.00  0.00    -0.222 OA
HETATM   26  N9  UNL     1      -7.113   3.627  18.213  1.00  0.00    -0.040 N 
HETATM   27  O3  UNL     1      -7.136   2.419  17.923  1.00  0.00    -0.527 OA
HETATM   28  O4  UNL     1      -8.217   4.399  18.246  1.00  0.00    -0.527 OA
ENDBRANCH  21  23
ENDBRANCH  20  21
ENDBRANCH  17  20
ENDBRANCH  11  16
BRANCH  12  29
HETATM   29  N10 UNL     1      -0.189  -0.513  21.926  1.00  0.00    -0.233 N 
ATOM     30 2H10 UNL     1      -1.158  -0.620  22.228  1.00  0.00     0.174 HD
ATOM     31 1H10 UNL     1       0.527  -0.025  22.465  1.00  0.00     0.174 HD
ENDBRANCH  12  29
BRANCH   3  32
HETATM   32  N2  UNL     1       3.203  -4.476  17.451  1.00  0.00    -0.234 N 
ATOM     33  H22 UNL     1       2.897  -5.309  16.947  1.00  0.00     0.174 HD
ATOM     34  H21 UNL     1       4.216  -4.362  17.395  1.00  0.00     0.174 HD
ENDBRANCH   3  32
TORSDOF 6
ENDMDL
MODEL 4
REMARK VINA RESULT: -8.363546681      1.040      2.383
REMARK  6 active torsions:
REMARK  status: ('A' for Active; 'I' for Inactive)
REMARK    1  A    between atoms: C2_3  and  N2_4 
REMARK    2  A    between atoms: N5_14  and  N6_15 
REMARK       I    between atoms: N6_15  and  C6_17 
REMARK    3  A    between atoms: C6_17  and  C7_19 
REMARK    4  A    between atoms: C7_19  and  N7_20 
REMARK    5  A    between atoms: N7_20  and  N8_22 
REMARK       I    between atoms: N8_22  and  C8_23 
REMARK       I    between atoms: C8_23  and  N9_25 
REMARK    6  A    between atoms: C9_28  and  N10_29 
ROOT
HETATM    1  C1  UNL     1       3.446  -4.740  20.274  1.00  0.00     0.177 C 
HETATM    2  N1  UNL     1       2.666  -4.048  19.267  1.00  0.00    -0.170 N 
HETATM    3  C2  UNL     1       2.629  -4.190  17.961  1.00  0.00     0.681 A 
HETATM    4  N3  UNL     1       1.753  -3.334  17.404  1.00  0.00    -0.180 N 
HETATM    5  C3  UNL     1       1.485  -3.242  16.015  1.00  0.00     0.176 C 
HETATM    6  C4  UNL     1       1.201  -2.603  18.411  1.00  0.00     0.142 A 
HETATM    7  C5  UNL     1       0.271  -1.609  18.424  1.00  0.00     0.170 A 
HETATM    8  N4  UNL     1      -0.266  -1.184  17.385  1.00  0.00    -0.382 N 
ATOM      9  H41 UNL     1      -0.963  -0.440  17.395  1.00  0.00     0.157 HD
ATOM     10  H42 UNL     1       0.013  -1.606  16.499  1.00  0.00     0.157 HD
HETATM   11  N5  UNL     1      -0.111  -1.032  19.638  1.00  0.00    -0.065 N 
HETATM   12  C9  UNL     1       0.482  -1.513  20.735  1.00  0.00     0.700 A 
HETATM   13  N11 UNL     1       1.411  -2.506  20.726  1.00  0.00    -0.172 N 
ATOM     14  H11 UNL     1       1.823  -2.825  21.602  1.00  0.00     0.186 HD
HETATM   15  C10 UNL     1       1.784  -3.063  19.575  1.00  0.00     0.170 A 
ENDROOT
BRANCH  11  16
HETATM   16  N6  UNL     1      -1.050  -0.034  19.600  1.00  0.00    -0.242 N 
HETATM   17  C6  UNL     1      -1.030   1.332  19.404  1.00  0.00     0.278 C 
HETATM   18  O1  UNL     1      -0.069   2.100  19.190  1.00  0.00    -0.265 OA
ATOM     19  H6  UNL     1      -1.995  -0.387  19.755  1.00  0.00     0.191 HD
BRANCH  17  20
HETATM   20  C7  UNL     1      -2.351   2.047  19.447  1.00  0.00     0.196 C 
BRANCH  20  21
HETATM   21  N7  UNL     1      -2.805   2.584  18.371  1.00  0.00    -0.236 N 
ATOM     22  H7  UNL     1      -2.212   2.573  17.541  1.00  0.00     0.201 HD
BRANCH  21  23
HETATM   23  N8  UNL     1      -4.018   3.162  18.274  1.00  0.00    -0.261 NA
HETATM   24  C8  UNL     1      -5.196   3.722  18.181  1.00  0.00     0.476 C 
HETATM   25  O2  UNL     1      -6.142   3.545  17.317  1.00  0.00    -0.222 OA
HETATM   26  N9  UNL     1      -5.601   4.732  19.176  1.00  0.00    -0.040 N 
HETATM   27  O3  UNL     1      -4.805   5.024  20.083  1.00  0.00    -0.527 OA
HETATM   28  O4  UNL     1      -6.822   5.290  19.058  1.00  0.00    -0.527 OA
ENDBRANCH  21  23
ENDBRANCH  20  21
ENDBRANCH  17  20
ENDBRANCH  11  16
BRANCH  12  29
HETATM   29  N10 UNL     1       0.186  -1.036  21.895  1.00  0.00    -0.233 N 
ATOM     30 2H10 UNL     1      -0.066  -1.724  22.605  1.00  0.00     0.174 HD
ATOM     31 1H10 UNL     1       0.210  -0.029  22.057  1.00  0.00     0.174 HD
ENDBRANCH  12  29
BRANCH   3  32
HETATM   32  N2  UNL     1       3.353  -5.052  17.303  1.00  0.00    -0.234 N 
ATOM     33  H22 UNL     1       3.847  -5.840  17.721  1.00  0.00     0.174 HD
ATOM     34  H21 UNL     1       3.496  -5.021  16.293  1.00  0.00     0.174 HD
ENDBRANCH   3  32
TORSDOF 6
ENDMDL
MODEL 5
REMARK VINA RESULT: -8.235619119      1.647      1.769
REMARK  6 active torsions:
REMARK  status: ('A' for Active; 'I' for Inactive)
REMARK    1  A    between atoms: C2_3  and  N2_4 
REMARK    2  A    between atoms: N5_14  and  N6_15 
REMARK       I    between atoms: N6_15  and  C6_17 
REMARK    3  A    between atoms: C6_17  and  C7_19 
REMARK    4  A    between atoms: C7_19  and  N7_20 
REMARK    5  A    between atoms: N7_20  and  N8_22 
REMARK       I    between atoms: N8_22  and  C8_23 
REMARK       I    between atoms: C8_23  and  N9_25 
REMARK    6  A    between atoms: C9_28  and  N10_29 
ROOT
HETATM    1  C1  UNL     1       3.176  -5.198  18.365  1.00  0.00     0.177 C 
HETATM    2  N1  UNL     1       2.041  -4.819  19.182  1.00  0.00    -0.170 N 
HETATM    3  C2  UNL     1       1.442  -5.450  20.168  1.00  0.00     0.681 A 
HETATM    4  N3  UNL     1       0.416  -4.729  20.654  1.00  0.00    -0.180 N 
HETATM    5  C3  UNL     1      -0.425  -5.138  21.720  1.00  0.00     0.176 C 
HETATM    6  C4  UNL     1       0.354  -3.573  19.937  1.00  0.00     0.142 A 
HETATM    7  C5  UNL     1      -0.475  -2.496  19.998  1.00  0.00     0.170 A 
HETATM    8  N4  UNL     1      -1.404  -2.414  20.822  1.00  0.00    -0.382 N 
ATOM      9  H41 UNL     1      -2.025  -1.607  20.868  1.00  0.00     0.157 HD
ATOM     10  H42 UNL     1      -1.535  -3.193  21.469  1.00  0.00     0.157 HD
HETATM   11  N5  UNL     1      -0.294  -1.430  19.113  1.00  0.00    -0.065 N 
HETATM   12  C9  UNL     1       0.714  -1.547  18.243  1.00  0.00     0.700 A 
HETATM   13  N11 UNL     1       1.544  -2.622  18.179  1.00  0.00    -0.172 N 
ATOM     14  H11 UNL     1       2.294  -2.645  17.489  1.00  0.00     0.186 HD
HETATM   15  C10 UNL     1       1.381  -3.644  19.017  1.00  0.00     0.170 A 
ENDROOT
BRANCH  11  16
HETATM   16  N6  UNL     1      -1.155  -0.368  19.212  1.00  0.00    -0.242 N 
HETATM   17  C6  UNL     1      -1.028   1.007  19.229  1.00  0.00     0.278 C 
HETATM   18  O1  UNL     1      -0.008   1.721  19.153  1.00  0.00    -0.265 OA
ATOM     19  H6  UNL     1      -2.128  -0.666  19.293  1.00  0.00     0.191 HD
BRANCH  17  20
HETATM   20  C7  UNL     1      -2.294   1.807  19.356  1.00  0.00     0.196 C 
BRANCH  20  21
HETATM   21  N7  UNL     1      -2.645   2.579  18.390  1.00  0.00    -0.236 N 
ATOM     22  H7  UNL     1      -1.966   2.762  17.651  1.00  0.00     0.201 HD
BRANCH  21  23
HETATM   23  N8  UNL     1      -3.855   3.160  18.295  1.00  0.00    -0.261 NA
HETATM   24  C8  UNL     1      -5.032   3.725  18.204  1.00  0.00     0.476 C 
HETATM   25  O2  UNL     1      -5.970   3.569  17.328  1.00  0.00    -0.222 OA
HETATM   26  N9  UNL     1      -5.444   4.714  19.217  1.00  0.00    -0.040 N 
HETATM   27  O3  UNL     1      -4.655   4.984  20.136  1.00  0.00    -0.527 OA
HETATM   28  O4  UNL     1      -6.663   5.277  19.100  1.00  0.00    -0.527 OA
ENDBRANCH  21  23
ENDBRANCH  20  21
ENDBRANCH  17  20
ENDBRANCH  11  16
BRANCH  12  29
HETATM   29  N10 UNL     1       0.949  -0.608  17.393  1.00  0.00    -0.233 N 
ATOM     30 2H10 UNL     1       1.393   0.230  17.771  1.00  0.00     0.174 HD
ATOM     31 1H10 UNL     1       0.695  -0.727  16.412  1.00  0.00     0.174 HD
ENDBRANCH  12  29
BRANCH   3  32
HETATM   32  N2  UNL     1       1.807  -6.622  20.607  1.00  0.00    -0.234 N 
ATOM     33  H22 UNL     1       2.769  -6.958  20.649  1.00  0.00     0.174 HD
ATOM     34  H21 UNL     1       1.156  -7.326  20.956  1.00  0.00     0.174 HD
ENDBRANCH   3  32
TORSDOF 6
ENDMDL
