MODEL 1
REMARK VINA RESULT: -7.532979602      0.000      0.000
REMARK  6 active torsions:
REMARK  status: ('A' for Active; 'I' for Inactive)
REMARK    1  A    between atoms: C2_3  and  S1_4 
REMARK    2  A    between atoms: S1_4  and  C3_5 
REMARK    3  A    between atoms: C4_8  and  N3_9 
REMARK    4  A    between atoms: N3_9  and  N4_11 
REMARK    5  A    between atoms: N4_11  and  C5_12 
REMARK    6  A    between atoms: C9_21  and  N7_22 
ROOT
HETATM    1  C3  UNL     1       3.924  -5.904  16.987  1.00  0.00     0.182 A 
HETATM    2  N2  UNL     1       2.962  -6.543  16.294  1.00  0.00    -0.168 N 
ATOM      3  H2  UNL     1       1.985  -6.327  16.489  1.00  0.00     0.186 HD
HETATM    4  C4  UNL     1       3.256  -7.457  15.354  1.00  0.00     0.710 A 
HETATM    5  N6  UNL     1       4.567  -7.710  15.133  1.00  0.00    -0.021 N 
ATOM      6  H6  UNL     1       4.823  -8.399  14.425  1.00  0.00     0.203 HD
HETATM    7  C9  UNL     1       5.549  -7.084  15.815  1.00  0.00     0.692 A 
HETATM    8  N8  UNL     1       5.222  -6.175  16.748  1.00  0.00    -0.169 N 
ATOM      9  H8  UNL     1       5.952  -5.693  17.274  1.00  0.00     0.186 HD
ENDROOT
BRANCH   1  10
HETATM   10  S1  UNL     1       3.562  -4.689  18.240  1.00  0.00    -0.016 SA
BRANCH  10  11
HETATM   11  C2  UNL     1       2.219  -3.631  17.740  1.00  0.00     0.161 A 
HETATM   12  N1  UNL     1       1.391  -3.156  18.675  1.00  0.00    -0.283 N 
HETATM   13  C1  UNL     1       1.591  -3.502  20.077  1.00  0.00     0.163 C 
HETATM   14  C11 UNL     1       0.358  -2.352  18.351  1.00  0.00     0.332 A 
HETATM   15  N10 UNL     1       0.126  -2.000  17.078  1.00  0.00    -0.260 N 
HETATM   16  O2  UNL     1      -0.435  -1.893  19.224  1.00  0.00    -0.246 OA
HETATM   17  C10 UNL     1       0.950  -2.469  16.123  1.00  0.00     0.330 A 
ATOM     18  H10 UNL     1      -0.658  -1.392  16.838  1.00  0.00     0.175 HD
HETATM   19  N9  UNL     1       1.984  -3.278  16.467  1.00  0.00    -0.288 N 
HETATM   20  O1  UNL     1       0.734  -2.141  14.932  1.00  0.00    -0.246 OA
ATOM     21  H9  UNL     1       2.602  -3.629  15.735  1.00  0.00     0.172 HD
ENDBRANCH  10  11
ENDBRANCH   1  10
BRANCH   4  22
HETATM   22  N3  UNL     1       2.236  -8.131  14.621  1.00  0.00    -0.135 N 
ATOM     23  H3  UNL     1       1.472  -7.606  14.196  1.00  0.00     0.201 HD
BRANCH  22  24
HETATM   24  N4  UNL     1       2.294  -9.502  14.494  1.00  0.00    -0.119 NA
BRANCH  24  25
HETATM   25  C5  UNL     1       1.215 -10.043  13.692  1.00  0.00     0.127 C 
HETATM   26  C6  UNL     1       1.584 -11.321  13.015  1.00  0.00     0.052 C 
HETATM   27  C7  UNL     1       1.958 -10.971  11.585  1.00  0.00     0.234 C 
HETATM   28  N5  UNL     1       1.894  -9.544  11.495  1.00  0.00    -0.073 N 
HETATM   29  C8  UNL     1       0.992  -9.094  12.529  1.00  0.00     0.255 C 
ATOM     30  H52 UNL     1       2.810  -9.099  11.540  1.00  0.00     0.277 HD
ATOM     31  H51 UNL     1       1.634  -9.214  10.566  1.00  0.00     0.277 HD
ENDBRANCH  24  25
ENDBRANCH  22  24
ENDBRANCH   4  22
BRANCH   7  32
HETATM   32  N7  UNL     1       6.802  -7.331  15.598  1.00  0.00    -0.234 N 
ATOM     33  H72 UNL     1       7.114  -8.302  15.577  1.00  0.00     0.174 HD
ATOM     34  H71 UNL     1       7.483  -6.587  15.449  1.00  0.00     0.174 HD
ENDBRANCH   7  32
TORSDOF 6
ENDMDL
MODEL 2
REMARK VINA RESULT: -7.470500732      8.772     11.661
REMARK  6 active torsions:
REMARK  status: ('A' for Active; 'I' for Inactive)
REMARK    1  A    between atoms: C2_3  and  S1_4 
REMARK    2  A    between atoms: S1_4  and  C3_5 
REMARK    3  A    between atoms: C4_8  and  N3_9 
REMARK    4  A    between atoms: N3_9  and  N4_11 
REMARK    5  A    between atoms: N4_11  and  C5_12 
REMARK    6  A    between atoms: C9_21  and  N7_22 
ROOT
HETATM    1  C3  UNL     1      -2.008   0.405  20.650  1.00  0.00     0.182 A 
HETATM    2  N2  UNL     1      -2.808   1.344  20.112  1.00  0.00    -0.168 N 
ATOM      3  H2  UNL     1      -3.641   1.638  20.623  1.00  0.00     0.186 HD
HETATM    4  C4  UNL     1      -2.539   1.906  18.921  1.00  0.00     0.710 A 
HETATM    5  N6  UNL     1      -1.423   1.482  18.282  1.00  0.00    -0.021 N 
ATOM      6  H6  UNL     1      -1.191   1.889  17.376  1.00  0.00     0.203 HD
HETATM    7  C9  UNL     1      -0.606   0.541  18.800  1.00  0.00     0.692 A 
HETATM    8  N8  UNL     1      -0.904  -0.000  19.993  1.00  0.00    -0.169 N 
ATOM      9  H8  UNL     1      -0.297  -0.713  20.399  1.00  0.00     0.186 HD
ENDROOT
BRANCH   1  10
HETATM   10  S1  UNL     1      -2.342  -0.357  22.227  1.00  0.00    -0.016 SA
BRANCH  10  11
HETATM   11  C2  UNL     1      -0.942  -0.213  23.319  1.00  0.00     0.161 A 
HETATM   12  N1  UNL     1      -0.162  -1.281  23.510  1.00  0.00    -0.283 N 
HETATM   13  C1  UNL     1      -0.459  -2.537  22.832  1.00  0.00     0.163 C 
HETATM   14  C11 UNL     1       0.911  -1.226  24.325  1.00  0.00     0.332 A 
HETATM   15  N10 UNL     1       1.232  -0.098  24.975  1.00  0.00    -0.260 N 
HETATM   16  O2  UNL     1       1.660  -2.229  24.516  1.00  0.00    -0.246 OA
HETATM   17  C10 UNL     1       0.457   0.987  24.794  1.00  0.00     0.330 A 
ATOM     18  H10 UNL     1       2.044  -0.063  25.591  1.00  0.00     0.175 HD
HETATM   19  N9  UNL     1      -0.619   0.915  23.970  1.00  0.00    -0.288 N 
HETATM   20  O1  UNL     1       0.757   2.044  25.400  1.00  0.00    -0.246 OA
ATOM     21  H9  UNL     1      -1.200   1.743  23.841  1.00  0.00     0.172 HD
ENDBRANCH  10  11
ENDBRANCH   1  10
BRANCH   4  22
HETATM   22  N3  UNL     1      -3.387   2.901  18.354  1.00  0.00    -0.135 N 
ATOM     23  H3  UNL     1      -3.323   3.131  17.362  1.00  0.00     0.201 HD
BRANCH  22  24
HETATM   24  N4  UNL     1      -4.295   3.550  19.163  1.00  0.00    -0.119 NA
BRANCH  24  25
HETATM   25  C5  UNL     1      -5.189   4.420  18.426  1.00  0.00     0.127 C 
HETATM   26  C6  UNL     1      -6.376   4.840  19.227  1.00  0.00     0.052 C 
HETATM   27  C7  UNL     1      -7.528   3.942  18.813  1.00  0.00     0.234 C 
HETATM   28  N5  UNL     1      -6.983   2.996  17.889  1.00  0.00    -0.073 N 
HETATM   29  C8  UNL     1      -5.806   3.599  17.309  1.00  0.00     0.255 C 
ATOM     30  H52 UNL     1      -6.800   2.085  18.310  1.00  0.00     0.277 HD
ATOM     31  H51 UNL     1      -7.658   2.684  17.191  1.00  0.00     0.277 HD
ENDBRANCH  24  25
ENDBRANCH  22  24
ENDBRANCH   4  22
BRANCH   7  32
HETATM   32  N7  UNL     1       0.460   0.140  18.183  1.00  0.00    -0.234 N 
ATOM     33  H72 UNL     1       0.757   0.637  17.344  1.00  0.00     0.174 HD
ATOM     34  H71 UNL     1       1.009  -0.654  18.511  1.00  0.00     0.174 HD
ENDBRANCH   7  32
TORSDOF 6
ENDMDL
MODEL 3
REMARK VINA RESULT: -7.369472142      1.236      1.352
REMARK  6 active torsions:
REMARK  status: ('A' for Active; 'I' for Inactive)
REMARK    1  A    between atoms: C2_3  and  S1_4 
REMARK    2  A    between atoms: S1_4  and  C3_5 
REMARK    3  A    between atoms: C4_8  and  N3_9 
REMARK    4  A    between atoms: N3_9  and  N4_11 
REMARK    5  A    between atoms: N4_11  and  C5_12 
REMARK    6  A    between atoms: C9_21  and  N7_22 
ROOT
HETATM    1  C3  UNL     1       4.676  -6.068  16.391  1.00  0.00     0.182 A 
HETATM    2  N2  UNL     1       3.634  -6.643  15.761  1.00  0.00    -0.168 N 
ATOM      3  H2  UNL     1       2.855  -6.059  15.456  1.00  0.00     0.186 HD
HETATM    4  C4  UNL     1       3.593  -7.965  15.522  1.00  0.00     0.710 A 
HETATM    5  N6  UNL     1       4.650  -8.697  15.947  1.00  0.00    -0.021 N 
ATOM      6  H6  UNL     1       4.649  -9.704  15.781  1.00  0.00     0.203 HD
HETATM    7  C9  UNL     1       5.705  -8.144  16.581  1.00  0.00     0.692 A 
HETATM    8  N8  UNL     1       5.715  -6.819  16.803  1.00  0.00    -0.169 N 
ATOM      9  H8  UNL     1       6.504  -6.385  17.282  1.00  0.00     0.186 HD
ENDROOT
BRANCH   1  10
HETATM   10  S1  UNL     1       4.755  -4.317  16.720  1.00  0.00    -0.016 SA
BRANCH  10  11
HETATM   11  C2  UNL     1       3.126  -3.633  16.950  1.00  0.00     0.161 A 
HETATM   12  N1  UNL     1       2.601  -3.620  18.178  1.00  0.00    -0.283 N 
HETATM   13  C1  UNL     1       3.353  -4.158  19.304  1.00  0.00     0.163 C 
HETATM   14  C11 UNL     1       1.372  -3.113  18.407  1.00  0.00     0.332 A 
HETATM   15  N10 UNL     1       0.634  -2.604  17.410  1.00  0.00    -0.260 N 
HETATM   16  O2  UNL     1       0.860  -3.093  19.565  1.00  0.00    -0.246 OA
HETATM   17  C10 UNL     1       1.149  -2.608  16.166  1.00  0.00     0.330 A 
ATOM     18  H10 UNL     1      -0.295  -2.223  17.589  1.00  0.00     0.175 HD
HETATM   19  N9  UNL     1       2.387  -3.122  15.953  1.00  0.00    -0.288 N 
HETATM   20  O1  UNL     1       0.459  -2.132  15.232  1.00  0.00    -0.246 OA
ATOM     21  H9  UNL     1       2.766  -3.122  15.007  1.00  0.00     0.172 HD
ENDBRANCH  10  11
ENDBRANCH   1  10
BRANCH   4  22
HETATM   22  N3  UNL     1       2.490  -8.571  14.855  1.00  0.00    -0.135 N 
ATOM     23  H3  UNL     1       1.577  -8.624  15.308  1.00  0.00     0.201 HD
BRANCH  22  24
HETATM   24  N4  UNL     1       2.671  -9.085  13.589  1.00  0.00    -0.119 NA
BRANCH  24  25
HETATM   25  C5  UNL     1       1.464  -9.667  13.036  1.00  0.00     0.127 C 
HETATM   26  C6  UNL     1       0.928 -10.784  13.869  1.00  0.00     0.052 C 
HETATM   27  C7  UNL     1       1.390 -12.078  13.220  1.00  0.00     0.234 C 
HETATM   28  N5  UNL     1       2.229 -11.697  12.126  1.00  0.00    -0.073 N 
HETATM   29  C8  UNL     1       1.844 -10.360  11.741  1.00  0.00     0.255 C 
ATOM     30  H52 UNL     1       3.223 -11.783  12.335  1.00  0.00     0.277 HD
ATOM     31  H51 UNL     1       2.201 -12.360  11.352  1.00  0.00     0.277 HD
ENDBRANCH  24  25
ENDBRANCH  22  24
ENDBRANCH   4  22
BRANCH   7  32
HETATM   32  N7  UNL     1       6.713  -8.850  16.985  1.00  0.00    -0.234 N 
ATOM     33  H72 UNL     1       7.537  -8.915  16.387  1.00  0.00     0.174 HD
ATOM     34  H71 UNL     1       6.707  -9.341  17.878  1.00  0.00     0.174 HD
ENDBRANCH   7  32
TORSDOF 6
ENDMDL
MODEL 4
REMARK VINA RESULT: -7.360875302      3.249      8.654
REMARK  6 active torsions:
REMARK  status: ('A' for Active; 'I' for Inactive)
REMARK    1  A    between atoms: C2_3  and  S1_4 
REMARK    2  A    between atoms: S1_4  and  C3_5 
REMARK    3  A    between atoms: C4_8  and  N3_9 
REMARK    4  A    between atoms: N3_9  and  N4_11 
REMARK    5  A    between atoms: N4_11  and  C5_12 
REMARK    6  A    between atoms: C9_21  and  N7_22 
ROOT
HETATM    1  C3  UNL     1       2.514  -3.402  18.174  1.00  0.00     0.182 A 
HETATM    2  N2  UNL     1       1.734  -2.798  19.089  1.00  0.00    -0.168 N 
ATOM      3  H2  UNL     1       1.891  -2.988  20.079  1.00  0.00     0.186 HD
HETATM    4  C4  UNL     1       0.752  -1.950  18.735  1.00  0.00     0.710 A 
HETATM    5  N6  UNL     1       0.582  -1.730  17.410  1.00  0.00    -0.021 N 
ATOM      6  H6  UNL     1      -0.155  -1.092  17.108  1.00  0.00     0.203 HD
HETATM    7  C9  UNL     1       1.350  -2.325  16.473  1.00  0.00     0.692 A 
HETATM    8  N8  UNL     1       2.323  -3.166  16.861  1.00  0.00    -0.169 N 
ATOM      9  H8  UNL     1       2.913  -3.625  16.166  1.00  0.00     0.186 HD
ENDROOT
BRANCH   1  10
HETATM   10  S1  UNL     1       3.822  -4.530  18.617  1.00  0.00    -0.016 SA
BRANCH  10  11
HETATM   11  C2  UNL     1       4.165  -5.668  17.290  1.00  0.00     0.161 A 
HETATM   12  N1  UNL     1       5.436  -5.881  16.938  1.00  0.00    -0.283 N 
HETATM   13  C1  UNL     1       6.516  -5.191  17.631  1.00  0.00     0.163 C 
HETATM   14  C11 UNL     1       5.752  -6.733  15.940  1.00  0.00     0.332 A 
HETATM   15  N10 UNL     1       4.800  -7.396  15.267  1.00  0.00    -0.260 N 
HETATM   16  O2  UNL     1       6.951  -6.946  15.594  1.00  0.00    -0.246 OA
HETATM   17  C10 UNL     1       3.514  -7.193  15.609  1.00  0.00     0.330 A 
ATOM     18  H10 UNL     1       5.045  -8.037  14.513  1.00  0.00     0.175 HD
HETATM   19  N9  UNL     1       3.215  -6.332  16.615  1.00  0.00    -0.288 N 
HETATM   20  O1  UNL     1       2.623  -7.812  14.980  1.00  0.00    -0.246 OA
ATOM     21  H9  UNL     1       2.237  -6.185  16.865  1.00  0.00     0.172 HD
ENDBRANCH  10  11
ENDBRANCH   1  10
BRANCH   4  22
HETATM   22  N3  UNL     1      -0.072  -1.311  19.706  1.00  0.00    -0.135 N 
ATOM     23  H3  UNL     1       0.107  -1.441  20.701  1.00  0.00     0.201 HD
BRANCH  22  24
HETATM   24  N4  UNL     1      -1.115  -0.516  19.283  1.00  0.00    -0.119 NA
BRANCH  24  25
HETATM   25  C5  UNL     1      -1.124   0.788  19.915  1.00  0.00     0.127 C 
HETATM   26  C6  UNL     1      -2.497   1.236  20.293  1.00  0.00     0.052 C 
HETATM   27  C7  UNL     1      -2.967   2.185  19.204  1.00  0.00     0.234 C 
HETATM   28  N5  UNL     1      -1.938   2.191  18.210  1.00  0.00    -0.073 N 
HETATM   29  C8  UNL     1      -0.712   1.805  18.867  1.00  0.00     0.255 C 
ATOM     30  H52 UNL     1      -2.160   1.611  17.402  1.00  0.00     0.277 HD
ATOM     31  H51 UNL     1      -1.865   3.080  17.716  1.00  0.00     0.277 HD
ENDBRANCH  24  25
ENDBRANCH  22  24
ENDBRANCH   4  22
BRANCH   7  32
HETATM   32  N7  UNL     1       1.181  -2.110  15.207  1.00  0.00    -0.234 N 
ATOM     33  H72 UNL     1       0.997  -2.905  14.595  1.00  0.00     0.174 HD
ATOM     34  H71 UNL     1       1.226  -1.174  14.805  1.00  0.00     0.174 HD
ENDBRANCH   7  32
TORSDOF 6
ENDMDL
MODEL 5
REMARK VINA RESULT: -7.337707666      3.500      8.768
REMARK  6 active torsions:
REMARK  status: ('A' for Active; 'I' for Inactive)
REMARK    1  A    between atoms: C2_3  and  S1_4 
REMARK    2  A    between atoms: S1_4  and  C3_5 
REMARK    3  A    between atoms: C4_8  and  N3_9 
REMARK    4  A    between atoms: N3_9  and  N4_11 
REMARK    5  A    between atoms: N4_11  and  C5_12 
REMARK    6  A    between atoms: C9_21  and  N7_22 
ROOT
HETATM    1  C3  UNL     1       1.986  -3.478  17.296  1.00  0.00     0.182 A 
HETATM    2  N2  UNL     1       1.180  -2.419  17.090  1.00  0.00    -0.168 N 
ATOM      3  H2  UNL     1       0.894  -2.191  16.138  1.00  0.00     0.186 HD
HETATM    4  C4  UNL     1       0.743  -1.653  18.105  1.00  0.00     0.710 A 
HETATM    5  N6  UNL     1       1.152  -1.995  19.350  1.00  0.00    -0.021 N 
ATOM      6  H6  UNL     1       0.837  -1.434  20.142  1.00  0.00     0.203 HD
HETATM    7  C9  UNL     1       1.959  -3.051  19.582  1.00  0.00     0.692 A 
HETATM    8  N8  UNL     1       2.378  -3.796  18.545  1.00  0.00    -0.169 N 
ATOM      9  H8  UNL     1       2.990  -4.598  18.702  1.00  0.00     0.186 HD
ENDROOT
BRANCH   1  10
HETATM   10  S1  UNL     1       2.580  -4.508  15.968  1.00  0.00    -0.016 SA
BRANCH  10  11
HETATM   11  C2  UNL     1       4.049  -5.393  16.449  1.00  0.00     0.161 A 
HETATM   12  N1  UNL     1       4.125  -6.702  16.194  1.00  0.00    -0.283 N 
HETATM   13  C1  UNL     1       3.021  -7.387  15.534  1.00  0.00     0.163 C 
HETATM   14  C11 UNL     1       5.215  -7.419  16.537  1.00  0.00     0.332 A 
HETATM   15  N10 UNL     1       6.261  -6.843  17.147  1.00  0.00    -0.260 N 
HETATM   16  O2  UNL     1       5.303  -8.660  16.303  1.00  0.00    -0.246 OA
HETATM   17  C10 UNL     1       6.201  -5.525  17.411  1.00  0.00     0.330 A 
ATOM     18  H10 UNL     1       7.082  -7.390  17.405  1.00  0.00     0.175 HD
HETATM   19  N9  UNL     1       5.097  -4.818  17.060  1.00  0.00    -0.288 N 
HETATM   20  O1  UNL     1       7.179  -4.984  17.982  1.00  0.00    -0.246 OA
ATOM     21  H9  UNL     1       5.062  -3.820  17.266  1.00  0.00     0.172 HD
ENDBRANCH  10  11
ENDBRANCH   1  10
BRANCH   4  22
HETATM   22  N3  UNL     1      -0.110  -0.534  17.885  1.00  0.00    -0.135 N 
ATOM     23  H3  UNL     1       0.111   0.149  17.160  1.00  0.00     0.201 HD
BRANCH  22  24
HETATM   24  N4  UNL     1      -1.237  -0.385  18.663  1.00  0.00    -0.119 NA
BRANCH  24  25
HETATM   25  C5  UNL     1      -1.189   0.790  19.511  1.00  0.00     0.127 C 
HETATM   26  C6  UNL     1      -2.518   1.134  20.096  1.00  0.00     0.052 C 
HETATM   27  C7  UNL     1      -3.100   2.247  19.242  1.00  0.00     0.234 C 
HETATM   28  N5  UNL     1      -2.178   2.449  18.168  1.00  0.00    -0.073 N 
HETATM   29  C8  UNL     1      -0.889   1.982  18.622  1.00  0.00     0.255 C 
ATOM     30  H52 UNL     1      -2.477   2.012  17.296  1.00  0.00     0.277 HD
ATOM     31  H51 UNL     1      -2.159   3.411  17.832  1.00  0.00     0.277 HD
ENDBRANCH  24  25
ENDBRANCH  22  24
ENDBRANCH   4  22
BRANCH   7  32
HETATM   32  N7  UNL     1       2.347  -3.373  20.776  1.00  0.00    -0.234 N 
ATOM     33  H72 UNL     1       1.861  -4.125  21.263  1.00  0.00     0.174 HD
ATOM     34  H71 UNL     1       3.120  -2.898  21.240  1.00  0.00     0.174 HD
ENDBRANCH   7  32
TORSDOF 6
ENDMDL
