MODEL 1
REMARK VINA RESULT: -8.144120490      0.000      0.000
REMARK  6 active torsions:
REMARK  status: ('A' for Active; 'I' for Inactive)
REMARK    1  A    between atoms: C5_11  and  C6_12 
REMARK    2  A    between atoms: C6_12  and  N4_13 
REMARK       I    between atoms: N4_13  and  C7_15 
REMARK       I    between atoms: C7_15  and  N5_17 
REMARK    3  A    between atoms: C8_20  and  C9_21 
REMARK    4  A    between atoms: C10_31  and  N12_32 
REMARK    5  A    between atoms: N12_32  and  N13_34 
REMARK    6  A    between atoms: N13_34  and  O2_36 
ROOT
HETATM    1  N4  UNL     1       2.761  -7.471  15.237  1.00  0.00    -0.315 N 
ATOM      2  H4  UNL     1       1.781  -7.192  15.267  1.00  0.00     0.170 HD
HETATM    3  C7  UNL     1       3.729  -6.497  15.607  1.00  0.00     0.360 C 
HETATM    4  O1  UNL     1       4.956  -6.808  15.568  1.00  0.00    -0.244 OA
HETATM    5  N5  UNL     1       3.346  -5.206  16.011  1.00  0.00    -0.028 N 
HETATM    6  N6  UNL     1       2.131  -4.703  16.114  1.00  0.00    -0.256 N 
ATOM      7  H6  UNL     1       1.280  -5.223  15.900  1.00  0.00     0.190 HD
HETATM    8  C8  UNL     1       2.143  -3.435  16.532  1.00  0.00     0.183 A 
HETATM    9  N11 UNL     1       3.433  -3.114  16.702  1.00  0.00    -0.168 N 
ATOM     10  H11 UNL     1       3.792  -2.213  17.016  1.00  0.00     0.186 HD
HETATM   11  C10 UNL     1       4.170  -4.195  16.386  1.00  0.00     0.725 A 
ENDROOT
BRANCH  11  12
HETATM   12  N12 UNL     1       5.452  -4.237  16.438  1.00  0.00    -0.110 N 
ATOM     13  H12 UNL     1       5.993  -3.848  15.665  1.00  0.00     0.207 HD
BRANCH  12  14
HETATM   14  N13 UNL     1       6.122  -4.798  17.516  1.00  0.00    -0.196 N 
ATOM     15  H13 UNL     1       7.091  -5.107  17.432  1.00  0.00     0.216 HD
BRANCH  14  16
HETATM   16  O2  UNL     1       5.497  -4.912  18.601  1.00  0.00    -0.274 OA
ATOM     17  H2  UNL     1       5.882  -5.451  19.282  1.00  0.00     0.246 HD
ENDBRANCH  14  16
ENDBRANCH  12  14
ENDBRANCH  11  12
BRANCH   1  18
HETATM   18  C6  UNL     1       3.043  -8.788  14.832  1.00  0.00     0.125 C 
BRANCH  18  19
HETATM   19  C5  UNL     1       2.104  -9.860  15.130  1.00  0.00     0.089 A 
HETATM   20  C2  UNL     1       1.210 -10.298  14.132  1.00  0.00     0.051 A 
HETATM   21  C1  UNL     1       1.099  -9.833  12.725  1.00  0.00     0.071 C 
HETATM   22  N1  UNL     1       0.439 -11.243  14.673  1.00  0.00    -0.194 N 
HETATM   23  C3  UNL     1       0.821 -11.398  15.947  1.00  0.00     0.678 A 
ATOM     24  H1  UNL     1      -0.307 -11.754  14.201  1.00  0.00     0.184 HD
HETATM   25  N2  UNL     1       0.283 -12.237  16.765  1.00  0.00    -0.234 N 
HETATM   26  N3  UNL     1       1.843 -10.548  16.227  1.00  0.00    -0.185 N 
ATOM     27  H22 UNL     1      -0.485 -12.875  16.554  1.00  0.00     0.174 HD
ATOM     28  H21 UNL     1       0.574 -12.355  17.735  1.00  0.00     0.174 HD
HETATM   29  C4  UNL     1       2.421 -10.485  17.574  1.00  0.00     0.175 C 
ENDBRANCH  18  19
ENDBRANCH   1  18
BRANCH   8  30
HETATM   30  C9  UNL     1       0.989  -2.592  16.751  1.00  0.00     0.181 A 
HETATM   31  N7  UNL     1       1.013  -1.446  17.491  1.00  0.00    -0.268 N 
HETATM   32  N8  UNL     1      -0.196  -0.934  17.484  1.00  0.00    -0.225 N 
ATOM     33  H7  UNL     1       1.827  -1.056  17.966  1.00  0.00     0.190 HD
HETATM   34  N9  UNL     1      -0.984  -1.733  16.757  1.00  0.00    -0.005 NA
ATOM     35  H8  UNL     1      -0.485  -0.075  17.953  1.00  0.00     0.205 HD
HETATM   36  N10 UNL     1      -0.267  -2.749  16.304  1.00  0.00    -0.264 N 
ATOM     37  H10 UNL     1      -0.607  -3.514  15.720  1.00  0.00     0.186 HD
ENDBRANCH   8  30
TORSDOF 6
ENDMDL
MODEL 2
REMARK VINA RESULT: -8.047966748      9.183     11.689
REMARK  6 active torsions:
REMARK  status: ('A' for Active; 'I' for Inactive)
REMARK    1  A    between atoms: C5_11  and  C6_12 
REMARK    2  A    between atoms: C6_12  and  N4_13 
REMARK       I    between atoms: N4_13  and  C7_15 
REMARK       I    between atoms: C7_15  and  N5_17 
REMARK    3  A    between atoms: C8_20  and  C9_21 
REMARK    4  A    between atoms: C10_31  and  N12_32 
REMARK    5  A    between atoms: N12_32  and  N13_34 
REMARK    6  A    between atoms: N13_34  and  O2_36 
ROOT
HETATM    1  N4  UNL     1      -2.225   0.281  22.166  1.00  0.00    -0.315 N 
ATOM      2  H4  UNL     1      -3.196   0.591  22.214  1.00  0.00     0.170 HD
HETATM    3  C7  UNL     1      -1.478   0.652  21.013  1.00  0.00     0.360 C 
HETATM    4  O1  UNL     1      -0.274   0.273  20.916  1.00  0.00    -0.244 OA
HETATM    5  N5  UNL     1      -2.054   1.426  19.990  1.00  0.00    -0.028 N 
HETATM    6  N6  UNL     1      -3.278   1.910  19.915  1.00  0.00    -0.256 N 
ATOM      7  H6  UNL     1      -3.990   1.769  20.631  1.00  0.00     0.190 HD
HETATM    8  C8  UNL     1      -3.479   2.605  18.793  1.00  0.00     0.183 A 
HETATM    9  N11 UNL     1      -2.321   2.561  18.119  1.00  0.00    -0.168 N 
ATOM     10  H11 UNL     1      -2.135   2.994  17.215  1.00  0.00     0.186 HD
HETATM   11  C10 UNL     1      -1.449   1.842  18.849  1.00  0.00     0.725 A 
ENDROOT
BRANCH  11  12
HETATM   12  N12 UNL     1      -0.237   1.600  18.497  1.00  0.00    -0.110 N 
ATOM     13  H12 UNL     1       0.458   2.343  18.571  1.00  0.00     0.207 HD
BRANCH  12  14
HETATM   14  N13 UNL     1       0.151   0.356  18.019  1.00  0.00    -0.196 N 
ATOM     15  H13 UNL     1      -0.405  -0.478  18.210  1.00  0.00     0.216 HD
BRANCH  14  16
HETATM   16  O2  UNL     1       1.209   0.290  17.344  1.00  0.00    -0.274 OA
ATOM     17  H2  UNL     1       1.236  -0.324  16.619  1.00  0.00     0.246 HD
ENDBRANCH  14  16
ENDBRANCH  12  14
ENDBRANCH  11  12
BRANCH   1  18
HETATM   18  C6  UNL     1      -1.736  -0.477  23.243  1.00  0.00     0.125 C 
BRANCH  18  19
HETATM   19  C5  UNL     1      -1.772   0.066  24.594  1.00  0.00     0.089 A 
HETATM   20  C2  UNL     1      -2.966  -0.001  25.339  1.00  0.00     0.051 A 
HETATM   21  C1  UNL     1      -4.263  -0.614  24.950  1.00  0.00     0.071 C 
HETATM   22  N1  UNL     1      -2.743   0.602  26.508  1.00  0.00    -0.194 N 
HETATM   23  C3  UNL     1      -1.474   1.030  26.507  1.00  0.00     0.678 A 
ATOM     24  H1  UNL     1      -3.417   0.717  27.265  1.00  0.00     0.184 HD
HETATM   25  N2  UNL     1      -0.923   1.659  27.490  1.00  0.00    -0.234 N 
HETATM   26  N3  UNL     1      -0.878   0.702  25.332  1.00  0.00    -0.185 N 
ATOM     27  H22 UNL     1      -1.370   1.905  28.372  1.00  0.00     0.174 HD
ATOM     28  H21 UNL     1       0.044   1.984  27.489  1.00  0.00     0.174 HD
HETATM   29  C4  UNL     1       0.508   1.094  25.054  1.00  0.00     0.175 C 
ENDBRANCH  18  19
ENDBRANCH   1  18
BRANCH   8  30
HETATM   30  C9  UNL     1      -4.703   3.267  18.399  1.00  0.00     0.181 A 
HETATM   31  N7  UNL     1      -4.809   4.611  18.191  1.00  0.00    -0.268 N 
HETATM   32  N8  UNL     1      -6.049   4.871  17.848  1.00  0.00    -0.225 N 
ATOM     33  H7  UNL     1      -4.057   5.293  18.286  1.00  0.00     0.190 HD
HETATM   34  N9  UNL     1      -6.730   3.720  17.836  1.00  0.00    -0.005 NA
ATOM     35  H8  UNL     1      -6.428   5.792  17.629  1.00  0.00     0.205 HD
HETATM   36  N10 UNL     1      -5.913   2.733  18.171  1.00  0.00    -0.264 N 
ATOM     37  H10 UNL     1      -6.160   1.746  18.243  1.00  0.00     0.186 HD
ENDBRANCH   8  30
TORSDOF 6
ENDMDL
MODEL 3
REMARK VINA RESULT: -7.916549713      9.143     11.681
REMARK  6 active torsions:
REMARK  status: ('A' for Active; 'I' for Inactive)
REMARK    1  A    between atoms: C5_11  and  C6_12 
REMARK    2  A    between atoms: C6_12  and  N4_13 
REMARK       I    between atoms: N4_13  and  C7_15 
REMARK       I    between atoms: C7_15  and  N5_17 
REMARK    3  A    between atoms: C8_20  and  C9_21 
REMARK    4  A    between atoms: C10_31  and  N12_32 
REMARK    5  A    between atoms: N12_32  and  N13_34 
REMARK    6  A    between atoms: N13_34  and  O2_36 
ROOT
HETATM    1  N4  UNL     1      -2.257   0.290  22.175  1.00  0.00    -0.315 N 
ATOM      2  H4  UNL     1      -3.221   0.622  22.229  1.00  0.00     0.170 HD
HETATM    3  C7  UNL     1      -1.514   0.631  21.011  1.00  0.00     0.360 C 
HETATM    4  O1  UNL     1      -0.320   0.225  20.907  1.00  0.00    -0.244 OA
HETATM    5  N5  UNL     1      -2.083   1.405  19.985  1.00  0.00    -0.028 N 
HETATM    6  N6  UNL     1      -3.298   1.914  19.915  1.00  0.00    -0.256 N 
ATOM      7  H6  UNL     1      -4.006   1.797  20.640  1.00  0.00     0.190 HD
HETATM    8  C8  UNL     1      -3.495   2.599  18.786  1.00  0.00     0.183 A 
HETATM    9  N11 UNL     1      -2.345   2.522  18.102  1.00  0.00    -0.168 N 
ATOM     10  H11 UNL     1      -2.158   2.940  17.191  1.00  0.00     0.186 HD
HETATM   11  C10 UNL     1      -1.481   1.793  18.832  1.00  0.00     0.725 A 
ENDROOT
BRANCH  11  12
HETATM   12  N12 UNL     1      -0.279   1.522  18.472  1.00  0.00    -0.110 N 
ATOM     13  H12 UNL     1       0.415   2.269  18.457  1.00  0.00     0.207 HD
BRANCH  12  14
HETATM   14  N13 UNL     1       0.101   0.239  18.102  1.00  0.00    -0.196 N 
ATOM     15  H13 UNL     1      -0.464  -0.572  18.356  1.00  0.00     0.216 HD
BRANCH  14  16
HETATM   16  O2  UNL     1       1.165   0.108  17.444  1.00  0.00    -0.274 OA
ATOM     17  H2  UNL     1       1.205  -0.589  16.799  1.00  0.00     0.246 HD
ENDBRANCH  14  16
ENDBRANCH  12  14
ENDBRANCH  11  12
BRANCH   1  18
HETATM   18  C6  UNL     1      -1.774  -0.465  23.258  1.00  0.00     0.125 C 
BRANCH  18  19
HETATM   19  C5  UNL     1      -1.711   0.123  24.589  1.00  0.00     0.089 A 
HETATM   20  C2  UNL     1      -0.547   0.807  24.992  1.00  0.00     0.051 A 
HETATM   21  C1  UNL     1       0.686   1.072  24.205  1.00  0.00     0.071 C 
HETATM   22  N1  UNL     1      -0.731   1.201  26.253  1.00  0.00    -0.194 N 
HETATM   23  C3  UNL     1      -1.947   0.789  26.633  1.00  0.00     0.678 A 
ATOM     24  H1  UNL     1      -0.066   1.722  26.824  1.00  0.00     0.184 HD
HETATM   25  N2  UNL     1      -2.451   1.003  27.801  1.00  0.00    -0.234 N 
HETATM   26  N3  UNL     1      -2.549   0.126  25.611  1.00  0.00    -0.185 N 
ATOM     27  H22 UNL     1      -1.999   1.500  28.568  1.00  0.00     0.174 HD
ATOM     28  H21 UNL     1      -3.377   0.689  28.090  1.00  0.00     0.174 HD
HETATM   29  C4  UNL     1      -3.879  -0.469  25.779  1.00  0.00     0.175 C 
ENDBRANCH  18  19
ENDBRANCH   1  18
BRANCH   8  30
HETATM   30  C9  UNL     1      -4.709   3.282  18.396  1.00  0.00     0.181 A 
HETATM   31  N7  UNL     1      -4.792   4.629  18.193  1.00  0.00    -0.268 N 
HETATM   32  N8  UNL     1      -6.029   4.910  17.852  1.00  0.00    -0.225 N 
ATOM     33  H7  UNL     1      -4.029   5.298  18.289  1.00  0.00     0.190 HD
HETATM   34  N9  UNL     1      -6.728   3.771  17.837  1.00  0.00    -0.005 NA
ATOM     35  H8  UNL     1      -6.393   5.838  17.636  1.00  0.00     0.205 HD
HETATM   36  N10 UNL     1      -5.928   2.769  18.168  1.00  0.00    -0.264 N 
ATOM     37  H10 UNL     1      -6.190   1.786  18.237  1.00  0.00     0.186 HD
ENDBRANCH   8  30
TORSDOF 6
ENDMDL
MODEL 4
REMARK VINA RESULT: -7.853463684      8.374     12.121
REMARK  6 active torsions:
REMARK  status: ('A' for Active; 'I' for Inactive)
REMARK    1  A    between atoms: C5_11  and  C6_12 
REMARK    2  A    between atoms: C6_12  and  N4_13 
REMARK       I    between atoms: N4_13  and  C7_15 
REMARK       I    between atoms: C7_15  and  N5_17 
REMARK    3  A    between atoms: C8_20  and  C9_21 
REMARK    4  A    between atoms: C10_31  and  N12_32 
REMARK    5  A    between atoms: N12_32  and  N13_34 
REMARK    6  A    between atoms: N13_34  and  O2_36 
ROOT
HETATM    1  N4  UNL     1      -2.080  -0.067  22.429  1.00  0.00    -0.315 N 
ATOM      2  H4  UNL     1      -3.021   0.319  22.514  1.00  0.00     0.170 HD
HETATM    3  C7  UNL     1      -1.202   0.106  23.534  1.00  0.00     0.360 C 
HETATM    4  O1  UNL     1      -0.024  -0.352  23.456  1.00  0.00    -0.244 OA
HETATM    5  N5  UNL     1      -1.619   0.771  24.699  1.00  0.00    -0.028 N 
HETATM    6  N6  UNL     1      -2.794   1.309  24.963  1.00  0.00    -0.256 N 
ATOM      7  H6  UNL     1      -3.581   1.304  24.314  1.00  0.00     0.190 HD
HETATM    8  C8  UNL     1      -2.835   1.861  26.178  1.00  0.00     0.183 A 
HETATM    9  N11 UNL     1      -1.623   1.665  26.715  1.00  0.00    -0.168 N 
ATOM     10  H11 UNL     1      -1.320   1.966  27.641  1.00  0.00     0.186 HD
HETATM   11  C10 UNL     1      -0.878   0.998  25.814  1.00  0.00     0.725 A 
ENDROOT
BRANCH  11  12
HETATM   12  N12 UNL     1       0.341   0.644  26.003  1.00  0.00    -0.110 N 
ATOM     13  H12 UNL     1       0.541  -0.313  26.291  1.00  0.00     0.207 HD
BRANCH  12  14
HETATM   14  N13 UNL     1       1.395   1.530  25.827  1.00  0.00    -0.196 N 
ATOM     15  H13 UNL     1       2.296   1.374  26.279  1.00  0.00     0.216 HD
BRANCH  14  16
HETATM   16  O2  UNL     1       1.204   2.532  25.092  1.00  0.00    -0.274 OA
ATOM     17  H2  UNL     1       1.801   2.671  24.366  1.00  0.00     0.246 HD
ENDBRANCH  14  16
ENDBRANCH  12  14
ENDBRANCH  11  12
BRANCH   1  18
HETATM   18  C6  UNL     1      -1.761  -0.727  21.230  1.00  0.00     0.125 C 
BRANCH  18  19
HETATM   19  C5  UNL     1      -1.342   0.038  20.064  1.00  0.00     0.089 A 
HETATM   20  C2  UNL     1      -0.154  -0.314  19.391  1.00  0.00     0.051 A 
HETATM   21  C1  UNL     1       0.771  -1.440  19.682  1.00  0.00     0.071 C 
HETATM   22  N1  UNL     1       0.021   0.565  18.402  1.00  0.00    -0.194 N 
HETATM   23  C3  UNL     1      -1.001   1.430  18.444  1.00  0.00     0.678 A 
ATOM     24  H1  UNL     1       0.792   0.575  17.736  1.00  0.00     0.184 HD
HETATM   25  N2  UNL     1      -1.147   2.415  17.624  1.00  0.00    -0.234 N 
HETATM   26  N3  UNL     1      -1.837   1.107  19.465  1.00  0.00    -0.185 N 
ATOM     27  H22 UNL     1      -0.518   2.658  16.858  1.00  0.00     0.174 HD
ATOM     28  H21 UNL     1      -1.924   3.074  17.656  1.00  0.00     0.174 HD
HETATM   29  C4  UNL     1      -3.018   1.926  19.758  1.00  0.00     0.175 C 
ENDBRANCH  18  19
ENDBRANCH   1  18
BRANCH   8  30
HETATM   30  C9  UNL     1      -3.968   2.531  26.779  1.00  0.00     0.181 A 
HETATM   31  N7  UNL     1      -4.378   3.787  26.437  1.00  0.00    -0.268 N 
HETATM   32  N8  UNL     1      -5.426   4.084  27.171  1.00  0.00    -0.225 N 
ATOM     33  H7  UNL     1      -3.948   4.389  25.735  1.00  0.00     0.190 HD
HETATM   34  N9  UNL     1      -5.684   3.044  27.970  1.00  0.00    -0.005 NA
ATOM     35  H8  UNL     1      -5.951   4.958  27.138  1.00  0.00     0.205 HD
HETATM   36  N10 UNL     1      -4.798   2.089  27.736  1.00  0.00    -0.264 N 
ATOM     37  H10 UNL     1      -4.754   1.182  28.200  1.00  0.00     0.186 HD
ENDBRANCH   8  30
TORSDOF 6
ENDMDL
MODEL 5
REMARK VINA RESULT: -7.768090660      4.783      7.341
REMARK  6 active torsions:
REMARK  status: ('A' for Active; 'I' for Inactive)
REMARK    1  A    between atoms: C5_11  and  C6_12 
REMARK    2  A    between atoms: C6_12  and  N4_13 
REMARK       I    between atoms: N4_13  and  C7_15 
REMARK       I    between atoms: C7_15  and  N5_17 
REMARK    3  A    between atoms: C8_20  and  C9_21 
REMARK    4  A    between atoms: C10_31  and  N12_32 
REMARK    5  A    between atoms: N12_32  and  N13_34 
REMARK    6  A    between atoms: N13_34  and  O2_36 
ROOT
HETATM    1  N4  UNL     1       1.303  -2.592  18.634  1.00  0.00    -0.315 N 
ATOM      2  H4  UNL     1       1.513  -2.769  19.616  1.00  0.00     0.170 HD
HETATM    3  C7  UNL     1       0.510  -1.450  18.332  1.00  0.00     0.360 C 
HETATM    4  O1  UNL     1       0.221  -1.208  17.123  1.00  0.00    -0.244 OA
HETATM    5  N5  UNL     1       0.049  -0.595  19.348  1.00  0.00    -0.028 N 
HETATM    6  N6  UNL     1       0.246  -0.681  20.649  1.00  0.00    -0.256 N 
ATOM      7  H6  UNL     1       0.787  -1.422  21.094  1.00  0.00     0.190 HD
HETATM    8  C8  UNL     1      -0.344   0.313  21.317  1.00  0.00     0.183 A 
HETATM    9  N11 UNL     1      -0.949   1.071  20.392  1.00  0.00    -0.168 N 
ATOM     10  H11 UNL     1      -1.493   1.916  20.569  1.00  0.00     0.186 HD
HETATM   11  C10 UNL     1      -0.710   0.520  19.188  1.00  0.00     0.725 A 
ENDROOT
BRANCH  11  12
HETATM   12  N12 UNL     1      -1.144   0.993  18.076  1.00  0.00    -0.110 N 
ATOM     13  H12 UNL     1      -1.470   0.348  17.357  1.00  0.00     0.207 HD
BRANCH  12  14
HETATM   14  N13 UNL     1      -1.179   2.358  17.827  1.00  0.00    -0.196 N 
ATOM     15  H13 UNL     1      -0.320   2.889  17.680  1.00  0.00     0.216 HD
BRANCH  14  16
HETATM   16  O2  UNL     1      -2.303   2.919  17.787  1.00  0.00    -0.274 OA
ATOM     17  H2  UNL     1      -2.549   3.364  16.984  1.00  0.00     0.246 HD
ENDBRANCH  14  16
ENDBRANCH  12  14
ENDBRANCH  11  12
BRANCH   1  18
HETATM   18  C6  UNL     1       1.820  -3.497  17.691  1.00  0.00     0.125 C 
BRANCH  18  19
HETATM   19  C5  UNL     1       2.737  -4.547  18.113  1.00  0.00     0.089 A 
HETATM   20  C2  UNL     1       3.977  -4.691  17.459  1.00  0.00     0.051 A 
HETATM   21  C1  UNL     1       4.545  -3.861  16.366  1.00  0.00     0.071 C 
HETATM   22  N1  UNL     1       4.595  -5.743  18.001  1.00  0.00    -0.194 N 
HETATM   23  C3  UNL     1       3.790  -6.241  18.948  1.00  0.00     0.678 A 
ATOM     24  H1  UNL     1       5.513  -6.102  17.740  1.00  0.00     0.184 HD
HETATM   25  N2  UNL     1       4.079  -7.267  19.675  1.00  0.00    -0.234 N 
HETATM   26  N3  UNL     1       2.649  -5.508  19.016  1.00  0.00    -0.185 N 
ATOM     27  H22 UNL     1       4.936  -7.818  19.623  1.00  0.00     0.174 HD
ATOM     28  H21 UNL     1       3.467  -7.646  20.397  1.00  0.00     0.174 HD
HETATM   29  C4  UNL     1       1.576  -5.870  19.948  1.00  0.00     0.175 C 
ENDBRANCH  18  19
ENDBRANCH   1  18
BRANCH   8  30
HETATM   30  C9  UNL     1      -0.324   0.517  22.749  1.00  0.00     0.181 A 
HETATM   31  N7  UNL     1       0.753   0.998  23.434  1.00  0.00    -0.268 N 
HETATM   32  N8  UNL     1       0.431   1.056  24.705  1.00  0.00    -0.225 N 
ATOM     33  H7  UNL     1       1.650   1.265  23.030  1.00  0.00     0.190 HD
HETATM   34  N9  UNL     1      -0.827   0.621  24.838  1.00  0.00    -0.005 NA
ATOM     35  H8  UNL     1       1.035   1.378  25.461  1.00  0.00     0.205 HD
HETATM   36  N10 UNL     1      -1.296   0.290  23.646  1.00  0.00    -0.264 N 
ATOM     37  H10 UNL     1      -2.228  -0.073  23.445  1.00  0.00     0.186 HD
ENDBRANCH   8  30
TORSDOF 6
ENDMDL
