MODEL 1
REMARK VINA RESULT: -7.935403208      0.000      0.000
REMARK  9 active torsions:
REMARK  status: ('A' for Active; 'I' for Inactive)
REMARK    1  A    between atoms: N1_1  and  C1_4 
REMARK    2  A    between atoms: C3_11  and  N4_12 
REMARK    3  A    between atoms: N4_12  and  N5_14 
REMARK    4  A    between atoms: C4_16  and  C5_17 
REMARK    5  A    between atoms: C6_19  and  N6_20 
REMARK    6  A    between atoms: C7_23  and  N7_24 
REMARK    7  A    between atoms: C8_27  and  N8_28 
REMARK    8  A    between atoms: N8_28  and  O7_29 
REMARK    9  A    between atoms: N8_28  and  O8_31 
ROOT
HETATM    1  N5  UNL     1       1.486  -1.727  16.855  1.00  0.00    -0.295 N 
ATOM      2  H5  UNL     1       1.974  -0.940  17.284  1.00  0.00     0.186 HD
HETATM    3  C4  UNL     1       0.242  -1.908  17.162  1.00  0.00     0.147 C 
ENDROOT
BRANCH   1   4
HETATM    4  N4  UNL     1       2.195  -2.529  15.984  1.00  0.00    -0.132 N 
ATOM      5  H4  UNL     1       2.266  -2.215  15.017  1.00  0.00     0.205 HD
BRANCH   4   6
HETATM    6  C3  UNL     1       2.767  -3.625  16.281  1.00  0.00     0.715 A 
HETATM    7  N3  UNL     1       3.767  -3.606  17.186  1.00  0.00    -0.139 N 
HETATM    8  C2  UNL     1       4.417  -4.729  17.547  1.00  0.00     0.352 A 
ATOM      9  H3  UNL     1       4.038  -2.717  17.608  1.00  0.00     0.189 HD
HETATM   10  N2  UNL     1       4.093  -5.923  17.017  1.00  0.00    -0.141 N 
HETATM   11  O1  UNL     1       5.360  -4.718  18.398  1.00  0.00    -0.246 OA
HETATM   12  C1  UNL     1       3.097  -5.956  16.113  1.00  0.00     0.694 A 
ATOM     13  H2  UNL     1       4.585  -6.773  17.292  1.00  0.00     0.189 HD
HETATM   14  N9  UNL     1       2.449  -4.822  15.756  1.00  0.00    -0.021 N 
ATOM     15  H9  UNL     1       1.698  -4.878  15.068  1.00  0.00     0.203 HD
BRANCH  12  16
HETATM   16  N1  UNL     1       2.789  -7.114  15.605  1.00  0.00    -0.234 N 
ATOM     17  H12 UNL     1       3.253  -7.480  14.774  1.00  0.00     0.174 HD
ATOM     18  H11 UNL     1       2.059  -7.650  16.073  1.00  0.00     0.174 HD
ENDBRANCH  12  16
ENDBRANCH   4   6
ENDBRANCH   1   4
BRANCH   3  19
HETATM   19  C5  UNL     1      -0.323  -0.938  18.111  1.00  0.00     0.123 A 
HETATM   20  O2  UNL     1      -1.052   0.088  17.843  1.00  0.00    -0.283 OA
HETATM   21  C6  UNL     1      -1.411   0.771  18.929  1.00  0.00     0.251 A 
HETATM   22  C7  UNL     1      -0.853   0.112  19.999  1.00  0.00     0.189 A 
HETATM   23  C8  UNL     1      -0.155  -0.984  19.470  1.00  0.00     0.138 A 
BRANCH  21  24
HETATM   24  N6  UNL     1      -2.211   1.924  18.821  1.00  0.00    -0.088 N 
HETATM   25  O3  UNL     1      -2.037   2.664  17.801  1.00  0.00    -0.530 OA
HETATM   26  O4  UNL     1      -3.160   2.364  19.670  1.00  0.00    -0.530 OA
ENDBRANCH  21  24
BRANCH  22  27
HETATM   27  N7  UNL     1      -0.985   0.462  21.352  1.00  0.00    -0.109 N 
HETATM   28  O5  UNL     1      -0.121   0.970  22.082  1.00  0.00    -0.532 OA
HETATM   29  O6  UNL     1      -2.191   0.240  22.025  1.00  0.00    -0.532 OA
ENDBRANCH  22  27
BRANCH  23  30
HETATM   30  N8  UNL     1       0.559  -1.886  20.277  1.00  0.00    -0.031 NA
BRANCH  30  31
HETATM   31  O7  UNL     1       1.839  -2.083  19.889  1.00  0.00    -0.284 OA
ATOM     32  H7  UNL     1       2.485  -1.868  20.553  1.00  0.00     0.240 HD
ENDBRANCH  30  31
BRANCH  30  33
HETATM   33  O8  UNL     1      -0.015  -3.124  20.240  1.00  0.00    -0.284 OA
ATOM     34  H8  UNL     1      -0.649  -3.221  20.942  1.00  0.00     0.240 HD
ENDBRANCH  30  33
ENDBRANCH  23  30
ENDBRANCH   3  19
TORSDOF 9
ENDMDL
MODEL 2
REMARK VINA RESULT: -7.675899921      0.889      1.317
REMARK  9 active torsions:
REMARK  status: ('A' for Active; 'I' for Inactive)
REMARK    1  A    between atoms: N1_1  and  C1_4 
REMARK    2  A    between atoms: C3_11  and  N4_12 
REMARK    3  A    between atoms: N4_12  and  N5_14 
REMARK    4  A    between atoms: C4_16  and  C5_17 
REMARK    5  A    between atoms: C6_19  and  N6_20 
REMARK    6  A    between atoms: C7_23  and  N7_24 
REMARK    7  A    between atoms: C8_27  and  N8_28 
REMARK    8  A    between atoms: N8_28  and  O7_29 
REMARK    9  A    between atoms: N8_28  and  O8_31 
ROOT
HETATM    1  N5  UNL     1       1.647  -2.103  16.711  1.00  0.00    -0.295 N 
ATOM      2  H5  UNL     1       2.057  -1.171  16.779  1.00  0.00     0.186 HD
HETATM    3  C4  UNL     1       0.607  -2.361  17.436  1.00  0.00     0.147 C 
ENDROOT
BRANCH   1   4
HETATM    4  N4  UNL     1       2.238  -3.007  15.852  1.00  0.00    -0.132 N 
ATOM      5  H4  UNL     1       2.128  -2.837  14.852  1.00  0.00     0.205 HD
BRANCH   4   6
HETATM    6  C3  UNL     1       2.907  -4.032  16.195  1.00  0.00     0.715 A 
HETATM    7  N3  UNL     1       3.926  -3.874  17.065  1.00  0.00    -0.139 N 
HETATM    8  C2  UNL     1       4.677  -4.916  17.471  1.00  0.00     0.352 A 
ATOM      9  H3  UNL     1       4.133  -2.942  17.423  1.00  0.00     0.189 HD
HETATM   10  N2  UNL     1       4.439  -6.164  17.025  1.00  0.00    -0.141 N 
HETATM   11  O1  UNL     1       5.638  -4.776  18.290  1.00  0.00    -0.246 OA
HETATM   12  C1  UNL     1       3.425  -6.334  16.156  1.00  0.00     0.694 A 
ATOM     13  H2  UNL     1       5.008  -6.952  17.334  1.00  0.00     0.189 HD
HETATM   14  N9  UNL     1       2.676  -5.281  15.753  1.00  0.00    -0.021 N 
ATOM     15  H9  UNL     1       1.914  -5.440  15.094  1.00  0.00     0.203 HD
BRANCH  12  16
HETATM   16  N1  UNL     1       3.202  -7.542  15.729  1.00  0.00    -0.234 N 
ATOM     17  H12 UNL     1       3.085  -7.752  14.737  1.00  0.00     0.174 HD
ATOM     18  H11 UNL     1       3.146  -8.282  16.428  1.00  0.00     0.174 HD
ENDBRANCH  12  16
ENDBRANCH   4   6
ENDBRANCH   1   4
BRANCH   3  19
HETATM   19  C5  UNL     1       0.138  -1.256  18.285  1.00  0.00     0.123 A 
HETATM   20  O2  UNL     1      -0.081  -0.038  17.935  1.00  0.00    -0.283 OA
HETATM   21  C6  UNL     1      -0.507   0.725  18.941  1.00  0.00     0.251 A 
HETATM   22  C7  UNL     1      -0.565  -0.092  20.046  1.00  0.00     0.189 A 
HETATM   23  C8  UNL     1      -0.150  -1.363  19.620  1.00  0.00     0.138 A 
BRANCH  21  24
HETATM   24  N6  UNL     1      -0.796   2.087  18.738  1.00  0.00    -0.088 N 
HETATM   25  O3  UNL     1      -0.137   2.934  19.420  1.00  0.00    -0.530 OA
HETATM   26  O4  UNL     1      -1.698   2.632  17.897  1.00  0.00    -0.530 OA
ENDBRANCH  21  24
BRANCH  22  27
HETATM   27  N7  UNL     1      -0.984   0.277  21.334  1.00  0.00    -0.109 N 
HETATM   28  O5  UNL     1      -2.138   0.247  21.784  1.00  0.00    -0.532 OA
HETATM   29  O6  UNL     1      -0.056   0.747  22.270  1.00  0.00    -0.532 OA
ENDBRANCH  22  27
BRANCH  23  30
HETATM   30  N8  UNL     1      -0.069  -2.463  20.492  1.00  0.00    -0.031 NA
BRANCH  30  31
HETATM   31  O7  UNL     1      -1.225  -2.745  21.137  1.00  0.00    -0.284 OA
ATOM     32  H7  UNL     1      -1.276  -3.631  21.475  1.00  0.00     0.240 HD
ENDBRANCH  30  31
BRANCH  30  33
HETATM   33  O8  UNL     1       0.838  -2.226  21.484  1.00  0.00    -0.284 OA
ATOM     34  H8  UNL     1       0.684  -2.801  22.224  1.00  0.00     0.240 HD
ENDBRANCH  30  33
ENDBRANCH  23  30
ENDBRANCH   3  19
TORSDOF 9
ENDMDL
MODEL 3
REMARK VINA RESULT: -7.560904146      1.355      1.948
REMARK  9 active torsions:
REMARK  status: ('A' for Active; 'I' for Inactive)
REMARK    1  A    between atoms: N1_1  and  C1_4 
REMARK    2  A    between atoms: C3_11  and  N4_12 
REMARK    3  A    between atoms: N4_12  and  N5_14 
REMARK    4  A    between atoms: C4_16  and  C5_17 
REMARK    5  A    between atoms: C6_19  and  N6_20 
REMARK    6  A    between atoms: C7_23  and  N7_24 
REMARK    7  A    between atoms: C8_27  and  N8_28 
REMARK    8  A    between atoms: N8_28  and  O7_29 
REMARK    9  A    between atoms: N8_28  and  O8_31 
ROOT
HETATM    1  N5  UNL     1       1.567  -2.191  16.756  1.00  0.00    -0.295 N 
ATOM      2  H5  UNL     1       2.078  -1.319  16.901  1.00  0.00     0.186 HD
HETATM    3  C4  UNL     1       0.450  -2.351  17.390  1.00  0.00     0.147 C 
ENDROOT
BRANCH   1   4
HETATM    4  N4  UNL     1       2.112  -3.123  15.897  1.00  0.00    -0.132 N 
ATOM      5  H4  UNL     1       1.950  -2.986  14.900  1.00  0.00     0.205 HD
BRANCH   4   6
HETATM    6  C3  UNL     1       2.799  -4.138  16.239  1.00  0.00     0.715 A 
HETATM    7  N3  UNL     1       2.537  -5.321  15.648  1.00  0.00    -0.139 N 
HETATM    8  C2  UNL     1       3.225  -6.437  15.962  1.00  0.00     0.352 A 
ATOM      9  H3  UNL     1       1.799  -5.373  14.946  1.00  0.00     0.189 HD
HETATM   10  N2  UNL     1       4.207  -6.414  16.881  1.00  0.00    -0.141 N 
HETATM   11  O1  UNL     1       2.984  -7.555  15.409  1.00  0.00    -0.246 OA
HETATM   12  C1  UNL     1       4.478  -5.239  17.478  1.00  0.00     0.694 A 
ATOM     13  H2  UNL     1       4.728  -7.259  17.117  1.00  0.00     0.189 HD
HETATM   14  N9  UNL     1       3.782  -4.124  17.157  1.00  0.00    -0.021 N 
ATOM     15  H9  UNL     1       4.009  -3.247  17.626  1.00  0.00     0.203 HD
BRANCH  12  16
HETATM   16  N1  UNL     1       5.429  -5.226  18.366  1.00  0.00    -0.234 N 
ATOM     17  H12 UNL     1       5.705  -6.066  18.875  1.00  0.00     0.174 HD
ATOM     18  H11 UNL     1       5.895  -4.335  18.538  1.00  0.00     0.174 HD
ENDBRANCH  12  16
ENDBRANCH   4   6
ENDBRANCH   1   4
BRANCH   3  19
HETATM   19  C5  UNL     1       0.050  -1.233  18.258  1.00  0.00     0.123 A 
HETATM   20  O2  UNL     1      -0.183  -0.016  17.911  1.00  0.00    -0.283 OA
HETATM   21  C6  UNL     1      -0.531   0.760  18.937  1.00  0.00     0.251 A 
HETATM   22  C7  UNL     1      -0.518  -0.045  20.051  1.00  0.00     0.189 A 
HETATM   23  C8  UNL     1      -0.143  -1.324  19.611  1.00  0.00     0.138 A 
BRANCH  21  24
HETATM   24  N6  UNL     1      -0.823   2.123  18.739  1.00  0.00    -0.088 N 
HETATM   25  O3  UNL     1      -0.165   2.968  19.425  1.00  0.00    -0.530 OA
HETATM   26  O4  UNL     1      -1.727   2.669  17.902  1.00  0.00    -0.530 OA
ENDBRANCH  21  24
BRANCH  22  27
HETATM   27  N7  UNL     1      -0.842   0.341  21.361  1.00  0.00    -0.109 N 
HETATM   28  O5  UNL     1      -0.066   0.759  22.232  1.00  0.00    -0.532 OA
HETATM   29  O6  UNL     1      -2.165   0.270  21.812  1.00  0.00    -0.532 OA
ENDBRANCH  22  27
BRANCH  23  30
HETATM   30  N8  UNL     1      -0.010  -2.416  20.487  1.00  0.00    -0.031 NA
BRANCH  30  31
HETATM   31  O7  UNL     1      -1.124  -2.689  21.204  1.00  0.00    -0.284 OA
ATOM     32  H7  UNL     1      -1.162  -3.577  21.541  1.00  0.00     0.240 HD
ENDBRANCH  30  31
BRANCH  30  33
HETATM   33  O8  UNL     1       0.957  -2.170  21.418  1.00  0.00    -0.284 OA
ATOM     34  H8  UNL     1       1.820  -2.199  21.020  1.00  0.00     0.240 HD
ENDBRANCH  30  33
ENDBRANCH  23  30
ENDBRANCH   3  19
TORSDOF 9
ENDMDL
MODEL 4
REMARK VINA RESULT: -7.463617792      1.300      1.513
REMARK  9 active torsions:
REMARK  status: ('A' for Active; 'I' for Inactive)
REMARK    1  A    between atoms: N1_1  and  C1_4 
REMARK    2  A    between atoms: C3_11  and  N4_12 
REMARK    3  A    between atoms: N4_12  and  N5_14 
REMARK    4  A    between atoms: C4_16  and  C5_17 
REMARK    5  A    between atoms: C6_19  and  N6_20 
REMARK    6  A    between atoms: C7_23  and  N7_24 
REMARK    7  A    between atoms: C8_27  and  N8_28 
REMARK    8  A    between atoms: N8_28  and  O7_29 
REMARK    9  A    between atoms: N8_28  and  O8_31 
ROOT
HETATM    1  N5  UNL     1       1.897  -2.812  17.567  1.00  0.00    -0.295 N 
ATOM      2  H5  UNL     1       2.344  -2.488  18.425  1.00  0.00     0.186 HD
HETATM    3  C4  UNL     1       0.784  -2.252  17.216  1.00  0.00     0.147 C 
ENDROOT
BRANCH   1   4
HETATM    4  N4  UNL     1       2.517  -3.818  16.855  1.00  0.00    -0.132 N 
ATOM      5  H4  UNL     1       2.327  -3.864  15.854  1.00  0.00     0.205 HD
BRANCH   4   6
HETATM    6  C3  UNL     1       3.305  -4.693  17.336  1.00  0.00     0.715 A 
HETATM    7  N3  UNL     1       4.620  -4.403  17.413  1.00  0.00    -0.139 N 
HETATM    8  C2  UNL     1       5.511  -5.283  17.911  1.00  0.00     0.352 A 
ATOM      9  H3  UNL     1       4.948  -3.494  17.086  1.00  0.00     0.189 HD
HETATM   10  N2  UNL     1       5.122  -6.493  18.354  1.00  0.00    -0.141 N 
HETATM   11  O1  UNL     1       6.750  -5.017  17.987  1.00  0.00    -0.246 OA
HETATM   12  C1  UNL     1       3.813  -6.794  18.283  1.00  0.00     0.694 A 
ATOM     13  H2  UNL     1       5.797  -7.158  18.732  1.00  0.00     0.189 HD
HETATM   14  N9  UNL     1       2.925  -5.904  17.781  1.00  0.00    -0.021 N 
ATOM     15  H9  UNL     1       1.938  -6.160  17.738  1.00  0.00     0.203 HD
BRANCH  12  16
HETATM   16  N1  UNL     1       3.445  -7.965  18.713  1.00  0.00    -0.234 N 
ATOM     17  H12 UNL     1       3.992  -8.485  19.400  1.00  0.00     0.174 HD
ATOM     18  H11 UNL     1       2.580  -8.352  18.336  1.00  0.00     0.174 HD
ENDBRANCH  12  16
ENDBRANCH   4   6
ENDBRANCH   1   4
BRANCH   3  19
HETATM   19  C5  UNL     1       0.294  -1.199  18.118  1.00  0.00     0.123 A 
HETATM   20  O2  UNL     1       0.002   0.017  17.817  1.00  0.00    -0.283 OA
HETATM   21  C6  UNL     1      -0.422   0.725  18.863  1.00  0.00     0.251 A 
HETATM   22  C7  UNL     1      -0.397  -0.128  19.941  1.00  0.00     0.189 A 
HETATM   23  C8  UNL     1       0.064  -1.362  19.459  1.00  0.00     0.138 A 
BRANCH  21  24
HETATM   24  N6  UNL     1      -0.785   2.077  18.715  1.00  0.00    -0.088 N 
HETATM   25  O3  UNL     1      -0.191   2.927  19.451  1.00  0.00    -0.530 OA
HETATM   26  O4  UNL     1      -1.699   2.609  17.879  1.00  0.00    -0.530 OA
ENDBRANCH  21  24
BRANCH  22  27
HETATM   27  N7  UNL     1      -0.783   0.180  21.255  1.00  0.00    -0.109 N 
HETATM   28  O5  UNL     1      -0.056   0.582  22.175  1.00  0.00    -0.532 OA
HETATM   29  O6  UNL     1      -2.118   0.039  21.651  1.00  0.00    -0.532 OA
ENDBRANCH  22  27
BRANCH  23  30
HETATM   30  N8  UNL     1       0.232  -2.483  20.290  1.00  0.00    -0.031 NA
BRANCH  30  31
HETATM   31  O7  UNL     1       1.523  -2.813  20.520  1.00  0.00    -0.284 OA
ATOM     32  H7  UNL     1       1.653  -3.716  20.785  1.00  0.00     0.240 HD
ENDBRANCH  30  31
BRANCH  30  33
HETATM   33  O8  UNL     1      -0.319  -3.594  19.719  1.00  0.00    -0.284 OA
ATOM     34  H8  UNL     1      -1.256  -3.482  19.606  1.00  0.00     0.240 HD
ENDBRANCH  30  33
ENDBRANCH  23  30
ENDBRANCH   3  19
TORSDOF 9
ENDMDL
MODEL 5
REMARK VINA RESULT: -7.441426008      2.573      8.107
REMARK  9 active torsions:
REMARK  status: ('A' for Active; 'I' for Inactive)
REMARK    1  A    between atoms: N1_1  and  C1_4 
REMARK    2  A    between atoms: C3_11  and  N4_12 
REMARK    3  A    between atoms: N4_12  and  N5_14 
REMARK    4  A    between atoms: C4_16  and  C5_17 
REMARK    5  A    between atoms: C6_19  and  N6_20 
REMARK    6  A    between atoms: C7_23  and  N7_24 
REMARK    7  A    between atoms: C8_27  and  N8_28 
REMARK    8  A    between atoms: N8_28  and  O7_29 
REMARK    9  A    between atoms: N8_28  and  O8_31 
ROOT
HETATM    1  N5  UNL     1       1.848  -3.128  16.880  1.00  0.00    -0.295 N 
ATOM      2  H5  UNL     1       1.390  -3.771  17.527  1.00  0.00     0.186 HD
HETATM    3  C4  UNL     1       2.864  -3.567  16.209  1.00  0.00     0.147 C 
ENDROOT
BRANCH   1   4
HETATM    4  N4  UNL     1       1.344  -1.848  16.777  1.00  0.00    -0.132 N 
ATOM      5  H4  UNL     1       1.703  -1.268  16.018  1.00  0.00     0.205 HD
BRANCH   4   6
HETATM    6  C3  UNL     1       0.474  -1.326  17.544  1.00  0.00     0.715 A 
HETATM    7  N3  UNL     1       0.647  -0.049  17.940  1.00  0.00    -0.139 N 
HETATM    8  C2  UNL     1      -0.235   0.566  18.752  1.00  0.00     0.352 A 
ATOM      9  H3  UNL     1       1.467   0.464  17.616  1.00  0.00     0.189 HD
HETATM   10  N2  UNL     1      -1.330  -0.073  19.203  1.00  0.00    -0.141 N 
HETATM   11  O1  UNL     1      -0.079   1.769  19.129  1.00  0.00    -0.246 OA
HETATM   12  C1  UNL     1      -1.514  -1.348  18.815  1.00  0.00     0.694 A 
ATOM     13  H2  UNL     1      -1.998   0.394  19.817  1.00  0.00     0.189 HD
HETATM   14  N9  UNL     1      -0.623  -1.958  17.999  1.00  0.00    -0.021 N 
ATOM     15  H9  UNL     1      -0.788  -2.926  17.722  1.00  0.00     0.203 HD
BRANCH  12  16
HETATM   16  N1  UNL     1      -2.575  -1.959  19.255  1.00  0.00    -0.234 N 
ATOM     17  H12 UNL     1      -3.254  -1.496  19.859  1.00  0.00     0.174 HD
ATOM     18  H11 UNL     1      -2.708  -2.930  18.971  1.00  0.00     0.174 HD
ENDBRANCH  12  16
ENDBRANCH   4   6
ENDBRANCH   1   4
BRANCH   3  19
HETATM   19  C5  UNL     1       3.238  -4.965  16.470  1.00  0.00     0.123 A 
HETATM   20  O2  UNL     1       2.768  -6.021  15.905  1.00  0.00    -0.283 OA
HETATM   21  C6  UNL     1       3.318  -7.145  16.361  1.00  0.00     0.251 A 
HETATM   22  C7  UNL     1       4.233  -6.766  17.316  1.00  0.00     0.189 A 
HETATM   23  C8  UNL     1       4.178  -5.366  17.383  1.00  0.00     0.138 A 
BRANCH  21  24
HETATM   24  N6  UNL     1       2.921  -8.396  15.853  1.00  0.00    -0.088 N 
HETATM   25  O3  UNL     1       2.825  -8.512  14.591  1.00  0.00    -0.530 OA
HETATM   26  O4  UNL     1       2.624  -9.519  16.538  1.00  0.00    -0.530 OA
ENDBRANCH  21  24
BRANCH  22  27
HETATM   27  N7  UNL     1       5.069  -7.620  18.052  1.00  0.00    -0.109 N 
HETATM   28  O5  UNL     1       4.812  -8.173  19.131  1.00  0.00    -0.532 OA
HETATM   29  O6  UNL     1       6.353  -7.925  17.587  1.00  0.00    -0.532 OA
ENDBRANCH  22  27
BRANCH  23  30
HETATM   30  N8  UNL     1       4.975  -4.620  18.269  1.00  0.00    -0.031 NA
BRANCH  30  31
HETATM   31  O7  UNL     1       6.263  -5.028  18.333  1.00  0.00    -0.284 OA
ATOM     32  H7  UNL     1       6.751  -4.904  17.527  1.00  0.00     0.240 HD
ENDBRANCH  30  31
BRANCH  30  33
HETATM   33  O8  UNL     1       4.506  -4.730  19.546  1.00  0.00    -0.284 OA
ATOM     34  H8  UNL     1       5.084  -5.274  20.069  1.00  0.00     0.240 HD
ENDBRANCH  30  33
ENDBRANCH  23  30
ENDBRANCH   3  19
TORSDOF 9
ENDMDL
