MODEL 1
REMARK VINA RESULT: -8.444547487      0.000      0.000
REMARK  8 active torsions:
REMARK  status: ('A' for Active; 'I' for Inactive)
REMARK    1  A    between atoms: C2_2  and  C3_4 
REMARK    2  A    between atoms: C4_5  and  O2_6 
REMARK    3  A    between atoms: C5_8  and  O3_9 
REMARK    4  A    between atoms: N1_11  and  C6_12 
REMARK    5  A    between atoms: C6_12  and  C7_13 
REMARK    6  A    between atoms: C7_13  and  N2_14 
REMARK    7  A    between atoms: N3_17  and  C10_18 
REMARK    8  A    between atoms: C18_26  and  C19_27 
ROOT
HETATM    1  C3  UNL     1      24.178 -27.556   1.346  1.00  0.00     0.075 A 
HETATM    2  C4  UNL     1      24.693 -26.723   0.356  1.00  0.00     0.133 A 
HETATM    3  C5  UNL     1      26.058 -26.679   0.608  1.00  0.00     0.178 A 
HETATM    4  N1  UNL     1      26.371 -27.431   1.674  1.00  0.00    -0.319 N 
HETATM    5  C18 UNL     1      25.230 -27.979   2.140  1.00  0.00     0.071 A 
ENDROOT
BRANCH   4   6
HETATM    6  C6  UNL     1      27.713 -27.621   2.134  1.00  0.00     0.175 C 
BRANCH   6   7
HETATM    7  C7  UNL     1      28.479 -26.412   2.526  1.00  0.00     0.078 C 
BRANCH   7   8
HETATM    8  N2  UNL     1      27.997 -25.529   3.482  1.00  0.00    -0.388 N 
HETATM    9  C8  UNL     1      28.002 -25.840   4.856  1.00  0.00     0.152 C 
HETATM   10  C9  UNL     1      26.567 -25.580   5.372  1.00  0.00     0.292 C 
HETATM   11  N3  UNL     1      26.116 -24.313   4.898  1.00  0.00     0.096 N 
HETATM   12  C16 UNL     1      27.176 -23.486   4.369  1.00  0.00     0.292 C 
HETATM   13  C17 UNL     1      27.719 -24.188   3.116  1.00  0.00     0.152 C 
BRANCH  11  14
HETATM   14  C10 UNL     1      25.277 -23.608   5.837  1.00  0.00     0.223 C 
HETATM   15  C11 UNL     1      25.386 -24.245   7.193  1.00  0.00     0.036 C 
HETATM   16  C12 UNL     1      25.101 -23.274   8.313  1.00  0.00     0.002 C 
HETATM   17  C13 UNL     1      24.221 -22.140   7.856  1.00  0.00     0.000 C 
HETATM   18  C14 UNL     1      24.953 -21.329   6.832  1.00  0.00     0.002 C 
HETATM   19  C15 UNL     1      25.728 -22.162   5.840  1.00  0.00     0.036 C 
ENDBRANCH  11  14
ENDBRANCH   7   8
ENDBRANCH   6   7
ENDBRANCH   4   6
BRANCH   3  20
HETATM   20  O3  UNL     1      26.961 -25.934  -0.169  1.00  0.00    -0.344 OA
ATOM     21  H3  UNL     1      27.660 -26.330  -0.677  1.00  0.00     0.219 HD
ENDBRANCH   3  20
BRANCH   5  22
HETATM   22  C19 UNL     1      25.152 -29.012   3.212  1.00  0.00     0.034 A 
HETATM   23  C20 UNL     1      25.079 -28.853   4.570  1.00  0.00     0.023 A 
HETATM   24  C21 UNL     1      24.953 -29.951   5.328  1.00  0.00     0.033 A 
HETATM   25  C22 UNL     1      24.905 -31.160   4.700  1.00  0.00     0.075 A 
HETATM   26 CL1  UNL     1      24.746 -32.762   5.450  1.00  0.00    -0.076 Cl
HETATM   27  S1  UNL     1      25.034 -30.731   3.069  1.00  0.00    -0.076 SA
ENDBRANCH   5  22
BRANCH   2  28
HETATM   28  O2  UNL     1      24.141 -26.036  -0.686  1.00  0.00    -0.356 OA
ATOM     29  H2  UNL     1      24.490 -25.456  -1.353  1.00  0.00     0.218 HD
ENDBRANCH   2  28
BRANCH   1  30
HETATM   30  C2  UNL     1      22.758 -27.847   1.483  1.00  0.00     0.160 C 
HETATM   31  C1  UNL     1      22.203 -29.218   1.397  1.00  0.00     0.097 C 
HETATM   32  O1  UNL     1      21.912 -26.947   1.683  1.00  0.00    -0.293 OA
ENDBRANCH   1  30
TORSDOF 8
ENDMDL
MODEL 2
REMARK VINA RESULT: -7.988613601      3.013      7.058
REMARK  8 active torsions:
REMARK  status: ('A' for Active; 'I' for Inactive)
REMARK    1  A    between atoms: C2_2  and  C3_4 
REMARK    2  A    between atoms: C4_5  and  O2_6 
REMARK    3  A    between atoms: C5_8  and  O3_9 
REMARK    4  A    between atoms: N1_11  and  C6_12 
REMARK    5  A    between atoms: C6_12  and  C7_13 
REMARK    6  A    between atoms: C7_13  and  N2_14 
REMARK    7  A    between atoms: N3_17  and  C10_18 
REMARK    8  A    between atoms: C18_26  and  C19_27 
ROOT
HETATM    1  C3  UNL     1      27.416 -26.051   1.916  1.00  0.00     0.075 A 
HETATM    2  C4  UNL     1      27.068 -26.383   0.609  1.00  0.00     0.133 A 
HETATM    3  C5  UNL     1      25.743 -26.791   0.691  1.00  0.00     0.178 A 
HETATM    4  N1  UNL     1      25.298 -26.717   1.955  1.00  0.00    -0.319 N 
HETATM    5  C18 UNL     1      26.310 -26.264   2.722  1.00  0.00     0.071 A 
ENDROOT
BRANCH   4   6
HETATM    6  C6  UNL     1      23.951 -27.021   2.332  1.00  0.00     0.175 C 
BRANCH   6   7
HETATM    7  C7  UNL     1      23.287 -28.155   1.641  1.00  0.00     0.078 C 
BRANCH   7   8
HETATM    8  N2  UNL     1      23.490 -29.466   2.044  1.00  0.00    -0.388 N 
HETATM    9  C8  UNL     1      22.422 -30.310   2.407  1.00  0.00     0.152 C 
HETATM   10  C9  UNL     1      22.780 -30.908   3.787  1.00  0.00     0.292 C 
HETATM   11  N3  UNL     1      24.126 -31.380   3.764  1.00  0.00     0.096 N 
HETATM   12  C16 UNL     1      24.675 -31.487   2.432  1.00  0.00     0.292 C 
HETATM   13  C17 UNL     1      24.762 -30.064   1.860  1.00  0.00     0.152 C 
BRANCH  11  14
HETATM   14  C10 UNL     1      24.335 -32.572   4.549  1.00  0.00     0.223 C 
HETATM   15  C11 UNL     1      25.184 -32.250   5.746  1.00  0.00     0.036 C 
HETATM   16  C12 UNL     1      24.936 -33.188   6.902  1.00  0.00     0.002 C 
HETATM   17  C13 UNL     1      24.407 -34.519   6.434  1.00  0.00     0.000 C 
HETATM   18  C14 UNL     1      23.059 -34.323   5.813  1.00  0.00     0.002 C 
HETATM   19  C15 UNL     1      22.968 -33.097   4.937  1.00  0.00     0.036 C 
ENDBRANCH  11  14
ENDBRANCH   7   8
ENDBRANCH   6   7
ENDBRANCH   4   6
BRANCH   3  20
HETATM   20  O3  UNL     1      24.999 -27.220  -0.421  1.00  0.00    -0.344 OA
ATOM     21  H3  UNL     1      25.319 -27.162  -1.314  1.00  0.00     0.219 HD
ENDBRANCH   3  20
BRANCH   5  22
HETATM   22  C19 UNL     1      26.191 -25.880   4.157  1.00  0.00     0.034 A 
HETATM   23  C20 UNL     1      26.367 -26.645   5.280  1.00  0.00     0.023 A 
HETATM   24  C21 UNL     1      26.264 -26.046   6.474  1.00  0.00     0.033 A 
HETATM   25  C22 UNL     1      25.990 -24.711   6.499  1.00  0.00     0.075 A 
HETATM   26 CL1  UNL     1      25.798 -23.673   7.927  1.00  0.00    -0.076 Cl
HETATM   27  S1  UNL     1      25.887 -24.328   4.855  1.00  0.00    -0.076 SA
ENDBRANCH   5  22
BRANCH   2  28
HETATM   28  O2  UNL     1      27.734 -26.369  -0.581  1.00  0.00    -0.356 OA
ATOM     29  H2  UNL     1      28.488 -25.893  -0.911  1.00  0.00     0.218 HD
ENDBRANCH   2  28
BRANCH   1  30
HETATM   30  C2  UNL     1      28.750 -25.609   2.297  1.00  0.00     0.160 C 
HETATM   31  C1  UNL     1      29.701 -26.464   3.045  1.00  0.00     0.097 C 
HETATM   32  O1  UNL     1      29.177 -24.467   2.013  1.00  0.00    -0.293 OA
ENDBRANCH   1  30
TORSDOF 8
ENDMDL
MODEL 3
REMARK VINA RESULT: -7.928765317      1.138      1.910
REMARK  8 active torsions:
REMARK  status: ('A' for Active; 'I' for Inactive)
REMARK    1  A    between atoms: C2_2  and  C3_4 
REMARK    2  A    between atoms: C4_5  and  O2_6 
REMARK    3  A    between atoms: C5_8  and  O3_9 
REMARK    4  A    between atoms: N1_11  and  C6_12 
REMARK    5  A    between atoms: C6_12  and  C7_13 
REMARK    6  A    between atoms: C7_13  and  N2_14 
REMARK    7  A    between atoms: N3_17  and  C10_18 
REMARK    8  A    between atoms: C18_26  and  C19_27 
ROOT
HETATM    1  C3  UNL     1      24.760 -27.137   1.160  1.00  0.00     0.075 A 
HETATM    2  C4  UNL     1      25.478 -26.140   0.503  1.00  0.00     0.133 A 
HETATM    3  C5  UNL     1      26.658 -26.023   1.226  1.00  0.00     0.178 A 
HETATM    4  N1  UNL     1      26.676 -26.884   2.254  1.00  0.00    -0.319 N 
HETATM    5  C18 UNL     1      25.519 -27.579   2.230  1.00  0.00     0.071 A 
ENDROOT
BRANCH   4   6
HETATM    6  C6  UNL     1      27.792 -27.028   3.139  1.00  0.00     0.175 C 
BRANCH   6   7
HETATM    7  C7  UNL     1      28.061 -25.916   4.085  1.00  0.00     0.078 C 
BRANCH   7   8
HETATM    8  N2  UNL     1      27.077 -25.436   4.936  1.00  0.00    -0.388 N 
HETATM    9  C8  UNL     1      26.085 -24.537   4.500  1.00  0.00     0.152 C 
HETATM   10  C9  UNL     1      26.088 -23.356   5.498  1.00  0.00     0.292 C 
HETATM   11  N3  UNL     1      26.097 -23.864   6.831  1.00  0.00     0.096 N 
HETATM   12  C16 UNL     1      25.774 -25.270   6.914  1.00  0.00     0.292 C 
HETATM   13  C17 UNL     1      26.900 -26.038   6.208  1.00  0.00     0.152 C 
BRANCH  11  14
HETATM   14  C10 UNL     1      25.338 -23.064   7.761  1.00  0.00     0.223 C 
HETATM   15  C11 UNL     1      24.713 -21.903   7.041  1.00  0.00     0.036 C 
HETATM   16  C12 UNL     1      23.454 -21.413   7.715  1.00  0.00     0.002 C 
HETATM   17  C13 UNL     1      23.445 -21.745   9.185  1.00  0.00     0.000 C 
HETATM   18  C14 UNL     1      23.408 -23.231   9.354  1.00  0.00     0.002 C 
HETATM   19  C15 UNL     1      24.305 -23.974   8.394  1.00  0.00     0.036 C 
ENDBRANCH  11  14
ENDBRANCH   7   8
ENDBRANCH   6   7
ENDBRANCH   4   6
BRANCH   3  20
HETATM   20  O3  UNL     1      27.675 -25.112   0.897  1.00  0.00    -0.344 OA
ATOM     21  H3  UNL     1      27.666 -24.585   0.106  1.00  0.00     0.219 HD
ENDBRANCH   3  20
BRANCH   5  22
HETATM   22  C19 UNL     1      25.205 -28.749   3.097  1.00  0.00     0.034 A 
HETATM   23  C20 UNL     1      24.951 -28.792   4.442  1.00  0.00     0.023 A 
HETATM   24  C21 UNL     1      24.629 -29.974   4.986  1.00  0.00     0.033 A 
HETATM   25  C22 UNL     1      24.574 -31.062   4.167  1.00  0.00     0.075 A 
HETATM   26 CL1  UNL     1      24.180 -32.734   4.615  1.00  0.00    -0.076 Cl
HETATM   27  S1  UNL     1      24.970 -30.405   2.659  1.00  0.00    -0.076 SA
ENDBRANCH   5  22
BRANCH   2  28
HETATM   28  O2  UNL     1      25.237 -25.365  -0.594  1.00  0.00    -0.356 OA
ATOM     29  H2  UNL     1      25.031 -25.553  -1.502  1.00  0.00     0.218 HD
ENDBRANCH   2  28
BRANCH   1  30
HETATM   30  C2  UNL     1      23.425 -27.555   0.755  1.00  0.00     0.160 C 
HETATM   31  C1  UNL     1      22.359 -27.899   1.725  1.00  0.00     0.097 C 
HETATM   32  O1  UNL     1      23.095 -27.651  -0.448  1.00  0.00    -0.293 OA
ENDBRANCH   1  30
TORSDOF 8
ENDMDL
MODEL 4
REMARK VINA RESULT: -7.892671106      3.716      7.685
REMARK  8 active torsions:
REMARK  status: ('A' for Active; 'I' for Inactive)
REMARK    1  A    between atoms: C2_2  and  C3_4 
REMARK    2  A    between atoms: C4_5  and  O2_6 
REMARK    3  A    between atoms: C5_8  and  O3_9 
REMARK    4  A    between atoms: N1_11  and  C6_12 
REMARK    5  A    between atoms: C6_12  and  C7_13 
REMARK    6  A    between atoms: C7_13  and  N2_14 
REMARK    7  A    between atoms: N3_17  and  C10_18 
REMARK    8  A    between atoms: C18_26  and  C19_27 
ROOT
HETATM    1  C3  UNL     1      28.551 -25.841   5.237  1.00  0.00     0.075 A 
HETATM    2  C4  UNL     1      29.131 -26.442   4.122  1.00  0.00     0.133 A 
HETATM    3  C5  UNL     1      28.101 -26.526   3.193  1.00  0.00     0.178 A 
HETATM    4  N1  UNL     1      26.966 -26.013   3.691  1.00  0.00    -0.319 N 
HETATM    5  C18 UNL     1      27.222 -25.586   4.945  1.00  0.00     0.071 A 
ENDROOT
BRANCH   4   6
HETATM    6  C6  UNL     1      25.753 -25.913   2.937  1.00  0.00     0.175 C 
BRANCH   6   7
HETATM    7  C7  UNL     1      25.455 -27.003   1.975  1.00  0.00     0.078 C 
BRANCH   7   8
HETATM    8  N2  UNL     1      24.553 -28.011   2.282  1.00  0.00    -0.388 N 
HETATM    9  C8  UNL     1      24.608 -28.718   3.499  1.00  0.00     0.152 C 
HETATM   10  C9  UNL     1      24.598 -30.222   3.137  1.00  0.00     0.292 C 
HETATM   11  N3  UNL     1      23.572 -30.471   2.178  1.00  0.00     0.096 N 
HETATM   12  C16 UNL     1      22.629 -29.383   2.048  1.00  0.00     0.292 C 
HETATM   13  C17 UNL     1      23.397 -28.181   1.479  1.00  0.00     0.152 C 
BRANCH  11  14
HETATM   14  C10 UNL     1      22.925 -31.750   2.340  1.00  0.00     0.223 C 
HETATM   15  C11 UNL     1      23.837 -32.691   3.075  1.00  0.00     0.036 C 
HETATM   16  C12 UNL     1      23.082 -33.756   3.833  1.00  0.00     0.002 C 
HETATM   17  C13 UNL     1      21.727 -34.014   3.226  1.00  0.00     0.000 C 
HETATM   18  C14 UNL     1      20.883 -32.786   3.363  1.00  0.00     0.002 C 
HETATM   19  C15 UNL     1      21.629 -31.504   3.084  1.00  0.00     0.036 C 
ENDBRANCH  11  14
ENDBRANCH   7   8
ENDBRANCH   6   7
ENDBRANCH   4   6
BRANCH   3  20
HETATM   20  O3  UNL     1      28.263 -27.081   1.913  1.00  0.00    -0.344 OA
ATOM     21  H3  UNL     1      28.419 -26.559   1.135  1.00  0.00     0.219 HD
ENDBRANCH   3  20
BRANCH   5  22
HETATM   22  C19 UNL     1      26.278 -24.804   5.792  1.00  0.00     0.034 A 
HETATM   23  C20 UNL     1      25.746 -25.113   7.016  1.00  0.00     0.023 A 
HETATM   24  C21 UNL     1      24.960 -24.205   7.609  1.00  0.00     0.033 A 
HETATM   25  C22 UNL     1      24.738 -23.027   6.959  1.00  0.00     0.075 A 
HETATM   26 CL1  UNL     1      23.746 -21.661   7.507  1.00  0.00    -0.076 Cl
HETATM   27  S1  UNL     1      25.635 -23.219   5.538  1.00  0.00    -0.076 SA
ENDBRANCH   5  22
BRANCH   2  28
HETATM   28  O2  UNL     1      30.385 -26.898   3.836  1.00  0.00    -0.356 OA
ATOM     29  H2  UNL     1      30.831 -27.142   3.034  1.00  0.00     0.218 HD
ENDBRANCH   2  28
BRANCH   1  30
HETATM   30  C2  UNL     1      29.275 -25.598   6.477  1.00  0.00     0.160 C 
HETATM   31  C1  UNL     1      30.272 -26.545   7.028  1.00  0.00     0.097 C 
HETATM   32  O1  UNL     1      29.095 -24.565   7.160  1.00  0.00    -0.293 OA
ENDBRANCH   1  30
TORSDOF 8
ENDMDL
MODEL 5
REMARK VINA RESULT: -7.804287895      3.713      7.620
REMARK  8 active torsions:
REMARK  status: ('A' for Active; 'I' for Inactive)
REMARK    1  A    between atoms: C2_2  and  C3_4 
REMARK    2  A    between atoms: C4_5  and  O2_6 
REMARK    3  A    between atoms: C5_8  and  O3_9 
REMARK    4  A    between atoms: N1_11  and  C6_12 
REMARK    5  A    between atoms: C6_12  and  C7_13 
REMARK    6  A    between atoms: C7_13  and  N2_14 
REMARK    7  A    between atoms: N3_17  and  C10_18 
REMARK    8  A    between atoms: C18_26  and  C19_27 
ROOT
HETATM    1  C3  UNL     1      28.543 -25.859   5.205  1.00  0.00     0.075 A 
HETATM    2  C4  UNL     1      29.112 -26.459   4.085  1.00  0.00     0.133 A 
HETATM    3  C5  UNL     1      28.070 -26.555   3.171  1.00  0.00     0.178 A 
HETATM    4  N1  UNL     1      26.938 -26.050   3.683  1.00  0.00    -0.319 N 
HETATM    5  C18 UNL     1      27.208 -25.616   4.931  1.00  0.00     0.071 A 
ENDROOT
BRANCH   4   6
HETATM    6  C6  UNL     1      25.714 -25.962   2.946  1.00  0.00     0.175 C 
BRANCH   6   7
HETATM    7  C7  UNL     1      25.339 -27.124   2.103  1.00  0.00     0.078 C 
BRANCH   7   8
HETATM    8  N2  UNL     1      25.014 -28.350   2.665  1.00  0.00    -0.388 N 
HETATM    9  C8  UNL     1      25.011 -29.541   1.911  1.00  0.00     0.152 C 
HETATM   10  C9  UNL     1      23.643 -30.218   2.160  1.00  0.00     0.292 C 
HETATM   11  N3  UNL     1      23.365 -30.223   3.559  1.00  0.00     0.096 N 
HETATM   12  C16 UNL     1      24.518 -29.920   4.376  1.00  0.00     0.292 C 
HETATM   13  C17 UNL     1      24.920 -28.469   4.075  1.00  0.00     0.152 C 
BRANCH  11  14
HETATM   14  C10 UNL     1      22.661 -31.400   4.005  1.00  0.00     0.223 C 
HETATM   15  C11 UNL     1      21.470 -31.645   3.123  1.00  0.00     0.036 C 
HETATM   16  C12 UNL     1      21.071 -33.100   3.079  1.00  0.00     0.002 C 
HETATM   17  C13 UNL     1      21.512 -33.835   4.318  1.00  0.00     0.000 C 
HETATM   18  C14 UNL     1      23.008 -33.857   4.372  1.00  0.00     0.002 C 
HETATM   19  C15 UNL     1      23.647 -32.549   3.974  1.00  0.00     0.036 C 
ENDBRANCH  11  14
ENDBRANCH   7   8
ENDBRANCH   6   7
ENDBRANCH   4   6
BRANCH   3  20
HETATM   20  O3  UNL     1      28.218 -27.114   1.891  1.00  0.00    -0.344 OA
ATOM     21  H3  UNL     1      27.725 -26.818   1.134  1.00  0.00     0.219 HD
ENDBRANCH   3  20
BRANCH   5  22
HETATM   22  C19 UNL     1      26.270 -24.838   5.789  1.00  0.00     0.034 A 
HETATM   23  C20 UNL     1      25.749 -25.153   7.016  1.00  0.00     0.023 A 
HETATM   24  C21 UNL     1      24.966 -24.248   7.619  1.00  0.00     0.033 A 
HETATM   25  C22 UNL     1      24.736 -23.068   6.975  1.00  0.00     0.075 A 
HETATM   26 CL1  UNL     1      23.746 -21.706   7.536  1.00  0.00    -0.076 Cl
HETATM   27  S1  UNL     1      25.621 -23.254   5.546  1.00  0.00    -0.076 SA
ENDBRANCH   5  22
BRANCH   2  28
HETATM   28  O2  UNL     1      30.365 -26.906   3.782  1.00  0.00    -0.356 OA
ATOM     29  H2  UNL     1      30.799 -27.158   2.976  1.00  0.00     0.218 HD
ENDBRANCH   2  28
BRANCH   1  30
HETATM   30  C2  UNL     1      29.282 -25.606   6.435  1.00  0.00     0.160 C 
HETATM   31  C1  UNL     1      30.315 -26.529   6.959  1.00  0.00     0.097 C 
HETATM   32  O1  UNL     1      29.086 -24.583   7.129  1.00  0.00    -0.293 OA
ENDBRANCH   1  30
TORSDOF 8
ENDMDL
