MODEL 1
REMARK VINA RESULT: -8.019925016      0.000      0.000
REMARK  7 active torsions:
REMARK  status: ('A' for Active; 'I' for Inactive)
REMARK    1  A    between atoms: N2_5  and  C3_6 
REMARK    2  A    between atoms: C3_6  and  C4_7 
REMARK    3  A    between atoms: C11_14  and  N3_15 
REMARK    4  A    between atoms: C12_16  and  C13_17 
REMARK    5  A    between atoms: C16_22  and  C17_23 
REMARK    6  A    between atoms: C17_23  and  O1_24 
REMARK    7  A    between atoms: C19_28  and  C20_29 
ROOT
HETATM    1  C1  UNL     1      26.283 -26.819   5.346  1.00  0.00     0.071 C 
HETATM    2  C2  UNL     1      25.732 -28.141   4.858  1.00  0.00     0.038 A 
HETATM    3  N1  UNL     1      25.334 -29.139   5.658  1.00  0.00    -0.300 N 
ATOM      4  H1  UNL     1      25.352 -29.087   6.677  1.00  0.00     0.187 HD
HETATM    5  N2  UNL     1      24.914 -30.199   4.987  1.00  0.00    -0.275 N 
HETATM    6  C11 UNL     1      25.044 -29.886   3.679  1.00  0.00     0.147 A 
HETATM    7  C19 UNL     1      25.555 -28.597   3.576  1.00  0.00     0.060 A 
ENDROOT
BRANCH   6   8
HETATM    8  N3  UNL     1      24.730 -30.769   2.593  1.00  0.00    -0.258 N 
HETATM    9  C12 UNL     1      23.563 -30.787   1.887  1.00  0.00     0.095 A 
HETATM   10  N4  UNL     1      23.624 -31.737   0.939  1.00  0.00    -0.343 N 
HETATM   11  C16 UNL     1      24.812 -32.356   0.999  1.00  0.00     0.091 A 
ATOM     12  H4  UNL     1      22.880 -31.954   0.276  1.00  0.00     0.167 HD
HETATM   13  C18 UNL     1      25.480 -31.731   2.041  1.00  0.00     0.222 A 
HETATM   14  F1  UNL     1      26.727 -32.120   2.403  1.00  0.00    -0.183 F 
BRANCH   9  15
HETATM   15  C13 UNL     1      22.394 -29.919   2.124  1.00  0.00     0.046 C 
HETATM   16  C14 UNL     1      21.096 -30.704   1.904  1.00  0.00     0.017 C 
HETATM   17  C15 UNL     1      22.370 -28.748   1.172  1.00  0.00     0.017 C 
ENDBRANCH   9  15
BRANCH  11  18
HETATM   18  C17 UNL     1      25.281 -33.461   0.133  1.00  0.00     0.226 C 
BRANCH  18  19
HETATM   19  O1  UNL     1      24.236 -33.931  -0.645  1.00  0.00    -0.395 OA
ATOM     20  H1  UNL     1      24.376 -33.694  -1.554  1.00  0.00     0.209 HD
ENDBRANCH  18  19
ENDBRANCH  11  18
ENDBRANCH   6   8
BRANCH   5  21
HETATM   21  C3  UNL     1      24.374 -31.409   5.622  1.00  0.00     0.155 C 
BRANCH  21  22
HETATM   22  C4  UNL     1      23.765 -32.299   4.595  1.00  0.00     0.005 C 
HETATM   23  C5  UNL     1      24.185 -33.732   4.612  1.00  0.00     0.007 C 
HETATM   24  C6  UNL     1      23.582 -34.382   3.357  1.00  0.00     0.005 C 
HETATM   25  C7  UNL     1      22.100 -34.531   3.602  1.00  0.00    -0.019 C 
HETATM   26  C8  UNL     1      21.394 -34.341   2.292  1.00  0.00     0.010 C 
HETATM   27  C9  UNL     1      21.604 -33.602   4.680  1.00  0.00     0.005 C 
HETATM   28  C10 UNL     1      22.246 -32.254   4.641  1.00  0.00     0.007 C 
ENDBRANCH  21  22
ENDBRANCH   5  21
BRANCH   7  29
HETATM   29  C20 UNL     1      25.824 -27.796   2.372  1.00  0.00     0.050 A 
HETATM   30  C21 UNL     1      25.482 -26.494   2.153  1.00  0.00     0.047 A 
HETATM   31  C22 UNL     1      25.848 -26.143   0.889  1.00  0.00     0.026 A 
HETATM   32  C23 UNL     1      25.737 -24.963   0.165  1.00  0.00     0.104 A 
HETATM   33  C25 UNL     1      26.423 -27.213   0.296  1.00  0.00     0.118 A 
HETATM   34  N5  UNL     1      26.207 -24.933  -1.095  1.00  0.00    -0.361 N 
HETATM   35  C24 UNL     1      26.777 -26.019  -1.664  1.00  0.00     0.181 A 
ATOM     36  H5  UNL     1      26.131 -24.071  -1.634  1.00  0.00     0.166 HD
HETATM   37  N6  UNL     1      26.897 -27.176  -0.982  1.00  0.00    -0.338 N 
ATOM     38  H6  UNL     1      27.327 -27.997  -1.408  1.00  0.00     0.168 HD
HETATM   39  N7  UNL     1      26.399 -28.201   1.211  1.00  0.00    -0.341 N 
ATOM     40  H7  UNL     1      26.767 -29.138   1.050  1.00  0.00     0.167 HD
ENDBRANCH   7  29
TORSDOF 7
ENDMDL
MODEL 2
REMARK VINA RESULT: -7.172262327      5.258      8.434
REMARK  7 active torsions:
REMARK  status: ('A' for Active; 'I' for Inactive)
REMARK    1  A    between atoms: N2_5  and  C3_6 
REMARK    2  A    between atoms: C3_6  and  C4_7 
REMARK    3  A    between atoms: C11_14  and  N3_15 
REMARK    4  A    between atoms: C12_16  and  C13_17 
REMARK    5  A    between atoms: C16_22  and  C17_23 
REMARK    6  A    between atoms: C17_23  and  O1_24 
REMARK    7  A    between atoms: C19_28  and  C20_29 
ROOT
HETATM    1  C1  UNL     1      30.573 -27.147   3.738  1.00  0.00     0.071 C 
HETATM    2  C2  UNL     1      29.227 -26.491   3.956  1.00  0.00     0.038 A 
HETATM    3  N1  UNL     1      28.210 -26.535   3.084  1.00  0.00    -0.300 N 
ATOM      4  H1  UNL     1      28.250 -27.035   2.196  1.00  0.00     0.187 HD
HETATM    5  N2  UNL     1      27.149 -25.863   3.499  1.00  0.00    -0.275 N 
HETATM    6  C11 UNL     1      27.482 -25.347   4.703  1.00  0.00     0.147 A 
HETATM    7  C19 UNL     1      28.783 -25.731   5.009  1.00  0.00     0.060 A 
ENDROOT
BRANCH   6   8
HETATM    8  N3  UNL     1      26.628 -24.516   5.500  1.00  0.00    -0.258 N 
HETATM    9  C12 UNL     1      26.341 -23.203   5.265  1.00  0.00     0.095 A 
HETATM   10  N4  UNL     1      25.501 -22.749   6.209  1.00  0.00    -0.343 N 
HETATM   11  C16 UNL     1      25.220 -23.736   7.073  1.00  0.00     0.091 A 
ATOM     12  H4  UNL     1      25.133 -21.800   6.261  1.00  0.00     0.167 HD
HETATM   13  C18 UNL     1      25.938 -24.826   6.605  1.00  0.00     0.222 A 
HETATM   14  F1  UNL     1      25.905 -26.014   7.256  1.00  0.00    -0.183 F 
BRANCH   9  15
HETATM   15  C13 UNL     1      26.878 -22.385   4.161  1.00  0.00     0.046 C 
HETATM   16  C14 UNL     1      28.395 -22.569   4.053  1.00  0.00     0.017 C 
HETATM   17  C15 UNL     1      26.624 -20.914   4.388  1.00  0.00     0.017 C 
ENDBRANCH   9  15
BRANCH  11  18
HETATM   18  C17 UNL     1      24.336 -23.653   8.258  1.00  0.00     0.226 C 
BRANCH  18  19
HETATM   19  O1  UNL     1      24.932 -22.881   9.242  1.00  0.00    -0.395 OA
ATOM     20  H1  UNL     1      25.168 -23.424   9.984  1.00  0.00     0.209 HD
ENDBRANCH  18  19
ENDBRANCH  11  18
ENDBRANCH   6   8
BRANCH   5  21
HETATM   21  C3  UNL     1      25.883 -25.796   2.758  1.00  0.00     0.155 C 
BRANCH  21  22
HETATM   22  C4  UNL     1      25.327 -27.164   2.567  1.00  0.00     0.005 C 
HETATM   23  C5  UNL     1      25.076 -27.967   3.800  1.00  0.00     0.007 C 
HETATM   24  C6  UNL     1      24.700 -29.382   3.335  1.00  0.00     0.005 C 
HETATM   25  C7  UNL     1      23.302 -29.308   2.770  1.00  0.00    -0.019 C 
HETATM   26  C8  UNL     1      23.210 -30.286   1.636  1.00  0.00     0.010 C 
HETATM   27  C9  UNL     1      22.921 -27.905   2.372  1.00  0.00     0.005 C 
HETATM   28  C10 UNL     1      24.043 -27.140   1.751  1.00  0.00     0.007 C 
ENDBRANCH  21  22
ENDBRANCH   5  21
BRANCH   7  29
HETATM   29  C20 UNL     1      29.571 -25.464   6.223  1.00  0.00     0.050 A 
HETATM   30  C21 UNL     1      30.461 -26.300   6.830  1.00  0.00     0.047 A 
HETATM   31  C22 UNL     1      30.926 -25.709   7.965  1.00  0.00     0.026 A 
HETATM   32  C23 UNL     1      31.831 -26.111   8.939  1.00  0.00     0.104 A 
HETATM   33  C25 UNL     1      30.339 -24.498   8.089  1.00  0.00     0.118 A 
HETATM   34  N5  UNL     1      32.085 -25.278   9.965  1.00  0.00    -0.361 N 
HETATM   35  C24 UNL     1      31.483 -24.072  10.064  1.00  0.00     0.181 A 
ATOM     36  H5  UNL     1      32.749 -25.564  10.684  1.00  0.00     0.166 HD
HETATM   37  N6  UNL     1      30.602 -23.658   9.131  1.00  0.00    -0.338 N 
ATOM     38  H6  UNL     1      30.146 -22.749   9.203  1.00  0.00     0.168 HD
HETATM   39  N7  UNL     1      29.524 -24.370   7.024  1.00  0.00    -0.341 N 
ATOM     40  H7  UNL     1      28.944 -23.552   6.843  1.00  0.00     0.167 HD
ENDBRANCH   7  29
TORSDOF 7
ENDMDL
MODEL 3
REMARK VINA RESULT: -6.772854804      3.135      5.296
REMARK  7 active torsions:
REMARK  status: ('A' for Active; 'I' for Inactive)
REMARK    1  A    between atoms: N2_5  and  C3_6 
REMARK    2  A    between atoms: C3_6  and  C4_7 
REMARK    3  A    between atoms: C11_14  and  N3_15 
REMARK    4  A    between atoms: C12_16  and  C13_17 
REMARK    5  A    between atoms: C16_22  and  C17_23 
REMARK    6  A    between atoms: C17_23  and  O1_24 
REMARK    7  A    between atoms: C19_28  and  C20_29 
ROOT
HETATM    1  C1  UNL     1      30.040 -26.675   3.558  1.00  0.00     0.071 C 
HETATM    2  C2  UNL     1      28.839 -27.161   2.777  1.00  0.00     0.038 A 
HETATM    3  N1  UNL     1      28.820 -28.268   2.022  1.00  0.00    -0.300 N 
ATOM      4  H1  UNL     1      29.618 -28.895   1.921  1.00  0.00     0.187 HD
HETATM    5  N2  UNL     1      27.657 -28.461   1.423  1.00  0.00    -0.275 N 
HETATM    6  C11 UNL     1      26.869 -27.430   1.799  1.00  0.00     0.147 A 
HETATM    7  C19 UNL     1      27.592 -26.602   2.650  1.00  0.00     0.060 A 
ENDROOT
BRANCH   6   8
HETATM    8  N3  UNL     1      25.521 -27.227   1.352  1.00  0.00    -0.258 N 
HETATM    9  C12 UNL     1      25.142 -26.549   0.231  1.00  0.00     0.095 A 
HETATM   10  N4  UNL     1      23.804 -26.567   0.123  1.00  0.00    -0.343 N 
HETATM   11  C16 UNL     1      23.279 -27.246   1.155  1.00  0.00     0.091 A 
ATOM     12  H4  UNL     1      23.268 -26.132  -0.627  1.00  0.00     0.167 HD
HETATM   13  C18 UNL     1      24.375 -27.645   1.905  1.00  0.00     0.222 A 
HETATM   14  F1  UNL     1      24.217 -28.350   3.051  1.00  0.00    -0.183 F 
BRANCH   9  15
HETATM   15  C13 UNL     1      26.047 -25.875  -0.720  1.00  0.00     0.046 C 
HETATM   16  C14 UNL     1      26.151 -24.382  -0.386  1.00  0.00     0.017 C 
HETATM   17  C15 UNL     1      25.538 -25.977  -2.137  1.00  0.00     0.017 C 
ENDBRANCH   9  15
BRANCH  11  18
HETATM   18  C17 UNL     1      21.843 -27.498   1.412  1.00  0.00     0.226 C 
BRANCH  18  19
HETATM   19  O1  UNL     1      21.470 -28.715   0.867  1.00  0.00    -0.395 OA
ATOM     20  H1  UNL     1      21.169 -29.300   1.552  1.00  0.00     0.209 HD
ENDBRANCH  18  19
ENDBRANCH  11  18
ENDBRANCH   6   8
BRANCH   5  21
HETATM   21  C3  UNL     1      27.353 -29.627   0.582  1.00  0.00     0.155 C 
BRANCH  21  22
HETATM   22  C4  UNL     1      26.344 -30.493   1.252  1.00  0.00     0.005 C 
HETATM   23  C5  UNL     1      24.979 -30.528   0.646  1.00  0.00     0.007 C 
HETATM   24  C6  UNL     1      24.088 -31.320   1.616  1.00  0.00     0.005 C 
HETATM   25  C7  UNL     1      24.477 -32.773   1.492  1.00  0.00    -0.019 C 
HETATM   26  C8  UNL     1      24.327 -33.408   2.842  1.00  0.00     0.010 C 
HETATM   27  C9  UNL     1      25.855 -32.946   0.907  1.00  0.00     0.005 C 
HETATM   28  C10 UNL     1      26.835 -31.926   1.387  1.00  0.00     0.007 C 
ENDBRANCH  21  22
ENDBRANCH   5  21
BRANCH   7  29
HETATM   29  C20 UNL     1      27.158 -25.386   3.358  1.00  0.00     0.050 A 
HETATM   30  C21 UNL     1      27.615 -24.116   3.171  1.00  0.00     0.047 A 
HETATM   31  C22 UNL     1      27.012 -23.288   4.069  1.00  0.00     0.026 A 
HETATM   32  C23 UNL     1      27.109 -21.924   4.314  1.00  0.00     0.104 A 
HETATM   33  C25 UNL     1      26.170 -24.022   4.830  1.00  0.00     0.118 A 
HETATM   34  N5  UNL     1      26.362 -21.391   5.297  1.00  0.00    -0.361 N 
HETATM   35  C24 UNL     1      25.529 -22.149   6.044  1.00  0.00     0.181 A 
ATOM     36  H5  UNL     1      26.427 -20.391   5.484  1.00  0.00     0.166 HD
HETATM   37  N6  UNL     1      25.416 -23.475   5.826  1.00  0.00    -0.338 N 
ATOM     38  H6  UNL     1      24.788 -24.050   6.388  1.00  0.00     0.168 HD
HETATM   39  N7  UNL     1      26.274 -25.288   4.382  1.00  0.00    -0.341 N 
ATOM     40  H7  UNL     1      25.752 -26.075   4.767  1.00  0.00     0.167 HD
ENDBRANCH   7  29
TORSDOF 7
ENDMDL
MODEL 4
REMARK VINA RESULT: -6.711790058      2.880      7.160
REMARK  7 active torsions:
REMARK  status: ('A' for Active; 'I' for Inactive)
REMARK    1  A    between atoms: N2_5  and  C3_6 
REMARK    2  A    between atoms: C3_6  and  C4_7 
REMARK    3  A    between atoms: C11_14  and  N3_15 
REMARK    4  A    between atoms: C12_16  and  C13_17 
REMARK    5  A    between atoms: C16_22  and  C17_23 
REMARK    6  A    between atoms: C17_23  and  O1_24 
REMARK    7  A    between atoms: C19_28  and  C20_29 
ROOT
HETATM    1  C1  UNL     1      24.771 -30.251   5.954  1.00  0.00     0.071 C 
HETATM    2  C2  UNL     1      25.186 -29.142   5.012  1.00  0.00     0.038 A 
HETATM    3  N1  UNL     1      25.639 -27.943   5.402  1.00  0.00    -0.300 N 
ATOM      4  H1  UNL     1      25.761 -27.676   6.379  1.00  0.00     0.187 HD
HETATM    5  N2  UNL     1      25.910 -27.141   4.385  1.00  0.00    -0.275 N 
HETATM    6  C11 UNL     1      25.621 -27.845   3.268  1.00  0.00     0.147 A 
HETATM    7  C19 UNL     1      25.165 -29.105   3.640  1.00  0.00     0.060 A 
ENDROOT
BRANCH   6   8
HETATM    8  N3  UNL     1      25.741 -27.341   1.932  1.00  0.00    -0.258 N 
HETATM    9  C12 UNL     1      26.867 -27.371   1.161  1.00  0.00     0.095 A 
HETATM   10  N4  UNL     1      26.610 -26.819  -0.035  1.00  0.00    -0.343 N 
HETATM   11  C16 UNL     1      25.331 -26.418  -0.080  1.00  0.00     0.091 A 
ATOM     12  H4  UNL     1      27.284 -26.720  -0.793  1.00  0.00     0.167 HD
HETATM   13  C18 UNL     1      24.814 -26.757   1.161  1.00  0.00     0.222 A 
HETATM   14  F1  UNL     1      23.527 -26.478   1.481  1.00  0.00    -0.183 F 
BRANCH   9  15
HETATM   15  C13 UNL     1      28.180 -27.906   1.570  1.00  0.00     0.046 C 
HETATM   16  C14 UNL     1      29.071 -26.776   2.100  1.00  0.00     0.017 C 
HETATM   17  C15 UNL     1      28.908 -28.536   0.407  1.00  0.00     0.017 C 
ENDBRANCH   9  15
BRANCH  11  18
HETATM   18  C17 UNL     1      24.646 -25.762  -1.217  1.00  0.00     0.226 C 
BRANCH  18  19
HETATM   19  O1  UNL     1      25.246 -26.130  -2.410  1.00  0.00    -0.395 OA
ATOM     20  H1  UNL     1      24.716 -25.843  -3.143  1.00  0.00     0.209 HD
ENDBRANCH  18  19
ENDBRANCH  11  18
ENDBRANCH   6   8
BRANCH   5  21
HETATM   21  C3  UNL     1      26.471 -25.791   4.535  1.00  0.00     0.155 C 
BRANCH  21  22
HETATM   22  C4  UNL     1      25.661 -25.003   5.504  1.00  0.00     0.005 C 
HETATM   23  C5  UNL     1      26.187 -24.906   6.898  1.00  0.00     0.007 C 
HETATM   24  C6  UNL     1      25.093 -24.224   7.735  1.00  0.00     0.005 C 
HETATM   25  C7  UNL     1      25.080 -22.766   7.347  1.00  0.00    -0.019 C 
HETATM   26  C8  UNL     1      23.664 -22.279   7.424  1.00  0.00     0.010 C 
HETATM   27  C9  UNL     1      25.714 -22.528   6.000  1.00  0.00     0.005 C 
HETATM   28  C10 UNL     1      25.398 -23.592   5.001  1.00  0.00     0.007 C 
ENDBRANCH  21  22
ENDBRANCH   5  21
BRANCH   7  29
HETATM   29  C20 UNL     1      24.775 -30.242   2.791  1.00  0.00     0.050 A 
HETATM   30  C21 UNL     1      23.682 -31.043   2.936  1.00  0.00     0.047 A 
HETATM   31  C22 UNL     1      23.719 -32.023   1.990  1.00  0.00     0.026 A 
HETATM   32  C23 UNL     1      22.872 -33.082   1.692  1.00  0.00     0.104 A 
HETATM   33  C25 UNL     1      24.829 -31.852   1.239  1.00  0.00     0.118 A 
HETATM   34  N5  UNL     1      23.192 -33.895   0.668  1.00  0.00    -0.361 N 
HETATM   35  C24 UNL     1      24.310 -33.702  -0.066  1.00  0.00     0.181 A 
ATOM     36  H5  UNL     1      22.576 -34.675   0.441  1.00  0.00     0.166 HD
HETATM   37  N6  UNL     1      25.149 -32.680   0.203  1.00  0.00    -0.338 N 
ATOM     38  H6  UNL     1      25.993 -32.531  -0.349  1.00  0.00     0.168 HD
HETATM   39  N7  UNL     1      25.453 -30.770   1.740  1.00  0.00    -0.341 N 
ATOM     40  H7  UNL     1      26.328 -30.393   1.375  1.00  0.00     0.167 HD
ENDBRANCH   7  29
TORSDOF 7
ENDMDL
MODEL 5
REMARK VINA RESULT: -6.429565749      3.108      4.241
REMARK  7 active torsions:
REMARK  status: ('A' for Active; 'I' for Inactive)
REMARK    1  A    between atoms: N2_5  and  C3_6 
REMARK    2  A    between atoms: C3_6  and  C4_7 
REMARK    3  A    between atoms: C11_14  and  N3_15 
REMARK    4  A    between atoms: C12_16  and  C13_17 
REMARK    5  A    between atoms: C16_22  and  C17_23 
REMARK    6  A    between atoms: C17_23  and  O1_24 
REMARK    7  A    between atoms: C19_28  and  C20_29 
ROOT
HETATM    1  C1  UNL     1      25.863 -27.137   6.315  1.00  0.00     0.071 C 
HETATM    2  C2  UNL     1      25.839 -27.665   4.897  1.00  0.00     0.038 A 
HETATM    3  N1  UNL     1      25.415 -28.887   4.548  1.00  0.00    -0.300 N 
ATOM      4  H1  UNL     1      25.052 -29.570   5.213  1.00  0.00     0.187 HD
HETATM    5  N2  UNL     1      25.519 -29.115   3.249  1.00  0.00    -0.275 N 
HETATM    6  C11 UNL     1      26.038 -27.988   2.713  1.00  0.00     0.147 A 
HETATM    7  C19 UNL     1      26.246 -27.065   3.732  1.00  0.00     0.060 A 
ENDROOT
BRANCH   6   8
HETATM    8  N3  UNL     1      26.346 -27.811   1.324  1.00  0.00    -0.258 N 
HETATM    9  C12 UNL     1      25.497 -27.334   0.369  1.00  0.00     0.095 A 
HETATM   10  N4  UNL     1      26.126 -27.296  -0.816  1.00  0.00    -0.343 N 
HETATM   11  C16 UNL     1      27.383 -27.741  -0.672  1.00  0.00     0.091 A 
ATOM     12  H4  UNL     1      25.711 -26.978  -1.692  1.00  0.00     0.167 HD
HETATM   13  C18 UNL     1      27.491 -28.055   0.674  1.00  0.00     0.222 A 
HETATM   14  F1  UNL     1      28.641 -28.560   1.182  1.00  0.00    -0.183 F 
BRANCH   9  15
HETATM   15  C13 UNL     1      24.092 -26.934   0.582  1.00  0.00     0.046 C 
HETATM   16  C14 UNL     1      23.198 -28.175   0.686  1.00  0.00     0.017 C 
HETATM   17  C15 UNL     1      23.571 -26.107  -0.568  1.00  0.00     0.017 C 
ENDBRANCH   9  15
BRANCH  11  18
HETATM   18  C17 UNL     1      28.409 -27.860  -1.733  1.00  0.00     0.226 C 
BRANCH  18  19
HETATM   19  O1  UNL     1      28.567 -26.645  -2.380  1.00  0.00    -0.395 OA
ATOM     20  H1  UNL     1      27.721 -26.307  -2.648  1.00  0.00     0.209 HD
ENDBRANCH  18  19
ENDBRANCH  11  18
ENDBRANCH   6   8
BRANCH   5  21
HETATM   21  C3  UNL     1      25.074 -30.355   2.598  1.00  0.00     0.155 C 
BRANCH  21  22
HETATM   22  C4  UNL     1      24.380 -31.231   3.582  1.00  0.00     0.005 C 
HETATM   23  C5  UNL     1      22.945 -31.543   3.310  1.00  0.00     0.007 C 
HETATM   24  C6  UNL     1      22.414 -32.283   4.547  1.00  0.00     0.005 C 
HETATM   25  C7  UNL     1      23.004 -33.672   4.523  1.00  0.00    -0.019 C 
HETATM   26  C8  UNL     1      23.239 -34.100   5.941  1.00  0.00     0.010 C 
HETATM   27  C9  UNL     1      24.243 -33.751   3.668  1.00  0.00     0.005 C 
HETATM   28  C10 UNL     1      25.117 -32.546   3.782  1.00  0.00     0.007 C 
ENDBRANCH  21  22
ENDBRANCH   5  21
BRANCH   7  29
HETATM   29  C20 UNL     1      26.744 -25.682   3.647  1.00  0.00     0.050 A 
HETATM   30  C21 UNL     1      27.763 -25.219   2.869  1.00  0.00     0.047 A 
HETATM   31  C22 UNL     1      27.959 -23.897   3.132  1.00  0.00     0.026 A 
HETATM   32  C23 UNL     1      28.849 -22.954   2.633  1.00  0.00     0.104 A 
HETATM   33  C25 UNL     1      27.071 -23.511   4.075  1.00  0.00     0.118 A 
HETATM   34  N5  UNL     1      28.789 -21.697   3.108  1.00  0.00    -0.361 N 
HETATM   35  C24 UNL     1      27.890 -21.338   4.052  1.00  0.00     0.181 A 
ATOM     36  H5  UNL     1      29.437 -20.998   2.747  1.00  0.00     0.166 HD
HETATM   37  N6  UNL     1      27.015 -22.235   4.552  1.00  0.00    -0.338 N 
ATOM     38  H6  UNL     1      26.336 -21.967   5.264  1.00  0.00     0.168 HD
HETATM   39  N7  UNL     1      26.346 -24.606   4.371  1.00  0.00    -0.341 N 
ATOM     40  H7  UNL     1      25.590 -24.624   5.056  1.00  0.00     0.167 HD
ENDBRANCH   7  29
TORSDOF 7
ENDMDL
