MODEL 1
REMARK VINA RESULT: -8.097550872      0.000      0.000
REMARK  8 active torsions:
REMARK  status: ('A' for Active; 'I' for Inactive)
REMARK    1  A    between atoms: C2_2  and  C3_3 
REMARK    2  A    between atoms: C3_3  and  C4_4 
REMARK    3  A    between atoms: C4_4  and  C5_5 
REMARK    4  A    between atoms: C5_5  and  C6_6 
REMARK    5  A    between atoms: C6_6  and  O1_7 
REMARK    6  A    between atoms: O1_7  and  C7_8 
REMARK    7  A    between atoms: C7_8  and  C8_10 
REMARK    8  A    between atoms: N1_13  and  C11_14 
ROOT
HETATM    1  C8  UNL     1      24.416 -29.241   3.436  1.00  0.00     0.103 C 
HETATM    2  C9  UNL     1      24.826 -28.680   2.339  1.00  0.00     0.033 C 
HETATM    3  C10 UNL     1      24.009 -29.072   1.120  1.00  0.00     0.070 C 
HETATM    4  N1  UNL     1      25.745 -27.576   2.179  1.00  0.00    -0.324 N 
HETATM    5  C14 UNL     1      26.355 -26.873   3.308  1.00  0.00     0.079 A 
HETATM    6  C15 UNL     1      26.099 -27.352   4.586  1.00  0.00     0.076 A 
HETATM    7  S1  UNL     1      26.635 -26.187   5.684  1.00  0.00    -0.061 SA
HETATM    8  C16 UNL     1      27.190 -25.062   4.561  1.00  0.00     0.097 A 
HETATM    9  N2  UNL     1      27.677 -23.799   4.764  1.00  0.00    -0.302 N 
ATOM     10  H2  UNL     1      27.838 -23.478   5.719  1.00  0.00     0.171 HD
HETATM   11  C17 UNL     1      27.948 -22.977   3.752  1.00  0.00     0.328 A 
HETATM   12  O3  UNL     1      28.394 -21.838   3.981  1.00  0.00    -0.247 OA
HETATM   13  N3  UNL     1      27.713 -23.458   2.556  1.00  0.00    -0.275 N 
ATOM     14  H3  UNL     1      27.907 -22.848   1.761  1.00  0.00     0.173 HD
HETATM   15  C18 UNL     1      27.229 -24.713   2.280  1.00  0.00     0.264 A 
HETATM   16  O4  UNL     1      27.096 -24.848   1.096  1.00  0.00    -0.267 OA
HETATM   17  C19 UNL     1      26.949 -25.605   3.296  1.00  0.00     0.095 A 
HETATM   18  S2  UNL     1      25.390 -28.977   4.898  1.00  0.00    -0.072 SA
ENDROOT
BRANCH   1  19
HETATM   19  C7  UNL     1      23.331 -30.135   3.607  1.00  0.00     0.302 C 
HETATM   20  O2  UNL     1      22.745 -30.316   4.698  1.00  0.00    -0.259 OA
BRANCH  19  21
HETATM   21  O1  UNL     1      22.821 -30.906   2.527  1.00  0.00    -0.317 OA
BRANCH  21  22
HETATM   22  C6  UNL     1      22.435 -32.230   2.837  1.00  0.00     0.179 C 
BRANCH  22  23
HETATM   23  C5  UNL     1      23.514 -33.221   2.455  1.00  0.00     0.027 C 
BRANCH  23  24
HETATM   24  C4  UNL     1      23.962 -34.054   3.607  1.00  0.00     0.002 C 
BRANCH  24  25
HETATM   25  C3  UNL     1      23.128 -33.880   4.839  1.00  0.00    -0.000 C 
BRANCH  25  26
HETATM   26  C2  UNL     1      24.060 -33.787   6.030  1.00  0.00    -0.005 C 
HETATM   27  C1  UNL     1      25.007 -32.635   5.917  1.00  0.00     0.005 C 
ENDBRANCH  25  26
ENDBRANCH  24  25
ENDBRANCH  23  24
ENDBRANCH  22  23
ENDBRANCH  21  22
ENDBRANCH  19  21
ENDBRANCH   1  19
BRANCH   4  28
HETATM   28  C11 UNL     1      26.484 -27.613   0.923  1.00  0.00     0.107 C 
HETATM   29  C12 UNL     1      26.143 -27.000  -0.314  1.00  0.00     0.056 C 
HETATM   30  C13 UNL     1      26.377 -29.177   0.503  1.00  0.00     0.056 C 
HETATM   31 CL1  UNL     1      28.305 -27.736   1.193  1.00  0.00    -0.096 Cl
ENDBRANCH   4  28
TORSDOF 8
ENDMDL
MODEL 2
REMARK VINA RESULT: -8.006490315      0.729      1.583
REMARK  8 active torsions:
REMARK  status: ('A' for Active; 'I' for Inactive)
REMARK    1  A    between atoms: C2_2  and  C3_3 
REMARK    2  A    between atoms: C3_3  and  C4_4 
REMARK    3  A    between atoms: C4_4  and  C5_5 
REMARK    4  A    between atoms: C5_5  and  C6_6 
REMARK    5  A    between atoms: C6_6  and  O1_7 
REMARK    6  A    between atoms: O1_7  and  C7_8 
REMARK    7  A    between atoms: C7_8  and  C8_10 
REMARK    8  A    between atoms: N1_13  and  C11_14 
ROOT
HETATM    1  C8  UNL     1      24.396 -29.237   3.383  1.00  0.00     0.103 C 
HETATM    2  C9  UNL     1      24.844 -28.686   2.295  1.00  0.00     0.033 C 
HETATM    3  C10 UNL     1      24.062 -29.082   1.053  1.00  0.00     0.070 C 
HETATM    4  N1  UNL     1      25.775 -27.590   2.156  1.00  0.00    -0.324 N 
HETATM    5  C14 UNL     1      26.353 -26.883   3.298  1.00  0.00     0.079 A 
HETATM    6  C15 UNL     1      26.055 -27.351   4.571  1.00  0.00     0.076 A 
HETATM    7  S1  UNL     1      26.565 -26.182   5.677  1.00  0.00    -0.061 SA
HETATM    8  C16 UNL     1      27.162 -25.068   4.565  1.00  0.00     0.097 A 
HETATM    9  N2  UNL     1      27.651 -23.807   4.774  1.00  0.00    -0.302 N 
ATOM     10  H2  UNL     1      27.784 -23.480   5.731  1.00  0.00     0.171 HD
HETATM   11  C17 UNL     1      27.958 -22.994   3.765  1.00  0.00     0.328 A 
HETATM   12  O3  UNL     1      28.404 -21.856   3.999  1.00  0.00    -0.247 OA
HETATM   13  N3  UNL     1      27.757 -23.482   2.565  1.00  0.00    -0.275 N 
ATOM     14  H3  UNL     1      27.979 -22.879   1.773  1.00  0.00     0.173 HD
HETATM   15  C18 UNL     1      27.274 -24.736   2.283  1.00  0.00     0.264 A 
HETATM   16  O4  UNL     1      27.176 -24.878   1.097  1.00  0.00    -0.267 OA
HETATM   17  C19 UNL     1      26.956 -25.618   3.296  1.00  0.00     0.095 A 
HETATM   18  S2  UNL     1      25.326 -28.969   4.872  1.00  0.00    -0.072 SA
ENDROOT
BRANCH   1  19
HETATM   19  C7  UNL     1      23.301 -30.123   3.526  1.00  0.00     0.302 C 
HETATM   20  O2  UNL     1      22.316 -30.141   2.753  1.00  0.00    -0.259 OA
BRANCH  19  21
HETATM   21  O1  UNL     1      23.242 -31.075   4.581  1.00  0.00    -0.317 OA
BRANCH  21  22
HETATM   22  C6  UNL     1      22.687 -32.332   4.252  1.00  0.00     0.179 C 
BRANCH  22  23
HETATM   23  C5  UNL     1      23.701 -33.443   4.427  1.00  0.00     0.027 C 
BRANCH  23  24
HETATM   24  C4  UNL     1      24.144 -34.028   3.130  1.00  0.00     0.002 C 
BRANCH  24  25
HETATM   25  C3  UNL     1      23.467 -33.427   1.936  1.00  0.00    -0.000 C 
BRANCH  25  26
HETATM   26  C2  UNL     1      24.497 -33.283   0.834  1.00  0.00    -0.005 C 
HETATM   27  C1  UNL     1      25.759 -32.644   1.320  1.00  0.00     0.005 C 
ENDBRANCH  25  26
ENDBRANCH  24  25
ENDBRANCH  23  24
ENDBRANCH  22  23
ENDBRANCH  21  22
ENDBRANCH  19  21
ENDBRANCH   1  19
BRANCH   4  28
HETATM   28  C11 UNL     1      26.552 -27.640   0.923  1.00  0.00     0.107 C 
HETATM   29  C12 UNL     1      26.253 -27.034  -0.328  1.00  0.00     0.056 C 
HETATM   30  C13 UNL     1      26.449 -29.207   0.512  1.00  0.00     0.056 C 
HETATM   31 CL1  UNL     1      28.363 -27.771   1.251  1.00  0.00    -0.096 Cl
ENDBRANCH   4  28
TORSDOF 8
ENDMDL
MODEL 3
REMARK VINA RESULT: -7.985831774      0.820      1.664
REMARK  8 active torsions:
REMARK  status: ('A' for Active; 'I' for Inactive)
REMARK    1  A    between atoms: C2_2  and  C3_3 
REMARK    2  A    between atoms: C3_3  and  C4_4 
REMARK    3  A    between atoms: C4_4  and  C5_5 
REMARK    4  A    between atoms: C5_5  and  C6_6 
REMARK    5  A    between atoms: C6_6  and  O1_7 
REMARK    6  A    between atoms: O1_7  and  C7_8 
REMARK    7  A    between atoms: C7_8  and  C8_10 
REMARK    8  A    between atoms: N1_13  and  C11_14 
ROOT
HETATM    1  C8  UNL     1      24.448 -29.234   3.493  1.00  0.00     0.103 C 
HETATM    2  C9  UNL     1      24.878 -28.698   2.391  1.00  0.00     0.033 C 
HETATM    3  C10 UNL     1      24.085 -29.122   1.166  1.00  0.00     0.070 C 
HETATM    4  N1  UNL     1      25.796 -27.595   2.223  1.00  0.00    -0.324 N 
HETATM    5  C14 UNL     1      26.381 -26.864   3.346  1.00  0.00     0.079 A 
HETATM    6  C15 UNL     1      26.102 -27.313   4.631  1.00  0.00     0.076 A 
HETATM    7  S1  UNL     1      26.613 -26.121   5.711  1.00  0.00    -0.061 SA
HETATM    8  C16 UNL     1      27.186 -25.020   4.573  1.00  0.00     0.097 A 
HETATM    9  N2  UNL     1      27.665 -23.751   4.756  1.00  0.00    -0.302 N 
ATOM     10  H2  UNL     1      27.806 -23.407   5.706  1.00  0.00     0.171 HD
HETATM   11  C17 UNL     1      27.953 -22.952   3.729  1.00  0.00     0.328 A 
HETATM   12  O3  UNL     1      28.391 -21.806   3.940  1.00  0.00    -0.247 OA
HETATM   13  N3  UNL     1      27.744 -23.462   2.540  1.00  0.00    -0.275 N 
ATOM     14  H3  UNL     1      27.951 -22.871   1.736  1.00  0.00     0.173 HD
HETATM   15  C18 UNL     1      27.269 -24.725   2.285  1.00  0.00     0.264 A 
HETATM   16  O4  UNL     1      27.159 -24.889   1.102  1.00  0.00    -0.267 OA
HETATM   17  C19 UNL     1      26.972 -25.593   3.317  1.00  0.00     0.095 A 
HETATM   18  S2  UNL     1      25.392 -28.933   4.967  1.00  0.00    -0.072 SA
ENDROOT
BRANCH   1  19
HETATM   19  C7  UNL     1      23.362 -30.128   3.664  1.00  0.00     0.302 C 
HETATM   20  O2  UNL     1      22.344 -30.132   2.935  1.00  0.00    -0.259 OA
BRANCH  19  21
HETATM   21  O1  UNL     1      23.353 -31.104   4.698  1.00  0.00    -0.317 OA
BRANCH  21  22
HETATM   22  C6  UNL     1      24.230 -32.199   4.526  1.00  0.00     0.179 C 
BRANCH  22  23
HETATM   23  C5  UNL     1      23.654 -33.464   5.126  1.00  0.00     0.027 C 
BRANCH  23  24
HETATM   24  C4  UNL     1      22.815 -34.229   4.161  1.00  0.00     0.002 C 
BRANCH  24  25
HETATM   25  C3  UNL     1      21.350 -33.940   4.274  1.00  0.00    -0.000 C 
BRANCH  25  26
HETATM   26  C2  UNL     1      20.889 -33.322   2.970  1.00  0.00    -0.005 C 
HETATM   27  C1  UNL     1      21.218 -34.181   1.790  1.00  0.00     0.005 C 
ENDBRANCH  25  26
ENDBRANCH  24  25
ENDBRANCH  23  24
ENDBRANCH  22  23
ENDBRANCH  21  22
ENDBRANCH  19  21
ENDBRANCH   1  19
BRANCH   4  28
HETATM   28  C11 UNL     1      26.560 -27.659   0.983  1.00  0.00     0.107 C 
HETATM   29  C12 UNL     1      26.248 -27.065  -0.272  1.00  0.00     0.056 C 
HETATM   30  C13 UNL     1      26.451 -29.230   0.589  1.00  0.00     0.056 C 
HETATM   31 CL1  UNL     1      28.374 -27.789   1.292  1.00  0.00    -0.096 Cl
ENDBRANCH   4  28
TORSDOF 8
ENDMDL
MODEL 4
REMARK VINA RESULT: -7.709990747      3.007      7.340
REMARK  8 active torsions:
REMARK  status: ('A' for Active; 'I' for Inactive)
REMARK    1  A    between atoms: C2_2  and  C3_3 
REMARK    2  A    between atoms: C3_3  and  C4_4 
REMARK    3  A    between atoms: C4_4  and  C5_5 
REMARK    4  A    between atoms: C5_5  and  C6_6 
REMARK    5  A    between atoms: C6_6  and  O1_7 
REMARK    6  A    between atoms: O1_7  and  C7_8 
REMARK    7  A    between atoms: C7_8  and  C8_10 
REMARK    8  A    between atoms: N1_13  and  C11_14 
ROOT
HETATM    1  C8  UNL     1      27.150 -26.443   4.388  1.00  0.00     0.103 C 
HETATM    2  C9  UNL     1      27.220 -26.595   3.101  1.00  0.00     0.033 C 
HETATM    3  C10 UNL     1      28.370 -25.829   2.466  1.00  0.00     0.070 C 
HETATM    4  N1  UNL     1      26.545 -27.563   2.268  1.00  0.00    -0.324 N 
HETATM    5  C14 UNL     1      25.655 -28.594   2.802  1.00  0.00     0.079 A 
HETATM    6  C15 UNL     1      25.386 -28.578   4.164  1.00  0.00     0.076 A 
HETATM    7  S1  UNL     1      24.625 -30.034   4.551  1.00  0.00    -0.061 SA
HETATM    8  C16 UNL     1      24.632 -30.707   3.008  1.00  0.00     0.097 A 
HETATM    9  N2  UNL     1      24.246 -31.955   2.601  1.00  0.00    -0.302 N 
ATOM     10  H2  UNL     1      23.793 -32.576   3.272  1.00  0.00     0.171 HD
HETATM   11  C17 UNL     1      24.445 -32.384   1.356  1.00  0.00     0.328 A 
HETATM   12  O3  UNL     1      24.074 -33.526   1.027  1.00  0.00    -0.247 OA
HETATM   13  N3  UNL     1      25.035 -31.533   0.553  1.00  0.00    -0.275 N 
ATOM     14  H3  UNL     1      25.204 -31.836  -0.406  1.00  0.00     0.173 HD
HETATM   15  C18 UNL     1      25.445 -30.267   0.893  1.00  0.00     0.264 A 
HETATM   16  O4  UNL     1      25.975 -29.744  -0.047  1.00  0.00    -0.267 OA
HETATM   17  C19 UNL     1      25.246 -29.774   2.167  1.00  0.00     0.095 A 
HETATM   18  S2  UNL     1      25.755 -27.165   5.217  1.00  0.00    -0.072 SA
ENDROOT
BRANCH   1  19
HETATM   19  C7  UNL     1      27.998 -25.678   5.225  1.00  0.00     0.302 C 
HETATM   20  O2  UNL     1      29.141 -26.047   5.580  1.00  0.00    -0.259 OA
BRANCH  19  21
HETATM   21  O1  UNL     1      27.602 -24.409   5.731  1.00  0.00    -0.317 OA
BRANCH  21  22
HETATM   22  C6  UNL     1      26.591 -23.739   5.007  1.00  0.00     0.179 C 
BRANCH  22  23
HETATM   23  C5  UNL     1      25.488 -23.254   5.923  1.00  0.00     0.027 C 
BRANCH  23  24
HETATM   24  C4  UNL     1      25.473 -23.966   7.232  1.00  0.00     0.002 C 
BRANCH  24  25
HETATM   25  C3  UNL     1      24.345 -23.555   8.129  1.00  0.00    -0.000 C 
BRANCH  25  26
HETATM   26  C2  UNL     1      23.669 -22.348   7.513  1.00  0.00    -0.005 C 
HETATM   27  C1  UNL     1      22.639 -21.753   8.420  1.00  0.00     0.005 C 
ENDBRANCH  25  26
ENDBRANCH  24  25
ENDBRANCH  23  24
ENDBRANCH  22  23
ENDBRANCH  21  22
ENDBRANCH  19  21
ENDBRANCH   1  19
BRANCH   4  28
HETATM   28  C11 UNL     1      26.301 -27.093   0.909  1.00  0.00     0.107 C 
HETATM   29  C12 UNL     1      27.161 -27.188  -0.220  1.00  0.00     0.056 C 
HETATM   30  C13 UNL     1      26.262 -25.482   1.102  1.00  0.00     0.056 C 
HETATM   31 CL1  UNL     1      24.512 -27.155   0.465  1.00  0.00    -0.096 Cl
ENDBRANCH   4  28
TORSDOF 8
ENDMDL
MODEL 5
REMARK VINA RESULT: -7.409136048      2.492      3.466
REMARK  8 active torsions:
REMARK  status: ('A' for Active; 'I' for Inactive)
REMARK    1  A    between atoms: C2_2  and  C3_3 
REMARK    2  A    between atoms: C3_3  and  C4_4 
REMARK    3  A    between atoms: C4_4  and  C5_5 
REMARK    4  A    between atoms: C5_5  and  C6_6 
REMARK    5  A    between atoms: C6_6  and  O1_7 
REMARK    6  A    between atoms: O1_7  and  C7_8 
REMARK    7  A    between atoms: C7_8  and  C8_10 
REMARK    8  A    between atoms: N1_13  and  C11_14 
ROOT
HETATM    1  C8  UNL     1      24.477 -31.355   1.414  1.00  0.00     0.103 C 
HETATM    2  C9  UNL     1      23.805 -30.288   1.722  1.00  0.00     0.033 C 
HETATM    3  C10 UNL     1      22.515 -30.582   2.468  1.00  0.00     0.070 C 
HETATM    4  N1  UNL     1      24.236 -28.909   1.685  1.00  0.00    -0.324 N 
HETATM    5  C14 UNL     1      25.588 -28.504   1.302  1.00  0.00     0.079 A 
HETATM    6  C15 UNL     1      26.465 -29.491   0.872  1.00  0.00     0.076 A 
HETATM    7  S1  UNL     1      28.010 -28.813   0.817  1.00  0.00    -0.061 SA
HETATM    8  C16 UNL     1      27.594 -27.268   1.343  1.00  0.00     0.097 A 
HETATM    9  N2  UNL     1      28.401 -26.202   1.630  1.00  0.00    -0.302 N 
ATOM     10  H2  UNL     1      29.399 -26.265   1.424  1.00  0.00     0.171 HD
HETATM   11  C17 UNL     1      27.924 -25.082   2.172  1.00  0.00     0.328 A 
HETATM   12  O3  UNL     1      28.692 -24.133   2.413  1.00  0.00    -0.247 OA
HETATM   13  N3  UNL     1      26.635 -25.075   2.410  1.00  0.00    -0.275 N 
ATOM     14  H3  UNL     1      26.243 -24.233   2.829  1.00  0.00     0.173 HD
HETATM   15  C18 UNL     1      25.768 -26.107   2.145  1.00  0.00     0.264 A 
HETATM   16  O4  UNL     1      24.662 -25.811   2.499  1.00  0.00    -0.267 OA
HETATM   17  C19 UNL     1      26.215 -27.280   1.570  1.00  0.00     0.095 A 
HETATM   18  S2  UNL     1      25.924 -31.144   0.405  1.00  0.00    -0.072 SA
ENDROOT
BRANCH   1  19
HETATM   19  C7  UNL     1      24.150 -32.704   1.694  1.00  0.00     0.302 C 
HETATM   20  O2  UNL     1      23.444 -33.418   0.946  1.00  0.00    -0.259 OA
BRANCH  19  21
HETATM   21  O1  UNL     1      24.611 -33.356   2.871  1.00  0.00    -0.317 OA
BRANCH  21  22
HETATM   22  C6  UNL     1      23.623 -33.997   3.653  1.00  0.00     0.179 C 
BRANCH  22  23
HETATM   23  C5  UNL     1      23.348 -33.229   4.929  1.00  0.00     0.027 C 
BRANCH  23  24
HETATM   24  C4  UNL     1      24.568 -33.047   5.765  1.00  0.00     0.002 C 
BRANCH  24  25
HETATM   25  C3  UNL     1      25.329 -31.793   5.456  1.00  0.00    -0.000 C 
BRANCH  25  26
HETATM   26  C2  UNL     1      24.341 -30.647   5.391  1.00  0.00    -0.005 C 
HETATM   27  C1  UNL     1      24.997 -29.356   5.013  1.00  0.00     0.005 C 
ENDBRANCH  25  26
ENDBRANCH  24  25
ENDBRANCH  23  24
ENDBRANCH  22  23
ENDBRANCH  21  22
ENDBRANCH  19  21
ENDBRANCH   1  19
BRANCH   4  28
HETATM   28  C11 UNL     1      23.150 -27.967   1.442  1.00  0.00     0.107 C 
HETATM   29  C12 UNL     1      22.392 -27.236   2.398  1.00  0.00     0.056 C 
HETATM   30  C13 UNL     1      21.991 -28.924   0.832  1.00  0.00     0.056 C 
HETATM   31 CL1  UNL     1      23.354 -27.072  -0.158  1.00  0.00    -0.096 Cl
ENDBRANCH   4  28
TORSDOF 8
ENDMDL
