MODEL 1
REMARK VINA RESULT: -6.570371674      0.000      0.000
REMARK  7 active torsions:
REMARK  status: ('A' for Active; 'I' for Inactive)
REMARK    1  A    between atoms: O1_2  and  C2_3 
REMARK    2  A    between atoms: C2_3  and  C3_5 
REMARK    3  A    between atoms: C6_10  and  N2_11 
REMARK    4  A    between atoms: N2_11  and  C7_13 
REMARK    5  A    between atoms: N4_16  and  O3_17 
REMARK    6  A    between atoms: O3_17  and  N5_18 
REMARK    7  A    between atoms: C11_25  and  N7_26 
ROOT
HETATM    1  C3  UNL     1      15.092 -21.871  -9.139  1.00  0.00     0.134 A 
HETATM    2  C4  UNL     1      14.665 -21.300 -10.338  1.00  0.00     0.040 A 
HETATM    3  C5  UNL     1      13.598 -20.267 -10.403  1.00  0.00     0.071 C 
HETATM    4  N1  UNL     1      15.209 -21.665 -11.507  1.00  0.00    -0.341 N 
ATOM      5  H1  UNL     1      14.870 -21.225 -12.364  1.00  0.00     0.167 HD
HETATM    6  C6  UNL     1      16.192 -22.597 -11.598  1.00  0.00     0.151 A 
HETATM    7  C11 UNL     1      16.616 -23.164 -10.414  1.00  0.00     0.146 A 
HETATM    8  N8  UNL     1      16.084 -22.811  -9.225  1.00  0.00    -0.328 N 
HETATM    9  C12 UNL     1      16.541 -23.410  -7.995  1.00  0.00     0.158 C 
ENDROOT
BRANCH   6  10
HETATM   10  N2  UNL     1      16.616 -22.851 -12.742  1.00  0.00    -0.326 N 
ATOM     11  H2  UNL     1      16.466 -23.832 -12.976  1.00  0.00     0.169 HD
BRANCH  10  12
HETATM   12  C7  UNL     1      17.222 -22.192 -13.771  1.00  0.00     0.127 C 
HETATM   13  N3  UNL     1      16.805 -22.219 -15.018  1.00  0.00    -0.246 N 
HETATM   14  N4  UNL     1      17.634 -21.448 -15.833  1.00  0.00    -0.072 N 
ATOM     15  H3  UNL     1      15.987 -22.733 -15.344  1.00  0.00     0.192 HD
HETATM   16  N6  UNL     1      18.893 -21.517 -15.182  1.00  0.00    -0.075 NA
HETATM   17  C8  UNL     1      18.451 -21.340 -13.811  1.00  0.00     0.107 C 
HETATM   18  C9  UNL     1      19.509 -21.861 -12.868  1.00  0.00     0.044 C 
HETATM   19  C10 UNL     1      18.187 -19.897 -13.589  1.00  0.00     0.044 C 
BRANCH  14  20
HETATM   20  O3  UNL     1      17.264 -20.823 -16.947  1.00  0.00    -0.128 OA
BRANCH  20  21
HETATM   21  N5  UNL     1      18.062 -21.218 -17.954  1.00  0.00    -0.283 N 
ATOM     22  H52 UNL     1      17.867 -22.002 -18.577  1.00  0.00     0.186 HD
ATOM     23  H51 UNL     1      18.879 -20.609 -17.986  1.00  0.00     0.186 HD
ENDBRANCH  20  21
ENDBRANCH  14  20
ENDBRANCH  10  12
ENDBRANCH   6  10
BRANCH   7  24
HETATM   24  N7  UNL     1      17.524 -24.030 -10.482  1.00  0.00    -0.382 N 
ATOM     25  H72 UNL     1      18.479 -23.768 -10.727  1.00  0.00     0.157 HD
ATOM     26  H71 UNL     1      17.266 -24.996 -10.282  1.00  0.00     0.157 HD
ENDBRANCH   7  24
BRANCH   1  27
HETATM   27  C2  UNL     1      14.491 -21.462  -7.883  1.00  0.00     0.311 C 
HETATM   28  O2  UNL     1      13.571 -22.083  -7.282  1.00  0.00    -0.258 OA
BRANCH  27  29
HETATM   29  O1  UNL     1      14.914 -20.307  -7.241  1.00  0.00    -0.321 OA
HETATM   30  C1  UNL     1      15.939 -20.293  -6.279  1.00  0.00     0.213 C 
ENDBRANCH  27  29
ENDBRANCH   1  27
TORSDOF 7
ENDMDL
MODEL 2
REMARK VINA RESULT: -6.474414471      1.659      2.120
REMARK  7 active torsions:
REMARK  status: ('A' for Active; 'I' for Inactive)
REMARK    1  A    between atoms: O1_2  and  C2_3 
REMARK    2  A    between atoms: C2_3  and  C3_5 
REMARK    3  A    between atoms: C6_10  and  N2_11 
REMARK    4  A    between atoms: N2_11  and  C7_13 
REMARK    5  A    between atoms: N4_16  and  O3_17 
REMARK    6  A    between atoms: O3_17  and  N5_18 
REMARK    7  A    between atoms: C11_25  and  N7_26 
ROOT
HETATM    1  C3  UNL     1      14.847 -21.958  -8.703  1.00  0.00     0.134 A 
HETATM    2  C4  UNL     1      14.437 -21.192  -9.794  1.00  0.00     0.040 A 
HETATM    3  C5  UNL     1      13.383 -20.149  -9.694  1.00  0.00     0.071 C 
HETATM    4  N1  UNL     1      14.986 -21.366 -11.004  1.00  0.00    -0.341 N 
ATOM      5  H1  UNL     1      14.660 -20.787 -11.778  1.00  0.00     0.167 HD
HETATM    6  C6  UNL     1      15.960 -22.283 -11.241  1.00  0.00     0.151 A 
HETATM    7  C11 UNL     1      16.367 -23.043 -10.163  1.00  0.00     0.146 A 
HETATM    8  N8  UNL     1      15.828 -22.884  -8.936  1.00  0.00    -0.328 N 
HETATM    9  C12 UNL     1      16.268 -23.683  -7.818  1.00  0.00     0.158 C 
ENDROOT
BRANCH   6  10
HETATM   10  N2  UNL     1      16.390 -22.351 -12.408  1.00  0.00    -0.326 N 
ATOM     11  H2  UNL     1      15.800 -22.954 -12.979  1.00  0.00     0.169 HD
BRANCH  10  12
HETATM   12  C7  UNL     1      17.426 -21.847 -13.140  1.00  0.00     0.127 C 
HETATM   13  N3  UNL     1      18.695 -22.075 -12.885  1.00  0.00    -0.246 N 
HETATM   14  N4  UNL     1      19.510 -21.423 -13.809  1.00  0.00    -0.072 N 
ATOM     15  H3  UNL     1      19.037 -22.649 -12.115  1.00  0.00     0.192 HD
HETATM   16  N6  UNL     1      18.738 -20.296 -14.193  1.00  0.00    -0.075 NA
HETATM   17  C8  UNL     1      17.445 -20.941 -14.330  1.00  0.00     0.107 C 
HETATM   18  C9  UNL     1      16.351 -19.904 -14.247  1.00  0.00     0.044 C 
HETATM   19  C10 UNL     1      17.417 -21.658 -15.629  1.00  0.00     0.044 C 
BRANCH  14  20
HETATM   20  O3  UNL     1      20.719 -21.820 -14.195  1.00  0.00    -0.128 OA
BRANCH  20  21
HETATM   21  N5  UNL     1      21.302 -22.489 -13.186  1.00  0.00    -0.283 N 
ATOM     22  H52 UNL     1      22.155 -22.195 -12.710  1.00  0.00     0.186 HD
ATOM     23  H51 UNL     1      20.754 -23.325 -12.982  1.00  0.00     0.186 HD
ENDBRANCH  20  21
ENDBRANCH  14  20
ENDBRANCH  10  12
ENDBRANCH   6  10
BRANCH   7  24
HETATM   24  N7  UNL     1      17.266 -23.897 -10.367  1.00  0.00    -0.382 N 
ATOM     25  H72 UNL     1      18.149 -23.633 -10.805  1.00  0.00     0.157 HD
ATOM     26  H71 UNL     1      17.075 -24.856 -10.077  1.00  0.00     0.157 HD
ENDBRANCH   7  24
BRANCH   1  27
HETATM   27  C2  UNL     1      14.240 -21.754  -7.400  1.00  0.00     0.311 C 
HETATM   28  O2  UNL     1      13.345 -22.486  -6.894  1.00  0.00    -0.258 OA
BRANCH  27  29
HETATM   29  O1  UNL     1      14.627 -20.689  -6.600  1.00  0.00    -0.321 OA
HETATM   30  C1  UNL     1      15.973 -20.343  -6.377  1.00  0.00     0.213 C 
ENDBRANCH  27  29
ENDBRANCH   1  27
TORSDOF 7
ENDMDL
MODEL 3
REMARK VINA RESULT: -6.272424646      1.976      3.157
REMARK  7 active torsions:
REMARK  status: ('A' for Active; 'I' for Inactive)
REMARK    1  A    between atoms: O1_2  and  C2_3 
REMARK    2  A    between atoms: C2_3  and  C3_5 
REMARK    3  A    between atoms: C6_10  and  N2_11 
REMARK    4  A    between atoms: N2_11  and  C7_13 
REMARK    5  A    between atoms: N4_16  and  O3_17 
REMARK    6  A    between atoms: O3_17  and  N5_18 
REMARK    7  A    between atoms: C11_25  and  N7_26 
ROOT
HETATM    1  C3  UNL     1      14.634 -21.942  -8.272  1.00  0.00     0.134 A 
HETATM    2  C4  UNL     1      15.579 -22.859  -8.732  1.00  0.00     0.040 A 
HETATM    3  C5  UNL     1      16.184 -23.898  -7.858  1.00  0.00     0.071 C 
HETATM    4  N1  UNL     1      15.992 -22.843 -10.007  1.00  0.00    -0.341 N 
ATOM      5  H1  UNL     1      16.685 -23.530 -10.306  1.00  0.00     0.167 HD
HETATM    6  C6  UNL     1      15.524 -21.949 -10.916  1.00  0.00     0.151 A 
HETATM    7  C11 UNL     1      14.590 -21.041 -10.464  1.00  0.00     0.146 A 
HETATM    8  N8  UNL     1      14.159 -21.039  -9.185  1.00  0.00    -0.328 N 
HETATM    9  C12 UNL     1      13.178 -20.085  -8.729  1.00  0.00     0.158 C 
ENDROOT
BRANCH   6  10
HETATM   10  N2  UNL     1      15.985 -22.036 -12.071  1.00  0.00    -0.326 N 
ATOM     11  H2  UNL     1      15.293 -22.423 -12.711  1.00  0.00     0.169 HD
BRANCH  10  12
HETATM   12  C7  UNL     1      17.151 -21.759 -12.724  1.00  0.00     0.127 C 
HETATM   13  N3  UNL     1      18.347 -22.049 -12.261  1.00  0.00    -0.246 N 
HETATM   14  N4  UNL     1      19.335 -21.641 -13.156  1.00  0.00    -0.072 N 
ATOM     15  H3  UNL     1      18.527 -22.509 -11.369  1.00  0.00     0.192 HD
HETATM   16  N6  UNL     1      18.744 -20.534 -13.819  1.00  0.00    -0.075 NA
HETATM   17  C8  UNL     1      17.415 -21.078 -14.029  1.00  0.00     0.107 C 
HETATM   18  C9  UNL     1      16.439 -19.951 -14.266  1.00  0.00     0.044 C 
HETATM   19  C10 UNL     1      17.468 -22.004 -15.187  1.00  0.00     0.044 C 
BRANCH  14  20
HETATM   20  O3  UNL     1      20.532 -22.204 -13.302  1.00  0.00    -0.128 OA
BRANCH  20  21
HETATM   21  N5  UNL     1      21.072 -22.401 -12.087  1.00  0.00    -0.283 N 
ATOM     22  H52 UNL     1      21.249 -21.664 -11.403  1.00  0.00     0.186 HD
ATOM     23  H51 UNL     1      21.271 -23.394 -11.970  1.00  0.00     0.186 HD
ENDBRANCH  20  21
ENDBRANCH  14  20
ENDBRANCH  10  12
ENDBRANCH   6  10
BRANCH   7  24
HETATM   24  N7  UNL     1      14.149 -20.205 -11.294  1.00  0.00    -0.382 N 
ATOM     25  H72 UNL     1      14.224 -20.376 -12.297  1.00  0.00     0.157 HD
ATOM     26  H71 UNL     1      13.717 -19.360 -10.922  1.00  0.00     0.157 HD
ENDBRANCH   7  24
BRANCH   1  27
HETATM   27  C2  UNL     1      14.200 -21.976  -6.888  1.00  0.00     0.311 C 
HETATM   28  O2  UNL     1      13.222 -22.643  -6.449  1.00  0.00    -0.258 OA
BRANCH  27  29
HETATM   29  O1  UNL     1      14.869 -21.238  -5.921  1.00  0.00    -0.321 OA
HETATM   30  C1  UNL     1      16.027 -20.486  -6.190  1.00  0.00     0.213 C 
ENDBRANCH  27  29
ENDBRANCH   1  27
TORSDOF 7
ENDMDL
MODEL 4
REMARK VINA RESULT: -6.247252327      2.301      2.926
REMARK  7 active torsions:
REMARK  status: ('A' for Active; 'I' for Inactive)
REMARK    1  A    between atoms: O1_2  and  C2_3 
REMARK    2  A    between atoms: C2_3  and  C3_5 
REMARK    3  A    between atoms: C6_10  and  N2_11 
REMARK    4  A    between atoms: N2_11  and  C7_13 
REMARK    5  A    between atoms: N4_16  and  O3_17 
REMARK    6  A    between atoms: O3_17  and  N5_18 
REMARK    7  A    between atoms: C11_25  and  N7_26 
ROOT
HETATM    1  C3  UNL     1      13.644 -20.489  -8.968  1.00  0.00     0.134 A 
HETATM    2  C4  UNL     1      13.668 -20.037 -10.288  1.00  0.00     0.040 A 
HETATM    3  C5  UNL     1      12.844 -18.893 -10.760  1.00  0.00     0.071 C 
HETATM    4  N1  UNL     1      14.448 -20.624 -11.204  1.00  0.00    -0.341 N 
ATOM      5  H1  UNL     1      14.438 -20.265 -12.159  1.00  0.00     0.167 HD
HETATM    6  C6  UNL     1      15.253 -21.680 -10.913  1.00  0.00     0.151 A 
HETATM    7  C11 UNL     1      15.232 -22.130  -9.609  1.00  0.00     0.146 A 
HETATM    8  N8  UNL     1      14.453 -21.553  -8.669  1.00  0.00    -0.328 N 
HETATM    9  C12 UNL     1      14.446 -22.032  -7.309  1.00  0.00     0.158 C 
ENDROOT
BRANCH   6  10
HETATM   10  N2  UNL     1      15.931 -22.139 -11.851  1.00  0.00    -0.326 N 
ATOM     11  H2  UNL     1      15.430 -22.886 -12.331  1.00  0.00     0.169 HD
BRANCH  10  12
HETATM   12  C7  UNL     1      17.153 -21.928 -12.421  1.00  0.00     0.127 C 
HETATM   13  N3  UNL     1      18.299 -22.221 -11.848  1.00  0.00    -0.246 N 
HETATM   14  N4  UNL     1      19.367 -21.888 -12.681  1.00  0.00    -0.072 N 
ATOM     15  H3  UNL     1      18.395 -22.635 -10.921  1.00  0.00     0.192 HD
HETATM   16  N6  UNL     1      18.863 -20.805 -13.447  1.00  0.00    -0.075 NA
HETATM   17  C8  UNL     1      17.540 -21.328 -13.735  1.00  0.00     0.107 C 
HETATM   18  C9  UNL     1      16.619 -20.191 -14.110  1.00  0.00     0.044 C 
HETATM   19  C10 UNL     1      17.658 -22.317 -14.835  1.00  0.00     0.044 C 
BRANCH  14  20
HETATM   20  O3  UNL     1      20.555 -22.487 -12.699  1.00  0.00    -0.128 OA
BRANCH  20  21
HETATM   21  N5  UNL     1      21.502 -21.587 -12.382  1.00  0.00    -0.283 N 
ATOM     22  H52 UNL     1      21.841 -21.408 -11.437  1.00  0.00     0.186 HD
ATOM     23  H51 UNL     1      21.816 -21.125 -13.235  1.00  0.00     0.186 HD
ENDBRANCH  20  21
ENDBRANCH  14  20
ENDBRANCH  10  12
ENDBRANCH   6  10
BRANCH   7  24
HETATM   24  N7  UNL     1      15.969 -23.107  -9.324  1.00  0.00    -0.382 N 
ATOM     25  H72 UNL     1      16.465 -23.618 -10.055  1.00  0.00     0.157 HD
ATOM     26  H71 UNL     1      16.048 -23.362  -8.340  1.00  0.00     0.157 HD
ENDBRANCH   7  24
BRANCH   1  27
HETATM   27  C2  UNL     1      12.792 -19.840  -7.990  1.00  0.00     0.311 C 
HETATM   28  O2  UNL     1      11.575 -20.113  -7.791  1.00  0.00    -0.258 OA
BRANCH  27  29
HETATM   29  O1  UNL     1      13.290 -18.831  -7.179  1.00  0.00    -0.321 OA
HETATM   30  C1  UNL     1      13.138 -17.463  -7.469  1.00  0.00     0.213 C 
ENDBRANCH  27  29
ENDBRANCH   1  27
TORSDOF 7
ENDMDL
MODEL 5
REMARK VINA RESULT: -6.210802455      1.437      1.695
REMARK  7 active torsions:
REMARK  status: ('A' for Active; 'I' for Inactive)
REMARK    1  A    between atoms: O1_2  and  C2_3 
REMARK    2  A    between atoms: C2_3  and  C3_5 
REMARK    3  A    between atoms: C6_10  and  N2_11 
REMARK    4  A    between atoms: N2_11  and  C7_13 
REMARK    5  A    between atoms: N4_16  and  O3_17 
REMARK    6  A    between atoms: O3_17  and  N5_18 
REMARK    7  A    between atoms: C11_25  and  N7_26 
ROOT
HETATM    1  C3  UNL     1      14.874 -21.968  -8.712  1.00  0.00     0.134 A 
HETATM    2  C4  UNL     1      14.403 -21.200  -9.777  1.00  0.00     0.040 A 
HETATM    3  C5  UNL     1      13.339 -20.174  -9.620  1.00  0.00     0.071 C 
HETATM    4  N1  UNL     1      14.898 -21.357 -11.012  1.00  0.00    -0.341 N 
ATOM      5  H1  UNL     1      14.528 -20.776 -11.766  1.00  0.00     0.167 HD
HETATM    6  C6  UNL     1      15.873 -22.257 -11.301  1.00  0.00     0.151 A 
HETATM    7  C11 UNL     1      16.340 -23.019 -10.250  1.00  0.00     0.146 A 
HETATM    8  N8  UNL     1      15.856 -22.878  -8.998  1.00  0.00    -0.328 N 
HETATM    9  C12 UNL     1      16.359 -23.678  -7.909  1.00  0.00     0.158 C 
ENDROOT
BRANCH   6  10
HETATM   10  N2  UNL     1      16.250 -22.309 -12.488  1.00  0.00    -0.326 N 
ATOM     11  H2  UNL     1      16.084 -23.234 -12.882  1.00  0.00     0.169 HD
BRANCH  10  12
HETATM   12  C7  UNL     1      16.822 -21.482 -13.410  1.00  0.00     0.127 C 
HETATM   13  N3  UNL     1      16.663 -20.177 -13.436  1.00  0.00    -0.246 N 
HETATM   14  N4  UNL     1      17.372 -19.614 -14.496  1.00  0.00    -0.072 N 
ATOM     15  H3  UNL     1      16.098 -19.649 -12.771  1.00  0.00     0.192 HD
HETATM   16  N6  UNL     1      17.401 -20.652 -15.463  1.00  0.00    -0.075 NA
HETATM   17  C8  UNL     1      17.699 -21.770 -14.587  1.00  0.00     0.107 C 
HETATM   18  C9  UNL     1      17.302 -23.061 -15.262  1.00  0.00     0.044 C 
HETATM   19  C10 UNL     1      19.149 -21.744 -14.274  1.00  0.00     0.044 C 
BRANCH  14  20
HETATM   20  O3  UNL     1      17.876 -18.383 -14.527  1.00  0.00    -0.128 OA
BRANCH  20  21
HETATM   21  N5  UNL     1      17.881 -17.946 -15.798  1.00  0.00    -0.283 N 
ATOM     22  H52 UNL     1      18.580 -17.318 -16.194  1.00  0.00     0.186 HD
ATOM     23  H51 UNL     1      17.079 -18.343 -16.288  1.00  0.00     0.186 HD
ENDBRANCH  20  21
ENDBRANCH  14  20
ENDBRANCH  10  12
ENDBRANCH   6  10
BRANCH   7  24
HETATM   24  N7  UNL     1      17.241 -23.858 -10.502  1.00  0.00    -0.382 N 
ATOM     25  H72 UNL     1      17.320 -24.278 -11.428  1.00  0.00     0.157 HD
ATOM     26  H71 UNL     1      17.883 -24.097  -9.746  1.00  0.00     0.157 HD
ENDBRANCH   7  24
BRANCH   1  27
HETATM   27  C2  UNL     1      14.324 -21.784  -7.382  1.00  0.00     0.311 C 
HETATM   28  O2  UNL     1      13.446 -22.519  -6.851  1.00  0.00    -0.258 OA
BRANCH  27  29
HETATM   29  O1  UNL     1      14.754 -20.736  -6.580  1.00  0.00    -0.321 OA
HETATM   30  C1  UNL     1      16.108 -20.499  -6.282  1.00  0.00     0.213 C 
ENDBRANCH  27  29
ENDBRANCH   1  27
TORSDOF 7
ENDMDL
