MODEL 1
REMARK VINA RESULT: -6.961221686      0.000      0.000
REMARK  1 active torsions:
REMARK  status: ('A' for Active; 'I' for Inactive)
REMARK    1  A    between atoms: C7_11  and  N3_12 
ROOT
HETATM    1  N3  UNL     1      13.316 -19.484  -8.329  1.00  0.00    -0.237 N 
HETATM    2  N4  UNL     1      12.950 -19.438  -9.594  1.00  0.00    -0.127 N 
ATOM      3  H4  UNL     1      12.346 -20.121 -10.051  1.00  0.00     0.206 HD
HETATM    4  C8  UNL     1      13.486 -18.360 -10.198  1.00  0.00     0.692 A 
HETATM    5  N5  UNL     1      13.300 -18.053 -11.442  1.00  0.00    -0.233 N 
ATOM      6  H51 UNL     1      13.706 -17.237 -11.899  1.00  0.00     0.174 HD
ATOM      7  H52 UNL     1      12.749 -18.539 -12.150  1.00  0.00     0.174 HD
HETATM    8  N6  UNL     1      14.206 -17.725  -9.273  1.00  0.00    -0.164 N 
ATOM      9  H6  UNL     1      14.742 -16.867  -9.406  1.00  0.00     0.186 HD
HETATM   10  C9  UNL     1      14.095 -18.422  -8.135  1.00  0.00     0.221 A 
HETATM   11  C10 UNL     1      14.724 -18.065  -6.902  1.00  0.00     0.139 C 
HETATM   12  N7  UNL     1      15.227 -17.757  -5.906  1.00  0.00    -0.188 NA
ENDROOT
BRANCH   1  13
HETATM   13  C7  UNL     1      12.907 -20.524  -7.405  1.00  0.00     0.212 A 
HETATM   14  C3  UNL     1      14.021 -21.367  -6.977  1.00  0.00     0.087 A 
HETATM   15  C2  UNL     1      14.303 -21.637  -5.676  1.00  0.00     0.140 A 
HETATM   16  C4  UNL     1      14.873 -21.955  -7.922  1.00  0.00     0.263 A 
HETATM   17  N1  UNL     1      15.347 -22.427  -5.296  1.00  0.00    -0.288 N 
HETATM   18  N9  UNL     1      13.479 -21.074  -4.655  1.00  0.00    -0.284 N 
HETATM   19  C1  UNL     1      15.573 -22.661  -3.886  1.00  0.00     0.163 C 
HETATM   20  C6  UNL     1      16.140 -22.971  -6.219  1.00  0.00     0.332 A 
HETATM   21  N2  UNL     1      15.883 -22.721  -7.514  1.00  0.00    -0.270 N 
HETATM   22  O2  UNL     1      17.122 -23.711  -5.937  1.00  0.00    -0.246 OA
HETATM   23  C5  UNL     1      16.754 -23.318  -8.528  1.00  0.00     0.164 C 
HETATM   24  N8  UNL     1      12.428 -20.277  -5.056  1.00  0.00    -0.293 N 
ATOM     25  H9  UNL     1      13.661 -21.254  -3.667  1.00  0.00     0.188 HD
HETATM   26  C11 UNL     1      12.140 -20.008  -6.270  1.00  0.00     0.102 A 
ATOM     27  H8  UNL     1      11.838 -19.873  -4.330  1.00  0.00     0.187 HD
HETATM   28  S1  UNL     1      10.725 -18.945  -6.568  1.00  0.00    -0.034 SA
HETATM   29  O1  UNL     1      14.611 -21.704  -9.125  1.00  0.00    -0.267 OA
ENDBRANCH   1  13
TORSDOF 1
ENDMDL
MODEL 2
REMARK VINA RESULT: -6.038243426      2.788      5.430
REMARK  1 active torsions:
REMARK  status: ('A' for Active; 'I' for Inactive)
REMARK    1  A    between atoms: C7_11  and  N3_12 
ROOT
HETATM    1  N3  UNL     1      15.109 -23.771  -6.503  1.00  0.00    -0.237 N 
HETATM    2  N4  UNL     1      15.289 -24.834  -7.260  1.00  0.00    -0.127 N 
ATOM      3  H4  UNL     1      16.084 -24.978  -7.882  1.00  0.00     0.206 HD
HETATM    4  C8  UNL     1      14.273 -25.704  -7.096  1.00  0.00     0.692 A 
HETATM    5  N5  UNL     1      14.180 -26.839  -7.711  1.00  0.00    -0.233 N 
ATOM      6  H51 UNL     1      13.411 -27.498  -7.587  1.00  0.00     0.174 HD
ATOM      7  H52 UNL     1      14.816 -27.259  -8.389  1.00  0.00     0.174 HD
HETATM    8  N6  UNL     1      13.442 -25.155  -6.210  1.00  0.00    -0.164 N 
ATOM      9  H6  UNL     1      12.571 -25.559  -5.865  1.00  0.00     0.186 HD
HETATM   10  C9  UNL     1      13.963 -23.974  -5.855  1.00  0.00     0.221 A 
HETATM   11  C10 UNL     1      13.366 -23.075  -4.917  1.00  0.00     0.139 C 
HETATM   12  N7  UNL     1      12.881 -22.362  -4.145  1.00  0.00    -0.188 NA
ENDROOT
BRANCH   1  13
HETATM   13  C7  UNL     1      16.025 -22.649  -6.450  1.00  0.00     0.212 A 
HETATM   14  C3  UNL     1      15.416 -21.401  -6.905  1.00  0.00     0.087 A 
HETATM   15  C2  UNL     1      15.450 -20.245  -6.194  1.00  0.00     0.140 A 
HETATM   16  C4  UNL     1      14.748 -21.343  -8.136  1.00  0.00     0.263 A 
HETATM   17  N1  UNL     1      14.876 -19.089  -6.636  1.00  0.00    -0.288 N 
HETATM   18  N9  UNL     1      16.113 -20.225  -4.930  1.00  0.00    -0.284 N 
HETATM   19  C1  UNL     1      14.962 -17.903  -5.813  1.00  0.00     0.163 C 
HETATM   20  C6  UNL     1      14.248 -19.067  -7.811  1.00  0.00     0.332 A 
HETATM   21  N2  UNL     1      14.199 -20.198  -8.536  1.00  0.00    -0.270 N 
HETATM   22  O2  UNL     1      13.696 -18.033  -8.280  1.00  0.00    -0.246 OA
HETATM   23  C5  UNL     1      13.509 -20.172  -9.826  1.00  0.00     0.164 C 
HETATM   24  N8  UNL     1      16.688 -21.402  -4.498  1.00  0.00    -0.293 N 
ATOM     25  H9  UNL     1      16.158 -19.375  -4.368  1.00  0.00     0.188 HD
HETATM   26  C11 UNL     1      16.670 -22.502  -5.145  1.00  0.00     0.102 A 
ATOM     27  H8  UNL     1      17.161 -21.392  -3.595  1.00  0.00     0.187 HD
HETATM   28  S1  UNL     1      17.483 -23.915  -4.394  1.00  0.00    -0.034 SA
HETATM   29  O1  UNL     1      14.717 -22.414  -8.792  1.00  0.00    -0.267 OA
ENDBRANCH   1  13
TORSDOF 1
ENDMDL
MODEL 3
REMARK VINA RESULT: -5.732699749      2.650      5.622
REMARK  1 active torsions:
REMARK  status: ('A' for Active; 'I' for Inactive)
REMARK    1  A    between atoms: C7_11  and  N3_12 
ROOT
HETATM    1  N3  UNL     1      14.987 -24.130  -5.962  1.00  0.00    -0.237 N 
HETATM    2  N4  UNL     1      14.015 -24.892  -6.421  1.00  0.00    -0.127 N 
ATOM      3  H4  UNL     1      13.251 -24.567  -7.015  1.00  0.00     0.206 HD
HETATM    4  C8  UNL     1      14.171 -26.160  -5.995  1.00  0.00     0.692 A 
HETATM    5  N5  UNL     1      13.368 -27.132  -6.288  1.00  0.00    -0.233 N 
ATOM      6  H51 UNL     1      13.487 -28.092  -5.965  1.00  0.00     0.174 HD
ATOM      7  H52 UNL     1      12.523 -27.119  -6.859  1.00  0.00     0.174 HD
HETATM    8  N6  UNL     1      15.276 -26.176  -5.248  1.00  0.00    -0.164 N 
ATOM      9  H6  UNL     1      15.675 -26.987  -4.775  1.00  0.00     0.186 HD
HETATM   10  C9  UNL     1      15.765 -24.930  -5.236  1.00  0.00     0.221 A 
HETATM   11  C10 UNL     1      16.950 -24.532  -4.541  1.00  0.00     0.139 C 
HETATM   12  N7  UNL     1      17.919 -24.226  -3.987  1.00  0.00    -0.188 NA
ENDROOT
BRANCH   1  13
HETATM   13  C7  UNL     1      15.107 -22.712  -6.241  1.00  0.00     0.212 A 
HETATM   14  C3  UNL     1      15.141 -22.420  -7.672  1.00  0.00     0.087 A 
HETATM   15  C2  UNL     1      14.336 -21.506  -8.272  1.00  0.00     0.140 A 
HETATM   16  C4  UNL     1      16.038 -23.092  -8.514  1.00  0.00     0.263 A 
HETATM   17  N1  UNL     1      14.384 -21.246  -9.610  1.00  0.00    -0.288 N 
HETATM   18  N9  UNL     1      13.396 -20.780  -7.479  1.00  0.00    -0.284 N 
HETATM   19  C1  UNL     1      13.488 -20.254 -10.165  1.00  0.00     0.163 C 
HETATM   20  C6  UNL     1      15.247 -21.903 -10.384  1.00  0.00     0.332 A 
HETATM   21  N2  UNL     1      16.056 -22.813  -9.816  1.00  0.00    -0.270 N 
HETATM   22  O2  UNL     1      15.344 -21.712 -11.628  1.00  0.00    -0.246 OA
HETATM   23  C5  UNL     1      17.004 -23.534 -10.666  1.00  0.00     0.164 C 
HETATM   24  N8  UNL     1      13.361 -21.055  -6.129  1.00  0.00    -0.293 N 
ATOM     25  H9  UNL     1      12.775 -20.086  -7.896  1.00  0.00     0.188 HD
HETATM   26  C11 UNL     1      14.106 -21.908  -5.539  1.00  0.00     0.102 A 
ATOM     27  H8  UNL     1      12.691 -20.539  -5.559  1.00  0.00     0.187 HD
HETATM   28  S1  UNL     1      13.892 -22.107  -3.768  1.00  0.00    -0.034 SA
HETATM   29  O1  UNL     1      16.781 -23.938  -7.957  1.00  0.00    -0.267 OA
ENDBRANCH   1  13
TORSDOF 1
ENDMDL
MODEL 4
REMARK VINA RESULT: -5.698081247      2.526      5.339
REMARK  1 active torsions:
REMARK  status: ('A' for Active; 'I' for Inactive)
REMARK    1  A    between atoms: C7_11  and  N3_12 
ROOT
HETATM    1  N3  UNL     1      15.179 -23.120  -6.314  1.00  0.00    -0.237 N 
HETATM    2  N4  UNL     1      15.872 -24.149  -6.757  1.00  0.00    -0.127 N 
ATOM      3  H4  UNL     1      16.841 -24.106  -7.073  1.00  0.00     0.206 HD
HETATM    4  C8  UNL     1      15.120 -25.266  -6.733  1.00  0.00     0.692 A 
HETATM    5  N5  UNL     1      15.535 -26.433  -7.109  1.00  0.00    -0.233 N 
ATOM      6  H51 UNL     1      14.966 -27.279  -7.090  1.00  0.00     0.174 HD
ATOM      7  H52 UNL     1      16.450 -26.706  -7.470  1.00  0.00     0.174 HD
HETATM    8  N6  UNL     1      13.925 -24.909  -6.260  1.00  0.00    -0.164 N 
ATOM      9  H6  UNL     1      13.123 -25.523  -6.117  1.00  0.00     0.186 HD
HETATM   10  C9  UNL     1      13.974 -23.595  -6.009  1.00  0.00     0.221 A 
HETATM   11  C10 UNL     1      12.884 -22.830  -5.488  1.00  0.00     0.139 C 
HETATM   12  N7  UNL     1      11.999 -22.224  -5.053  1.00  0.00    -0.188 NA
ENDROOT
BRANCH   1  13
HETATM   13  C7  UNL     1      15.704 -21.771  -6.216  1.00  0.00     0.212 A 
HETATM   14  C3  UNL     1      14.923 -20.806  -6.986  1.00  0.00     0.087 A 
HETATM   15  C2  UNL     1      14.446 -19.644  -6.472  1.00  0.00     0.140 A 
HETATM   16  C4  UNL     1      14.626 -21.045  -8.335  1.00  0.00     0.263 A 
HETATM   17  N1  UNL     1      13.720 -18.753  -7.207  1.00  0.00    -0.288 N 
HETATM   18  N9  UNL     1      14.708 -19.329  -5.104  1.00  0.00    -0.284 N 
HETATM   19  C1  UNL     1      13.251 -17.539  -6.576  1.00  0.00     0.163 C 
HETATM   20  C6  UNL     1      13.454 -19.010  -8.487  1.00  0.00     0.332 A 
HETATM   21  N2  UNL     1      13.914 -20.154  -9.022  1.00  0.00    -0.270 N 
HETATM   22  O2  UNL     1      12.789 -18.232  -9.225  1.00  0.00    -0.246 OA
HETATM   23  C5  UNL     1      13.622 -20.436 -10.428  1.00  0.00     0.164 C 
HETATM   24  N8  UNL     1      15.443 -20.240  -4.374  1.00  0.00    -0.293 N 
ATOM     25  H9  UNL     1      14.365 -18.466  -4.683  1.00  0.00     0.188 HD
HETATM   26  C11 UNL     1      15.904 -21.338  -4.833  1.00  0.00     0.102 A 
ATOM     27  H8  UNL     1      15.632 -20.019  -3.397  1.00  0.00     0.187 HD
HETATM   28  S1  UNL     1      16.836 -22.377  -3.705  1.00  0.00    -0.034 SA
HETATM   29  O1  UNL     1      15.068 -22.121  -8.810  1.00  0.00    -0.267 OA
ENDBRANCH   1  13
TORSDOF 1
ENDMDL
MODEL 5
REMARK VINA RESULT: -5.584976339      2.401      3.093
REMARK  1 active torsions:
REMARK  status: ('A' for Active; 'I' for Inactive)
REMARK    1  A    between atoms: C7_11  and  N3_12 
ROOT
HETATM    1  N3  UNL     1      13.872 -20.731  -7.262  1.00  0.00    -0.237 N 
HETATM    2  N4  UNL     1      14.521 -21.113  -8.344  1.00  0.00    -0.127 N 
ATOM      3  H4  UNL     1      15.425 -21.585  -8.344  1.00  0.00     0.206 HD
HETATM    4  C8  UNL     1      13.820 -20.793  -9.448  1.00  0.00     0.692 A 
HETATM    5  N5  UNL     1      14.209 -21.046 -10.657  1.00  0.00    -0.233 N 
ATOM      6  H51 UNL     1      13.678 -20.804 -11.494  1.00  0.00     0.174 HD
ATOM      7  H52 UNL     1      15.062 -21.505 -10.976  1.00  0.00     0.174 HD
HETATM    8  N6  UNL     1      12.705 -20.193  -9.030  1.00  0.00    -0.164 N 
ATOM      9  H6  UNL     1      11.957 -19.827  -9.620  1.00  0.00     0.186 HD
HETATM   10  C9  UNL     1      12.748 -20.161  -7.693  1.00  0.00     0.221 A 
HETATM   11  C10 UNL     1      11.730 -19.595  -6.863  1.00  0.00     0.139 C 
HETATM   12  N7  UNL     1      10.893 -19.147  -6.202  1.00  0.00    -0.188 NA
ENDROOT
BRANCH   1  13
HETATM   13  C7  UNL     1      14.360 -20.930  -5.911  1.00  0.00     0.212 A 
HETATM   14  C3  UNL     1      14.776 -22.308  -5.659  1.00  0.00     0.087 A 
HETATM   15  C2  UNL     1      15.981 -22.644  -5.132  1.00  0.00     0.140 A 
HETATM   16  C4  UNL     1      13.919 -23.376  -5.960  1.00  0.00     0.263 A 
HETATM   17  N1  UNL     1      16.351 -23.937  -4.903  1.00  0.00    -0.288 N 
HETATM   18  N9  UNL     1      16.908 -21.611  -4.800  1.00  0.00    -0.284 N 
HETATM   19  C1  UNL     1      17.656 -24.204  -4.338  1.00  0.00     0.163 C 
HETATM   20  C6  UNL     1      15.514 -24.930  -5.200  1.00  0.00     0.332 A 
HETATM   21  N2  UNL     1      14.314 -24.625  -5.723  1.00  0.00    -0.270 N 
HETATM   22  O2  UNL     1      15.792 -26.147  -5.015  1.00  0.00    -0.246 OA
HETATM   23  C5  UNL     1      13.396 -25.716  -6.049  1.00  0.00     0.164 C 
HETATM   24  N8  UNL     1      16.518 -20.310  -5.038  1.00  0.00    -0.293 N 
ATOM     25  H9  UNL     1      17.823 -21.826  -4.403  1.00  0.00     0.188 HD
HETATM   26  C11 UNL     1      15.392 -19.965  -5.532  1.00  0.00     0.102 A 
ATOM     27  H8  UNL     1      17.178 -19.569  -4.802  1.00  0.00     0.187 HD
HETATM   28  S1  UNL     1      15.092 -18.210  -5.758  1.00  0.00    -0.034 SA
HETATM   29  O1  UNL     1      12.805 -23.062  -6.448  1.00  0.00    -0.267 OA
ENDBRANCH   1  13
TORSDOF 1
ENDMDL
