MODEL 1
REMARK VINA RESULT: -7.900725728      0.000      0.000
REMARK  4 active torsions:
REMARK  status: ('A' for Active; 'I' for Inactive)
REMARK    1  A    between atoms: N1_1  and  C1_4 
REMARK    2  A    between atoms: C4_13  and  N5_14 
REMARK    3  A    between atoms: C5_17  and  N6_18 
REMARK    4  A    between atoms: N6_18  and  N7_20 
ROOT
HETATM    1  C1  UNL     1      11.271 -18.215  -7.397  1.00  0.00     0.145 A 
HETATM    2  N2  UNL     1      12.083 -19.015  -6.703  1.00  0.00    -0.320 N 
ATOM      3  H2  UNL     1      12.073 -19.009  -5.683  1.00  0.00     0.169 HD
HETATM    4  C2  UNL     1      12.893 -19.807  -7.359  1.00  0.00     0.160 A 
HETATM    5  N3  UNL     1      13.854 -20.751  -7.092  1.00  0.00    -0.172 N 
ATOM      6  H3  UNL     1      14.140 -21.036  -6.155  1.00  0.00     0.186 HD
HETATM    7  C3  UNL     1      14.366 -21.249  -8.229  1.00  0.00     0.709 A 
HETATM    8  N4  UNL     1      15.344 -22.208  -8.262  1.00  0.00    -0.171 N 
ATOM      9  H4  UNL     1      15.739 -22.501  -7.369  1.00  0.00     0.186 HD
HETATM   10  C4  UNL     1      15.835 -22.804  -9.380  1.00  0.00     0.162 C 
HETATM   11  C5  UNL     1      15.749 -22.345 -10.676  1.00  0.00     0.181 C 
HETATM   12  N8  UNL     1      14.814 -21.528 -11.232  1.00  0.00    -0.266 N 
ATOM     13  H8  UNL     1      14.794 -21.464 -12.250  1.00  0.00     0.190 HD
HETATM   14  N9  UNL     1      13.913 -20.796 -10.553  1.00  0.00    -0.219 N 
ATOM     15  H9  UNL     1      13.252 -20.277 -11.131  1.00  0.00     0.209 HD
HETATM   16  N10 UNL     1      13.756 -20.647  -9.255  1.00  0.00    -0.061 N 
HETATM   17  C11 UNL     1      12.858 -19.769  -8.724  1.00  0.00     0.165 A 
HETATM   18  S1  UNL     1      11.655 -18.587  -9.014  1.00  0.00    -0.030 SA
ENDROOT
BRANCH  11  19
HETATM   19  N6  UNL     1      16.680 -22.741 -11.475  1.00  0.00    -0.281 N 
ATOM     20  H6  UNL     1      17.393 -23.376 -11.117  1.00  0.00     0.188 HD
BRANCH  19  21
HETATM   21  N7  UNL     1      16.752 -22.337 -12.810  1.00  0.00    -0.300 N 
HETATM   22  C6  UNL     1      17.857 -21.916 -13.305  1.00  0.00     0.071 C 
HETATM   23  C7  UNL     1      18.094 -21.455 -14.689  1.00  0.00     0.063 C 
HETATM   24  C10 UNL     1      19.122 -21.801 -12.597  1.00  0.00     0.173 C 
HETATM   25  C8  UNL     1      19.131 -20.358 -14.487  1.00  0.00     0.014 C 
HETATM   26  C9  UNL     1      19.916 -20.743 -13.275  1.00  0.00     0.085 C 
HETATM   27  O1  UNL     1      19.512 -22.450 -11.601  1.00  0.00    -0.291 OA
ATOM     28  H7  UNL     1      15.918 -22.377 -13.396  1.00  0.00     0.186 HD
ENDBRANCH  19  21
ENDBRANCH  11  19
BRANCH  10  29
HETATM   29  N5  UNL     1      16.456 -23.926  -9.251  1.00  0.00    -0.382 N 
ATOM     30  H52 UNL     1      15.954 -24.626  -8.705  1.00  0.00     0.157 HD
ATOM     31  H51 UNL     1      17.371 -24.024  -9.690  1.00  0.00     0.157 HD
ENDBRANCH  10  29
BRANCH   1  32
HETATM   32  N1  UNL     1      10.395 -17.358  -6.912  1.00  0.00    -0.380 N 
ATOM     33  H12 UNL     1       9.422 -17.498  -6.644  1.00  0.00     0.158 HD
ATOM     34  H11 UNL     1      10.547 -16.368  -6.714  1.00  0.00     0.158 HD
ENDBRANCH   1  32
TORSDOF 4
ENDMDL
MODEL 2
REMARK VINA RESULT: -7.881299971      1.380      1.630
REMARK  4 active torsions:
REMARK  status: ('A' for Active; 'I' for Inactive)
REMARK    1  A    between atoms: N1_1  and  C1_4 
REMARK    2  A    between atoms: C4_13  and  N5_14 
REMARK    3  A    between atoms: C5_17  and  N6_18 
REMARK    4  A    between atoms: N6_18  and  N7_20 
ROOT
HETATM    1  C1  UNL     1      11.830 -19.292  -7.237  1.00  0.00     0.145 A 
HETATM    2  N2  UNL     1      12.725 -20.119  -6.693  1.00  0.00    -0.320 N 
ATOM      3  H2  UNL     1      12.761 -20.256  -5.683  1.00  0.00     0.169 HD
HETATM    4  C2  UNL     1      13.556 -20.750  -7.484  1.00  0.00     0.160 A 
HETATM    5  N3  UNL     1      14.589 -21.649  -7.388  1.00  0.00    -0.172 N 
ATOM      6  H3  UNL     1      14.936 -22.040  -6.512  1.00  0.00     0.186 HD
HETATM    7  C3  UNL     1      15.081 -21.945  -8.602  1.00  0.00     0.709 A 
HETATM    8  N4  UNL     1      16.120 -22.816  -8.806  1.00  0.00    -0.171 N 
ATOM      9  H4  UNL     1      16.574 -23.200  -7.978  1.00  0.00     0.186 HD
HETATM   10  C4  UNL     1      16.598 -23.212 -10.014  1.00  0.00     0.162 C 
HETATM   11  C5  UNL     1      16.422 -22.585 -11.227  1.00  0.00     0.181 C 
HETATM   12  N8  UNL     1      15.409 -21.769 -11.628  1.00  0.00    -0.266 N 
ATOM     13  H8  UNL     1      15.340 -21.566 -12.625  1.00  0.00     0.190 HD
HETATM   14  N9  UNL     1      14.494 -21.207 -10.820  1.00  0.00    -0.219 N 
ATOM     15  H9  UNL     1      13.773 -20.663 -11.294  1.00  0.00     0.209 HD
HETATM   16  N10 UNL     1      14.386 -21.252  -9.509  1.00  0.00    -0.061 N 
HETATM   17  C11 UNL     1      13.456 -20.525  -8.828  1.00  0.00     0.165 A 
HETATM   18  S1  UNL     1      12.164 -19.406  -8.903  1.00  0.00    -0.030 SA
ENDROOT
BRANCH  11  19
HETATM   19  N6  UNL     1      17.340 -22.797 -12.108  1.00  0.00    -0.281 N 
ATOM     20  H6  UNL     1      17.273 -23.628 -12.694  1.00  0.00     0.188 HD
BRANCH  19  21
HETATM   21  N7  UNL     1      18.423 -21.934 -12.292  1.00  0.00    -0.300 N 
HETATM   22  C6  UNL     1      18.574 -21.303 -13.397  1.00  0.00     0.071 C 
HETATM   23  C7  UNL     1      19.660 -20.363 -13.744  1.00  0.00     0.063 C 
HETATM   24  C10 UNL     1      17.697 -21.384 -14.555  1.00  0.00     0.173 C 
HETATM   25  C8  UNL     1      19.846 -20.625 -15.233  1.00  0.00     0.014 C 
HETATM   26  C9  UNL     1      18.510 -21.050 -15.753  1.00  0.00     0.085 C 
HETATM   27  O1  UNL     1      16.481 -21.676 -14.584  1.00  0.00    -0.291 OA
ATOM     28  H7  UNL     1      19.101 -21.806 -11.540  1.00  0.00     0.186 HD
ENDBRANCH  19  21
ENDBRANCH  11  19
BRANCH  10  29
HETATM   29  N5  UNL     1      17.299 -24.293 -10.068  1.00  0.00    -0.382 N 
ATOM     30  H52 UNL     1      16.949 -25.052  -9.485  1.00  0.00     0.157 HD
ATOM     31  H51 UNL     1      18.122 -24.305 -10.670  1.00  0.00     0.157 HD
ENDBRANCH  10  29
BRANCH   1  32
HETATM   32  N1  UNL     1      10.921 -18.577  -6.604  1.00  0.00    -0.380 N 
ATOM     33  H12 UNL     1      10.173 -18.875  -5.979  1.00  0.00     0.158 HD
ATOM     34  H11 UNL     1      10.806 -17.563  -6.632  1.00  0.00     0.158 HD
ENDBRANCH   1  32
TORSDOF 4
ENDMDL
MODEL 3
REMARK VINA RESULT: -7.691245636      4.055      7.640
REMARK  4 active torsions:
REMARK  status: ('A' for Active; 'I' for Inactive)
REMARK    1  A    between atoms: N1_1  and  C1_4 
REMARK    2  A    between atoms: C4_13  and  N5_14 
REMARK    3  A    between atoms: C5_17  and  N6_18 
REMARK    4  A    between atoms: N6_18  and  N7_20 
ROOT
HETATM    1  C1  UNL     1      18.260 -19.812 -17.087  1.00  0.00     0.145 A 
HETATM    2  N2  UNL     1      19.356 -20.268 -16.477  1.00  0.00    -0.320 N 
ATOM      3  H2  UNL     1      20.273 -20.169 -16.912  1.00  0.00     0.169 HD
HETATM    4  C2  UNL     1      19.229 -20.845 -15.309  1.00  0.00     0.160 A 
HETATM    5  N3  UNL     1      20.024 -21.434 -14.357  1.00  0.00    -0.172 N 
ATOM      6  H3  UNL     1      21.036 -21.531 -14.429  1.00  0.00     0.186 HD
HETATM    7  C3  UNL     1      19.289 -21.865 -13.319  1.00  0.00     0.709 A 
HETATM    8  N4  UNL     1      19.823 -22.493 -12.223  1.00  0.00    -0.171 N 
ATOM      9  H4  UNL     1      20.822 -22.694 -12.244  1.00  0.00     0.186 HD
HETATM   10  C4  UNL     1      19.138 -22.871 -11.113  1.00  0.00     0.162 C 
HETATM   11  C5  UNL     1      17.778 -23.049 -10.992  1.00  0.00     0.181 C 
HETATM   12  N8  UNL     1      16.774 -22.470 -11.706  1.00  0.00    -0.266 N 
ATOM     13  H8  UNL     1      15.827 -22.563 -11.339  1.00  0.00     0.190 HD
HETATM   14  N9  UNL     1      16.926 -21.787 -12.853  1.00  0.00    -0.219 N 
ATOM     15  H9  UNL     1      16.071 -21.375 -13.229  1.00  0.00     0.209 HD
HETATM   16  N10 UNL     1      18.010 -21.568 -13.566  1.00  0.00    -0.061 N 
HETATM   17  C11 UNL     1      17.973 -20.946 -14.779  1.00  0.00     0.165 A 
HETATM   18  S1  UNL     1      17.018 -20.204 -15.989  1.00  0.00    -0.030 SA
ENDROOT
BRANCH  11  19
HETATM   19  N6  UNL     1      17.399 -23.877 -10.080  1.00  0.00    -0.281 N 
ATOM     20  H6  UNL     1      18.058 -24.585  -9.757  1.00  0.00     0.188 HD
BRANCH  19  21
HETATM   21  N7  UNL     1      16.122 -23.845  -9.514  1.00  0.00    -0.300 N 
HETATM   22  C6  UNL     1      15.963 -23.540  -8.279  1.00  0.00     0.071 C 
HETATM   23  C7  UNL     1      14.686 -23.464  -7.539  1.00  0.00     0.063 C 
HETATM   24  C10 UNL     1      17.020 -23.203  -7.339  1.00  0.00     0.173 C 
HETATM   25  C8  UNL     1      15.095 -23.933  -6.148  1.00  0.00     0.014 C 
HETATM   26  C9  UNL     1      16.526 -23.535  -5.977  1.00  0.00     0.085 C 
HETATM   27  O1  UNL     1      18.148 -22.721  -7.584  1.00  0.00    -0.291 OA
ATOM     28  H7  UNL     1      15.309 -24.068 -10.089  1.00  0.00     0.186 HD
ENDBRANCH  19  21
ENDBRANCH  11  19
BRANCH  10  29
HETATM   29  N5  UNL     1      19.804 -23.095 -10.032  1.00  0.00    -0.382 N 
ATOM     30  H52 UNL     1      20.710 -22.629  -9.990  1.00  0.00     0.157 HD
ATOM     31  H51 UNL     1      19.388 -23.703  -9.326  1.00  0.00     0.157 HD
ENDBRANCH  10  29
BRANCH   1  32
HETATM   32  N1  UNL     1      18.194 -19.208 -18.257  1.00  0.00    -0.380 N 
ATOM     33  H12 UNL     1      18.670 -19.425 -19.132  1.00  0.00     0.158 HD
ATOM     34  H11 UNL     1      17.634 -18.390 -18.497  1.00  0.00     0.158 HD
ENDBRANCH   1  32
TORSDOF 4
ENDMDL
MODEL 4
REMARK VINA RESULT: -7.389497749      3.771      7.869
REMARK  4 active torsions:
REMARK  status: ('A' for Active; 'I' for Inactive)
REMARK    1  A    between atoms: N1_1  and  C1_4 
REMARK    2  A    between atoms: C4_13  and  N5_14 
REMARK    3  A    between atoms: C5_17  and  N6_18 
REMARK    4  A    between atoms: N6_18  and  N7_20 
ROOT
HETATM    1  C1  UNL     1      18.653 -19.216 -17.914  1.00  0.00     0.145 A 
HETATM    2  N2  UNL     1      19.639 -19.861 -17.286  1.00  0.00    -0.320 N 
ATOM      3  H2  UNL     1      20.569 -19.919 -17.699  1.00  0.00     0.169 HD
HETATM    4  C2  UNL     1      19.386 -20.416 -16.127  1.00  0.00     0.160 A 
HETATM    5  N3  UNL     1      20.045 -21.142 -15.166  1.00  0.00    -0.172 N 
ATOM      6  H3  UNL     1      21.026 -21.414 -15.217  1.00  0.00     0.186 HD
HETATM    7  C3  UNL     1      19.222 -21.447 -14.149  1.00  0.00     0.709 A 
HETATM    8  N4  UNL     1      19.613 -22.168 -13.049  1.00  0.00    -0.171 N 
ATOM      9  H4  UNL     1      20.562 -22.540 -13.051  1.00  0.00     0.186 HD
HETATM   10  C4  UNL     1      18.846 -22.430 -11.959  1.00  0.00     0.162 C 
HETATM   11  C5  UNL     1      17.474 -22.370 -11.870  1.00  0.00     0.181 C 
HETATM   12  N8  UNL     1      16.602 -21.620 -12.599  1.00  0.00    -0.266 N 
ATOM     13  H8  UNL     1      15.645 -21.550 -12.254  1.00  0.00     0.190 HD
HETATM   14  N9  UNL     1      16.898 -20.964 -13.734  1.00  0.00    -0.219 N 
ATOM     15  H9  UNL     1      16.137 -20.408 -14.123  1.00  0.00     0.209 HD
HETATM   16  N10 UNL     1      18.020 -20.931 -14.421  1.00  0.00    -0.061 N 
HETATM   17  C11 UNL     1      18.120 -20.303 -15.626  1.00  0.00     0.165 A 
HETATM   18  S1  UNL     1      17.337 -19.396 -16.848  1.00  0.00    -0.030 SA
ENDROOT
BRANCH  11  19
HETATM   19  N6  UNL     1      16.935 -23.127 -10.976  1.00  0.00    -0.281 N 
ATOM     20  H6  UNL     1      17.360 -24.034 -10.784  1.00  0.00     0.188 HD
BRANCH  19  21
HETATM   21  N7  UNL     1      15.795 -22.757 -10.260  1.00  0.00    -0.300 N 
HETATM   22  C6  UNL     1      15.796 -22.773  -8.978  1.00  0.00     0.071 C 
HETATM   23  C7  UNL     1      14.676 -22.412  -8.083  1.00  0.00     0.063 C 
HETATM   24  C10 UNL     1      16.912 -23.155  -8.129  1.00  0.00     0.173 C 
HETATM   25  C8  UNL     1      14.877 -23.374  -6.918  1.00  0.00     0.014 C 
HETATM   26  C9  UNL     1      16.347 -23.634  -6.840  1.00  0.00     0.085 C 
HETATM   27  O1  UNL     1      18.135 -23.107  -8.391  1.00  0.00    -0.291 OA
ATOM     28  H7  UNL     1      14.954 -22.472 -10.762  1.00  0.00     0.186 HD
ENDBRANCH  19  21
ENDBRANCH  11  19
BRANCH  10  29
HETATM   29  N5  UNL     1      19.438 -22.776 -10.867  1.00  0.00    -0.382 N 
ATOM     30  H52 UNL     1      19.856 -23.706 -10.889  1.00  0.00     0.157 HD
ATOM     31  H51 UNL     1      19.442 -22.115 -10.090  1.00  0.00     0.157 HD
ENDBRANCH  10  29
BRANCH   1  32
HETATM   32  N1  UNL     1      18.721 -18.601 -19.077  1.00  0.00    -0.380 N 
ATOM     33  H12 UNL     1      17.977 -18.349 -19.728  1.00  0.00     0.158 HD
ATOM     34  H11 UNL     1      19.561 -18.258 -19.545  1.00  0.00     0.158 HD
ENDBRANCH   1  32
TORSDOF 4
ENDMDL
MODEL 5
REMARK VINA RESULT: -7.010003383      1.083      1.124
REMARK  4 active torsions:
REMARK  status: ('A' for Active; 'I' for Inactive)
REMARK    1  A    between atoms: N1_1  and  C1_4 
REMARK    2  A    between atoms: C4_13  and  N5_14 
REMARK    3  A    between atoms: C5_17  and  N6_18 
REMARK    4  A    between atoms: N6_18  and  N7_20 
ROOT
HETATM    1  C1  UNL     1      12.102 -17.138  -6.313  1.00  0.00     0.145 A 
HETATM    2  N2  UNL     1      12.867 -18.053  -5.715  1.00  0.00    -0.320 N 
ATOM      3  H2  UNL     1      13.017 -18.027  -4.706  1.00  0.00     0.169 HD
HETATM    4  C2  UNL     1      13.420 -18.986  -6.450  1.00  0.00     0.160 A 
HETATM    5  N3  UNL     1      14.238 -20.076  -6.289  1.00  0.00    -0.172 N 
ATOM      6  H3  UNL     1      14.615 -20.390  -5.394  1.00  0.00     0.186 HD
HETATM    7  C3  UNL     1      14.475 -20.675  -7.467  1.00  0.00     0.709 A 
HETATM    8  N4  UNL     1      15.261 -21.790  -7.605  1.00  0.00    -0.171 N 
ATOM      9  H4  UNL     1      15.736 -22.130  -6.769  1.00  0.00     0.186 HD
HETATM   10  C4  UNL     1      15.464 -22.481  -8.756  1.00  0.00     0.162 C 
HETATM   11  C5  UNL     1      15.255 -22.038 -10.043  1.00  0.00     0.181 C 
HETATM   12  N8  UNL     1      14.395 -21.081 -10.488  1.00  0.00    -0.266 N 
ATOM     13  H8  UNL     1      14.228 -21.033 -11.493  1.00  0.00     0.190 HD
HETATM   14  N9  UNL     1      13.748 -20.193  -9.714  1.00  0.00    -0.219 N 
ATOM     15  H9  UNL     1      13.101 -19.578 -10.208  1.00  0.00     0.209 HD
HETATM   16  N10 UNL     1      13.823 -19.996  -8.415  1.00  0.00    -0.061 N 
HETATM   17  C11 UNL     1      13.179 -18.966  -7.794  1.00  0.00     0.165 A 
HETATM   18  S1  UNL     1      12.162 -17.599  -7.951  1.00  0.00    -0.030 SA
ENDROOT
BRANCH  11  19
HETATM   19  N6  UNL     1      15.970 -22.603 -10.955  1.00  0.00    -0.281 N 
ATOM     20  H6  UNL     1      16.495 -23.443 -10.713  1.00  0.00     0.188 HD
BRANCH  19  21
HETATM   21  N7  UNL     1      16.055 -22.113 -12.260  1.00  0.00    -0.300 N 
HETATM   22  C6  UNL     1      17.196 -21.921 -12.812  1.00  0.00     0.071 C 
HETATM   23  C7  UNL     1      17.450 -21.411 -14.176  1.00  0.00     0.063 C 
HETATM   24  C10 UNL     1      18.493 -22.167 -12.202  1.00  0.00     0.173 C 
HETATM   25  C8  UNL     1      18.730 -20.608 -13.982  1.00  0.00     0.014 C 
HETATM   26  C9  UNL     1      19.474 -21.269 -12.867  1.00  0.00     0.085 C 
HETATM   27  O1  UNL     1      18.777 -22.972 -11.287  1.00  0.00    -0.291 OA
ATOM     28  H7  UNL     1      15.201 -21.906 -12.779  1.00  0.00     0.186 HD
ENDBRANCH  19  21
ENDBRANCH  11  19
BRANCH  10  29
HETATM   29  N5  UNL     1      15.900 -23.691  -8.673  1.00  0.00    -0.382 N 
ATOM     30  H52 UNL     1      16.649 -23.917  -9.327  1.00  0.00     0.157 HD
ATOM     31  H51 UNL     1      15.477 -24.310  -7.982  1.00  0.00     0.157 HD
ENDBRANCH  10  29
BRANCH   1  32
HETATM   32  N1  UNL     1      11.470 -16.133  -5.740  1.00  0.00    -0.380 N 
ATOM     33  H12 UNL     1      11.194 -16.004  -4.767  1.00  0.00     0.158 HD
ATOM     34  H11 UNL     1      11.135 -15.280  -6.189  1.00  0.00     0.158 HD
ENDBRANCH   1  32
TORSDOF 4
ENDMDL
