MODEL 1
REMARK VINA RESULT: -5.877108250      0.000      0.000
REMARK  3 active torsions:
REMARK  status: ('A' for Active; 'I' for Inactive)
REMARK    1  A    between atoms: C2_3  and  N2_4 
REMARK    2  A    between atoms: C5_14  and  C6_15 
REMARK    3  A    between atoms: N6_21  and  N7_22 
ROOT
HETATM    1  C1  UNL     1      10.378 -17.892  -8.187  1.00  0.00     0.179 C 
HETATM    2  N1  UNL     1      11.444 -18.774  -8.641  1.00  0.00    -0.150 N 
HETATM    3  C2  UNL     1      11.629 -18.920  -9.951  1.00  0.00     0.681 A 
HETATM    4  N3  UNL     1      12.607 -19.729 -10.381  1.00  0.00    -0.184 N 
ATOM      5  H3  UNL     1      12.765 -19.852 -11.381  1.00  0.00     0.184 HD
HETATM    6  C3  UNL     1      13.393 -20.388  -9.479  1.00  0.00     0.149 A 
HETATM    7  C4  UNL     1      14.398 -21.220  -9.916  1.00  0.00     0.277 A 
HETATM    8  O1  UNL     1      14.567 -21.352 -11.151  1.00  0.00    -0.266 OA
HETATM    9  N4  UNL     1      15.147 -21.850  -8.987  1.00  0.00    -0.304 N 
ATOM     10  H4  UNL     1      15.894 -22.468  -9.302  1.00  0.00     0.171 HD
HETATM   11  C5  UNL     1      14.955 -21.699  -7.672  1.00  0.00     0.156 A 
HETATM   12  N8  UNL     1      13.975 -20.887  -7.208  1.00  0.00    -0.333 N 
ATOM     13  H8  UNL     1      13.821 -20.764  -6.208  1.00  0.00     0.168 HD
HETATM   14  C8  UNL     1      13.215 -20.250  -8.114  1.00  0.00     0.136 A 
HETATM   15  C9  UNL     1      12.184 -19.396  -7.711  1.00  0.00     0.290 A 
HETATM   16  O2  UNL     1      11.996 -19.248  -6.490  1.00  0.00    -0.265 OA
ENDROOT
BRANCH  11  17
HETATM   17  C6  UNL     1      15.849 -22.448  -6.743  1.00  0.00     0.179 A 
HETATM   18  N5  UNL     1      17.023 -21.931  -6.370  1.00  0.00    -0.305 N 
HETATM   19  S1  UNL     1      17.668 -23.096  -5.349  1.00  0.00     0.019 SA
ATOM     20  H5  UNL     1      17.432 -21.037  -6.642  1.00  0.00     0.176 HD
HETATM   21  C7  UNL     1      16.399 -24.218  -5.436  1.00  0.00     0.181 A 
HETATM   22  S2  UNL     1      16.273 -25.687  -4.679  1.00  0.00    -0.049 SA
HETATM   23  N6  UNL     1      15.529 -23.629  -6.260  1.00  0.00    -0.223 N 
BRANCH  23  24
HETATM   24  N7  UNL     1      14.302 -24.313  -6.570  1.00  0.00    -0.335 N 
ATOM     25  H72 UNL     1      13.459 -24.064  -6.052  1.00  0.00     0.177 HD
ATOM     26  H71 UNL     1      14.222 -25.039  -7.282  1.00  0.00     0.177 HD
ENDBRANCH  23  24
ENDBRANCH  11  17
BRANCH   3  27
HETATM   27  N2  UNL     1      10.890 -18.299 -10.830  1.00  0.00    -0.234 N 
ATOM     28  H22 UNL     1       9.901 -18.538 -10.900  1.00  0.00     0.174 HD
ATOM     29  H21 UNL     1      11.270 -17.583 -11.449  1.00  0.00     0.174 HD
ENDBRANCH   3  27
TORSDOF 3
ENDMDL
MODEL 2
REMARK VINA RESULT: -5.769024795      1.754      2.230
REMARK  3 active torsions:
REMARK  status: ('A' for Active; 'I' for Inactive)
REMARK    1  A    between atoms: C2_3  and  N2_4 
REMARK    2  A    between atoms: C5_14  and  C6_15 
REMARK    3  A    between atoms: N6_21  and  N7_22 
ROOT
HETATM    1  C1  UNL     1      12.305 -18.796  -9.225  1.00  0.00     0.179 C 
HETATM    2  N1  UNL     1      13.260 -19.888  -9.348  1.00  0.00    -0.150 N 
HETATM    3  C2  UNL     1      13.842 -20.089 -10.528  1.00  0.00     0.681 A 
HETATM    4  N3  UNL     1      14.723 -21.091 -10.653  1.00  0.00    -0.184 N 
ATOM      5  H3  UNL     1      15.180 -21.260 -11.549  1.00  0.00     0.184 HD
HETATM    6  C3  UNL     1      15.009 -21.886  -9.580  1.00  0.00     0.149 A 
HETATM    7  C4  UNL     1      15.912 -22.917  -9.704  1.00  0.00     0.277 A 
HETATM    8  O1  UNL     1      16.457 -23.100 -10.818  1.00  0.00    -0.266 OA
HETATM    9  N4  UNL     1      16.162 -23.674  -8.616  1.00  0.00    -0.304 N 
ATOM     10  H4  UNL     1      16.830 -24.440  -8.699  1.00  0.00     0.171 HD
HETATM   11  C5  UNL     1      15.573 -23.467  -7.432  1.00  0.00     0.156 A 
HETATM   12  N8  UNL     1      14.679 -22.461  -7.276  1.00  0.00    -0.333 N 
ATOM     13  H8  UNL     1      14.225 -22.292  -6.379  1.00  0.00     0.168 HD
HETATM   14  C8  UNL     1      14.414 -21.693  -8.346  1.00  0.00     0.136 A 
HETATM   15  C9  UNL     1      13.502 -20.636  -8.261  1.00  0.00     0.290 A 
HETATM   16  O2  UNL     1      12.948 -20.433  -7.166  1.00  0.00    -0.265 OA
ENDROOT
BRANCH  11  17
HETATM   17  C6  UNL     1      15.931 -24.371  -6.303  1.00  0.00     0.179 A 
HETATM   18  N5  UNL     1      16.720 -23.940  -5.316  1.00  0.00    -0.305 N 
HETATM   19  S1  UNL     1      16.846 -25.266  -4.295  1.00  0.00     0.019 SA
ATOM     20  H5  UNL     1      17.146 -23.020  -5.207  1.00  0.00     0.176 HD
HETATM   21  C7  UNL     1      15.875 -26.340  -5.179  1.00  0.00     0.181 A 
HETATM   22  S2  UNL     1      15.490 -27.911  -4.819  1.00  0.00    -0.049 SA
HETATM   23  N6  UNL     1      15.496 -25.610  -6.231  1.00  0.00    -0.223 N 
BRANCH  23  24
HETATM   24  N7  UNL     1      14.641 -26.216  -7.217  1.00  0.00    -0.335 N 
ATOM     25  H72 UNL     1      14.934 -26.200  -8.194  1.00  0.00     0.177 HD
ATOM     26  H71 UNL     1      13.751 -26.663  -6.998  1.00  0.00     0.177 HD
ENDBRANCH  23  24
ENDBRANCH  11  17
BRANCH   3  27
HETATM   27  N2  UNL     1      13.583 -19.341 -11.566  1.00  0.00    -0.234 N 
ATOM     28  H22 UNL     1      13.734 -18.335 -11.500  1.00  0.00     0.174 HD
ATOM     29  H21 UNL     1      13.234 -19.731 -12.442  1.00  0.00     0.174 HD
ENDBRANCH   3  27
TORSDOF 3
ENDMDL
MODEL 3
REMARK VINA RESULT: -5.637357626      1.374      1.910
REMARK  3 active torsions:
REMARK  status: ('A' for Active; 'I' for Inactive)
REMARK    1  A    between atoms: C2_3  and  N2_4 
REMARK    2  A    between atoms: C5_14  and  C6_15 
REMARK    3  A    between atoms: N6_21  and  N7_22 
ROOT
HETATM    1  C1  UNL     1      11.933 -17.973  -8.863  1.00  0.00     0.179 C 
HETATM    2  N1  UNL     1      12.824 -19.074  -9.201  1.00  0.00    -0.150 N 
HETATM    3  C2  UNL     1      13.328 -19.125 -10.431  1.00  0.00     0.681 A 
HETATM    4  N3  UNL     1      14.150 -20.134 -10.753  1.00  0.00    -0.184 N 
ATOM      5  H3  UNL     1      14.546 -20.189 -11.691  1.00  0.00     0.184 HD
HETATM    6  C3  UNL     1      14.456 -21.087  -9.825  1.00  0.00     0.149 A 
HETATM    7  C4  UNL     1      15.299 -22.125 -10.150  1.00  0.00     0.277 A 
HETATM    8  O1  UNL     1      15.770 -22.167 -11.311  1.00  0.00    -0.266 OA
HETATM    9  N4  UNL     1      15.572 -23.042  -9.199  1.00  0.00    -0.304 N 
ATOM     10  H4  UNL     1      16.195 -23.814  -9.432  1.00  0.00     0.171 HD
HETATM   11  C5  UNL     1      15.061 -22.984  -7.963  1.00  0.00     0.156 A 
HETATM   12  N8  UNL     1      14.229 -21.976  -7.610  1.00  0.00    -0.333 N 
ATOM     13  H8  UNL     1      13.835 -21.922  -6.671  1.00  0.00     0.168 HD
HETATM   14  C8  UNL     1      13.941 -21.051  -8.541  1.00  0.00     0.136 A 
HETATM   15  C9  UNL     1      13.090 -19.981  -8.248  1.00  0.00     0.290 A 
HETATM   16  O2  UNL     1      12.608 -19.917  -7.103  1.00  0.00    -0.265 OA
ENDROOT
BRANCH  11  17
HETATM   17  C6  UNL     1      15.437 -24.057  -6.999  1.00  0.00     0.179 A 
HETATM   18  N5  UNL     1      15.015 -25.311  -7.184  1.00  0.00    -0.305 N 
HETATM   19  S1  UNL     1      15.667 -26.149  -5.886  1.00  0.00     0.019 SA
ATOM     20  H5  UNL     1      14.432 -25.674  -7.938  1.00  0.00     0.176 HD
HETATM   21  C7  UNL     1      16.467 -24.851  -5.142  1.00  0.00     0.181 A 
HETATM   22  S2  UNL     1      17.375 -24.863  -3.756  1.00  0.00    -0.049 SA
HETATM   23  N6  UNL     1      16.187 -23.822  -5.944  1.00  0.00    -0.223 N 
BRANCH  23  24
HETATM   24  N7  UNL     1      16.715 -22.526  -5.613  1.00  0.00    -0.335 N 
ATOM     25  H72 UNL     1      16.263 -21.699  -6.004  1.00  0.00     0.177 HD
ATOM     26  H71 UNL     1      17.522 -22.381  -5.006  1.00  0.00     0.177 HD
ENDBRANCH  23  24
ENDBRANCH  11  17
BRANCH   3  27
HETATM   27  N2  UNL     1      13.048 -18.225 -11.334  1.00  0.00    -0.234 N 
ATOM     28  H22 UNL     1      12.554 -17.379 -11.051  1.00  0.00     0.174 HD
ATOM     29  H21 UNL     1      13.307 -18.341 -12.314  1.00  0.00     0.174 HD
ENDBRANCH   3  27
TORSDOF 3
ENDMDL
MODEL 4
REMARK VINA RESULT: -5.438391271      3.769      5.783
REMARK  3 active torsions:
REMARK  status: ('A' for Active; 'I' for Inactive)
REMARK    1  A    between atoms: C2_3  and  N2_4 
REMARK    2  A    between atoms: C5_14  and  C6_15 
REMARK    3  A    between atoms: N6_21  and  N7_22 
ROOT
HETATM    1  C1  UNL     1      20.320 -22.151 -13.462  1.00  0.00     0.179 C 
HETATM    2  N1  UNL     1      19.057 -22.160 -12.737  1.00  0.00    -0.150 N 
HETATM    3  C2  UNL     1      18.002 -21.572 -13.297  1.00  0.00     0.681 A 
HETATM    4  N3  UNL     1      16.835 -21.575 -12.639  1.00  0.00    -0.184 N 
ATOM      5  H3  UNL     1      16.016 -21.131 -13.052  1.00  0.00     0.184 HD
HETATM    6  C3  UNL     1      16.743 -22.171 -11.414  1.00  0.00     0.149 A 
HETATM    7  C4  UNL     1      15.547 -22.176 -10.734  1.00  0.00     0.277 A 
HETATM    8  O1  UNL     1      14.557 -21.621 -11.268  1.00  0.00    -0.266 OA
HETATM    9  N4  UNL     1      15.506 -22.779  -9.528  1.00  0.00    -0.304 N 
ATOM     10  H4  UNL     1      14.623 -22.786  -9.017  1.00  0.00     0.171 HD
HETATM   11  C5  UNL     1      16.571 -23.367  -8.971  1.00  0.00     0.156 A 
HETATM   12  N8  UNL     1      17.763 -23.381  -9.613  1.00  0.00    -0.333 N 
ATOM     13  H8  UNL     1      18.581 -23.827  -9.198  1.00  0.00     0.168 HD
HETATM   14  C8  UNL     1      17.829 -22.786 -10.816  1.00  0.00     0.136 A 
HETATM   15  C9  UNL     1      19.026 -22.761 -11.538  1.00  0.00     0.290 A 
HETATM   16  O2  UNL     1      20.023 -23.305 -11.030  1.00  0.00    -0.265 OA
ENDROOT
BRANCH  11  17
HETATM   17  C6  UNL     1      16.401 -24.000  -7.632  1.00  0.00     0.179 A 
HETATM   18  N5  UNL     1      15.772 -25.173  -7.514  1.00  0.00    -0.305 N 
HETATM   19  S1  UNL     1      15.818 -25.488  -5.867  1.00  0.00     0.019 SA
ATOM     20  H5  UNL     1      15.361 -25.744  -8.252  1.00  0.00     0.176 HD
HETATM   21  C7  UNL     1      16.648 -24.091  -5.380  1.00  0.00     0.181 A 
HETATM   22  S2  UNL     1      17.096 -23.644  -3.849  1.00  0.00    -0.049 SA
HETATM   23  N6  UNL     1      16.852 -23.443  -6.529  1.00  0.00    -0.223 N 
BRANCH  23  24
HETATM   24  N7  UNL     1      17.547 -22.184  -6.497  1.00  0.00    -0.335 N 
ATOM     25  H72 UNL     1      17.165 -21.402  -7.028  1.00  0.00     0.177 HD
ATOM     26  H71 UNL     1      18.406 -22.024  -5.970  1.00  0.00     0.177 HD
ENDBRANCH  23  24
ENDBRANCH  11  17
BRANCH   3  27
HETATM   27  N2  UNL     1      18.068 -20.996 -14.466  1.00  0.00    -0.234 N 
ATOM     28  H22 UNL     1      18.865 -21.195 -15.071  1.00  0.00     0.174 HD
ATOM     29  H21 UNL     1      17.349 -20.351 -14.794  1.00  0.00     0.174 HD
ENDBRANCH   3  27
TORSDOF 3
ENDMDL
MODEL 5
REMARK VINA RESULT: -5.398817087      7.528      9.844
REMARK  3 active torsions:
REMARK  status: ('A' for Active; 'I' for Inactive)
REMARK    1  A    between atoms: C2_3  and  N2_4 
REMARK    2  A    between atoms: C5_14  and  C6_15 
REMARK    3  A    between atoms: N6_21  and  N7_22 
ROOT
HETATM    1  C1  UNL     1      16.632 -23.391  -9.889  1.00  0.00     0.179 C 
HETATM    2  N1  UNL     1      17.676 -22.958 -10.807  1.00  0.00    -0.150 N 
HETATM    3  C2  UNL     1      18.943 -23.045 -10.410  1.00  0.00     0.681 A 
HETATM    4  N3  UNL     1      19.912 -22.650 -11.247  1.00  0.00    -0.184 N 
ATOM      5  H3  UNL     1      20.889 -22.711 -10.961  1.00  0.00     0.184 HD
HETATM    6  C3  UNL     1      19.591 -22.165 -12.482  1.00  0.00     0.149 A 
HETATM    7  C4  UNL     1      20.583 -21.758 -13.345  1.00  0.00     0.277 A 
HETATM    8  O1  UNL     1      21.775 -21.844 -12.964  1.00  0.00    -0.266 OA
HETATM    9  N4  UNL     1      20.216 -21.287 -14.555  1.00  0.00    -0.304 N 
ATOM     10  H4  UNL     1      20.945 -20.983 -15.200  1.00  0.00     0.171 HD
HETATM   11  C5  UNL     1      18.940 -21.201 -14.947  1.00  0.00     0.156 A 
HETATM   12  N8  UNL     1      17.939 -21.595 -14.123  1.00  0.00    -0.333 N 
ATOM     13  H8  UNL     1      16.963 -21.535 -14.412  1.00  0.00     0.168 HD
HETATM   14  C8  UNL     1      18.280 -22.067 -12.912  1.00  0.00     0.136 A 
HETATM   15  C9  UNL     1      17.302 -22.491 -12.008  1.00  0.00     0.290 A 
HETATM   16  O2  UNL     1      16.111 -22.416 -12.361  1.00  0.00    -0.265 OA
ENDROOT
BRANCH  11  17
HETATM   17  C6  UNL     1      18.660 -20.664 -16.309  1.00  0.00     0.179 A 
HETATM   18  N5  UNL     1      17.843 -21.318 -17.139  1.00  0.00    -0.305 N 
HETATM   19  S1  UNL     1      17.829 -20.365 -18.520  1.00  0.00     0.019 SA
ATOM     20  H5  UNL     1      17.345 -22.192 -16.973  1.00  0.00     0.176 HD
HETATM   21  C7  UNL     1      18.882 -19.149 -17.982  1.00  0.00     0.181 A 
HETATM   22  S2  UNL     1      19.394 -17.799 -18.795  1.00  0.00    -0.049 SA
HETATM   23  N6  UNL     1      19.196 -19.545 -16.746  1.00  0.00    -0.223 N 
BRANCH  23  24
HETATM   24  N7  UNL     1      20.093 -18.732 -15.969  1.00  0.00    -0.335 N 
ATOM     25  H72 UNL     1      21.097 -18.845 -16.106  1.00  0.00     0.177 HD
ATOM     26  H71 UNL     1      19.784 -18.044 -15.282  1.00  0.00     0.177 HD
ENDBRANCH  23  24
ENDBRANCH  11  17
BRANCH   3  27
HETATM   27  N2  UNL     1      19.272 -23.505  -9.233  1.00  0.00    -0.234 N 
ATOM     28  H22 UNL     1      18.739 -23.202  -8.418  1.00  0.00     0.174 HD
ATOM     29  H21 UNL     1      20.046 -24.157  -9.102  1.00  0.00     0.174 HD
ENDBRANCH   3  27
TORSDOF 3
ENDMDL
