MODEL 1
REMARK VINA RESULT: -6.760591586      0.000      0.000
REMARK  4 active torsions:
REMARK  status: ('A' for Active; 'I' for Inactive)
REMARK    1  A    between atoms: C3_5  and  C4_6 
REMARK    2  A    between atoms: C4_6  and  C5_7 
REMARK    3  A    between atoms: C10_18  and  N5_19 
REMARK    4  A    between atoms: N5_19  and  C11_21 
ROOT
HETATM    1  C1  UNL     1      34.416 -30.894 -19.438  1.00  0.00     0.045 C 
HETATM    2  C2  UNL     1      34.298 -31.131 -18.133  1.00  0.00     0.051 A 
HETATM    3  N1  UNL     1      35.004 -30.539 -17.154  1.00  0.00    -0.354 N 
ATOM      4  H1  UNL     1      35.721 -29.830 -17.305  1.00  0.00     0.166 HD
HETATM    5  C3  UNL     1      34.636 -31.009 -15.952  1.00  0.00     0.044 A 
HETATM    6  C8  UNL     1      33.657 -31.936 -16.196  1.00  0.00    -0.006 A 
HETATM    7  C9  UNL     1      32.902 -32.762 -15.201  1.00  0.00     0.053 C 
HETATM    8  C10 UNL     1      33.417 -32.042 -17.553  1.00  0.00     0.083 A 
ENDROOT
BRANCH   5   9
HETATM    9  C4  UNL     1      35.105 -30.666 -14.756  1.00  0.00     0.080 C 
BRANCH   9  10
HETATM   10  C5  UNL     1      36.110 -31.484 -14.086  1.00  0.00     0.123 A 
HETATM   11  N2  UNL     1      36.753 -32.535 -14.624  1.00  0.00    -0.330 N 
HETATM   12  C6  UNL     1      37.617 -33.064 -13.730  1.00  0.00     0.093 A 
ATOM     13  H2  UNL     1      36.610 -32.883 -15.572  1.00  0.00     0.168 HD
HETATM   14  C7  UNL     1      38.509 -34.233 -13.949  1.00  0.00     0.090 C 
HETATM   15  N3  UNL     1      37.500 -32.321 -12.620  1.00  0.00    -0.288 N 
HETATM   16  N4  UNL     1      36.589 -31.366 -12.835  1.00  0.00    -0.284 N 
ATOM     17  H3  UNL     1      38.021 -32.461 -11.755  1.00  0.00     0.188 HD
ATOM     18  H4  UNL     1      36.302 -30.659 -12.157  1.00  0.00     0.188 HD
ENDBRANCH   9  10
ENDBRANCH   5   9
BRANCH   8  19
HETATM   19  N5  UNL     1      32.525 -32.839 -18.277  1.00  0.00    -0.188 N 
ATOM     20  H5  UNL     1      31.674 -32.384 -18.609  1.00  0.00     0.184 HD
BRANCH  19  21
HETATM   21  C11 UNL     1      32.657 -34.062 -18.564  1.00  0.00     0.698 A 
HETATM   22  N6  UNL     1      33.620 -34.909 -18.180  1.00  0.00    -0.185 N 
HETATM   23  C12 UNL     1      33.385 -36.136 -18.715  1.00  0.00     0.215 A 
ATOM     24  H6  UNL     1      34.409 -34.671 -17.578  1.00  0.00     0.185 HD
HETATM   25  N7  UNL     1      32.263 -36.032 -19.435  1.00  0.00    -0.281 N 
HETATM   26  N8  UNL     1      31.828 -34.777 -19.341  1.00  0.00    -0.131 N 
ATOM     27  H7  UNL     1      31.819 -36.782 -19.964  1.00  0.00     0.188 HD
ATOM     28  H8  UNL     1      30.989 -34.413 -19.792  1.00  0.00     0.205 HD
ENDBRANCH  19  21
ENDBRANCH   8  19
TORSDOF 4
ENDMDL
MODEL 2
REMARK VINA RESULT: -6.668442690      1.456      1.869
REMARK  4 active torsions:
REMARK  status: ('A' for Active; 'I' for Inactive)
REMARK    1  A    between atoms: C3_5  and  C4_6 
REMARK    2  A    between atoms: C4_6  and  C5_7 
REMARK    3  A    between atoms: C10_18  and  N5_19 
REMARK    4  A    between atoms: N5_19  and  C11_21 
ROOT
HETATM    1  C1  UNL     1      34.949 -30.550 -19.175  1.00  0.00     0.045 C 
HETATM    2  C2  UNL     1      34.732 -30.909 -17.910  1.00  0.00     0.051 A 
HETATM    3  N1  UNL     1      35.219 -30.297 -16.819  1.00  0.00    -0.354 N 
ATOM      4  H1  UNL     1      35.822 -29.473 -16.837  1.00  0.00     0.166 HD
HETATM    5  C3  UNL     1      34.806 -30.915 -15.702  1.00  0.00     0.044 A 
HETATM    6  C8  UNL     1      34.026 -31.961 -16.120  1.00  0.00    -0.006 A 
HETATM    7  C9  UNL     1      33.315 -32.974 -15.277  1.00  0.00     0.053 C 
HETATM    8  C10 UNL     1      33.955 -31.991 -17.500  1.00  0.00     0.083 A 
ENDROOT
BRANCH   5   9
HETATM    9  C4  UNL     1      35.080 -30.602 -14.438  1.00  0.00     0.080 C 
BRANCH   9  10
HETATM   10  C5  UNL     1      36.158 -31.273 -13.721  1.00  0.00     0.123 A 
HETATM   11  N2  UNL     1      36.774 -32.404 -14.105  1.00  0.00    -0.330 N 
HETATM   12  C6  UNL     1      37.725 -32.749 -13.211  1.00  0.00     0.093 A 
ATOM     13  H2  UNL     1      36.554 -32.928 -14.953  1.00  0.00     0.168 HD
HETATM   14  C7  UNL     1      38.619 -33.934 -13.285  1.00  0.00     0.090 C 
HETATM   15  N3  UNL     1      37.692 -31.807 -12.257  1.00  0.00    -0.288 N 
HETATM   16  N4  UNL     1      36.744 -30.915 -12.564  1.00  0.00    -0.284 N 
ATOM     17  H3  UNL     1      38.291 -31.777 -11.432  1.00  0.00     0.188 HD
ATOM     18  H4  UNL     1      36.505 -30.093 -12.009  1.00  0.00     0.188 HD
ENDBRANCH   9  10
ENDBRANCH   5   9
BRANCH   8  19
HETATM   19  N5  UNL     1      33.291 -32.857 -18.374  1.00  0.00    -0.188 N 
ATOM     20  H5  UNL     1      33.752 -33.744 -18.574  1.00  0.00     0.184 HD
BRANCH  19  21
HETATM   21  C11 UNL     1      32.181 -32.660 -18.945  1.00  0.00     0.698 A 
HETATM   22  N6  UNL     1      31.950 -32.213 -20.186  1.00  0.00    -0.185 N 
HETATM   23  C12 UNL     1      30.610 -32.146 -20.402  1.00  0.00     0.215 A 
ATOM     24  H6  UNL     1      32.669 -31.961 -20.865  1.00  0.00     0.185 HD
HETATM   25  N7  UNL     1      30.019 -32.557 -19.274  1.00  0.00    -0.281 N 
HETATM   26  N8  UNL     1      30.973 -32.866 -18.399  1.00  0.00    -0.131 N 
ATOM     27  H7  UNL     1      29.014 -32.623 -19.114  1.00  0.00     0.188 HD
ATOM     28  H8  UNL     1      30.809 -33.208 -17.452  1.00  0.00     0.205 HD
ENDBRANCH  19  21
ENDBRANCH   8  19
TORSDOF 4
ENDMDL
MODEL 3
REMARK VINA RESULT: -6.656683181      2.226      2.954
REMARK  4 active torsions:
REMARK  status: ('A' for Active; 'I' for Inactive)
REMARK    1  A    between atoms: C3_5  and  C4_6 
REMARK    2  A    between atoms: C4_6  and  C5_7 
REMARK    3  A    between atoms: C10_18  and  N5_19 
REMARK    4  A    between atoms: N5_19  and  C11_21 
ROOT
HETATM    1  C1  UNL     1      34.208 -30.645 -20.198  1.00  0.00     0.045 C 
HETATM    2  C2  UNL     1      33.951 -31.140 -18.988  1.00  0.00     0.051 A 
HETATM    3  N1  UNL     1      34.653 -30.898 -17.868  1.00  0.00    -0.354 N 
ATOM      4  H1  UNL     1      35.476 -30.297 -17.819  1.00  0.00     0.166 HD
HETATM    5  C3  UNL     1      34.124 -31.555 -16.824  1.00  0.00     0.044 A 
HETATM    6  C8  UNL     1      33.044 -32.237 -17.320  1.00  0.00    -0.006 A 
HETATM    7  C9  UNL     1      32.098 -33.129 -16.576  1.00  0.00     0.053 C 
HETATM    8  C10 UNL     1      32.903 -32.002 -18.674  1.00  0.00     0.083 A 
ENDROOT
BRANCH   5   9
HETATM    9  C4  UNL     1      34.539 -31.562 -15.561  1.00  0.00     0.080 C 
BRANCH   9  10
HETATM   10  C5  UNL     1      35.496 -32.560 -15.095  1.00  0.00     0.123 A 
HETATM   11  N2  UNL     1      36.592 -32.314 -14.358  1.00  0.00    -0.330 N 
HETATM   12  C6  UNL     1      37.254 -33.463 -14.103  1.00  0.00     0.093 A 
ATOM     13  H2  UNL     1      36.883 -31.390 -14.036  1.00  0.00     0.168 HD
HETATM   14  C7  UNL     1      38.510 -33.604 -13.319  1.00  0.00     0.090 C 
HETATM   15  N3  UNL     1      36.548 -34.435 -14.698  1.00  0.00    -0.288 N 
HETATM   16  N4  UNL     1      35.484 -33.889 -15.299  1.00  0.00    -0.284 N 
ATOM     17  H3  UNL     1      36.782 -35.427 -14.692  1.00  0.00     0.188 HD
ATOM     18  H4  UNL     1      34.777 -34.401 -15.827  1.00  0.00     0.188 HD
ENDBRANCH   9  10
ENDBRANCH   5   9
BRANCH   8  19
HETATM   19  N5  UNL     1      31.965 -32.469 -19.602  1.00  0.00    -0.188 N 
ATOM     20  H5  UNL     1      32.231 -33.293 -20.141  1.00  0.00     0.184 HD
BRANCH  19  21
HETATM   21  C11 UNL     1      30.826 -31.982 -19.845  1.00  0.00     0.698 A 
HETATM   22  N6  UNL     1      30.502 -31.009 -20.708  1.00  0.00    -0.185 N 
HETATM   23  C12 UNL     1      29.162 -30.787 -20.658  1.00  0.00     0.215 A 
ATOM     24  H6  UNL     1      31.160 -30.512 -21.309  1.00  0.00     0.185 HD
HETATM   25  N7  UNL     1      28.666 -31.636 -19.752  1.00  0.00    -0.281 N 
HETATM   26  N8  UNL     1      29.675 -32.354 -19.264  1.00  0.00    -0.131 N 
ATOM     27  H7  UNL     1      27.686 -31.719 -19.482  1.00  0.00     0.188 HD
ATOM     28  H8  UNL     1      29.587 -33.081 -18.554  1.00  0.00     0.205 HD
ENDBRANCH  19  21
ENDBRANCH   8  19
TORSDOF 4
ENDMDL
MODEL 4
REMARK VINA RESULT: -6.637616628      1.680      2.698
REMARK  4 active torsions:
REMARK  status: ('A' for Active; 'I' for Inactive)
REMARK    1  A    between atoms: C3_5  and  C4_6 
REMARK    2  A    between atoms: C4_6  and  C5_7 
REMARK    3  A    between atoms: C10_18  and  N5_19 
REMARK    4  A    between atoms: N5_19  and  C11_21 
ROOT
HETATM    1  C1  UNL     1      32.521 -34.502 -15.977  1.00  0.00     0.045 C 
HETATM    2  C2  UNL     1      33.240 -33.384 -16.068  1.00  0.00     0.051 A 
HETATM    3  N1  UNL     1      33.827 -32.736 -15.048  1.00  0.00    -0.354 N 
ATOM      4  H1  UNL     1      33.786 -33.032 -14.073  1.00  0.00     0.166 HD
HETATM    5  C3  UNL     1      34.473 -31.645 -15.488  1.00  0.00     0.044 A 
HETATM    6  C8  UNL     1      34.277 -31.615 -16.844  1.00  0.00    -0.006 A 
HETATM    7  C9  UNL     1      34.784 -30.604 -17.825  1.00  0.00     0.053 C 
HETATM    8  C10 UNL     1      33.507 -32.690 -17.246  1.00  0.00     0.083 A 
ENDROOT
BRANCH   5   9
HETATM    9  C4  UNL     1      35.167 -30.758 -14.780  1.00  0.00     0.080 C 
BRANCH   9  10
HETATM   10  C5  UNL     1      36.190 -31.194 -13.836  1.00  0.00     0.123 A 
HETATM   11  N2  UNL     1      36.909 -32.327 -13.923  1.00  0.00    -0.330 N 
HETATM   12  C6  UNL     1      37.767 -32.420 -12.884  1.00  0.00     0.093 A 
ATOM     13  H2  UNL     1      36.819 -33.017 -14.669  1.00  0.00     0.168 HD
HETATM   14  C7  UNL     1      38.729 -33.524 -12.629  1.00  0.00     0.090 C 
HETATM   15  N3  UNL     1      37.569 -31.320 -12.144  1.00  0.00    -0.288 N 
HETATM   16  N4  UNL     1      36.615 -30.578 -12.718  1.00  0.00    -0.284 N 
ATOM     17  H3  UNL     1      38.065 -31.087 -11.284  1.00  0.00     0.188 HD
ATOM     18  H4  UNL     1      36.266 -29.687 -12.365  1.00  0.00     0.188 HD
ENDBRANCH   9  10
ENDBRANCH   5   9
BRANCH   8  19
HETATM   19  N5  UNL     1      33.050 -33.081 -18.509  1.00  0.00    -0.188 N 
ATOM     20  H5  UNL     1      33.621 -33.765 -19.007  1.00  0.00     0.184 HD
BRANCH  19  21
HETATM   21  C11 UNL     1      32.009 -32.680 -19.100  1.00  0.00     0.698 A 
HETATM   22  N6  UNL     1      31.895 -31.721 -20.028  1.00  0.00    -0.185 N 
HETATM   23  C12 UNL     1      30.593 -31.606 -20.403  1.00  0.00     0.215 A 
ATOM     24  H6  UNL     1      32.665 -31.163 -20.397  1.00  0.00     0.185 HD
HETATM   25  N7  UNL     1      29.908 -32.508 -19.691  1.00  0.00    -0.281 N 
HETATM   26  N8  UNL     1      30.768 -33.153 -18.907  1.00  0.00    -0.131 N 
ATOM     27  H7  UNL     1      28.903 -32.672 -19.742  1.00  0.00     0.188 HD
ATOM     28  H8  UNL     1      30.521 -33.897 -18.254  1.00  0.00     0.205 HD
ENDBRANCH  19  21
ENDBRANCH   8  19
TORSDOF 4
ENDMDL
MODEL 5
REMARK VINA RESULT: -6.566703327      1.353      1.737
REMARK  4 active torsions:
REMARK  status: ('A' for Active; 'I' for Inactive)
REMARK    1  A    between atoms: C3_5  and  C4_6 
REMARK    2  A    between atoms: C4_6  and  C5_7 
REMARK    3  A    between atoms: C10_18  and  N5_19 
REMARK    4  A    between atoms: N5_19  and  C11_21 
ROOT
HETATM    1  C1  UNL     1      33.836 -30.889 -20.216  1.00  0.00     0.045 C 
HETATM    2  C2  UNL     1      33.688 -31.303 -18.958  1.00  0.00     0.051 A 
HETATM    3  N1  UNL     1      34.502 -31.016 -17.929  1.00  0.00    -0.354 N 
ATOM      4  H1  UNL     1      35.340 -30.438 -17.998  1.00  0.00     0.166 HD
HETATM    5  C3  UNL     1      34.063 -31.592 -16.800  1.00  0.00     0.044 A 
HETATM    6  C8  UNL     1      32.922 -32.269 -17.145  1.00  0.00    -0.006 A 
HETATM    7  C9  UNL     1      32.034 -33.086 -16.259  1.00  0.00     0.053 C 
HETATM    8  C10 UNL     1      32.655 -32.113 -18.491  1.00  0.00     0.083 A 
ENDROOT
BRANCH   5   9
HETATM    9  C4  UNL     1      34.600 -31.536 -15.584  1.00  0.00     0.080 C 
BRANCH   9  10
HETATM   10  C5  UNL     1      35.536 -32.560 -15.134  1.00  0.00     0.123 A 
HETATM   11  N2  UNL     1      36.656 -32.344 -14.423  1.00  0.00    -0.330 N 
HETATM   12  C6  UNL     1      37.288 -33.512 -14.175  1.00  0.00     0.093 A 
ATOM     13  H2  UNL     1      36.982 -31.429 -14.113  1.00  0.00     0.168 HD
HETATM   14  C7  UNL     1      38.555 -33.687 -13.419  1.00  0.00     0.090 C 
HETATM   15  N3  UNL     1      36.538 -34.465 -14.748  1.00  0.00    -0.288 N 
HETATM   16  N4  UNL     1      35.479 -33.890 -15.329  1.00  0.00    -0.284 N 
ATOM     17  H3  UNL     1      36.742 -35.464 -14.742  1.00  0.00     0.188 HD
ATOM     18  H4  UNL     1      34.744 -34.382 -15.838  1.00  0.00     0.188 HD
ENDBRANCH   9  10
ENDBRANCH   5   9
BRANCH   8  19
HETATM   19  N5  UNL     1      31.620 -32.605 -19.293  1.00  0.00    -0.188 N 
ATOM     20  H5  UNL     1      30.901 -31.936 -19.570  1.00  0.00     0.184 HD
BRANCH  19  21
HETATM   21  C11 UNL     1      31.477 -33.788 -19.711  1.00  0.00     0.698 A 
HETATM   22  N6  UNL     1      32.417 -34.723 -19.904  1.00  0.00    -0.185 N 
HETATM   23  C12 UNL     1      31.836 -35.862 -20.365  1.00  0.00     0.215 A 
ATOM     24  H6  UNL     1      33.415 -34.599 -19.732  1.00  0.00     0.185 HD
HETATM   25  N7  UNL     1      30.524 -35.614 -20.454  1.00  0.00    -0.281 N 
HETATM   26  N8  UNL     1      30.314 -34.361 -20.058  1.00  0.00    -0.131 N 
ATOM     27  H7  UNL     1      29.811 -36.271 -20.769  1.00  0.00     0.188 HD
ATOM     28  H8  UNL     1      29.403 -33.903 -20.024  1.00  0.00     0.205 HD
ENDBRANCH  19  21
ENDBRANCH   8  19
TORSDOF 4
ENDMDL
