MODEL 1
REMARK VINA RESULT: -5.697272949      0.000      0.000
REMARK  6 active torsions:
REMARK  status: ('A' for Active; 'I' for Inactive)
REMARK    1  A    between atoms: N1_2  and  C2_4 
REMARK    2  A    between atoms: C3_7  and  N3_8 
REMARK    3  A    between atoms: N3_8  and  C4_10 
REMARK    4  A    between atoms: C4_10  and  C5_11 
REMARK    5  A    between atoms: C5_11  and  N4_12 
REMARK    6  A    between atoms: C11_25  and  N7_26 
ROOT
HETATM    1  C2  UNL     1      34.511 -32.919 -15.618  1.00  0.00     0.133 A 
HETATM    2  N2  UNL     1      35.139 -32.406 -14.544  1.00  0.00    -0.176 N 
ATOM      3  H2  UNL     1      35.201 -32.966 -13.694  1.00  0.00     0.186 HD
HETATM    4  C3  UNL     1      35.687 -31.178 -14.556  1.00  0.00     0.681 A 
HETATM    5  N5  UNL     1      35.592 -30.460 -15.686  1.00  0.00    -0.176 N 
ATOM      6  H5  UNL     1      36.002 -29.527 -15.711  1.00  0.00     0.186 HD
HETATM    7  C6  UNL     1      34.970 -30.933 -16.799  1.00  0.00     0.137 A 
HETATM    8  N6  UNL     1      34.894 -30.181 -17.922  1.00  0.00    -0.344 N 
ATOM      9  H6  UNL     1      35.309 -29.250 -17.933  1.00  0.00     0.167 HD
HETATM   10  C7  UNL     1      34.278 -30.647 -19.021  1.00  0.00     0.015 A 
HETATM   11  C8  UNL     1      34.227 -29.782 -20.217  1.00  0.00     0.069 C 
HETATM   12  C9  UNL     1      33.705 -31.928 -19.013  1.00  0.00    -0.012 A 
HETATM   13  C10 UNL     1      33.056 -32.394 -20.204  1.00  0.00     0.052 C 
HETATM   14  C11 UNL     1      33.759 -32.722 -17.898  1.00  0.00     0.053 A 
HETATM   15  C13 UNL     1      34.408 -32.190 -16.786  1.00  0.00     0.080 A 
ENDROOT
BRANCH   4  16
HETATM   16  N3  UNL     1      36.283 -30.726 -13.489  1.00  0.00    -0.224 N 
ATOM     17  H3  UNL     1      36.712 -29.801 -13.501  1.00  0.00     0.177 HD
BRANCH  16  18
HETATM   18  C4  UNL     1      36.342 -31.526 -12.288  1.00  0.00     0.165 C 
BRANCH  18  19
HETATM   19  C5  UNL     1      37.783 -31.441 -11.781  1.00  0.00     0.249 C 
BRANCH  19  20
HETATM   20  N4  UNL     1      38.531 -32.432 -12.531  1.00  0.00    -0.078 N 
ATOM     21  H43 UNL     1      39.075 -33.063 -11.942  1.00  0.00     0.274 HD
ATOM     22  H42 UNL     1      37.943 -33.143 -12.964  1.00  0.00     0.274 HD
ATOM     23  H41 UNL     1      39.098 -31.910 -13.200  1.00  0.00     0.274 HD
ENDBRANCH  19  20
ENDBRANCH  18  19
ENDBRANCH  16  18
ENDBRANCH   4  16
BRANCH   1  24
HETATM   24  N1  UNL     1      33.996 -34.079 -15.600  1.00  0.00    -0.379 N 
HETATM   25  C1  UNL     1      32.909 -34.518 -14.781  1.00  0.00     0.147 C 
ATOM     26  H1  UNL     1      34.398 -34.768 -16.236  1.00  0.00     0.160 HD
ENDBRANCH   1  24
BRANCH  14  27
HETATM   27  N7  UNL     1      33.279 -33.838 -17.842  1.00  0.00    -0.393 N 
HETATM   28  C12 UNL     1      33.197 -35.077 -18.425  1.00  0.00     0.146 C 
ATOM     29  H7  UNL     1      32.686 -33.862 -17.012  1.00  0.00     0.159 HD
ENDBRANCH  14  27
TORSDOF 6
ENDMDL
MODEL 2
REMARK VINA RESULT: -5.501130225      1.199      1.474
REMARK  6 active torsions:
REMARK  status: ('A' for Active; 'I' for Inactive)
REMARK    1  A    between atoms: N1_2  and  C2_4 
REMARK    2  A    between atoms: C3_7  and  N3_8 
REMARK    3  A    between atoms: N3_8  and  C4_10 
REMARK    4  A    between atoms: C4_10  and  C5_11 
REMARK    5  A    between atoms: C5_11  and  N4_12 
REMARK    6  A    between atoms: C11_25  and  N7_26 
ROOT
HETATM    1  C2  UNL     1      33.665 -34.247 -15.847  1.00  0.00     0.133 A 
HETATM    2  N2  UNL     1      34.276 -34.108 -14.656  1.00  0.00    -0.176 N 
ATOM      3  H2  UNL     1      34.185 -34.854 -13.966  1.00  0.00     0.186 HD
HETATM    4  C3  UNL     1      35.001 -33.020 -14.347  1.00  0.00     0.681 A 
HETATM    5  N5  UNL     1      35.105 -32.052 -15.272  1.00  0.00    -0.176 N 
ATOM      6  H5  UNL     1      35.651 -31.219 -15.053  1.00  0.00     0.186 HD
HETATM    7  C6  UNL     1      34.509 -32.144 -16.491  1.00  0.00     0.137 A 
HETATM    8  N6  UNL     1      34.636 -31.149 -17.400  1.00  0.00    -0.344 N 
ATOM      9  H6  UNL     1      35.185 -30.322 -17.168  1.00  0.00     0.167 HD
HETATM   10  C7  UNL     1      34.047 -31.238 -18.604  1.00  0.00     0.015 A 
HETATM   11  C8  UNL     1      34.221 -30.121 -19.555  1.00  0.00     0.069 C 
HETATM   12  C9  UNL     1      33.289 -32.373 -18.930  1.00  0.00    -0.012 A 
HETATM   13  C10 UNL     1      32.673 -32.435 -20.225  1.00  0.00     0.052 C 
HETATM   14  C11 UNL     1      33.135 -33.403 -18.041  1.00  0.00     0.053 A 
HETATM   15  C13 UNL     1      33.766 -33.259 -16.807  1.00  0.00     0.080 A 
ENDROOT
BRANCH   4  16
HETATM   16  N3  UNL     1      35.572 -32.933 -13.179  1.00  0.00    -0.224 N 
ATOM     17  H3  UNL     1      34.998 -32.888 -12.336  1.00  0.00     0.177 HD
BRANCH  16  18
HETATM   18  C4  UNL     1      37.011 -32.899 -13.068  1.00  0.00     0.165 C 
BRANCH  18  19
HETATM   19  C5  UNL     1      37.339 -31.835 -12.017  1.00  0.00     0.249 C 
BRANCH  19  20
HETATM   20  N4  UNL     1      36.929 -30.567 -12.590  1.00  0.00    -0.078 N 
ATOM     21  H43 UNL     1      37.142 -30.482 -13.584  1.00  0.00     0.274 HD
ATOM     22  H42 UNL     1      35.918 -30.465 -12.672  1.00  0.00     0.274 HD
ATOM     23  H41 UNL     1      37.366 -29.844 -12.017  1.00  0.00     0.274 HD
ENDBRANCH  19  20
ENDBRANCH  18  19
ENDBRANCH  16  18
ENDBRANCH   4  16
BRANCH   1  24
HETATM   24  N1  UNL     1      32.982 -35.278 -16.133  1.00  0.00    -0.379 N 
HETATM   25  C1  UNL     1      32.093 -35.983 -15.261  1.00  0.00     0.147 C 
ATOM     26  H1  UNL     1      33.076 -35.640 -17.082  1.00  0.00     0.160 HD
ENDBRANCH   1  24
BRANCH  14  27
HETATM   27  N7  UNL     1      32.489 -34.406 -18.277  1.00  0.00    -0.393 N 
HETATM   28  C12 UNL     1      32.293 -35.465 -19.127  1.00  0.00     0.146 C 
ATOM     29  H7  UNL     1      31.804 -34.500 -17.527  1.00  0.00     0.159 HD
ENDBRANCH  14  27
TORSDOF 6
ENDMDL
MODEL 3
REMARK VINA RESULT: -5.495029191      2.270      5.691
REMARK  6 active torsions:
REMARK  status: ('A' for Active; 'I' for Inactive)
REMARK    1  A    between atoms: N1_2  and  C2_4 
REMARK    2  A    between atoms: C3_7  and  N3_8 
REMARK    3  A    between atoms: N3_8  and  C4_10 
REMARK    4  A    between atoms: C4_10  and  C5_11 
REMARK    5  A    between atoms: C5_11  and  N4_12 
REMARK    6  A    between atoms: C11_25  and  N7_26 
ROOT
HETATM    1  C2  UNL     1      32.721 -33.564 -16.996  1.00  0.00     0.133 A 
HETATM    2  N2  UNL     1      32.127 -34.721 -16.650  1.00  0.00    -0.176 N 
ATOM      3  H2  UNL     1      31.470 -35.151 -17.300  1.00  0.00     0.186 HD
HETATM    4  C3  UNL     1      32.373 -35.326 -15.475  1.00  0.00     0.681 A 
HETATM    5  N5  UNL     1      33.242 -34.740 -14.637  1.00  0.00    -0.176 N 
ATOM      6  H5  UNL     1      33.439 -35.186 -13.741  1.00  0.00     0.186 HD
HETATM    7  C6  UNL     1      33.869 -33.572 -14.940  1.00  0.00     0.137 A 
HETATM    8  N6  UNL     1      34.741 -33.008 -14.071  1.00  0.00    -0.344 N 
ATOM      9  H6  UNL     1      34.929 -33.466 -13.178  1.00  0.00     0.167 HD
HETATM   10  C7  UNL     1      35.360 -31.855 -14.368  1.00  0.00     0.015 A 
HETATM   11  C8  UNL     1      36.301 -31.288 -13.380  1.00  0.00     0.069 C 
HETATM   12  C9  UNL     1      35.106 -31.219 -15.593  1.00  0.00    -0.012 A 
HETATM   13  C10 UNL     1      35.785 -29.988 -15.879  1.00  0.00     0.052 C 
HETATM   14  C11 UNL     1      34.233 -31.754 -16.502  1.00  0.00     0.053 A 
HETATM   15  C13 UNL     1      33.617 -32.952 -16.143  1.00  0.00     0.080 A 
ENDROOT
BRANCH   4  16
HETATM   16  N3  UNL     1      31.771 -36.446 -15.186  1.00  0.00    -0.224 N 
ATOM     17  H3  UNL     1      31.041 -36.460 -14.474  1.00  0.00     0.177 HD
BRANCH  16  18
HETATM   18  C4  UNL     1      32.130 -37.667 -15.867  1.00  0.00     0.165 C 
BRANCH  18  19
HETATM   19  C5  UNL     1      31.191 -38.752 -15.336  1.00  0.00     0.249 C 
BRANCH  19  20
HETATM   20  N4  UNL     1      29.903 -38.110 -15.150  1.00  0.00    -0.078 N 
ATOM     21  H43 UNL     1      29.895 -37.127 -15.422  1.00  0.00     0.274 HD
ATOM     22  H42 UNL     1      29.192 -38.427 -15.809  1.00  0.00     0.274 HD
ATOM     23  H41 UNL     1      29.650 -38.264 -14.174  1.00  0.00     0.274 HD
ENDBRANCH  19  20
ENDBRANCH  18  19
ENDBRANCH  16  18
ENDBRANCH   4  16
BRANCH   1  24
HETATM   24  N1  UNL     1      32.485 -32.997 -18.107  1.00  0.00    -0.379 N 
HETATM   25  C1  UNL     1      31.725 -33.532 -19.195  1.00  0.00     0.147 C 
ATOM     26  H1  UNL     1      32.876 -32.064 -18.238  1.00  0.00     0.160 HD
ENDBRANCH   1  24
BRANCH  14  27
HETATM   27  N7  UNL     1      33.980 -31.242 -17.576  1.00  0.00    -0.393 N 
HETATM   28  C12 UNL     1      34.482 -30.771 -18.763  1.00  0.00     0.146 C 
ATOM     29  H7  UNL     1      32.970 -31.106 -17.608  1.00  0.00     0.159 HD
ENDBRANCH  14  27
TORSDOF 6
ENDMDL
MODEL 4
REMARK VINA RESULT: -5.430532995      2.163      5.062
REMARK  6 active torsions:
REMARK  status: ('A' for Active; 'I' for Inactive)
REMARK    1  A    between atoms: N1_2  and  C2_4 
REMARK    2  A    between atoms: C3_7  and  N3_8 
REMARK    3  A    between atoms: N3_8  and  C4_10 
REMARK    4  A    between atoms: C4_10  and  C5_11 
REMARK    5  A    between atoms: C5_11  and  N4_12 
REMARK    6  A    between atoms: C11_25  and  N7_26 
ROOT
HETATM    1  C2  UNL     1      34.004 -33.411 -15.172  1.00  0.00     0.133 A 
HETATM    2  N2  UNL     1      33.369 -34.505 -14.715  1.00  0.00    -0.176 N 
ATOM      3  H2  UNL     1      33.595 -34.854 -13.784  1.00  0.00     0.186 HD
HETATM    4  C3  UNL     1      32.445 -35.152 -15.447  1.00  0.00     0.681 A 
HETATM    5  N5  UNL     1      32.165 -34.673 -16.669  1.00  0.00    -0.176 N 
ATOM      6  H5  UNL     1      31.468 -35.153 -17.237  1.00  0.00     0.186 HD
HETATM    7  C6  UNL     1      32.778 -33.570 -17.177  1.00  0.00     0.137 A 
HETATM    8  N6  UNL     1      32.470 -33.115 -18.413  1.00  0.00    -0.344 N 
ATOM      9  H6  UNL     1      31.770 -33.604 -18.971  1.00  0.00     0.167 HD
HETATM   10  C7  UNL     1      33.076 -32.027 -18.916  1.00  0.00     0.015 A 
HETATM   11  C8  UNL     1      32.698 -31.576 -20.271  1.00  0.00     0.069 C 
HETATM   12  C9  UNL     1      34.041 -31.348 -18.155  1.00  0.00    -0.012 A 
HETATM   13  C10 UNL     1      34.668 -30.188 -18.723  1.00  0.00     0.052 C 
HETATM   14  C11 UNL     1      34.382 -31.774 -16.900  1.00  0.00     0.053 A 
HETATM   15  C13 UNL     1      33.724 -32.908 -16.427  1.00  0.00     0.080 A 
ENDROOT
BRANCH   4  16
HETATM   16  N3  UNL     1      31.858 -36.209 -14.959  1.00  0.00    -0.224 N 
ATOM     17  H3  UNL     1      31.231 -36.117 -14.161  1.00  0.00     0.177 HD
BRANCH  16  18
HETATM   18  C4  UNL     1      32.091 -37.510 -15.542  1.00  0.00     0.165 C 
BRANCH  18  19
HETATM   19  C5  UNL     1      31.151 -38.480 -14.823  1.00  0.00     0.249 C 
BRANCH  19  20
HETATM   20  N4  UNL     1      29.826 -37.896 -14.914  1.00  0.00    -0.078 N 
ATOM     21  H43 UNL     1      29.222 -38.363 -15.590  1.00  0.00     0.274 HD
ATOM     22  H42 UNL     1      29.248 -38.070 -14.091  1.00  0.00     0.274 HD
ATOM     23  H41 UNL     1      29.968 -36.905 -15.109  1.00  0.00     0.274 HD
ENDBRANCH  19  20
ENDBRANCH  18  19
ENDBRANCH  16  18
ENDBRANCH   4  16
BRANCH   1  24
HETATM   24  N1  UNL     1      34.876 -32.804 -14.476  1.00  0.00    -0.379 N 
HETATM   25  C1  UNL     1      35.612 -33.339 -13.372  1.00  0.00     0.147 C 
ATOM     26  H1  UNL     1      35.071 -31.835 -14.730  1.00  0.00     0.160 HD
ENDBRANCH   1  24
BRANCH  14  27
HETATM   27  N7  UNL     1      35.210 -31.220 -16.202  1.00  0.00    -0.393 N 
HETATM   28  C12 UNL     1      35.539 -30.089 -15.498  1.00  0.00     0.146 C 
ATOM     29  H7  UNL     1      35.989 -31.870 -16.096  1.00  0.00     0.159 HD
ENDBRANCH  14  27
TORSDOF 6
ENDMDL
MODEL 5
REMARK VINA RESULT: -5.267798477      2.204      5.908
REMARK  6 active torsions:
REMARK  status: ('A' for Active; 'I' for Inactive)
REMARK    1  A    between atoms: N1_2  and  C2_4 
REMARK    2  A    between atoms: C3_7  and  N3_8 
REMARK    3  A    between atoms: N3_8  and  C4_10 
REMARK    4  A    between atoms: C4_10  and  C5_11 
REMARK    5  A    between atoms: C5_11  and  N4_12 
REMARK    6  A    between atoms: C11_25  and  N7_26 
ROOT
HETATM    1  C2  UNL     1      33.144 -33.882 -18.485  1.00  0.00     0.133 A 
HETATM    2  N2  UNL     1      32.766 -35.162 -18.648  1.00  0.00    -0.176 N 
ATOM      3  H2  UNL     1      32.227 -35.416 -19.476  1.00  0.00     0.186 HD
HETATM    4  C3  UNL     1      33.076 -36.118 -17.755  1.00  0.00     0.681 A 
HETATM    5  N5  UNL     1      33.787 -35.759 -16.674  1.00  0.00    -0.176 N 
ATOM      6  H5  UNL     1      34.030 -36.472 -15.986  1.00  0.00     0.186 HD
HETATM    7  C6  UNL     1      34.194 -34.479 -16.463  1.00  0.00     0.137 A 
HETATM    8  N6  UNL     1      34.909 -34.153 -15.362  1.00  0.00    -0.344 N 
ATOM      9  H6  UNL     1      35.146 -34.876 -14.682  1.00  0.00     0.167 HD
HETATM   10  C7  UNL     1      35.311 -32.888 -15.152  1.00  0.00     0.015 A 
HETATM   11  C8  UNL     1      36.090 -32.592 -13.932  1.00  0.00     0.069 C 
HETATM   12  C9  UNL     1      34.989 -31.888 -16.082  1.00  0.00    -0.012 A 
HETATM   13  C10 UNL     1      35.434 -30.548 -15.826  1.00  0.00     0.052 C 
HETATM   14  C11 UNL     1      34.267 -32.174 -17.209  1.00  0.00     0.053 A 
HETATM   15  C13 UNL     1      33.875 -33.501 -17.378  1.00  0.00     0.080 A 
ENDROOT
BRANCH   4  16
HETATM   16  N3  UNL     1      32.686 -37.345 -17.959  1.00  0.00    -0.224 N 
ATOM     17  H3  UNL     1      32.002 -37.545 -18.689  1.00  0.00     0.177 HD
BRANCH  16  18
HETATM   18  C4  UNL     1      33.213 -38.424 -17.156  1.00  0.00     0.165 C 
BRANCH  18  19
HETATM   19  C5  UNL     1      32.024 -39.025 -16.404  1.00  0.00     0.249 C 
BRANCH  19  20
HETATM   20  N4  UNL     1      31.984 -38.356 -15.117  1.00  0.00    -0.078 N 
ATOM     21  H43 UNL     1      31.047 -38.295 -14.719  1.00  0.00     0.274 HD
ATOM     22  H42 UNL     1      32.403 -38.901 -14.363  1.00  0.00     0.274 HD
ATOM     23  H41 UNL     1      32.427 -37.448 -15.257  1.00  0.00     0.274 HD
ENDBRANCH  19  20
ENDBRANCH  18  19
ENDBRANCH  16  18
ENDBRANCH   4  16
BRANCH   1  24
HETATM   24  N1  UNL     1      32.847 -32.984 -19.332  1.00  0.00    -0.379 N 
HETATM   25  C1  UNL     1      31.708 -32.968 -20.197  1.00  0.00     0.147 C 
ATOM     26  H1  UNL     1      33.487 -32.193 -19.404  1.00  0.00     0.160 HD
ENDBRANCH   1  24
BRANCH  14  27
HETATM   27  N7  UNL     1      33.964 -31.343 -18.044  1.00  0.00    -0.393 N 
HETATM   28  C12 UNL     1      34.409 -30.494 -19.026  1.00  0.00     0.146 C 
ATOM     29  H7  UNL     1      32.952 -31.227 -17.992  1.00  0.00     0.159 HD
ENDBRANCH  14  27
TORSDOF 6
ENDMDL
