MODEL 1
REMARK VINA RESULT: -6.865049199      0.000      0.000
REMARK  4 active torsions:
REMARK  status: ('A' for Active; 'I' for Inactive)
REMARK    1  A    between atoms: N1_1  and  C1_5 
REMARK    2  A    between atoms: C3_7  and  O1_8 
REMARK    3  A    between atoms: N4_19  and  C9_20 
REMARK    4  A    between atoms: C9_20  and  C10_21 
ROOT
HETATM    1  C1  UNL     1      33.633 -31.273 -18.897  1.00  0.00     0.218 C 
HETATM    2  C2  UNL     1      32.599 -31.826 -19.816  1.00  0.00     0.069 C 
HETATM    3  C3  UNL     1      31.836 -32.985 -19.269  1.00  0.00     0.151 C 
HETATM    4  C4  UNL     1      32.508 -33.653 -18.106  1.00  0.00     0.221 C 
HETATM    5  N2  UNL     1      33.946 -33.655 -18.383  1.00  0.00    -0.060 N 
ATOM      6  H21 UNL     1      34.211 -33.941 -19.325  1.00  0.00     0.278 HD
ATOM      7  H22 UNL     1      34.482 -34.385 -17.915  1.00  0.00     0.278 HD
HETATM    8  C5  UNL     1      34.296 -32.295 -18.023  1.00  0.00     0.236 C 
HETATM    9  C6  UNL     1      33.684 -32.182 -16.641  1.00  0.00     0.116 C 
HETATM   10  C7  UNL     1      32.371 -32.881 -16.817  1.00  0.00     0.056 C 
HETATM   11  C8  UNL     1      32.344 -33.800 -15.612  1.00  0.00     0.137 C 
HETATM   12  N3  UNL     1      33.676 -33.888 -15.123  1.00  0.00    -0.164 NA
HETATM   13  N4  UNL     1      34.444 -32.885 -15.638  1.00  0.00    -0.223 NA
ENDROOT
BRANCH  13  14
HETATM   14  C9  UNL     1      34.969 -31.927 -14.719  1.00  0.00     0.148 C 
BRANCH  14  15
HETATM   15  C10 UNL     1      36.188 -32.348 -13.999  1.00  0.00    -0.044 A 
HETATM   16  C11 UNL     1      36.523 -31.785 -12.781  1.00  0.00     0.008 A 
HETATM   17  C12 UNL     1      37.661 -32.180 -12.097  1.00  0.00     0.001 A 
HETATM   18  C13 UNL     1      38.480 -33.153 -12.637  1.00  0.00     0.000 A 
HETATM   19  C14 UNL     1      38.153 -33.718 -13.853  1.00  0.00     0.001 A 
HETATM   20  C15 UNL     1      37.018 -33.315 -14.518  1.00  0.00     0.008 A 
ENDBRANCH  14  15
ENDBRANCH  13  14
BRANCH   1  21
HETATM   21  N1  UNL     1      34.690 -30.576 -19.633  1.00  0.00    -0.073 N 
ATOM     22  H13 UNL     1      35.585 -30.641 -19.149  1.00  0.00     0.274 HD
ATOM     23  H12 UNL     1      34.936 -31.070 -20.490  1.00  0.00     0.274 HD
ATOM     24  H11 UNL     1      34.439 -29.605 -19.821  1.00  0.00     0.274 HD
ENDBRANCH   1  21
BRANCH   3  25
HETATM   25  O1  UNL     1      30.513 -32.658 -18.981  1.00  0.00    -0.393 OA
ATOM     26  H1  UNL     1      30.245 -32.962 -18.122  1.00  0.00     0.210 HD
ENDBRANCH   3  25
TORSDOF 4
ENDMDL
MODEL 2
REMARK VINA RESULT: -6.347282568      1.634      2.590
REMARK  4 active torsions:
REMARK  status: ('A' for Active; 'I' for Inactive)
REMARK    1  A    between atoms: N1_1  and  C1_5 
REMARK    2  A    between atoms: C3_7  and  O1_8 
REMARK    3  A    between atoms: N4_19  and  C9_20 
REMARK    4  A    between atoms: C9_20  and  C10_21 
ROOT
HETATM    1  C1  UNL     1      33.092 -35.087 -18.307  1.00  0.00     0.218 C 
HETATM    2  C2  UNL     1      32.125 -34.395 -19.203  1.00  0.00     0.069 C 
HETATM    3  C3  UNL     1      31.937 -32.944 -18.914  1.00  0.00     0.151 C 
HETATM    4  C4  UNL     1      32.400 -32.537 -17.547  1.00  0.00     0.221 C 
HETATM    5  N2  UNL     1      32.045 -33.625 -16.632  1.00  0.00    -0.060 N 
ATOM      6  H21 UNL     1      31.100 -33.993 -16.733  1.00  0.00     0.278 HD
ATOM      7  H22 UNL     1      31.931 -33.357 -15.655  1.00  0.00     0.278 HD
HETATM    8  C5  UNL     1      33.114 -34.567 -16.900  1.00  0.00     0.236 C 
HETATM    9  C6  UNL     1      34.338 -33.684 -16.757  1.00  0.00     0.116 C 
HETATM   10  C7  UNL     1      33.900 -32.423 -17.437  1.00  0.00     0.056 C 
HETATM   11  C8  UNL     1      34.311 -31.368 -16.429  1.00  0.00     0.137 C 
HETATM   12  N3  UNL     1      34.524 -32.033 -15.191  1.00  0.00    -0.164 NA
HETATM   13  N4  UNL     1      34.644 -33.378 -15.383  1.00  0.00    -0.223 NA
ENDROOT
BRANCH  13  14
HETATM   14  C9  UNL     1      35.901 -33.974 -15.060  1.00  0.00     0.148 C 
BRANCH  14  15
HETATM   15  C10 UNL     1      36.649 -33.314 -13.971  1.00  0.00    -0.044 A 
HETATM   16  C11 UNL     1      38.001 -33.549 -13.794  1.00  0.00     0.008 A 
HETATM   17  C12 UNL     1      38.710 -32.929 -12.779  1.00  0.00     0.001 A 
HETATM   18  C13 UNL     1      38.060 -32.059 -11.924  1.00  0.00     0.000 A 
HETATM   19  C14 UNL     1      36.712 -31.821 -12.093  1.00  0.00     0.001 A 
HETATM   20  C15 UNL     1      36.023 -32.445 -13.107  1.00  0.00     0.008 A 
ENDBRANCH  14  15
ENDBRANCH  13  14
BRANCH   1  21
HETATM   21  N1  UNL     1      32.826 -36.525 -18.236  1.00  0.00    -0.073 N 
ATOM     22  H13 UNL     1      33.464 -37.051 -18.834  1.00  0.00     0.274 HD
ATOM     23  H12 UNL     1      33.101 -36.911 -17.333  1.00  0.00     0.274 HD
ATOM     24  H11 UNL     1      31.852 -36.738 -18.452  1.00  0.00     0.274 HD
ENDBRANCH   1  21
BRANCH   3  25
HETATM   25  O1  UNL     1      32.483 -32.132 -19.906  1.00  0.00    -0.393 OA
ATOM     26  H1  UNL     1      31.816 -31.681 -20.410  1.00  0.00     0.210 HD
ENDBRANCH   3  25
TORSDOF 4
ENDMDL
MODEL 3
REMARK VINA RESULT: -6.170996709      1.756      2.515
REMARK  4 active torsions:
REMARK  status: ('A' for Active; 'I' for Inactive)
REMARK    1  A    between atoms: N1_1  and  C1_5 
REMARK    2  A    between atoms: C3_7  and  O1_8 
REMARK    3  A    between atoms: N4_19  and  C9_20 
REMARK    4  A    between atoms: C9_20  and  C10_21 
ROOT
HETATM    1  C1  UNL     1      33.158 -34.736 -18.753  1.00  0.00     0.218 C 
HETATM    2  C2  UNL     1      33.202 -34.020 -20.058  1.00  0.00     0.069 C 
HETATM    3  C3  UNL     1      33.508 -32.563 -19.959  1.00  0.00     0.151 C 
HETATM    4  C4  UNL     1      33.295 -31.995 -18.587  1.00  0.00     0.221 C 
HETATM    5  N2  UNL     1      32.100 -32.637 -18.037  1.00  0.00    -0.060 N 
ATOM      6  H21 UNL     1      31.301 -32.691 -18.668  1.00  0.00     0.278 HD
ATOM      7  H22 UNL     1      31.608 -32.106 -17.318  1.00  0.00     0.278 HD
HETATM    8  C5  UNL     1      32.645 -33.911 -17.610  1.00  0.00     0.236 C 
HETATM    9  C6  UNL     1      33.840 -33.468 -16.791  1.00  0.00     0.116 C 
HETATM   10  C7  UNL     1      34.396 -32.350 -17.619  1.00  0.00     0.056 C 
HETATM   11  C8  UNL     1      34.603 -31.266 -16.580  1.00  0.00     0.137 C 
HETATM   12  N3  UNL     1      33.830 -31.625 -15.442  1.00  0.00    -0.164 NA
HETATM   13  N4  UNL     1      33.466 -32.938 -15.504  1.00  0.00    -0.223 NA
ENDROOT
BRANCH  13  14
HETATM   14  C9  UNL     1      33.981 -33.808 -14.494  1.00  0.00     0.148 C 
BRANCH  14  15
HETATM   15  C10 UNL     1      35.342 -33.485 -14.022  1.00  0.00    -0.044 A 
HETATM   16  C11 UNL     1      35.536 -32.714 -12.889  1.00  0.00     0.008 A 
HETATM   17  C12 UNL     1      36.809 -32.412 -12.436  1.00  0.00     0.001 A 
HETATM   18  C13 UNL     1      37.910 -32.886 -13.124  1.00  0.00     0.000 A 
HETATM   19  C14 UNL     1      37.725 -33.654 -14.255  1.00  0.00     0.001 A 
HETATM   20  C15 UNL     1      36.453 -33.946 -14.691  1.00  0.00     0.008 A 
ENDBRANCH  14  15
ENDBRANCH  13  14
BRANCH   1  21
HETATM   21  N1  UNL     1      32.331 -35.941 -18.827  1.00  0.00    -0.073 N 
ATOM     22  H13 UNL     1      32.828 -36.706 -19.283  1.00  0.00     0.274 HD
ATOM     23  H12 UNL     1      32.201 -36.361 -17.907  1.00  0.00     0.274 HD
ATOM     24  H11 UNL     1      31.437 -35.755 -19.281  1.00  0.00     0.274 HD
ENDBRANCH   1  21
BRANCH   3  25
HETATM   25  O1  UNL     1      34.774 -32.254 -20.454  1.00  0.00    -0.393 OA
ATOM     26  H1  UNL     1      35.428 -32.207 -19.767  1.00  0.00     0.210 HD
ENDBRANCH   3  25
TORSDOF 4
ENDMDL
MODEL 4
REMARK VINA RESULT: -5.932641777      2.537      6.646
REMARK  4 active torsions:
REMARK  status: ('A' for Active; 'I' for Inactive)
REMARK    1  A    between atoms: N1_1  and  C1_5 
REMARK    2  A    between atoms: C3_7  and  O1_8 
REMARK    3  A    between atoms: N4_19  and  C9_20 
REMARK    4  A    between atoms: C9_20  and  C10_21 
ROOT
HETATM    1  C1  UNL     1      35.424 -31.332 -15.973  1.00  0.00     0.218 C 
HETATM    2  C2  UNL     1      35.904 -32.091 -14.784  1.00  0.00     0.069 C 
HETATM    3  C3  UNL     1      35.338 -33.465 -14.653  1.00  0.00     0.151 C 
HETATM    4  C4  UNL     1      34.096 -33.685 -15.465  1.00  0.00     0.221 C 
HETATM    5  N2  UNL     1      33.313 -32.449 -15.396  1.00  0.00    -0.060 N 
ATOM      6  H21 UNL     1      33.218 -32.041 -14.466  1.00  0.00     0.278 HD
ATOM      7  H22 UNL     1      32.310 -32.556 -15.547  1.00  0.00     0.278 HD
HETATM    8  C5  UNL     1      34.009 -31.630 -16.369  1.00  0.00     0.236 C 
HETATM    9  C6  UNL     1      34.053 -32.557 -17.567  1.00  0.00     0.116 C 
HETATM   10  C7  UNL     1      34.373 -33.877 -16.935  1.00  0.00     0.056 C 
HETATM   11  C8  UNL     1      33.351 -34.789 -17.585  1.00  0.00     0.137 C 
HETATM   12  N3  UNL     1      32.342 -33.956 -18.142  1.00  0.00    -0.164 NA
HETATM   13  N4  UNL     1      32.779 -32.667 -18.232  1.00  0.00    -0.223 NA
ENDROOT
BRANCH  13  14
HETATM   14  C9  UNL     1      32.907 -32.110 -19.541  1.00  0.00     0.148 C 
BRANCH  14  15
HETATM   15  C10 UNL     1      31.691 -31.456 -20.066  1.00  0.00    -0.044 A 
HETATM   16  C11 UNL     1      30.438 -31.986 -19.821  1.00  0.00     0.008 A 
HETATM   17  C12 UNL     1      29.293 -31.375 -20.305  1.00  0.00     0.001 A 
HETATM   18  C13 UNL     1      29.399 -30.214 -21.047  1.00  0.00     0.000 A 
HETATM   19  C14 UNL     1      30.646 -29.680 -21.297  1.00  0.00     0.001 A 
HETATM   20  C15 UNL     1      31.773 -30.299 -20.808  1.00  0.00     0.008 A 
ENDBRANCH  14  15
ENDBRANCH  13  14
BRANCH   1  21
HETATM   21  N1  UNL     1      35.525 -29.887 -15.766  1.00  0.00    -0.073 N 
ATOM     22  H13 UNL     1      34.983 -29.588 -14.955  1.00  0.00     0.274 HD
ATOM     23  H12 UNL     1      36.455 -29.621 -15.442  1.00  0.00     0.274 HD
ATOM     24  H11 UNL     1      35.259 -29.368 -16.604  1.00  0.00     0.274 HD
ENDBRANCH   1  21
BRANCH   3  25
HETATM   25  O1  UNL     1      36.291 -34.453 -14.891  1.00  0.00    -0.393 OA
ATOM     26  H1  UNL     1      35.900 -35.266 -15.191  1.00  0.00     0.210 HD
ENDBRANCH   3  25
TORSDOF 4
ENDMDL
MODEL 5
REMARK VINA RESULT: -5.919888799      2.540      6.647
REMARK  4 active torsions:
REMARK  status: ('A' for Active; 'I' for Inactive)
REMARK    1  A    between atoms: N1_1  and  C1_5 
REMARK    2  A    between atoms: C3_7  and  O1_8 
REMARK    3  A    between atoms: N4_19  and  C9_20 
REMARK    4  A    between atoms: C9_20  and  C10_21 
ROOT
HETATM    1  C1  UNL     1      35.423 -31.331 -15.983  1.00  0.00     0.218 C 
HETATM    2  C2  UNL     1      35.892 -32.096 -14.795  1.00  0.00     0.069 C 
HETATM    3  C3  UNL     1      35.317 -33.466 -14.670  1.00  0.00     0.151 C 
HETATM    4  C4  UNL     1      34.076 -33.675 -15.486  1.00  0.00     0.221 C 
HETATM    5  N2  UNL     1      33.302 -32.434 -15.417  1.00  0.00    -0.060 N 
ATOM      6  H21 UNL     1      33.207 -32.028 -14.486  1.00  0.00     0.278 HD
ATOM      7  H22 UNL     1      32.299 -32.533 -15.573  1.00  0.00     0.278 HD
HETATM    8  C5  UNL     1      34.007 -31.617 -16.385  1.00  0.00     0.236 C 
HETATM    9  C6  UNL     1      34.049 -32.541 -17.586  1.00  0.00     0.116 C 
HETATM   10  C7  UNL     1      34.357 -33.865 -16.956  1.00  0.00     0.056 C 
HETATM   11  C8  UNL     1      33.331 -34.768 -17.613  1.00  0.00     0.137 C 
HETATM   12  N3  UNL     1      32.330 -33.926 -18.171  1.00  0.00    -0.164 NA
HETATM   13  N4  UNL     1      32.777 -32.640 -18.255  1.00  0.00    -0.223 NA
ENDROOT
BRANCH  13  14
HETATM   14  C9  UNL     1      32.914 -32.080 -19.562  1.00  0.00     0.148 C 
BRANCH  14  15
HETATM   15  C10 UNL     1      31.708 -31.409 -20.087  1.00  0.00    -0.044 A 
HETATM   16  C11 UNL     1      31.809 -30.239 -20.819  1.00  0.00     0.008 A 
HETATM   17  C12 UNL     1      30.683 -29.606 -21.319  1.00  0.00     0.001 A 
HETATM   18  C13 UNL     1      29.433 -30.148 -21.086  1.00  0.00     0.000 A 
HETATM   19  C14 UNL     1      29.324 -31.314 -20.356  1.00  0.00     0.001 A 
HETATM   20  C15 UNL     1      30.453 -31.930 -19.867  1.00  0.00     0.008 A 
ENDBRANCH  14  15
ENDBRANCH  13  14
BRANCH   1  21
HETATM   21  N1  UNL     1      35.533 -29.886 -15.772  1.00  0.00    -0.073 N 
ATOM     22  H13 UNL     1      35.948 -29.673 -14.864  1.00  0.00     0.274 HD
ATOM     23  H12 UNL     1      36.247 -29.475 -16.373  1.00  0.00     0.274 HD
ATOM     24  H11 UNL     1      34.633 -29.420 -15.888  1.00  0.00     0.274 HD
ENDBRANCH   1  21
BRANCH   3  25
HETATM   25  O1  UNL     1      36.264 -34.461 -14.907  1.00  0.00    -0.393 OA
ATOM     26  H1  UNL     1      35.863 -35.299 -15.107  1.00  0.00     0.210 HD
ENDBRANCH   3  25
TORSDOF 4
ENDMDL
