MODEL 1
REMARK VINA RESULT: -7.610093728      0.000      0.000
REMARK  5 active torsions:
REMARK  status: ('A' for Active; 'I' for Inactive)
REMARK    1  A    between atoms: N2_5  and  C3_6 
REMARK    2  A    between atoms: N3_11  and  O1_12 
REMARK    3  A    between atoms: C8_14  and  N4_15 
REMARK    4  A    between atoms: C9_18  and  C10_19 
REMARK    5  A    between atoms: C10_19  and  C11_20 
ROOT
HETATM    1  C1  UNL     1      32.687 -34.618 -15.202  1.00  0.00     0.045 C 
HETATM    2  C2  UNL     1      33.673 -33.756 -15.110  1.00  0.00     0.053 A 
HETATM    3  N1  UNL     1      34.732 -33.899 -14.277  1.00  0.00    -0.291 N 
ATOM      4  H1  UNL     1      34.859 -34.690 -13.645  1.00  0.00     0.187 HD
HETATM    5  N2  UNL     1      35.579 -32.894 -14.380  1.00  0.00    -0.221 N 
HETATM    6  C8  UNL     1      35.081 -32.080 -15.284  1.00  0.00     0.135 A 
HETATM    7  C9  UNL     1      33.862 -32.573 -15.791  1.00  0.00     0.039 A 
ENDROOT
BRANCH   5   8
HETATM    8  C3  UNL     1      36.764 -32.809 -13.615  1.00  0.00     0.155 A 
HETATM    9  C4  UNL     1      37.811 -33.679 -13.824  1.00  0.00     0.053 A 
HETATM   10  C5  UNL     1      38.928 -33.538 -13.045  1.00  0.00     0.005 A 
HETATM   11  C6  UNL     1      39.054 -32.570 -12.065  1.00  0.00     0.020 A 
HETATM   12  C7  UNL     1      37.978 -31.722 -11.894  1.00  0.00     0.125 A 
HETATM   13  N3  UNL     1      36.873 -31.855 -12.657  1.00  0.00    -0.217 N 
BRANCH  13  14
HETATM   14  O1  UNL     1      35.842 -30.957 -12.414  1.00  0.00    -0.281 OA
ATOM     15  H1  UNL     1      35.279 -31.049 -11.654  1.00  0.00     0.245 HD
ENDBRANCH  13  14
ENDBRANCH   5   8
BRANCH   6  16
HETATM   16  N4  UNL     1      35.592 -30.976 -15.688  1.00  0.00    -0.383 N 
ATOM     17  H42 UNL     1      36.049 -30.889 -16.595  1.00  0.00     0.157 HD
ATOM     18  H41 UNL     1      35.607 -30.090 -15.183  1.00  0.00     0.157 HD
ENDBRANCH   6  16
BRANCH   7  19
HETATM   19  C10 UNL     1      33.139 -31.992 -16.691  1.00  0.00     0.049 C 
BRANCH  19  20
HETATM   20  C11 UNL     1      33.156 -32.100 -18.132  1.00  0.00     0.057 A 
HETATM   21  N5  UNL     1      32.437 -32.931 -18.943  1.00  0.00    -0.364 N 
HETATM   22  C12 UNL     1      32.702 -32.710 -20.221  1.00  0.00     0.090 A 
ATOM     23  H5  UNL     1      31.779 -33.634 -18.606  1.00  0.00     0.165 HD
HETATM   24  C13 UNL     1      33.630 -31.699 -20.318  1.00  0.00     0.046 A 
HETATM   25  C14 UNL     1      33.911 -31.321 -19.022  1.00  0.00     0.074 A 
HETATM   26  N6  UNL     1      34.814 -30.309 -18.594  1.00  0.00    -0.100 NA
ENDBRANCH  19  20
ENDBRANCH   7  19
TORSDOF 5
ENDMDL
MODEL 2
REMARK VINA RESULT: -7.177612518      1.149      1.441
REMARK  5 active torsions:
REMARK  status: ('A' for Active; 'I' for Inactive)
REMARK    1  A    between atoms: N2_5  and  C3_6 
REMARK    2  A    between atoms: N3_11  and  O1_12 
REMARK    3  A    between atoms: C8_14  and  N4_15 
REMARK    4  A    between atoms: C9_18  and  C10_19 
REMARK    5  A    between atoms: C10_19  and  C11_20 
ROOT
HETATM    1  C1  UNL     1      32.647 -34.686 -15.253  1.00  0.00     0.045 C 
HETATM    2  C2  UNL     1      33.585 -33.777 -15.136  1.00  0.00     0.053 A 
HETATM    3  N1  UNL     1      34.605 -33.846 -14.246  1.00  0.00    -0.291 N 
ATOM      4  H1  UNL     1      34.735 -34.613 -13.586  1.00  0.00     0.187 HD
HETATM    5  N2  UNL     1      35.408 -32.804 -14.334  1.00  0.00    -0.221 N 
HETATM    6  C8  UNL     1      34.921 -32.040 -15.287  1.00  0.00     0.135 A 
HETATM    7  C9  UNL     1      33.755 -32.604 -15.841  1.00  0.00     0.039 A 
ENDROOT
BRANCH   5   8
HETATM    8  C3  UNL     1      36.546 -32.643 -13.513  1.00  0.00     0.155 A 
HETATM    9  C4  UNL     1      36.595 -31.663 -12.546  1.00  0.00     0.053 A 
HETATM   10  C5  UNL     1      37.731 -31.566 -11.788  1.00  0.00     0.005 A 
HETATM   11  C6  UNL     1      38.823 -32.399 -11.945  1.00  0.00     0.020 A 
HETATM   12  C7  UNL     1      38.726 -33.365 -12.926  1.00  0.00     0.125 A 
HETATM   13  N3  UNL     1      37.611 -33.467 -13.679  1.00  0.00    -0.217 N 
BRANCH  13  14
HETATM   14  O1  UNL     1      37.603 -34.469 -14.641  1.00  0.00    -0.281 OA
ATOM     15  H1  UNL     1      37.470 -34.267 -15.559  1.00  0.00     0.245 HD
ENDBRANCH  13  14
ENDBRANCH   5   8
BRANCH   6  16
HETATM   16  N4  UNL     1      35.400 -30.924 -15.695  1.00  0.00    -0.383 N 
ATOM     17  H42 UNL     1      34.948 -30.032 -15.495  1.00  0.00     0.157 HD
ATOM     18  H41 UNL     1      36.251 -30.788 -16.242  1.00  0.00     0.157 HD
ENDBRANCH   6  16
BRANCH   7  19
HETATM   19  C10 UNL     1      33.054 -32.083 -16.793  1.00  0.00     0.049 C 
BRANCH  19  20
HETATM   20  C11 UNL     1      33.204 -32.159 -18.228  1.00  0.00     0.057 A 
HETATM   21  N5  UNL     1      32.612 -33.014 -19.113  1.00  0.00    -0.364 N 
HETATM   22  C12 UNL     1      32.973 -32.751 -20.358  1.00  0.00     0.090 A 
ATOM     23  H5  UNL     1      31.971 -33.762 -18.847  1.00  0.00     0.165 HD
HETATM   24  C13 UNL     1      33.842 -31.683 -20.357  1.00  0.00     0.046 A 
HETATM   25  C14 UNL     1      33.984 -31.317 -19.035  1.00  0.00     0.074 A 
HETATM   26  N6  UNL     1      34.782 -30.262 -18.512  1.00  0.00    -0.100 NA
ENDBRANCH  19  20
ENDBRANCH   7  19
TORSDOF 5
ENDMDL
MODEL 3
REMARK VINA RESULT: -7.172049429      1.368      2.319
REMARK  5 active torsions:
REMARK  status: ('A' for Active; 'I' for Inactive)
REMARK    1  A    between atoms: N2_5  and  C3_6 
REMARK    2  A    between atoms: N3_11  and  O1_12 
REMARK    3  A    between atoms: C8_14  and  N4_15 
REMARK    4  A    between atoms: C9_18  and  C10_19 
REMARK    5  A    between atoms: C10_19  and  C11_20 
ROOT
HETATM    1  C1  UNL     1      34.456 -30.651 -17.738  1.00  0.00     0.045 C 
HETATM    2  C2  UNL     1      34.636 -31.436 -16.702  1.00  0.00     0.053 A 
HETATM    3  N1  UNL     1      35.745 -31.426 -15.924  1.00  0.00    -0.291 N 
ATOM      4  H1  UNL     1      36.541 -30.806 -16.072  1.00  0.00     0.187 HD
HETATM    5  N2  UNL     1      35.672 -32.313 -14.952  1.00  0.00    -0.221 N 
HETATM    6  C8  UNL     1      34.511 -32.915 -15.084  1.00  0.00     0.135 A 
HETATM    7  C9  UNL     1      33.798 -32.402 -16.186  1.00  0.00     0.039 A 
ENDROOT
BRANCH   5   8
HETATM    8  C3  UNL     1      36.704 -32.497 -14.004  1.00  0.00     0.155 A 
HETATM    9  C4  UNL     1      37.602 -33.535 -14.119  1.00  0.00     0.053 A 
HETATM   10  C5  UNL     1      38.575 -33.651 -13.163  1.00  0.00     0.005 A 
HETATM   11  C6  UNL     1      38.699 -32.782 -12.095  1.00  0.00     0.020 A 
HETATM   12  C7  UNL     1      37.775 -31.758 -12.023  1.00  0.00     0.125 A 
HETATM   13  N3  UNL     1      36.812 -31.637 -12.960  1.00  0.00    -0.217 N 
BRANCH  13  14
HETATM   14  O1  UNL     1      35.928 -30.577 -12.806  1.00  0.00    -0.281 OA
ATOM     15  H1  UNL     1      35.556 -30.366 -11.958  1.00  0.00     0.245 HD
ENDBRANCH  13  14
ENDBRANCH   5   8
BRANCH   6  16
HETATM   16  N4  UNL     1      34.041 -33.849 -14.342  1.00  0.00    -0.383 N 
ATOM     17  H42 UNL     1      34.248 -34.833 -14.510  1.00  0.00     0.157 HD
ATOM     18  H41 UNL     1      33.434 -33.736 -13.530  1.00  0.00     0.157 HD
ENDBRANCH   6  16
BRANCH   7  19
HETATM   19  C10 UNL     1      32.628 -32.796 -16.566  1.00  0.00     0.049 C 
BRANCH  19  20
HETATM   20  C11 UNL     1      32.157 -33.257 -17.852  1.00  0.00     0.057 A 
HETATM   21  N5  UNL     1      31.127 -32.784 -18.614  1.00  0.00    -0.364 N 
HETATM   22  C12 UNL     1      31.023 -33.447 -19.754  1.00  0.00     0.090 A 
ATOM     23  H5  UNL     1      30.515 -32.015 -18.338  1.00  0.00     0.165 HD
HETATM   24  C13 UNL     1      32.002 -34.412 -19.802  1.00  0.00     0.046 A 
HETATM   25  C14 UNL     1      32.705 -34.294 -18.622  1.00  0.00     0.074 A 
HETATM   26  N6  UNL     1      33.817 -35.072 -18.198  1.00  0.00    -0.100 NA
ENDBRANCH  19  20
ENDBRANCH   7  19
TORSDOF 5
ENDMDL
MODEL 4
REMARK VINA RESULT: -6.846957875      1.613      1.974
REMARK  5 active torsions:
REMARK  status: ('A' for Active; 'I' for Inactive)
REMARK    1  A    between atoms: N2_5  and  C3_6 
REMARK    2  A    between atoms: N3_11  and  O1_12 
REMARK    3  A    between atoms: C8_14  and  N4_15 
REMARK    4  A    between atoms: C9_18  and  C10_19 
REMARK    5  A    between atoms: C10_19  and  C11_20 
ROOT
HETATM    1  C1  UNL     1      32.514 -34.863 -15.247  1.00  0.00     0.045 C 
HETATM    2  C2  UNL     1      33.433 -33.931 -15.155  1.00  0.00     0.053 A 
HETATM    3  N1  UNL     1      34.461 -33.962 -14.272  1.00  0.00    -0.291 N 
ATOM      4  H1  UNL     1      34.614 -34.713 -13.599  1.00  0.00     0.187 HD
HETATM    5  N2  UNL     1      35.240 -32.904 -14.387  1.00  0.00    -0.221 N 
HETATM    6  C8  UNL     1      34.728 -32.169 -15.349  1.00  0.00     0.135 A 
HETATM    7  C9  UNL     1      33.571 -32.768 -15.882  1.00  0.00     0.039 A 
ENDROOT
BRANCH   5   8
HETATM    8  C3  UNL     1      36.381 -32.702 -13.578  1.00  0.00     0.155 A 
HETATM    9  C4  UNL     1      36.409 -31.716 -12.617  1.00  0.00     0.053 A 
HETATM   10  C5  UNL     1      37.549 -31.578 -11.872  1.00  0.00     0.005 A 
HETATM   11  C6  UNL     1      38.665 -32.377 -12.036  1.00  0.00     0.020 A 
HETATM   12  C7  UNL     1      38.589 -33.352 -13.010  1.00  0.00     0.125 A 
HETATM   13  N3  UNL     1      37.469 -33.493 -13.751  1.00  0.00    -0.217 N 
BRANCH  13  14
HETATM   14  O1  UNL     1      37.484 -34.500 -14.707  1.00  0.00    -0.281 OA
ATOM     15  H1  UNL     1      36.969 -34.430 -15.502  1.00  0.00     0.245 HD
ENDBRANCH  13  14
ENDBRANCH   5   8
BRANCH   6  16
HETATM   16  N4  UNL     1      35.180 -31.050 -15.782  1.00  0.00    -0.383 N 
ATOM     17  H42 UNL     1      36.174 -30.892 -15.946  1.00  0.00     0.157 HD
ATOM     18  H41 UNL     1      34.635 -30.218 -16.009  1.00  0.00     0.157 HD
ENDBRANCH   6  16
BRANCH   7  19
HETATM   19  C10 UNL     1      32.851 -32.281 -16.838  1.00  0.00     0.049 C 
BRANCH  19  20
HETATM   20  C11 UNL     1      32.327 -32.896 -18.036  1.00  0.00     0.057 A 
HETATM   21  N5  UNL     1      31.096 -32.755 -18.610  1.00  0.00    -0.364 N 
HETATM   22  C12 UNL     1      30.998 -33.457 -19.728  1.00  0.00     0.090 A 
ATOM     23  H5  UNL     1      30.346 -32.180 -18.226  1.00  0.00     0.165 HD
HETATM   24  C13 UNL     1      32.188 -34.111 -19.951  1.00  0.00     0.046 A 
HETATM   25  C14 UNL     1      33.011 -33.762 -18.901  1.00  0.00     0.074 A 
HETATM   26  N6  UNL     1      34.351 -34.184 -18.678  1.00  0.00    -0.100 NA
ENDBRANCH  19  20
ENDBRANCH   7  19
TORSDOF 5
ENDMDL
MODEL 5
REMARK VINA RESULT: -6.836207828      2.173      6.781
REMARK  5 active torsions:
REMARK  status: ('A' for Active; 'I' for Inactive)
REMARK    1  A    between atoms: N2_5  and  C3_6 
REMARK    2  A    between atoms: N3_11  and  O1_12 
REMARK    3  A    between atoms: C8_14  and  N4_15 
REMARK    4  A    between atoms: C9_18  and  C10_19 
REMARK    5  A    between atoms: C10_19  and  C11_20 
ROOT
HETATM    1  C1  UNL     1      35.488 -30.199 -15.310  1.00  0.00     0.045 C 
HETATM    2  C2  UNL     1      35.057 -31.363 -15.736  1.00  0.00     0.053 A 
HETATM    3  N1  UNL     1      34.535 -31.575 -16.969  1.00  0.00    -0.291 N 
ATOM      4  H1  UNL     1      34.431 -30.849 -17.678  1.00  0.00     0.187 HD
HETATM    5  N2  UNL     1      34.178 -32.832 -17.143  1.00  0.00    -0.221 N 
HETATM    6  C8  UNL     1      34.464 -33.458 -16.022  1.00  0.00     0.135 A 
HETATM    7  C9  UNL     1      35.028 -32.575 -15.080  1.00  0.00     0.039 A 
ENDROOT
BRANCH   5   8
HETATM    8  C3  UNL     1      33.608 -33.307 -18.345  1.00  0.00     0.155 A 
HETATM    9  C4  UNL     1      34.397 -33.751 -19.382  1.00  0.00     0.053 A 
HETATM   10  C5  UNL     1      33.774 -34.197 -20.518  1.00  0.00     0.005 A 
HETATM   11  C6  UNL     1      32.400 -34.221 -20.671  1.00  0.00     0.020 A 
HETATM   12  C7  UNL     1      31.652 -33.767 -19.603  1.00  0.00     0.125 A 
HETATM   13  N3  UNL     1      32.258 -33.325 -18.481  1.00  0.00    -0.217 N 
BRANCH  13  14
HETATM   14  O1  UNL     1      31.425 -32.886 -17.460  1.00  0.00    -0.281 OA
ATOM     15  H1  UNL     1      30.534 -32.609 -17.637  1.00  0.00     0.245 HD
ENDBRANCH  13  14
ENDBRANCH   5   8
BRANCH   6  16
HETATM   16  N4  UNL     1      34.275 -34.699 -15.767  1.00  0.00    -0.383 N 
ATOM     17  H42 UNL     1      33.562 -35.250 -16.245  1.00  0.00     0.157 HD
ATOM     18  H41 UNL     1      34.784 -35.268 -15.091  1.00  0.00     0.157 HD
ENDBRANCH   6  16
BRANCH   7  19
HETATM   19  C10 UNL     1      35.409 -32.900 -13.889  1.00  0.00     0.049 C 
BRANCH  19  20
HETATM   20  C11 UNL     1      36.694 -32.773 -13.240  1.00  0.00     0.057 A 
HETATM   21  N5  UNL     1      37.794 -33.576 -13.341  1.00  0.00    -0.364 N 
HETATM   22  C12 UNL     1      38.801 -33.113 -12.617  1.00  0.00     0.090 A 
ATOM     23  H5  UNL     1      37.834 -34.426 -13.903  1.00  0.00     0.165 HD
HETATM   24  C13 UNL     1      38.406 -31.954 -11.990  1.00  0.00     0.046 A 
HETATM   25  C14 UNL     1      37.099 -31.744 -12.377  1.00  0.00     0.074 A 
HETATM   26  N6  UNL     1      36.247 -30.672 -11.993  1.00  0.00    -0.100 NA
ENDBRANCH  19  20
ENDBRANCH   7  19
TORSDOF 5
ENDMDL
