MODEL 1
REMARK VINA RESULT: -6.273811533      0.000      0.000
REMARK  5 active torsions:
REMARK  status: ('A' for Active; 'I' for Inactive)
REMARK    1  A    between atoms: N1_2  and  C2_4 
REMARK    2  A    between atoms: C4_6  and  C5_7 
REMARK    3  A    between atoms: C8_10  and  N2_11 
REMARK    4  A    between atoms: N2_11  and  C9_13 
REMARK    5  A    between atoms: C12_22  and  N6_23 
ROOT
HETATM    1  C2  UNL     1      31.843 -32.535 -18.908  1.00  0.00     0.118 A 
HETATM    2  C3  UNL     1      32.545 -32.645 -17.760  1.00  0.00     0.081 A 
HETATM    3  C4  UNL     1      33.726 -31.909 -17.603  1.00  0.00     0.080 A 
HETATM    4  N5  UNL     1      34.102 -31.131 -18.601  1.00  0.00    -0.190 N 
ATOM      5  H5  UNL     1      34.962 -30.594 -18.491  1.00  0.00     0.184 HD
HETATM    6  C12 UNL     1      33.409 -31.003 -19.771  1.00  0.00     0.679 A 
HETATM    7  N7  UNL     1      32.283 -31.723 -19.885  1.00  0.00    -0.177 N 
ATOM      8  H7  UNL     1      31.741 -31.652 -20.746  1.00  0.00     0.185 HD
ENDROOT
BRANCH   3   9
HETATM    9  C5  UNL     1      34.491 -32.019 -16.374  1.00  0.00     0.075 A 
HETATM   10  C6  UNL     1      34.310 -33.029 -15.481  1.00  0.00     0.037 A 
HETATM   11  C7  UNL     1      35.078 -33.084 -14.309  1.00  0.00     0.052 A 
HETATM   12  C8  UNL     1      36.017 -32.128 -14.045  1.00  0.00     0.116 A 
HETATM   13  N3  UNL     1      36.157 -31.143 -14.966  1.00  0.00    -0.285 N 
HETATM   14  N4  UNL     1      35.436 -31.095 -16.063  1.00  0.00    -0.297 N 
ATOM     15  H3  UNL     1      36.848 -30.412 -14.801  1.00  0.00     0.188 HD
ATOM     16  H4  UNL     1      35.594 -30.325 -16.714  1.00  0.00     0.187 HD
BRANCH  12  17
HETATM   17  N2  UNL     1      36.716 -32.172 -12.985  1.00  0.00    -0.371 N 
ATOM     18  H2  UNL     1      36.483 -31.496 -12.258  1.00  0.00     0.161 HD
BRANCH  17  19
HETATM   19  C9  UNL     1      37.790 -33.067 -12.702  1.00  0.00     0.075 C 
HETATM   20  C10 UNL     1      38.203 -33.728 -14.009  1.00  0.00     0.031 C 
HETATM   21  C11 UNL     1      39.001 -32.384 -12.113  1.00  0.00     0.031 C 
ENDBRANCH  17  19
ENDBRANCH  12  17
ENDBRANCH   3   9
BRANCH   1  22
HETATM   22  N1  UNL     1      30.759 -33.193 -19.086  1.00  0.00    -0.380 N 
HETATM   23  C1  UNL     1      30.321 -33.735 -20.332  1.00  0.00     0.147 C 
ATOM     24  H1  UNL     1      30.161 -33.342 -18.272  1.00  0.00     0.160 HD
ENDBRANCH   1  22
BRANCH   6  25
HETATM   25  N6  UNL     1      33.884 -30.217 -20.654  1.00  0.00    -0.230 N 
HETATM   26  C13 UNL     1      33.465 -28.873 -20.888  1.00  0.00     0.165 C 
ATOM     27  H6  UNL     1      34.630 -30.581 -21.247  1.00  0.00     0.177 HD
ENDBRANCH   6  25
TORSDOF 5
ENDMDL
MODEL 2
REMARK VINA RESULT: -6.214062411      0.630      2.620
REMARK  5 active torsions:
REMARK  status: ('A' for Active; 'I' for Inactive)
REMARK    1  A    between atoms: N1_2  and  C2_4 
REMARK    2  A    between atoms: C4_6  and  C5_7 
REMARK    3  A    between atoms: C8_10  and  N2_11 
REMARK    4  A    between atoms: N2_11  and  C9_13 
REMARK    5  A    between atoms: C12_22  and  N6_23 
ROOT
HETATM    1  C2  UNL     1      33.319 -30.909 -20.000  1.00  0.00     0.118 A 
HETATM    2  C3  UNL     1      34.050 -30.963 -18.867  1.00  0.00     0.081 A 
HETATM    3  C4  UNL     1      33.652 -31.819 -17.832  1.00  0.00     0.080 A 
HETATM    4  N5  UNL     1      32.563 -32.542 -18.017  1.00  0.00    -0.190 N 
ATOM      5  H5  UNL     1      32.268 -33.166 -17.266  1.00  0.00     0.184 HD
HETATM    6  C12 UNL     1      31.807 -32.504 -19.154  1.00  0.00     0.679 A 
HETATM    7  N7  UNL     1      32.219 -31.673 -20.123  1.00  0.00    -0.177 N 
ATOM      8  H7  UNL     1      31.678 -31.619 -20.986  1.00  0.00     0.185 HD
ENDROOT
BRANCH   3   9
HETATM    9  C5  UNL     1      34.429 -31.888 -16.608  1.00  0.00     0.075 A 
HETATM   10  C6  UNL     1      34.294 -32.896 -15.705  1.00  0.00     0.037 A 
HETATM   11  C7  UNL     1      35.073 -32.910 -14.539  1.00  0.00     0.052 A 
HETATM   12  C8  UNL     1      35.976 -31.917 -14.291  1.00  0.00     0.116 A 
HETATM   13  N3  UNL     1      36.071 -30.937 -15.222  1.00  0.00    -0.285 N 
HETATM   14  N4  UNL     1      35.341 -30.926 -16.313  1.00  0.00    -0.297 N 
ATOM     15  H3  UNL     1      36.735 -30.178 -15.069  1.00  0.00     0.188 HD
ATOM     16  H4  UNL     1      35.465 -30.157 -16.972  1.00  0.00     0.187 HD
BRANCH  12  17
HETATM   17  N2  UNL     1      36.684 -31.925 -13.236  1.00  0.00    -0.371 N 
ATOM     18  H2  UNL     1      36.589 -31.120 -12.617  1.00  0.00     0.161 HD
BRANCH  17  19
HETATM   19  C9  UNL     1      37.598 -32.939 -12.823  1.00  0.00     0.075 C 
HETATM   20  C10 UNL     1      38.077 -33.671 -14.069  1.00  0.00     0.031 C 
HETATM   21  C11 UNL     1      38.807 -32.399 -12.097  1.00  0.00     0.031 C 
ENDBRANCH  17  19
ENDBRANCH  12  17
ENDBRANCH   3   9
BRANCH   1  22
HETATM   22  N1  UNL     1      33.653 -30.138 -20.966  1.00  0.00    -0.380 N 
HETATM   23  C1  UNL     1      33.532 -28.715 -20.963  1.00  0.00     0.147 C 
ATOM     24  H1  UNL     1      34.036 -30.575 -21.805  1.00  0.00     0.160 HD
ENDBRANCH   1  22
BRANCH   6  25
HETATM   25  N6  UNL     1      30.778 -33.254 -19.204  1.00  0.00    -0.230 N 
HETATM   26  C13 UNL     1      30.292 -33.930 -20.362  1.00  0.00     0.165 C 
ATOM     27  H6  UNL     1      30.256 -33.382 -18.337  1.00  0.00     0.177 HD
ENDBRANCH   6  25
TORSDOF 5
ENDMDL
MODEL 3
REMARK VINA RESULT: -6.182234665      1.147      1.241
REMARK  5 active torsions:
REMARK  status: ('A' for Active; 'I' for Inactive)
REMARK    1  A    between atoms: N1_2  and  C2_4 
REMARK    2  A    between atoms: C4_6  and  C5_7 
REMARK    3  A    between atoms: C8_10  and  N2_11 
REMARK    4  A    between atoms: N2_11  and  C9_13 
REMARK    5  A    between atoms: C12_22  and  N6_23 
ROOT
HETATM    1  C2  UNL     1      31.679 -32.612 -19.026  1.00  0.00     0.118 A 
HETATM    2  C3  UNL     1      32.322 -32.798 -17.853  1.00  0.00     0.081 A 
HETATM    3  C4  UNL     1      33.529 -32.129 -17.617  1.00  0.00     0.080 A 
HETATM    4  N5  UNL     1      33.988 -31.336 -18.567  1.00  0.00    -0.190 N 
ATOM      5  H5  UNL     1      34.867 -30.847 -18.400  1.00  0.00     0.184 HD
HETATM    6  C12 UNL     1      33.356 -31.131 -19.761  1.00  0.00     0.679 A 
HETATM    7  N7  UNL     1      32.203 -31.789 -19.951  1.00  0.00    -0.177 N 
ATOM      8  H7  UNL     1      31.704 -31.660 -20.831  1.00  0.00     0.185 HD
ENDROOT
BRANCH   3   9
HETATM    9  C5  UNL     1      34.230 -32.321 -16.361  1.00  0.00     0.075 A 
HETATM   10  C6  UNL     1      34.912 -31.322 -15.738  1.00  0.00     0.037 A 
HETATM   11  C7  UNL     1      35.571 -31.565 -14.524  1.00  0.00     0.052 A 
HETATM   12  C8  UNL     1      35.541 -32.803 -13.949  1.00  0.00     0.116 A 
HETATM   13  N3  UNL     1      34.849 -33.763 -14.611  1.00  0.00    -0.285 N 
HETATM   14  N4  UNL     1      34.232 -33.532 -15.747  1.00  0.00    -0.297 N 
ATOM     15  H3  UNL     1      34.806 -34.700 -14.211  1.00  0.00     0.188 HD
ATOM     16  H4  UNL     1      33.729 -34.301 -16.191  1.00  0.00     0.187 HD
BRANCH  12  17
HETATM   17  N2  UNL     1      36.137 -33.029 -12.850  1.00  0.00    -0.371 N 
ATOM     18  H2  UNL     1      35.551 -33.084 -12.017  1.00  0.00     0.161 HD
BRANCH  17  19
HETATM   19  C9  UNL     1      37.537 -33.215 -12.656  1.00  0.00     0.075 C 
HETATM   20  C10 UNL     1      38.144 -33.619 -13.991  1.00  0.00     0.031 C 
HETATM   21  C11 UNL     1      38.246 -31.973 -12.170  1.00  0.00     0.031 C 
ENDBRANCH  17  19
ENDBRANCH  12  17
ENDBRANCH   3   9
BRANCH   1  22
HETATM   22  N1  UNL     1      30.573 -33.208 -19.276  1.00  0.00    -0.380 N 
HETATM   23  C1  UNL     1      30.308 -33.996 -20.436  1.00  0.00     0.147 C 
ATOM     24  H1  UNL     1      29.823 -33.111 -18.591  1.00  0.00     0.160 HD
ENDBRANCH   1  22
BRANCH   6  25
HETATM   25  N6  UNL     1      33.908 -30.339 -20.592  1.00  0.00    -0.230 N 
HETATM   26  C13 UNL     1      35.293 -30.319 -20.933  1.00  0.00     0.165 C 
ATOM     27  H6  UNL     1      33.306 -29.658 -21.054  1.00  0.00     0.177 HD
ENDBRANCH   6  25
TORSDOF 5
ENDMDL
MODEL 4
REMARK VINA RESULT: -6.176665703      1.870      3.510
REMARK  5 active torsions:
REMARK  status: ('A' for Active; 'I' for Inactive)
REMARK    1  A    between atoms: N1_2  and  C2_4 
REMARK    2  A    between atoms: C4_6  and  C5_7 
REMARK    3  A    between atoms: C8_10  and  N2_11 
REMARK    4  A    between atoms: N2_11  and  C9_13 
REMARK    5  A    between atoms: C12_22  and  N6_23 
ROOT
HETATM    1  C2  UNL     1      31.514 -31.601 -20.582  1.00  0.00     0.118 A 
HETATM    2  C3  UNL     1      32.340 -31.765 -19.526  1.00  0.00     0.081 A 
HETATM    3  C4  UNL     1      32.237 -32.924 -18.747  1.00  0.00     0.080 A 
HETATM    4  N5  UNL     1      31.324 -33.815 -19.087  1.00  0.00    -0.190 N 
ATOM      5  H5  UNL     1      31.246 -34.660 -18.522  1.00  0.00     0.184 HD
HETATM    6  C12 UNL     1      30.478 -33.672 -20.150  1.00  0.00     0.679 A 
HETATM    7  N7  UNL     1      30.606 -32.549 -20.873  1.00  0.00    -0.177 N 
ATOM      8  H7  UNL     1      29.990 -32.409 -21.674  1.00  0.00     0.185 HD
ENDROOT
BRANCH   3   9
HETATM    9  C5  UNL     1      33.118 -33.113 -17.609  1.00  0.00     0.075 A 
HETATM   10  C6  UNL     1      33.520 -32.087 -16.810  1.00  0.00     0.037 A 
HETATM   11  C7  UNL     1      34.373 -32.329 -15.724  1.00  0.00     0.052 A 
HETATM   12  C8  UNL     1      34.813 -33.592 -15.449  1.00  0.00     0.116 A 
HETATM   13  N3  UNL     1      34.384 -34.577 -16.276  1.00  0.00    -0.285 N 
HETATM   14  N4  UNL     1      33.585 -34.348 -17.293  1.00  0.00    -0.297 N 
ATOM     15  H3  UNL     1      34.693 -35.533 -16.101  1.00  0.00     0.188 HD
ATOM     16  H4  UNL     1      33.300 -35.137 -17.873  1.00  0.00     0.187 HD
BRANCH  12  17
HETATM   17  N2  UNL     1      35.586 -33.817 -14.466  1.00  0.00    -0.371 N 
ATOM     18  H2  UNL     1      35.432 -34.686 -13.956  1.00  0.00     0.161 HD
BRANCH  17  19
HETATM   19  C9  UNL     1      36.646 -32.984 -14.000  1.00  0.00     0.075 C 
HETATM   20  C10 UNL     1      36.313 -32.556 -12.579  1.00  0.00     0.031 C 
HETATM   21  C11 UNL     1      37.989 -33.674 -13.985  1.00  0.00     0.031 C 
ENDBRANCH  17  19
ENDBRANCH  12  17
ENDBRANCH   3   9
BRANCH   1  22
HETATM   22  N1  UNL     1      31.579 -30.554 -21.316  1.00  0.00    -0.380 N 
HETATM   23  C1  UNL     1      30.762 -29.393 -21.167  1.00  0.00     0.147 C 
ATOM     24  H1  UNL     1      32.270 -30.550 -22.067  1.00  0.00     0.160 HD
ENDBRANCH   1  22
BRANCH   6  25
HETATM   25  N6  UNL     1      29.642 -34.608 -20.368  1.00  0.00    -0.230 N 
HETATM   26  C13 UNL     1      28.275 -34.437 -20.737  1.00  0.00     0.165 C 
ATOM     27  H6  UNL     1      29.981 -35.565 -20.270  1.00  0.00     0.177 HD
ENDBRANCH   6  25
TORSDOF 5
ENDMDL
MODEL 5
REMARK VINA RESULT: -6.167451898      1.153      2.826
REMARK  5 active torsions:
REMARK  status: ('A' for Active; 'I' for Inactive)
REMARK    1  A    between atoms: N1_2  and  C2_4 
REMARK    2  A    between atoms: C4_6  and  C5_7 
REMARK    3  A    between atoms: C8_10  and  N2_11 
REMARK    4  A    between atoms: N2_11  and  C9_13 
REMARK    5  A    between atoms: C12_22  and  N6_23 
ROOT
HETATM    1  C2  UNL     1      33.400 -31.047 -19.771  1.00  0.00     0.118 A 
HETATM    2  C3  UNL     1      34.055 -31.220 -18.603  1.00  0.00     0.081 A 
HETATM    3  C4  UNL     1      33.536 -32.106 -17.649  1.00  0.00     0.080 A 
HETATM    4  N5  UNL     1      32.415 -32.738 -17.943  1.00  0.00    -0.190 N 
ATOM      5  H5  UNL     1      32.033 -33.384 -17.252  1.00  0.00     0.184 HD
HETATM    6  C12 UNL     1      31.735 -32.579 -19.118  1.00  0.00     0.679 A 
HETATM    7  N7  UNL     1      32.262 -31.723 -20.006  1.00  0.00    -0.177 N 
ATOM      8  H7  UNL     1      31.781 -31.580 -20.894  1.00  0.00     0.185 HD
ENDROOT
BRANCH   3   9
HETATM    9  C5  UNL     1      34.229 -32.302 -16.389  1.00  0.00     0.075 A 
HETATM   10  C6  UNL     1      34.907 -31.305 -15.759  1.00  0.00     0.037 A 
HETATM   11  C7  UNL     1      35.559 -31.553 -14.541  1.00  0.00     0.052 A 
HETATM   12  C8  UNL     1      35.524 -32.792 -13.971  1.00  0.00     0.116 A 
HETATM   13  N3  UNL     1      34.836 -33.750 -14.640  1.00  0.00    -0.285 N 
HETATM   14  N4  UNL     1      34.227 -33.515 -15.780  1.00  0.00    -0.297 N 
ATOM     15  H3  UNL     1      34.790 -34.688 -14.244  1.00  0.00     0.188 HD
ATOM     16  H4  UNL     1      33.726 -34.282 -16.229  1.00  0.00     0.187 HD
BRANCH  12  17
HETATM   17  N2  UNL     1      36.113 -33.023 -12.869  1.00  0.00    -0.371 N 
ATOM     18  H2  UNL     1      35.523 -33.072 -12.039  1.00  0.00     0.161 HD
BRANCH  17  19
HETATM   19  C9  UNL     1      37.511 -33.219 -12.668  1.00  0.00     0.075 C 
HETATM   20  C10 UNL     1      38.122 -33.626 -14.001  1.00  0.00     0.031 C 
HETATM   21  C11 UNL     1      38.227 -31.984 -12.176  1.00  0.00     0.031 C 
ENDBRANCH  17  19
ENDBRANCH  12  17
ENDBRANCH   3   9
BRANCH   1  22
HETATM   22  N1  UNL     1      33.845 -30.245 -20.665  1.00  0.00    -0.380 N 
HETATM   23  C1  UNL     1      33.484 -28.869 -20.788  1.00  0.00     0.147 C 
ATOM     24  H1  UNL     1      34.509 -30.619 -21.342  1.00  0.00     0.160 HD
ENDBRANCH   1  22
BRANCH   6  25
HETATM   25  N6  UNL     1      30.664 -33.251 -19.274  1.00  0.00    -0.230 N 
HETATM   26  C13 UNL     1      30.325 -34.026 -20.423  1.00  0.00     0.165 C 
ATOM     27  H6  UNL     1      29.989 -33.232 -18.510  1.00  0.00     0.177 HD
ENDBRANCH   6  25
TORSDOF 5
ENDMDL
