MODEL 1
REMARK VINA RESULT: -6.530356000      0.000      0.000
REMARK  5 active torsions:
REMARK  status: ('A' for Active; 'I' for Inactive)
REMARK    1  A    between atoms: C3_3  and  N1_4 
REMARK    2  A    between atoms: N1_4  and  C4_6 
REMARK    3  A    between atoms: C5_9  and  N3_10 
REMARK    4  A    between atoms: C6_15  and  N5_16 
REMARK    5  A    between atoms: N5_16  and  C7_18 
ROOT
HETATM    1  C1  UNL     1      11.513 118.969  -2.058  1.00  0.00     0.014 C 
HETATM    2  C2  UNL     1      11.317 118.843  -3.239  1.00  0.00    -0.097 C 
HETATM    3  C3  UNL     1      11.081 118.671  -4.692  1.00  0.00     0.231 C 
ENDROOT
BRANCH   3   4
HETATM    4  N1  UNL     1      10.191 119.711  -5.098  1.00  0.00    -0.215 N 
ATOM      5  H1  UNL     1      10.498 120.678  -4.996  1.00  0.00     0.178 HD
BRANCH   4   6
HETATM    6  C4  UNL     1       9.016 119.491  -5.588  1.00  0.00     0.708 A 
HETATM    7  N2  UNL     1       8.707 119.725  -6.870  1.00  0.00    -0.022 N 
HETATM    8  C5  UNL     1       7.491 119.485  -7.331  1.00  0.00     0.705 A 
ATOM      9  H2  UNL     1       9.420 120.094  -7.499  1.00  0.00     0.203 HD
HETATM   10  N4  UNL     1       6.529 118.991  -6.500  1.00  0.00    -0.021 N 
HETATM   11  C6  UNL     1       6.806 118.744  -5.208  1.00  0.00     0.711 A 
ATOM     12  H4  UNL     1       5.593 118.807  -6.861  1.00  0.00     0.203 HD
HETATM   13  N7  UNL     1       8.053 119.002  -4.781  1.00  0.00    -0.021 N 
ATOM     14  H7  UNL     1       8.280 118.821  -3.803  1.00  0.00     0.203 HD
BRANCH   8  15
HETATM   15  N3  UNL     1       7.252 119.731  -8.577  1.00  0.00    -0.234 N 
ATOM     16  H32 UNL     1       7.757 120.455  -9.087  1.00  0.00     0.174 HD
ATOM     17  H31 UNL     1       6.537 119.176  -9.048  1.00  0.00     0.174 HD
ENDBRANCH   8  15
BRANCH  11  18
HETATM   18  N5  UNL     1       5.896 118.285  -4.451  1.00  0.00    -0.191 N 
ATOM     19  H5  UNL     1       6.117 117.441  -3.923  1.00  0.00     0.184 HD
BRANCH  18  20
HETATM   20  C7  UNL     1       4.616 118.827  -4.274  1.00  0.00     0.053 A 
HETATM   21  C8  UNL     1       3.489 118.177  -4.737  1.00  0.00     0.047 A 
HETATM   22  C9  UNL     1       2.219 118.681  -4.580  1.00  0.00     0.091 A 
HETATM   23  N6  UNL     1       2.069 119.854  -3.950  1.00  0.00    -0.359 N 
HETATM   24  C10 UNL     1       3.120 120.550  -3.469  1.00  0.00     0.087 A 
ATOM     25  H6  UNL     1       1.129 120.232  -3.831  1.00  0.00     0.166 HD
HETATM   26  C11 UNL     1       2.888 121.802  -2.803  1.00  0.00    -0.060 C 
HETATM   27  C13 UNL     1       4.410 120.033  -3.631  1.00  0.00     0.069 A 
HETATM   28  C12 UNL     1       2.697 122.854  -2.243  1.00  0.00     0.019 C 
ENDBRANCH  18  20
ENDBRANCH  11  18
ENDBRANCH   4   6
ENDBRANCH   3   4
TORSDOF 5
ENDMDL
MODEL 2
REMARK VINA RESULT: -6.460881313      2.875      6.909
REMARK  5 active torsions:
REMARK  status: ('A' for Active; 'I' for Inactive)
REMARK    1  A    between atoms: C3_3  and  N1_4 
REMARK    2  A    between atoms: N1_4  and  C4_6 
REMARK    3  A    between atoms: C5_9  and  N3_10 
REMARK    4  A    between atoms: C6_15  and  N5_16 
REMARK    5  A    between atoms: N5_16  and  C7_18 
ROOT
HETATM    1  C1  UNL     1       2.980 124.281  -3.061  1.00  0.00     0.014 C 
HETATM    2  C2  UNL     1       2.493 123.383  -2.424  1.00  0.00    -0.097 C 
HETATM    3  C3  UNL     1       1.878 122.285  -1.642  1.00  0.00     0.231 C 
ENDROOT
BRANCH   3   4
HETATM    4  N1  UNL     1       2.808 121.201  -1.639  1.00  0.00    -0.215 N 
ATOM      5  H1  UNL     1       3.380 121.057  -0.807  1.00  0.00     0.178 HD
BRANCH   4   6
HETATM    6  C4  UNL     1       2.962 120.394  -2.636  1.00  0.00     0.708 A 
HETATM    7  N2  UNL     1       1.933 119.816  -3.269  1.00  0.00    -0.022 N 
HETATM    8  C5  UNL     1       2.135 118.995  -4.286  1.00  0.00     0.705 A 
ATOM      9  H2  UNL     1       0.980 120.011  -2.962  1.00  0.00     0.203 HD
HETATM   10  N4  UNL     1       3.405 118.726  -4.707  1.00  0.00    -0.021 N 
HETATM   11  C6  UNL     1       4.459 119.290  -4.093  1.00  0.00     0.711 A 
ATOM     12  H4  UNL     1       3.555 118.092  -5.492  1.00  0.00     0.203 HD
HETATM   13  N7  UNL     1       4.210 120.117  -3.065  1.00  0.00    -0.021 N 
ATOM     14  H7  UNL     1       4.999 120.553  -2.589  1.00  0.00     0.203 HD
BRANCH   8  15
HETATM   15  N3  UNL     1       1.103 118.467  -4.857  1.00  0.00    -0.234 N 
ATOM     16  H32 UNL     1       0.484 117.828  -4.360  1.00  0.00     0.174 HD
ATOM     17  H31 UNL     1       0.917 118.707  -5.831  1.00  0.00     0.174 HD
ENDBRANCH   8  15
BRANCH  11  18
HETATM   18  N5  UNL     1       5.632 119.026  -4.501  1.00  0.00    -0.191 N 
ATOM     19  H5  UNL     1       6.393 119.156  -3.834  1.00  0.00     0.184 HD
BRANCH  18  20
HETATM   20  C7  UNL     1       5.981 118.572  -5.780  1.00  0.00     0.053 A 
HETATM   21  C8  UNL     1       6.678 119.374  -6.662  1.00  0.00     0.047 A 
HETATM   22  C9  UNL     1       7.036 118.961  -7.924  1.00  0.00     0.091 A 
HETATM   23  N6  UNL     1       6.693 117.726  -8.314  1.00  0.00    -0.359 N 
HETATM   24  C10 UNL     1       6.012 116.882  -7.512  1.00  0.00     0.087 A 
ATOM     25  H6  UNL     1       6.956 117.414  -9.249  1.00  0.00     0.166 HD
HETATM   26  C11 UNL     1       5.675 115.571  -7.993  1.00  0.00    -0.060 C 
HETATM   27  C13 UNL     1       5.650 117.307  -6.229  1.00  0.00     0.069 A 
HETATM   28  C12 UNL     1       5.391 114.469  -8.394  1.00  0.00     0.019 C 
ENDBRANCH  18  20
ENDBRANCH  11  18
ENDBRANCH   4   6
ENDBRANCH   3   4
TORSDOF 5
ENDMDL
MODEL 3
REMARK VINA RESULT: -6.447051067      1.617      3.904
REMARK  5 active torsions:
REMARK  status: ('A' for Active; 'I' for Inactive)
REMARK    1  A    between atoms: C3_3  and  N1_4 
REMARK    2  A    between atoms: N1_4  and  C4_6 
REMARK    3  A    between atoms: C5_9  and  N3_10 
REMARK    4  A    between atoms: C6_15  and  N5_16 
REMARK    5  A    between atoms: N5_16  and  C7_18 
ROOT
HETATM    1  C1  UNL     1       4.988 122.918  -9.934  1.00  0.00     0.014 C 
HETATM    2  C2  UNL     1       5.986 122.510  -9.399  1.00  0.00    -0.097 C 
HETATM    3  C3  UNL     1       7.220 122.024  -8.737  1.00  0.00     0.231 C 
ENDROOT
BRANCH   3   4
HETATM    4  N1  UNL     1       7.005 120.652  -8.405  1.00  0.00    -0.215 N 
ATOM      5  H1  UNL     1       6.467 120.076  -9.052  1.00  0.00     0.178 HD
BRANCH   4   6
HETATM    6  C4  UNL     1       7.457 120.103  -7.326  1.00  0.00     0.708 A 
HETATM    7  N2  UNL     1       8.765 120.004  -7.055  1.00  0.00    -0.022 N 
HETATM    8  C5  UNL     1       9.186 119.434  -5.938  1.00  0.00     0.705 A 
ATOM      9  H2  UNL     1       9.446 120.373  -7.719  1.00  0.00     0.203 HD
HETATM   10  N4  UNL     1       8.286 118.936  -5.042  1.00  0.00    -0.021 N 
HETATM   11  C6  UNL     1       6.966 119.020  -5.284  1.00  0.00     0.711 A 
ATOM     12  H4  UNL     1       8.616 118.498  -4.182  1.00  0.00     0.203 HD
HETATM   13  N7  UNL     1       6.582 119.606  -6.429  1.00  0.00    -0.021 N 
ATOM     14  H7  UNL     1       5.584 119.679  -6.629  1.00  0.00     0.203 HD
BRANCH   8  15
HETATM   15  N3  UNL     1      10.459 119.366  -5.731  1.00  0.00    -0.234 N 
ATOM     16  H32 UNL     1      10.885 119.739  -4.882  1.00  0.00     0.174 HD
ATOM     17  H31 UNL     1      11.041 118.926  -6.445  1.00  0.00     0.174 HD
ENDBRANCH   8  15
BRANCH  11  18
HETATM   18  N5  UNL     1       6.145 118.551  -4.437  1.00  0.00    -0.191 N 
ATOM     19  H5  UNL     1       6.474 117.782  -3.854  1.00  0.00     0.184 HD
BRANCH  18  20
HETATM   20  C7  UNL     1       4.831 118.989  -4.228  1.00  0.00     0.053 A 
HETATM   21  C8  UNL     1       3.748 118.246  -4.657  1.00  0.00     0.047 A 
HETATM   22  C9  UNL     1       2.446 118.647  -4.468  1.00  0.00     0.091 A 
HETATM   23  N6  UNL     1       2.219 119.809  -3.842  1.00  0.00    -0.359 N 
HETATM   24  C10 UNL     1       3.222 120.592  -3.393  1.00  0.00     0.087 A 
ATOM     25  H6  UNL     1       1.255 120.111  -3.699  1.00  0.00     0.166 HD
HETATM   26  C11 UNL     1       2.907 121.827  -2.730  1.00  0.00    -0.060 C 
HETATM   27  C13 UNL     1       4.544 120.180  -3.588  1.00  0.00     0.069 A 
HETATM   28  C12 UNL     1       2.647 122.865  -2.172  1.00  0.00     0.019 C 
ENDBRANCH  18  20
ENDBRANCH  11  18
ENDBRANCH   4   6
ENDBRANCH   3   4
TORSDOF 5
ENDMDL
MODEL 4
REMARK VINA RESULT: -6.400418243      1.708      3.560
REMARK  5 active torsions:
REMARK  status: ('A' for Active; 'I' for Inactive)
REMARK    1  A    between atoms: C3_3  and  N1_4 
REMARK    2  A    between atoms: N1_4  and  C4_6 
REMARK    3  A    between atoms: C5_9  and  N3_10 
REMARK    4  A    between atoms: C6_15  and  N5_16 
REMARK    5  A    between atoms: N5_16  and  C7_18 
ROOT
HETATM    1  C1  UNL     1       7.475 123.819  -7.716  1.00  0.00     0.014 C 
HETATM    2  C2  UNL     1       7.481 122.682  -8.111  1.00  0.00    -0.097 C 
HETATM    3  C3  UNL     1       7.476 121.287  -8.608  1.00  0.00     0.231 C 
ENDROOT
BRANCH   3   4
HETATM    4  N1  UNL     1       8.708 120.691  -8.199  1.00  0.00    -0.215 N 
ATOM      5  H1  UNL     1       9.484 120.684  -8.860  1.00  0.00     0.178 HD
BRANCH   4   6
HETATM    6  C4  UNL     1       8.889 120.162  -7.035  1.00  0.00     0.708 A 
HETATM    7  N2  UNL     1      10.002 120.355  -6.314  1.00  0.00    -0.022 N 
HETATM    8  C5  UNL     1      10.147 119.794  -5.125  1.00  0.00     0.705 A 
ATOM      9  H2  UNL     1      10.747 120.943  -6.687  1.00  0.00     0.203 HD
HETATM   10  N4  UNL     1       9.157 119.006  -4.614  1.00  0.00    -0.021 N 
HETATM   11  C6  UNL     1       8.029 118.792  -5.313  1.00  0.00     0.711 A 
ATOM     12  H4  UNL     1       9.275 118.576  -3.697  1.00  0.00     0.203 HD
HETATM   13  N7  UNL     1       7.922 119.380  -6.515  1.00  0.00    -0.021 N 
ATOM     14  H7  UNL     1       7.072 119.228  -7.058  1.00  0.00     0.203 HD
BRANCH   8  15
HETATM   15  N3  UNL     1      11.241 120.017  -4.476  1.00  0.00    -0.234 N 
ATOM     16  H32 UNL     1      12.091 120.328  -4.947  1.00  0.00     0.174 HD
ATOM     17  H31 UNL     1      11.240 119.873  -3.466  1.00  0.00     0.174 HD
ENDBRANCH   8  15
BRANCH  11  18
HETATM   18  N5  UNL     1       7.120 118.055  -4.819  1.00  0.00    -0.191 N 
ATOM     19  H5  UNL     1       7.406 117.138  -4.476  1.00  0.00     0.184 HD
BRANCH  18  20
HETATM   20  C7  UNL     1       5.763 118.381  -4.702  1.00  0.00     0.053 A 
HETATM   21  C8  UNL     1       4.786 117.637  -5.335  1.00  0.00     0.047 A 
HETATM   22  C9  UNL     1       3.446 117.930  -5.241  1.00  0.00     0.091 A 
HETATM   23  N6  UNL     1       3.072 118.984  -4.503  1.00  0.00    -0.359 N 
HETATM   24  C10 UNL     1       3.964 119.760  -3.854  1.00  0.00     0.087 A 
ATOM     25  H6  UNL     1       2.078 119.206  -4.430  1.00  0.00     0.166 HD
HETATM   26  C11 UNL     1       3.493 120.875  -3.079  1.00  0.00    -0.060 C 
HETATM   27  C13 UNL     1       5.326 119.458  -3.952  1.00  0.00     0.069 A 
HETATM   28  C12 UNL     1       3.102 121.812  -2.427  1.00  0.00     0.019 C 
ENDBRANCH  18  20
ENDBRANCH  11  18
ENDBRANCH   4   6
ENDBRANCH   3   4
TORSDOF 5
ENDMDL
MODEL 5
REMARK VINA RESULT: -6.341418112      1.239      6.615
REMARK  5 active torsions:
REMARK  status: ('A' for Active; 'I' for Inactive)
REMARK    1  A    between atoms: C3_3  and  N1_4 
REMARK    2  A    between atoms: N1_4  and  C4_6 
REMARK    3  A    between atoms: C5_9  and  N3_10 
REMARK    4  A    between atoms: C6_15  and  N5_16 
REMARK    5  A    between atoms: N5_16  and  C7_18 
ROOT
HETATM    1  C1  UNL     1       2.628 124.210  -2.824  1.00  0.00     0.014 C 
HETATM    2  C2  UNL     1       2.595 123.094  -2.373  1.00  0.00    -0.097 C 
HETATM    3  C3  UNL     1       2.537 121.723  -1.813  1.00  0.00     0.231 C 
ENDROOT
BRANCH   3   4
HETATM    4  N1  UNL     1       3.637 120.999  -2.364  1.00  0.00    -0.215 N 
ATOM      5  H1  UNL     1       4.575 121.209  -2.023  1.00  0.00     0.178 HD
BRANCH   4   6
HETATM    6  C4  UNL     1       3.506 120.090  -3.273  1.00  0.00     0.708 A 
HETATM    7  N2  UNL     1       2.317 119.734  -3.779  1.00  0.00    -0.022 N 
HETATM    8  C5  UNL     1       2.227 118.798  -4.709  1.00  0.00     0.705 A 
ATOM      9  H2  UNL     1       1.470 120.191  -3.442  1.00  0.00     0.203 HD
HETATM   10  N4  UNL     1       3.353 118.179  -5.169  1.00  0.00    -0.021 N 
HETATM   11  C6  UNL     1       4.561 118.514  -4.682  1.00  0.00     0.711 A 
ATOM     12  H4  UNL     1       3.278 117.458  -5.886  1.00  0.00     0.203 HD
HETATM   13  N7  UNL     1       4.607 119.468  -3.740  1.00  0.00    -0.021 N 
ATOM     14  H7  UNL     1       5.516 119.734  -3.360  1.00  0.00     0.203 HD
BRANCH   8  15
HETATM   15  N3  UNL     1       1.054 118.497  -5.158  1.00  0.00    -0.234 N 
ATOM     16  H32 UNL     1       0.610 119.035  -5.902  1.00  0.00     0.174 HD
ATOM     17  H31 UNL     1       0.573 117.696  -4.749  1.00  0.00     0.174 HD
ENDBRANCH   8  15
BRANCH  11  18
HETATM   18  N5  UNL     1       5.595 117.925  -5.124  1.00  0.00    -0.191 N 
ATOM     19  H5  UNL     1       5.537 116.913  -5.238  1.00  0.00     0.184 HD
BRANCH  18  20
HETATM   20  C7  UNL     1       6.810 118.534  -5.469  1.00  0.00     0.053 A 
HETATM   21  C8  UNL     1       6.984 119.150  -6.693  1.00  0.00     0.047 A 
HETATM   22  C9  UNL     1       8.161 119.756  -7.062  1.00  0.00     0.091 A 
HETATM   23  N6  UNL     1       9.184 119.749  -6.197  1.00  0.00    -0.359 N 
HETATM   24  C10 UNL     1       9.093 119.169  -4.983  1.00  0.00     0.087 A 
ATOM     25  H6  UNL     1      10.060 120.198  -6.466  1.00  0.00     0.166 HD
HETATM   26  C11 UNL     1      10.229 119.198  -4.103  1.00  0.00    -0.060 C 
HETATM   27  C13 UNL     1       7.893 118.553  -4.611  1.00  0.00     0.069 A 
HETATM   28  C12 UNL     1      11.181 119.220  -3.362  1.00  0.00     0.019 C 
ENDBRANCH  18  20
ENDBRANCH  11  18
ENDBRANCH   4   6
ENDBRANCH   3   4
TORSDOF 5
ENDMDL
