MODEL 1
REMARK VINA RESULT: -5.961391583      0.000      0.000
REMARK  3 active torsions:
REMARK  status: ('A' for Active; 'I' for Inactive)
REMARK    1  A    between atoms: O1_2  and  C2_3 
REMARK       I    between atoms: N2_7  and  C4_9 
REMARK    2  A    between atoms: C7_16  and  N5_17 
REMARK    3  A    between atoms: N5_17  and  C8_19 
ROOT
HETATM    1  C2  UNL     1       2.499 117.352  -8.572  1.00  0.00     0.172 A 
HETATM    2  N1  UNL     1       1.748 117.948  -7.628  1.00  0.00    -0.321 N 
ATOM      3  H1  UNL     1       0.795 118.231  -7.857  1.00  0.00     0.169 HD
HETATM    4  C3  UNL     1       2.221 118.180  -6.388  1.00  0.00     0.110 A 
HETATM    5  N2  UNL     1       1.426 118.757  -5.553  1.00  0.00    -0.317 N 
ATOM      6  H2  UNL     1       0.490 119.004  -5.874  1.00  0.00     0.170 HD
HETATM    7  C4  UNL     1       1.775 119.067  -4.220  1.00  0.00     0.187 C 
HETATM    8  N3  UNL     1       2.114 120.276  -3.956  1.00  0.00    -0.373 N 
ATOM      9  H31 UNL     1       2.365 120.500  -2.993  1.00  0.00     0.158 HD
ATOM     10  H32 UNL     1       2.130 120.991  -4.683  1.00  0.00     0.158 HD
HETATM   11  N4  UNL     1       1.752 118.075  -3.210  1.00  0.00    -0.064 NA
HETATM   12  C5  UNL     1       3.498 117.806  -6.064  1.00  0.00     0.066 A 
HETATM   13  C6  UNL     1       4.303 117.195  -6.991  1.00  0.00     0.042 A 
HETATM   14  C7  UNL     1       5.589 116.807  -6.698  1.00  0.00     0.115 A 
HETATM   15  N6  UNL     1       6.296 116.217  -7.677  1.00  0.00    -0.338 N 
ATOM     16  H6  UNL     1       7.254 115.918  -7.491  1.00  0.00     0.168 HD
HETATM   17  C11 UNL     1       5.759 116.009  -8.914  1.00  0.00     0.182 A 
HETATM   18  N7  UNL     1       4.521 116.375  -9.219  1.00  0.00    -0.348 N 
ATOM     19  H7  UNL     1       4.139 116.210 -10.150  1.00  0.00     0.167 HD
HETATM   20  C12 UNL     1       3.778 116.976  -8.254  1.00  0.00     0.099 A 
ENDROOT
BRANCH   1  21
HETATM   21  O1  UNL     1       1.966 117.129  -9.853  1.00  0.00    -0.339 OA
HETATM   22  C1  UNL     1       0.700 116.568 -10.065  1.00  0.00     0.211 C 
ENDBRANCH   1  21
BRANCH  14  23
HETATM   23  N5  UNL     1       6.057 117.021  -5.517  1.00  0.00    -0.372 N 
ATOM     24  H5  UNL     1       5.949 116.290  -4.814  1.00  0.00     0.161 HD
BRANCH  23  25
HETATM   25  C8  UNL     1       6.728 118.246  -5.138  1.00  0.00     0.075 C 
HETATM   26  C9  UNL     1       5.962 119.033  -4.107  1.00  0.00     0.031 C 
HETATM   27  C10 UNL     1       7.018 119.118  -6.344  1.00  0.00     0.031 C 
ENDBRANCH  23  25
ENDBRANCH  14  23
TORSDOF 3
ENDMDL
MODEL 2
REMARK VINA RESULT: -5.651986062      1.796      2.532
REMARK  3 active torsions:
REMARK  status: ('A' for Active; 'I' for Inactive)
REMARK    1  A    between atoms: O1_2  and  C2_3 
REMARK       I    between atoms: N2_7  and  C4_9 
REMARK    2  A    between atoms: C7_16  and  N5_17 
REMARK    3  A    between atoms: N5_17  and  C8_19 
ROOT
HETATM    1  C2  UNL     1       2.441 117.999  -6.047  1.00  0.00     0.172 A 
HETATM    2  N1  UNL     1       1.968 118.887  -5.154  1.00  0.00    -0.321 N 
ATOM      3  H1  UNL     1       0.967 119.082  -5.130  1.00  0.00     0.169 HD
HETATM    4  C3  UNL     1       2.781 119.525  -4.290  1.00  0.00     0.110 A 
HETATM    5  N2  UNL     1       2.234 120.359  -3.472  1.00  0.00    -0.317 N 
ATOM      6  H2  UNL     1       1.224 120.488  -3.523  1.00  0.00     0.170 HD
HETATM    7  C4  UNL     1       2.952 121.103  -2.510  1.00  0.00     0.187 C 
HETATM    8  N3  UNL     1       3.225 122.327  -2.781  1.00  0.00    -0.373 N 
ATOM      9  H31 UNL     1       3.743 122.864  -2.086  1.00  0.00     0.158 HD
ATOM     10  H32 UNL     1       2.933 122.750  -3.663  1.00  0.00     0.158 HD
HETATM   11  N4  UNL     1       3.357 120.516  -1.287  1.00  0.00    -0.064 NA
HETATM   12  C5  UNL     1       4.128 119.275  -4.309  1.00  0.00     0.066 A 
HETATM   13  C6  UNL     1       4.658 118.378  -5.200  1.00  0.00     0.042 A 
HETATM   14  C7  UNL     1       6.006 118.104  -5.245  1.00  0.00     0.115 A 
HETATM   15  N6  UNL     1       6.425 117.210  -6.156  1.00  0.00    -0.338 N 
ATOM     16  H6  UNL     1       7.419 116.986  -6.215  1.00  0.00     0.168 HD
HETATM   17  C11 UNL     1       5.550 116.596  -7.004  1.00  0.00     0.182 A 
HETATM   18  N7  UNL     1       4.247 116.844  -6.979  1.00  0.00    -0.348 N 
ATOM     19  H7  UNL     1       3.610 116.374  -7.622  1.00  0.00     0.167 HD
HETATM   20  C12 UNL     1       3.788 117.745  -6.071  1.00  0.00     0.099 A 
ENDROOT
BRANCH   1  21
HETATM   21  O1  UNL     1       1.557 117.356  -6.930  1.00  0.00    -0.339 OA
HETATM   22  C1  UNL     1       1.521 117.627  -8.304  1.00  0.00     0.211 C 
ENDBRANCH   1  21
BRANCH  14  23
HETATM   23  N5  UNL     1       6.797 118.705  -4.426  1.00  0.00    -0.372 N 
ATOM     24  H5  UNL     1       6.554 118.712  -3.436  1.00  0.00     0.161 HD
BRANCH  23  25
HETATM   25  C8  UNL     1       8.014 119.370  -4.840  1.00  0.00     0.075 C 
HETATM   26  C9  UNL     1       8.116 119.517  -6.335  1.00  0.00     0.031 C 
HETATM   27  C10 UNL     1       9.244 118.665  -4.305  1.00  0.00     0.031 C 
ENDBRANCH  23  25
ENDBRANCH  14  23
TORSDOF 3
ENDMDL
MODEL 3
REMARK VINA RESULT: -5.597392663      1.234      4.284
REMARK  3 active torsions:
REMARK  status: ('A' for Active; 'I' for Inactive)
REMARK    1  A    between atoms: O1_2  and  C2_3 
REMARK       I    between atoms: N2_7  and  C4_9 
REMARK    2  A    between atoms: C7_16  and  N5_17 
REMARK    3  A    between atoms: N5_17  and  C8_19 
ROOT
HETATM    1  C2  UNL     1       2.044 117.627  -8.211  1.00  0.00     0.172 A 
HETATM    2  N1  UNL     1       2.993 117.076  -8.989  1.00  0.00    -0.321 N 
ATOM      3  H1  UNL     1       2.778 116.874  -9.966  1.00  0.00     0.169 HD
HETATM    4  C3  UNL     1       4.219 116.784  -8.513  1.00  0.00     0.110 A 
HETATM    5  N2  UNL     1       5.060 116.258  -9.336  1.00  0.00    -0.317 N 
ATOM      6  H2  UNL     1       4.755 116.093 -10.295  1.00  0.00     0.170 HD
HETATM    7  C4  UNL     1       6.381 115.897  -8.988  1.00  0.00     0.187 C 
HETATM    8  N3  UNL     1       6.618 114.660  -8.743  1.00  0.00    -0.373 N 
ATOM      9  H31 UNL     1       7.571 114.399  -8.492  1.00  0.00     0.158 HD
ATOM     10  H32 UNL     1       5.878 113.959  -8.798  1.00  0.00     0.158 HD
HETATM   11  N4  UNL     1       7.407 116.869  -8.912  1.00  0.00    -0.064 NA
HETATM   12  C5  UNL     1       4.523 117.049  -7.204  1.00  0.00     0.066 A 
HETATM   13  C6  UNL     1       3.590 117.609  -6.371  1.00  0.00     0.042 A 
HETATM   14  C7  UNL     1       3.863 117.888  -5.051  1.00  0.00     0.115 A 
HETATM   15  N6  UNL     1       2.880 118.437  -4.318  1.00  0.00    -0.338 N 
ATOM     16  H6  UNL     1       3.051 118.654  -3.336  1.00  0.00     0.168 HD
HETATM   17  C11 UNL     1       1.658 118.709  -4.860  1.00  0.00     0.182 A 
HETATM   18  N7  UNL     1       1.372 118.450  -6.129  1.00  0.00    -0.348 N 
ATOM     19  H7  UNL     1       0.451 118.662  -6.514  1.00  0.00     0.167 HD
HETATM   20  C12 UNL     1       2.342 117.893  -6.899  1.00  0.00     0.099 A 
ENDROOT
BRANCH   1  21
HETATM   21  O1  UNL     1       0.778 117.915  -8.748  1.00  0.00    -0.339 OA
HETATM   22  C1  UNL     1       0.554 118.958  -9.656  1.00  0.00     0.211 C 
ENDBRANCH   1  21
BRANCH  14  23
HETATM   23  N5  UNL     1       5.030 117.615  -4.580  1.00  0.00    -0.372 N 
ATOM     24  H5  UNL     1       5.301 116.636  -4.495  1.00  0.00     0.161 HD
BRANCH  23  25
HETATM   25  C8  UNL     1       5.977 118.629  -4.167  1.00  0.00     0.075 C 
HETATM   26  C9  UNL     1       5.314 119.934  -3.814  1.00  0.00     0.031 C 
HETATM   27  C10 UNL     1       7.042 118.859  -5.221  1.00  0.00     0.031 C 
ENDBRANCH  23  25
ENDBRANCH  14  23
TORSDOF 3
ENDMDL
MODEL 4
REMARK VINA RESULT: -5.328149113      2.117      4.874
REMARK  3 active torsions:
REMARK  status: ('A' for Active; 'I' for Inactive)
REMARK    1  A    between atoms: O1_2  and  C2_3 
REMARK       I    between atoms: N2_7  and  C4_9 
REMARK    2  A    between atoms: C7_16  and  N5_17 
REMARK    3  A    between atoms: N5_17  and  C8_19 
ROOT
HETATM    1  C2  UNL     1       3.190 117.894  -6.069  1.00  0.00     0.172 A 
HETATM    2  N1  UNL     1       3.483 117.035  -7.061  1.00  0.00    -0.321 N 
ATOM      3  H1  UNL     1       2.724 116.632  -7.610  1.00  0.00     0.169 HD
HETATM    4  C3  UNL     1       4.754 116.692  -7.350  1.00  0.00     0.110 A 
HETATM    5  N2  UNL     1       4.934 115.861  -8.319  1.00  0.00    -0.317 N 
ATOM      6  H2  UNL     1       4.112 115.511  -8.811  1.00  0.00     0.170 HD
HETATM    7  C4  UNL     1       6.203 115.407  -8.741  1.00  0.00     0.187 C 
HETATM    8  N3  UNL     1       6.586 114.248  -8.345  1.00  0.00    -0.373 N 
ATOM      9  H31 UNL     1       7.502 113.920  -8.649  1.00  0.00     0.158 HD
ATOM     10  H32 UNL     1       5.993 113.672  -7.746  1.00  0.00     0.158 HD
HETATM   11  N4  UNL     1       7.025 116.206  -9.571  1.00  0.00    -0.064 NA
HETATM   12  C5  UNL     1       5.786 117.225  -6.624  1.00  0.00     0.066 A 
HETATM   13  C6  UNL     1       5.539 118.105  -5.602  1.00  0.00     0.042 A 
HETATM   14  C7  UNL     1       6.551 118.658  -4.853  1.00  0.00     0.115 A 
HETATM   15  N6  UNL     1       6.203 119.509  -3.874  1.00  0.00    -0.338 N 
ATOM     16  H6  UNL     1       6.932 119.935  -3.300  1.00  0.00     0.168 HD
HETATM   17  C11 UNL     1       4.896 119.816  -3.631  1.00  0.00     0.182 A 
HETATM   18  N7  UNL     1       3.903 119.296  -4.340  1.00  0.00    -0.348 N 
ATOM     19  H7  UNL     1       2.932 119.539  -4.142  1.00  0.00     0.167 HD
HETATM   20  C12 UNL     1       4.219 118.430  -5.337  1.00  0.00     0.099 A 
ENDROOT
BRANCH   1  21
HETATM   21  O1  UNL     1       1.850 118.224  -5.801  1.00  0.00    -0.339 OA
HETATM   22  C1  UNL     1       1.404 118.629  -4.536  1.00  0.00     0.211 C 
ENDBRANCH   1  21
BRANCH  14  23
HETATM   23  N5  UNL     1       7.772 118.341  -5.116  1.00  0.00    -0.372 N 
ATOM     24  H5  UNL     1       7.958 117.421  -5.513  1.00  0.00     0.161 HD
BRANCH  23  25
HETATM   25  C8  UNL     1       8.891 119.227  -4.878  1.00  0.00     0.075 C 
HETATM   26  C9  UNL     1       9.532 119.710  -6.152  1.00  0.00     0.031 C 
HETATM   27  C10 UNL     1       9.934 118.578  -3.988  1.00  0.00     0.031 C 
ENDBRANCH  23  25
ENDBRANCH  14  23
TORSDOF 3
ENDMDL
MODEL 5
REMARK VINA RESULT: -5.279670115      2.019      4.639
REMARK  3 active torsions:
REMARK  status: ('A' for Active; 'I' for Inactive)
REMARK    1  A    between atoms: O1_2  and  C2_3 
REMARK       I    between atoms: N2_7  and  C4_9 
REMARK    2  A    between atoms: C7_16  and  N5_17 
REMARK    3  A    between atoms: N5_17  and  C8_19 
ROOT
HETATM    1  C2  UNL     1       2.497 118.219  -5.572  1.00  0.00     0.172 A 
HETATM    2  N1  UNL     1       1.704 118.357  -6.649  1.00  0.00    -0.321 N 
ATOM      3  H1  UNL     1       0.741 118.667  -6.520  1.00  0.00     0.169 HD
HETATM    4  C3  UNL     1       2.147 118.096  -7.895  1.00  0.00     0.110 A 
HETATM    5  N2  UNL     1       1.311 118.257  -8.863  1.00  0.00    -0.317 N 
ATOM      6  H2  UNL     1       0.368 118.571  -8.636  1.00  0.00     0.170 HD
HETATM    7  C4  UNL     1       1.625 118.025 -10.221  1.00  0.00     0.187 C 
HETATM    8  N3  UNL     1       1.241 116.917 -10.742  1.00  0.00    -0.373 N 
ATOM      9  H31 UNL     1       1.467 116.749 -11.723  1.00  0.00     0.158 HD
ATOM     10  H32 UNL     1       0.724 116.227 -10.197  1.00  0.00     0.158 HD
HETATM   11  N4  UNL     1       2.342 118.982 -10.978  1.00  0.00    -0.064 NA
HETATM   12  C5  UNL     1       3.437 117.678  -8.086  1.00  0.00     0.066 A 
HETATM   13  C6  UNL     1       4.285 117.523  -7.020  1.00  0.00     0.042 A 
HETATM   14  C7  UNL     1       5.586 117.105  -7.177  1.00  0.00     0.115 A 
HETATM   15  N6  UNL     1       6.336 116.984  -6.068  1.00  0.00    -0.338 N 
ATOM     16  H6  UNL     1       7.305 116.675  -6.152  1.00  0.00     0.168 HD
HETATM   17  C11 UNL     1       5.828 117.264  -4.833  1.00  0.00     0.182 A 
HETATM   18  N7  UNL     1       4.577 117.668  -4.657  1.00  0.00    -0.348 N 
ATOM     19  H7  UNL     1       4.216 117.873  -3.725  1.00  0.00     0.167 HD
HETATM   20  C12 UNL     1       3.790 117.801  -5.757  1.00  0.00     0.099 A 
ENDROOT
BRANCH   1  21
HETATM   21  O1  UNL     1       1.994 118.502  -4.291  1.00  0.00    -0.339 OA
HETATM   22  C1  UNL     1       2.235 119.713  -3.628  1.00  0.00     0.211 C 
ENDBRANCH   1  21
BRANCH  14  23
HETATM   23  N5  UNL     1       6.027 116.852  -8.360  1.00  0.00    -0.372 N 
ATOM     24  H5  UNL     1       6.017 117.602  -9.051  1.00  0.00     0.161 HD
BRANCH  23  25
HETATM   25  C8  UNL     1       6.533 115.556  -8.760  1.00  0.00     0.075 C 
HETATM   26  C9  UNL     1       6.898 115.500 -10.220  1.00  0.00     0.031 C 
HETATM   27  C10 UNL     1       5.553 114.449  -8.428  1.00  0.00     0.031 C 
ENDBRANCH  23  25
ENDBRANCH  14  23
TORSDOF 3
ENDMDL
