MODEL 1
REMARK VINA RESULT: -6.244362608      0.000      0.000
REMARK  3 active torsions:
REMARK  status: ('A' for Active; 'I' for Inactive)
REMARK    1  A    between atoms: C3_3  and  S1_4 
REMARK    2  A    between atoms: S1_4  and  C4_6 
REMARK    3  A    between atoms: N2_12  and  N3_14 
ROOT
HETATM    1  C1  UNL     1       3.392 119.719  -9.953  1.00  0.00     0.013 C 
HETATM    2  C2  UNL     1       3.319 118.504  -9.907  1.00  0.00    -0.104 C 
HETATM    3  C3  UNL     1       3.231 117.039  -9.877  1.00  0.00     0.207 C 
ENDROOT
BRANCH   3   4
HETATM    4  S1  UNL     1       2.866 116.529  -8.275  1.00  0.00     0.061 S 
HETATM    5  O1  UNL     1       1.212 116.270  -8.127  1.00  0.00    -0.252 OA
BRANCH   4   6
HETATM    6  C4  UNL     1       3.432 117.413  -6.956  1.00  0.00     0.040 A 
HETATM    7  C5  UNL     1       2.494 118.012  -6.131  1.00  0.00     0.053 A 
HETATM    8  C6  UNL     1       2.828 118.757  -5.026  1.00  0.00     0.062 A 
HETATM    9  N1  UNL     1       1.877 119.329  -4.242  1.00  0.00    -0.335 N 
HETATM   10  C9  UNL     1       4.169 118.904  -4.742  1.00  0.00     0.062 A 
HETATM   11  C7  UNL     1       2.211 120.056  -3.161  1.00  0.00     0.189 A 
ATOM     12  H1  UNL     1       0.893 119.204  -4.476  1.00  0.00     0.168 HD
HETATM   13  N2  UNL     1       1.270 120.574  -2.456  1.00  0.00    -0.287 N 
HETATM   14  C8  UNL     1       3.552 120.199  -2.884  1.00  0.00     0.291 A 
ATOM     15  H2  UNL     1       0.313 120.397  -2.763  1.00  0.00     0.188 HD
HETATM   16  O2  UNL     1       3.863 120.883  -1.870  1.00  0.00    -0.264 OA
HETATM   17  N4  UNL     1       4.515 119.630  -3.663  1.00  0.00    -0.318 N 
ATOM     18  H4  UNL     1       5.500 119.756  -3.429  1.00  0.00     0.169 HD
HETATM   19  C10 UNL     1       5.115 118.309  -5.560  1.00  0.00     0.040 A 
HETATM   20  C11 UNL     1       4.767 117.563  -6.667  1.00  0.00    -0.041 A 
HETATM   21  C12 UNL     1       5.732 116.917  -7.559  1.00  0.00     0.049 C 
BRANCH  13  22
HETATM   22  N3  UNL     1       1.425 121.339  -1.333  1.00  0.00    -0.343 N 
ATOM     23  H32 UNL     1       1.733 120.841  -0.498  1.00  0.00     0.176 HD
ATOM     24  H31 UNL     1       1.263 122.344  -1.258  1.00  0.00     0.176 HD
ENDBRANCH  13  22
ENDBRANCH   4   6
ENDBRANCH   3   4
TORSDOF 3
ENDMDL
MODEL 2
REMARK VINA RESULT: -6.069942303      3.124      4.438
REMARK  3 active torsions:
REMARK  status: ('A' for Active; 'I' for Inactive)
REMARK    1  A    between atoms: C3_3  and  S1_4 
REMARK    2  A    between atoms: S1_4  and  C4_6 
REMARK    3  A    between atoms: N2_12  and  N3_14 
ROOT
HETATM    1  C1  UNL     1      11.007 120.114  -5.733  1.00  0.00     0.013 C 
HETATM    2  C2  UNL     1      10.056 119.589  -5.182  1.00  0.00    -0.104 C 
HETATM    3  C3  UNL     1       8.924 118.952  -4.497  1.00  0.00     0.207 C 
ENDROOT
BRANCH   3   4
HETATM    4  S1  UNL     1       7.666 118.665  -5.635  1.00  0.00     0.061 S 
HETATM    5  O1  UNL     1       7.852 119.692  -6.953  1.00  0.00    -0.252 OA
BRANCH   4   6
HETATM    6  C4  UNL     1       6.057 118.655  -5.134  1.00  0.00     0.040 A 
HETATM    7  C5  UNL     1       5.639 119.668  -4.286  1.00  0.00     0.053 A 
HETATM    8  C6  UNL     1       4.356 119.770  -3.809  1.00  0.00     0.062 A 
HETATM    9  N1  UNL     1       3.985 120.780  -2.978  1.00  0.00    -0.335 N 
HETATM   10  C9  UNL     1       3.452 118.806  -4.204  1.00  0.00     0.062 A 
HETATM   11  C7  UNL     1       2.726 120.874  -2.515  1.00  0.00     0.189 A 
ATOM     12  H1  UNL     1       4.674 121.478  -2.701  1.00  0.00     0.168 HD
HETATM   13  N2  UNL     1       2.432 121.850  -1.732  1.00  0.00    -0.287 N 
HETATM   14  C8  UNL     1       1.831 119.907  -2.915  1.00  0.00     0.291 A 
ATOM     15  H2  UNL     1       3.183 122.503  -1.508  1.00  0.00     0.188 HD
HETATM   16  O2  UNL     1       0.649 119.997  -2.478  1.00  0.00    -0.264 OA
HETATM   17  N4  UNL     1       2.190 118.890  -3.747  1.00  0.00    -0.318 N 
ATOM     18  H4  UNL     1       1.501 118.190  -4.024  1.00  0.00     0.169 HD
HETATM   19  C10 UNL     1       3.860 117.789  -5.052  1.00  0.00     0.040 A 
HETATM   20  C11 UNL     1       5.153 117.697  -5.525  1.00  0.00    -0.041 A 
HETATM   21  C12 UNL     1       5.627 116.640  -6.422  1.00  0.00     0.049 C 
BRANCH  13  22
HETATM   22  N3  UNL     1       1.211 122.099  -1.169  1.00  0.00    -0.343 N 
ATOM     23  H32 UNL     1       0.427 121.580  -1.566  1.00  0.00     0.176 HD
ATOM     24  H31 UNL     1       1.018 122.744  -0.403  1.00  0.00     0.176 HD
ENDBRANCH  13  22
ENDBRANCH   4   6
ENDBRANCH   3   4
TORSDOF 3
ENDMDL
MODEL 3
REMARK VINA RESULT: -5.833040450      0.661      1.181
REMARK  3 active torsions:
REMARK  status: ('A' for Active; 'I' for Inactive)
REMARK    1  A    between atoms: C3_3  and  S1_4 
REMARK    2  A    between atoms: S1_4  and  C4_6 
REMARK    3  A    between atoms: N2_12  and  N3_14 
ROOT
HETATM    1  C1  UNL     1       4.493 115.518 -11.267  1.00  0.00     0.013 C 
HETATM    2  C2  UNL     1       3.811 116.288 -10.615  1.00  0.00    -0.104 C 
HETATM    3  C3  UNL     1       2.992 117.234  -9.847  1.00  0.00     0.207 C 
ENDROOT
BRANCH   3   4
HETATM    4  S1  UNL     1       2.761 116.617  -8.257  1.00  0.00     0.061 S 
HETATM    5  O1  UNL     1       1.140 116.235  -8.031  1.00  0.00    -0.252 OA
BRANCH   4   6
HETATM    6  C4  UNL     1       3.344 117.469  -6.925  1.00  0.00     0.040 A 
HETATM    7  C5  UNL     1       2.419 118.084  -6.098  1.00  0.00     0.053 A 
HETATM    8  C6  UNL     1       2.768 118.807  -4.983  1.00  0.00     0.062 A 
HETATM    9  N1  UNL     1       1.831 119.396  -4.196  1.00  0.00    -0.335 N 
HETATM   10  C9  UNL     1       4.112 118.912  -4.690  1.00  0.00     0.062 A 
HETATM   11  C7  UNL     1       2.179 120.101  -3.105  1.00  0.00     0.189 A 
ATOM     12  H1  UNL     1       0.844 119.302  -4.437  1.00  0.00     0.168 HD
HETATM   13  N2  UNL     1       1.249 120.637  -2.398  1.00  0.00    -0.287 N 
HETATM   14  C8  UNL     1       3.522 120.202  -2.820  1.00  0.00     0.291 A 
ATOM     15  H2  UNL     1       0.290 120.492  -2.713  1.00  0.00     0.188 HD
HETATM   16  O2  UNL     1       3.848 120.865  -1.796  1.00  0.00    -0.264 OA
HETATM   17  N4  UNL     1       4.473 119.615  -3.601  1.00  0.00    -0.318 N 
ATOM     18  H4  UNL     1       5.460 119.710  -3.360  1.00  0.00     0.169 HD
HETATM   19  C10 UNL     1       5.045 118.300  -5.511  1.00  0.00     0.040 A 
HETATM   20  C11 UNL     1       4.682 117.577  -6.628  1.00  0.00    -0.041 A 
HETATM   21  C12 UNL     1       5.632 116.914  -7.523  1.00  0.00     0.049 C 
BRANCH  13  22
HETATM   22  N3  UNL     1       1.420 121.384  -1.266  1.00  0.00    -0.343 N 
ATOM     23  H32 UNL     1       1.893 120.915  -0.493  1.00  0.00     0.176 HD
ATOM     24  H31 UNL     1       1.123 122.350  -1.127  1.00  0.00     0.176 HD
ENDBRANCH  13  22
ENDBRANCH   4   6
ENDBRANCH   3   4
TORSDOF 3
ENDMDL
MODEL 4
REMARK VINA RESULT: -5.689701499      1.737      2.205
REMARK  3 active torsions:
REMARK  status: ('A' for Active; 'I' for Inactive)
REMARK    1  A    between atoms: C3_3  and  S1_4 
REMARK    2  A    between atoms: S1_4  and  C4_6 
REMARK    3  A    between atoms: N2_12  and  N3_14 
ROOT
HETATM    1  C1  UNL     1       0.050 114.029  -8.429  1.00  0.00     0.013 C 
HETATM    2  C2  UNL     1       0.660 114.981  -8.884  1.00  0.00    -0.104 C 
HETATM    3  C3  UNL     1       1.375 116.132  -9.447  1.00  0.00     0.207 C 
ENDROOT
BRANCH   3   4
HETATM    4  S1  UNL     1       3.035 116.035  -9.006  1.00  0.00     0.061 S 
HETATM    5  O1  UNL     1       3.491 114.423  -8.874  1.00  0.00    -0.252 OA
BRANCH   4   6
HETATM    6  C4  UNL     1       3.612 116.908  -7.684  1.00  0.00     0.040 A 
HETATM    7  C5  UNL     1       2.680 117.490  -6.839  1.00  0.00     0.053 A 
HETATM    8  C6  UNL     1       3.023 118.224  -5.730  1.00  0.00     0.062 A 
HETATM    9  N1  UNL     1       2.079 118.779  -4.926  1.00  0.00    -0.335 N 
HETATM   10  C9  UNL     1       4.368 118.378  -5.462  1.00  0.00     0.062 A 
HETATM   11  C7  UNL     1       2.422 119.497  -3.842  1.00  0.00     0.189 A 
ATOM     12  H1  UNL     1       1.093 118.650  -5.150  1.00  0.00     0.168 HD
HETATM   13  N2  UNL     1       1.486 119.999  -3.118  1.00  0.00    -0.287 N 
HETATM   14  C8  UNL     1       3.766 119.645  -3.581  1.00  0.00     0.291 A 
ATOM     15  H2  UNL     1       0.527 119.819  -3.415  1.00  0.00     0.188 HD
HETATM   16  O2  UNL     1       4.086 120.320  -2.563  1.00  0.00    -0.264 OA
HETATM   17  N4  UNL     1       4.722 119.094  -4.380  1.00  0.00    -0.318 N 
ATOM     18  H4  UNL     1       5.709 119.224  -4.157  1.00  0.00     0.169 HD
HETATM   19  C10 UNL     1       5.306 117.800  -6.300  1.00  0.00     0.040 A 
HETATM   20  C11 UNL     1       4.950 117.064  -7.411  1.00  0.00    -0.041 A 
HETATM   21  C12 UNL     1       5.907 116.436  -8.324  1.00  0.00     0.049 C 
BRANCH  13  22
HETATM   22  N3  UNL     1       1.651 120.752  -1.988  1.00  0.00    -0.343 N 
ATOM     23  H32 UNL     1       1.491 120.265  -1.106  1.00  0.00     0.176 HD
ATOM     24  H31 UNL     1       1.914 121.737  -1.950  1.00  0.00     0.176 HD
ENDBRANCH  13  22
ENDBRANCH   4   6
ENDBRANCH   3   4
TORSDOF 3
ENDMDL
MODEL 5
REMARK VINA RESULT: -5.562504357      1.734      2.263
REMARK  3 active torsions:
REMARK  status: ('A' for Active; 'I' for Inactive)
REMARK    1  A    between atoms: C3_3  and  S1_4 
REMARK    2  A    between atoms: S1_4  and  C4_6 
REMARK    3  A    between atoms: N2_12  and  N3_14 
ROOT
HETATM    1  C1  UNL     1       3.934 113.087  -9.369  1.00  0.00     0.013 C 
HETATM    2  C2  UNL     1       4.526 114.030  -8.875  1.00  0.00    -0.104 C 
HETATM    3  C3  UNL     1       5.259 115.151  -8.275  1.00  0.00     0.207 C 
ENDROOT
BRANCH   3   4
HETATM    4  S1  UNL     1       4.178 116.468  -8.038  1.00  0.00     0.061 S 
HETATM    5  O1  UNL     1       3.991 117.311  -9.481  1.00  0.00    -0.252 OA
BRANCH   4   6
HETATM    6  C4  UNL     1       4.425 117.548  -6.768  1.00  0.00     0.040 A 
HETATM    7  C5  UNL     1       3.332 117.886  -5.987  1.00  0.00     0.053 A 
HETATM    8  C6  UNL     1       3.403 118.753  -4.924  1.00  0.00     0.062 A 
HETATM    9  N1  UNL     1       2.307 119.060  -4.182  1.00  0.00    -0.335 N 
HETATM   10  C9  UNL     1       4.634 119.305  -4.637  1.00  0.00     0.062 A 
HETATM   11  C7  UNL     1       2.384 119.909  -3.143  1.00  0.00     0.189 A 
ATOM     12  H1  UNL     1       1.409 118.638  -4.418  1.00  0.00     0.168 HD
HETATM   13  N2  UNL     1       1.314 120.163  -2.477  1.00  0.00    -0.287 N 
HETATM   14  C8  UNL     1       3.617 120.455  -2.863  1.00  0.00     0.291 A 
ATOM     15  H2  UNL     1       0.460 119.695  -2.782  1.00  0.00     0.188 HD
HETATM   16  O2  UNL     1       3.687 121.253  -1.887  1.00  0.00    -0.264 OA
HETATM   17  N4  UNL     1       4.723 120.156  -3.599  1.00  0.00    -0.318 N 
ATOM     18  H4  UNL     1       5.622 120.579  -3.363  1.00  0.00     0.169 HD
HETATM   19  C10 UNL     1       5.734 118.973  -5.411  1.00  0.00     0.040 A 
HETATM   20  C11 UNL     1       5.649 118.100  -6.476  1.00  0.00    -0.041 A 
HETATM   21  C12 UNL     1       6.784 117.721  -7.321  1.00  0.00     0.049 C 
BRANCH  13  22
HETATM   22  N3  UNL     1       1.209 120.997  -1.399  1.00  0.00    -0.343 N 
ATOM     23  H32 UNL     1       2.001 121.620  -1.242  1.00  0.00     0.176 HD
ATOM     24  H31 UNL     1       0.423 121.051  -0.750  1.00  0.00     0.176 HD
ENDBRANCH  13  22
ENDBRANCH   4   6
ENDBRANCH   3   4
TORSDOF 3
ENDMDL
