MODEL 1
REMARK VINA RESULT: -4.227867926      0.000      0.000
REMARK  2 active torsions:
REMARK  status: ('A' for Active; 'I' for Inactive)
REMARK    1  A    between atoms: C2_2  and  N1_3 
REMARK    2  A    between atoms: C13_22  and  C14_23 
ROOT
HETATM    1  N1  UNL     1     -43.072  12.099   1.211  1.00  0.00     0.099 N 
HETATM    2  C3  UNL     1     -41.645  11.886   1.324  1.00  0.00     0.300 C 
HETATM    3  C4  UNL     1     -41.120  10.711   0.588  1.00  0.00     0.262 C 
HETATM    4  N2  UNL     1     -39.746  10.940   0.123  1.00  0.00    -0.072 N 
ATOM      5  H21 UNL     1     -39.235  11.557   0.755  1.00  0.00     0.277 HD
ATOM      6  H22 UNL     1     -39.727  11.521  -0.715  1.00  0.00     0.277 HD
HETATM    7  C5  UNL     1     -39.048   9.695  -0.080  1.00  0.00     0.259 C 
HETATM    8  C6  UNL     1     -39.048   9.287  -1.558  1.00  0.00     0.259 C 
HETATM    9  N3  UNL     1     -40.229   8.557  -1.898  1.00  0.00    -0.072 N 
ATOM     10  H31 UNL     1     -40.998   8.814  -1.279  1.00  0.00     0.277 HD
ATOM     11  H32 UNL     1     -40.125   7.573  -1.646  1.00  0.00     0.277 HD
HETATM   12  C7  UNL     1     -40.627   8.684  -3.275  1.00  0.00     0.251 C 
HETATM   13  C8  UNL     1     -41.205  10.056  -3.590  1.00  0.00     0.146 C 
HETATM   14  N4  UNL     1     -42.240  10.023  -4.549  1.00  0.00    -0.401 N 
ATOM     15  H4  UNL     1     -42.032  10.181  -5.535  1.00  0.00     0.158 HD
HETATM   16  C9  UNL     1     -43.556   9.773  -4.136  1.00  0.00     0.055 C 
HETATM   17  C10 UNL     1     -43.871   9.860  -2.689  1.00  0.00     0.044 C 
HETATM   18  C11 UNL     1     -44.202  11.288  -2.244  1.00  0.00     0.007 C 
HETATM   19  C12 UNL     1     -44.323  11.248  -0.734  1.00  0.00     0.041 C 
HETATM   20  C13 UNL     1     -43.502  12.390  -0.116  1.00  0.00     0.260 C 
ENDROOT
BRANCH  20  21
HETATM   21  C14 UNL     1     -44.408  13.572  -0.155  1.00  0.00     0.088 C 
HETATM   22  N5  UNL     1     -44.368  14.467  -1.042  1.00  0.00    -0.409 N 
ATOM     23  H52 UNL     1     -43.664  14.360  -1.772  1.00  0.00     0.155 HD
ATOM     24  H51 UNL     1     -44.989  15.276  -1.069  1.00  0.00     0.155 HD
ENDBRANCH  20  21
BRANCH   1  25
HETATM   25  C2  UNL     1     -43.391  13.202   2.098  1.00  0.00     0.269 C 
HETATM   26  C1  UNL     1     -42.319  13.327   3.195  1.00  0.00     0.037 C 
ENDBRANCH   1  25
TORSDOF 2
ENDMDL
MODEL 2
REMARK VINA RESULT: -3.905207404      1.688      4.138
REMARK  2 active torsions:
REMARK  status: ('A' for Active; 'I' for Inactive)
REMARK    1  A    between atoms: C2_2  and  N1_3 
REMARK    2  A    between atoms: C13_22  and  C14_23 
ROOT
HETATM    1  N1  UNL     1     -43.173  11.983  -0.736  1.00  0.00     0.099 N 
HETATM    2  C3  UNL     1     -43.956  11.006  -1.462  1.00  0.00     0.300 C 
HETATM    3  C4  UNL     1     -43.238  10.301  -2.551  1.00  0.00     0.262 C 
HETATM    4  N2  UNL     1     -43.743   8.933  -2.727  1.00  0.00    -0.072 N 
ATOM      5  H21 UNL     1     -44.733   8.865  -2.490  1.00  0.00     0.277 HD
ATOM      6  H22 UNL     1     -43.368   8.302  -2.019  1.00  0.00     0.277 HD
HETATM    7  C5  UNL     1     -43.483   8.448  -4.059  1.00  0.00     0.259 C 
HETATM    8  C6  UNL     1     -42.235   7.558  -4.099  1.00  0.00     0.259 C 
HETATM    9  N3  UNL     1     -41.047   8.334  -4.267  1.00  0.00    -0.072 N 
ATOM     10  H31 UNL     1     -41.181   9.276  -3.898  1.00  0.00     0.277 HD
ATOM     11  H32 UNL     1     -40.899   8.553  -5.252  1.00  0.00     0.277 HD
HETATM   12  C7  UNL     1     -39.866   7.736  -3.701  1.00  0.00     0.251 C 
HETATM   13  C8  UNL     1     -39.860   7.782  -2.180  1.00  0.00     0.146 C 
HETATM   14  N4  UNL     1     -38.573   7.955  -1.628  1.00  0.00    -0.401 N 
ATOM     15  H4  UNL     1     -38.025   7.145  -1.338  1.00  0.00     0.158 HD
HETATM   16  C9  UNL     1     -38.053   9.248  -1.480  1.00  0.00     0.055 C 
HETATM   17  C10 UNL     1     -38.979  10.401  -1.613  1.00  0.00     0.044 C 
HETATM   18  C11 UNL     1     -39.689  10.738  -0.298  1.00  0.00     0.007 C 
HETATM   19  C12 UNL     1     -40.717  11.802  -0.629  1.00  0.00     0.041 C 
HETATM   20  C13 UNL     1     -42.077  11.418  -0.022  1.00  0.00     0.260 C 
ENDROOT
BRANCH  20  21
HETATM   21  C14 UNL     1     -42.018  11.915   1.381  1.00  0.00     0.088 C 
HETATM   22  N5  UNL     1     -41.907  11.170   2.392  1.00  0.00    -0.409 N 
ATOM     23  H52 UNL     1     -41.856  10.166   2.221  1.00  0.00     0.155 HD
ATOM     24  H51 UNL     1     -41.867  11.510   3.353  1.00  0.00     0.155 HD
ENDBRANCH  20  21
BRANCH   1  25
HETATM   25  C2  UNL     1     -44.087  12.639   0.180  1.00  0.00     0.269 C 
HETATM   26  C1  UNL     1     -44.424  14.052  -0.329  1.00  0.00     0.037 C 
ENDBRANCH   1  25
TORSDOF 2
ENDMDL
MODEL 3
REMARK VINA RESULT: -3.856874836      1.542      4.089
REMARK  2 active torsions:
REMARK  status: ('A' for Active; 'I' for Inactive)
REMARK    1  A    between atoms: C2_2  and  N1_3 
REMARK    2  A    between atoms: C13_22  and  C14_23 
ROOT
HETATM    1  N1  UNL     1     -43.304  11.857   0.189  1.00  0.00     0.099 N 
HETATM    2  C3  UNL     1     -44.344  11.240  -0.606  1.00  0.00     0.300 C 
HETATM    3  C4  UNL     1     -43.987  10.976  -2.021  1.00  0.00     0.262 C 
HETATM    4  N2  UNL     1     -44.676   9.785  -2.533  1.00  0.00    -0.072 N 
ATOM      5  H21 UNL     1     -45.585   9.656  -2.088  1.00  0.00     0.277 HD
ATOM      6  H22 UNL     1     -44.224   8.926  -2.219  1.00  0.00     0.277 HD
HETATM    7  C5  UNL     1     -44.792   9.825  -3.970  1.00  0.00     0.259 C 
HETATM    8  C6  UNL     1     -43.702   8.985  -4.645  1.00  0.00     0.259 C 
HETATM    9  N3  UNL     1     -42.502   9.740  -4.828  1.00  0.00    -0.072 N 
ATOM     10  H31 UNL     1     -42.434  10.479  -4.128  1.00  0.00     0.277 HD
ATOM     11  H32 UNL     1     -42.562  10.307  -5.674  1.00  0.00     0.277 HD
HETATM   12  C7  UNL     1     -41.300   8.946  -4.839  1.00  0.00     0.251 C 
HETATM   13  C8  UNL     1     -40.936   8.421  -3.458  1.00  0.00     0.146 C 
HETATM   14  N4  UNL     1     -39.545   8.345  -3.234  1.00  0.00    -0.401 N 
ATOM     15  H4  UNL     1     -39.044   7.473  -3.403  1.00  0.00     0.158 HD
HETATM   16  C9  UNL     1     -38.857   9.477  -2.778  1.00  0.00     0.055 C 
HETATM   17  C10 UNL     1     -39.645  10.618  -2.247  1.00  0.00     0.044 C 
HETATM   18  C11 UNL     1     -39.986  10.457  -0.763  1.00  0.00     0.007 C 
HETATM   19  C12 UNL     1     -40.930  11.591  -0.416  1.00  0.00     0.041 C 
HETATM   20  C13 UNL     1     -42.147  11.041   0.346  1.00  0.00     0.260 C 
ENDROOT
BRANCH  20  21
HETATM   21  C14 UNL     1     -41.705  10.977   1.766  1.00  0.00     0.088 C 
HETATM   22  N5  UNL     1     -41.328   9.922   2.345  1.00  0.00    -0.409 N 
ATOM     23  H52 UNL     1     -41.331   9.066   1.789  1.00  0.00     0.155 HD
ATOM     24  H51 UNL     1     -41.026   9.878   3.318  1.00  0.00     0.155 HD
ENDBRANCH  20  21
BRANCH   1  25
HETATM   25  C2  UNL     1     -43.896  12.146   1.481  1.00  0.00     0.269 C 
HETATM   26  C1  UNL     1     -44.059  13.665   1.663  1.00  0.00     0.037 C 
ENDBRANCH   1  25
TORSDOF 2
ENDMDL
MODEL 4
REMARK VINA RESULT: -3.831592062      1.832      4.330
REMARK  2 active torsions:
REMARK  status: ('A' for Active; 'I' for Inactive)
REMARK    1  A    between atoms: C2_2  and  N1_3 
REMARK    2  A    between atoms: C13_22  and  C14_23 
ROOT
HETATM    1  N1  UNL     1     -42.932  11.966  -0.269  1.00  0.00     0.099 N 
HETATM    2  C3  UNL     1     -44.184  11.255  -0.418  1.00  0.00     0.300 C 
HETATM    3  C4  UNL     1     -44.634  11.052  -1.816  1.00  0.00     0.262 C 
HETATM    4  N2  UNL     1     -45.393   9.804  -1.958  1.00  0.00    -0.072 N 
ATOM      5  H21 UNL     1     -45.900   9.573  -1.103  1.00  0.00     0.277 HD
ATOM      6  H22 UNL     1     -44.776   8.993  -1.999  1.00  0.00     0.277 HD
HETATM    7  C5  UNL     1     -46.275   9.855  -3.098  1.00  0.00     0.259 C 
HETATM    8  C6  UNL     1     -45.665   9.145  -4.312  1.00  0.00     0.259 C 
HETATM    9  N3  UNL     1     -44.822  10.025  -5.060  1.00  0.00    -0.072 N 
ATOM     10  H31 UNL     1     -44.444  10.756  -4.457  1.00  0.00     0.277 HD
ATOM     11  H32 UNL     1     -45.378  10.596  -5.697  1.00  0.00     0.277 HD
HETATM   12  C7  UNL     1     -43.761   9.363  -5.774  1.00  0.00     0.251 C 
HETATM   13  C8  UNL     1     -42.664   8.857  -4.849  1.00  0.00     0.146 C 
HETATM   14  N4  UNL     1     -41.374   8.925  -5.417  1.00  0.00    -0.401 N 
ATOM     15  H4  UNL     1     -40.978   8.113  -5.891  1.00  0.00     0.158 HD
HETATM   16  C9  UNL     1     -40.641  10.115  -5.326  1.00  0.00     0.055 C 
HETATM   17  C10 UNL     1     -41.102  11.157  -4.375  1.00  0.00     0.044 C 
HETATM   18  C11 UNL     1     -40.566  10.938  -2.957  1.00  0.00     0.007 C 
HETATM   19  C12 UNL     1     -41.257  11.961  -2.076  1.00  0.00     0.041 C 
HETATM   20  C13 UNL     1     -41.814  11.274  -0.820  1.00  0.00     0.260 C 
ENDROOT
BRANCH  20  21
HETATM   21  C14 UNL     1     -40.668  11.233   0.130  1.00  0.00     0.088 C 
HETATM   22  N5  UNL     1     -40.129  10.172   0.547  1.00  0.00    -0.409 N 
ATOM     23  H52 UNL     1     -40.516   9.294   0.201  1.00  0.00     0.155 HD
ATOM     24  H51 UNL     1     -39.344  10.145   1.197  1.00  0.00     0.155 HD
ENDBRANCH  20  21
BRANCH   1  25
HETATM   25  C2  UNL     1     -42.746  12.169   1.156  1.00  0.00     0.269 C 
HETATM   26  C1  UNL     1     -43.883  13.040   1.719  1.00  0.00     0.037 C 
ENDBRANCH   1  25
TORSDOF 2
ENDMDL
MODEL 5
REMARK VINA RESULT: -3.808006014      4.288      7.052
REMARK  2 active torsions:
REMARK  status: ('A' for Active; 'I' for Inactive)
REMARK    1  A    between atoms: C2_2  and  N1_3 
REMARK    2  A    between atoms: C13_22  and  C14_23 
ROOT
HETATM    1  N1  UNL     1     -44.221  12.413  -3.088  1.00  0.00     0.099 N 
HETATM    2  C3  UNL     1     -45.054  13.585  -3.254  1.00  0.00     0.300 C 
HETATM    3  C4  UNL     1     -46.327  13.359  -3.981  1.00  0.00     0.262 C 
HETATM    4  N2  UNL     1     -47.383  14.262  -3.506  1.00  0.00    -0.072 N 
ATOM      5  H21 UNL     1     -46.999  15.152  -3.186  1.00  0.00     0.277 HD
ATOM      6  H22 UNL     1     -47.784  13.939  -2.626  1.00  0.00     0.277 HD
HETATM    7  C5  UNL     1     -48.398  14.454  -4.511  1.00  0.00     0.259 C 
HETATM    8  C6  UNL     1     -49.615  13.557  -4.259  1.00  0.00     0.259 C 
HETATM    9  N3  UNL     1     -49.437  12.262  -4.839  1.00  0.00    -0.072 N 
ATOM     10  H31 UNL     1     -48.445  12.035  -4.906  1.00  0.00     0.277 HD
ATOM     11  H32 UNL     1     -49.679  12.279  -5.830  1.00  0.00     0.277 HD
HETATM   12  C7  UNL     1     -50.150  11.209  -4.164  1.00  0.00     0.251 C 
HETATM   13  C8  UNL     1     -49.533  10.855  -2.819  1.00  0.00     0.146 C 
HETATM   14  N4  UNL     1     -49.630   9.484  -2.499  1.00  0.00    -0.401 N 
ATOM     15  H4  UNL     1     -50.405   9.143  -1.930  1.00  0.00     0.158 HD
HETATM   16  C9  UNL     1     -48.654   8.595  -2.968  1.00  0.00     0.055 C 
HETATM   17  C10 UNL     1     -47.393   9.155  -3.515  1.00  0.00     0.044 C 
HETATM   18  C11 UNL     1     -46.351   9.430  -2.427  1.00  0.00     0.007 C 
HETATM   19  C12 UNL     1     -45.205  10.154  -3.105  1.00  0.00     0.041 C 
HETATM   20  C13 UNL     1     -44.819  11.397  -2.287  1.00  0.00     0.260 C 
ENDROOT
BRANCH  20  21
HETATM   21  C14 UNL     1     -43.880  10.890  -1.248  1.00  0.00     0.088 C 
HETATM   22  N5  UNL     1     -44.161  10.800  -0.022  1.00  0.00    -0.409 N 
ATOM     23  H52 UNL     1     -45.095  11.098   0.259  1.00  0.00     0.155 HD
ATOM     24  H51 UNL     1     -43.518  10.452   0.689  1.00  0.00     0.155 HD
ENDBRANCH  20  21
BRANCH   1  25
HETATM   25  C2  UNL     1     -42.987  12.874  -2.479  1.00  0.00     0.269 C 
HETATM   26  C1  UNL     1     -42.559  14.215  -3.100  1.00  0.00     0.037 C 
ENDBRANCH   1  25
TORSDOF 2
ENDMDL
