MODEL 1
REMARK VINA RESULT: -7.580066931      0.000      0.000
REMARK  4 active torsions:
REMARK  status: ('A' for Active; 'I' for Inactive)
REMARK    1  A    between atoms: C2_3  and  C3_4 
REMARK    2  A    between atoms: C3_4  and  C4_5 
REMARK    3  A    between atoms: C6_10  and  C7_11 
REMARK    4  A    between atoms: C7_11  and  N3_12 
ROOT
HETATM    1  C4  UNL     1     -44.169  15.512   2.208  1.00  0.00     0.109 A 
HETATM    2  N2  UNL     1     -44.745  16.152   3.237  1.00  0.00    -0.308 N 
ATOM      3  H2  UNL     1     -45.699  16.513   3.233  1.00  0.00     0.170 HD
HETATM    4  C5  UNL     1     -43.891  16.252   4.282  1.00  0.00     0.275 A 
HETATM    5  O1  UNL     1     -44.145  16.805   5.399  1.00  0.00    -0.266 OA
HETATM    6  C6  UNL     1     -42.738  15.646   3.874  1.00  0.00     0.119 A 
HETATM    7  N5  UNL     1     -42.930  15.207   2.620  1.00  0.00    -0.337 N 
ATOM      8  H5  UNL     1     -42.234  14.714   2.061  1.00  0.00     0.167 HD
ENDROOT
BRANCH   1   9
HETATM    9  C3  UNL     1     -44.739  15.248   1.030  1.00  0.00     0.062 C 
BRANCH   9  10
HETATM   10  C2  UNL     1     -44.412  14.047   0.277  1.00  0.00    -0.007 A 
HETATM   11  C1  UNL     1     -44.302  14.033  -1.096  1.00  0.00     0.067 A 
HETATM   12  N1  UNL     1     -44.521  15.255  -1.789  1.00  0.00    -0.101 NA
HETATM   13  C15 UNL     1     -43.991  12.886  -1.805  1.00  0.00    -0.001 A 
HETATM   14  C10 UNL     1     -43.781  11.700  -1.114  1.00  0.00    -0.024 A 
HETATM   15  C14 UNL     1     -43.877  12.856  -3.174  1.00  0.00     0.014 A 
HETATM   16  C9  UNL     1     -43.885  11.692   0.261  1.00  0.00     0.013 A 
HETATM   17  C11 UNL     1     -43.467  10.529  -1.772  1.00  0.00     0.012 A 
HETATM   18  C8  UNL     1     -44.201  12.864   0.958  1.00  0.00     0.014 A 
HETATM   19  C12 UNL     1     -43.355  10.499  -3.126  1.00  0.00     0.001 A 
HETATM   20  C13 UNL     1     -43.565  11.689  -3.835  1.00  0.00     0.001 A 
ENDBRANCH   9  10
ENDBRANCH   1   9
BRANCH   6  21
HETATM   21  C7  UNL     1     -41.653  15.535   4.616  1.00  0.00     0.141 C 
BRANCH  21  22
HETATM   22  N3  UNL     1     -40.702  16.577   4.723  1.00  0.00    -0.316 N 
HETATM   23  N4  UNL     1     -40.973  17.701   5.220  1.00  0.00    -0.345 N 
ATOM     24  H42 UNL     1     -41.925  17.850   5.556  1.00  0.00     0.176 HD
ATOM     25  H41 UNL     1     -40.287  18.452   5.297  1.00  0.00     0.176 HD
ATOM     26  H3  UNL     1     -39.756  16.410   4.381  1.00  0.00     0.185 HD
ENDBRANCH  21  22
ENDBRANCH   6  21
TORSDOF 4
ENDMDL
MODEL 2
REMARK VINA RESULT: -7.262737621      4.170      7.542
REMARK  4 active torsions:
REMARK  status: ('A' for Active; 'I' for Inactive)
REMARK    1  A    between atoms: C2_3  and  C3_4 
REMARK    2  A    between atoms: C3_4  and  C4_5 
REMARK    3  A    between atoms: C6_10  and  C7_11 
REMARK    4  A    between atoms: C7_11  and  N3_12 
ROOT
HETATM    1  C4  UNL     1     -44.175  11.359  -1.728  1.00  0.00     0.109 A 
HETATM    2  N2  UNL     1     -45.005  10.334  -1.975  1.00  0.00    -0.308 N 
ATOM      3  H2  UNL     1     -45.977  10.290  -1.669  1.00  0.00     0.170 HD
HETATM    4  C5  UNL     1     -44.380   9.367  -2.686  1.00  0.00     0.275 A 
HETATM    5  O1  UNL     1     -44.902   8.274  -3.073  1.00  0.00    -0.266 OA
HETATM    6  C6  UNL     1     -43.108   9.821  -2.883  1.00  0.00     0.119 A 
HETATM    7  N5  UNL     1     -43.008  11.024  -2.297  1.00  0.00    -0.337 N 
ATOM      8  H5  UNL     1     -42.167  11.600  -2.285  1.00  0.00     0.167 HD
ENDROOT
BRANCH   1   9
HETATM    9  C3  UNL     1     -44.480  12.469  -1.053  1.00  0.00     0.062 C 
BRANCH   9  10
HETATM   10  C2  UNL     1     -43.887  12.760   0.244  1.00  0.00    -0.007 A 
HETATM   11  C1  UNL     1     -44.079  13.954   0.902  1.00  0.00     0.067 A 
HETATM   12  N1  UNL     1     -44.894  14.933   0.271  1.00  0.00    -0.101 NA
HETATM   13  C15 UNL     1     -43.511  14.222   2.136  1.00  0.00    -0.001 A 
HETATM   14  C10 UNL     1     -42.717  13.257   2.739  1.00  0.00    -0.024 A 
HETATM   15  C14 UNL     1     -43.693  15.409   2.805  1.00  0.00     0.014 A 
HETATM   16  C9  UNL     1     -42.512  12.053   2.098  1.00  0.00     0.013 A 
HETATM   17  C11 UNL     1     -42.129  13.472   3.968  1.00  0.00     0.012 A 
HETATM   18  C8  UNL     1     -43.096  11.803   0.849  1.00  0.00     0.014 A 
HETATM   19  C12 UNL     1     -42.308  14.645   4.630  1.00  0.00     0.001 A 
HETATM   20  C13 UNL     1     -43.107  15.629   4.031  1.00  0.00     0.001 A 
ENDBRANCH   9  10
ENDBRANCH   1   9
BRANCH   6  21
HETATM   21  C7  UNL     1     -42.175   9.158  -3.541  1.00  0.00     0.141 C 
BRANCH  21  22
HETATM   22  N3  UNL     1     -41.566   7.994  -3.017  1.00  0.00    -0.316 N 
HETATM   23  N4  UNL     1     -42.093   6.854  -3.094  1.00  0.00    -0.345 N 
ATOM     24  H42 UNL     1     -43.000   6.784  -3.557  1.00  0.00     0.176 HD
ATOM     25  H41 UNL     1     -41.653   6.014  -2.716  1.00  0.00     0.176 HD
ATOM     26  H3  UNL     1     -40.660   8.082  -2.558  1.00  0.00     0.185 HD
ENDBRANCH  21  22
ENDBRANCH   6  21
TORSDOF 4
ENDMDL
MODEL 3
REMARK VINA RESULT: -7.214640743      4.064      7.864
REMARK  4 active torsions:
REMARK  status: ('A' for Active; 'I' for Inactive)
REMARK    1  A    between atoms: C2_3  and  C3_4 
REMARK    2  A    between atoms: C3_4  and  C4_5 
REMARK    3  A    between atoms: C6_10  and  C7_11 
REMARK    4  A    between atoms: C7_11  and  N3_12 
ROOT
HETATM    1  C4  UNL     1     -44.533  10.886  -1.633  1.00  0.00     0.109 A 
HETATM    2  N2  UNL     1     -44.914  11.701  -2.630  1.00  0.00    -0.308 N 
ATOM      3  H2  UNL     1     -44.464  12.588  -2.856  1.00  0.00     0.170 HD
HETATM    4  C5  UNL     1     -45.973  11.187  -3.295  1.00  0.00     0.275 A 
HETATM    5  O1  UNL     1     -46.560  11.724  -4.288  1.00  0.00    -0.266 OA
HETATM    6  C6  UNL     1     -46.255  10.002  -2.678  1.00  0.00     0.119 A 
HETATM    7  N5  UNL     1     -45.373   9.843  -1.679  1.00  0.00    -0.337 N 
ATOM      8  H5  UNL     1     -45.346   9.044  -1.045  1.00  0.00     0.167 HD
ENDROOT
BRANCH   1   9
HETATM    9  C3  UNL     1     -43.521  11.100  -0.789  1.00  0.00     0.062 C 
BRANCH   9  10
HETATM   10  C2  UNL     1     -43.556  12.183   0.183  1.00  0.00    -0.007 A 
HETATM   11  C1  UNL     1     -42.835  12.155   1.356  1.00  0.00     0.067 A 
HETATM   12  N1  UNL     1     -42.030  11.013   1.611  1.00  0.00    -0.101 NA
HETATM   13  C15 UNL     1     -42.873  13.189   2.276  1.00  0.00    -0.001 A 
HETATM   14  C10 UNL     1     -43.665  14.299   2.013  1.00  0.00    -0.024 A 
HETATM   15  C14 UNL     1     -42.160  13.177   3.451  1.00  0.00     0.014 A 
HETATM   16  C9  UNL     1     -44.395  14.346   0.844  1.00  0.00     0.013 A 
HETATM   17  C11 UNL     1     -43.739  15.356   2.895  1.00  0.00     0.012 A 
HETATM   18  C8  UNL     1     -44.341  13.289  -0.073  1.00  0.00     0.014 A 
HETATM   19  C12 UNL     1     -43.034  15.345   4.057  1.00  0.00     0.001 A 
HETATM   20  C13 UNL     1     -42.231  14.230   4.334  1.00  0.00     0.001 A 
ENDBRANCH   9  10
ENDBRANCH   1   9
BRANCH   6  21
HETATM   21  C7  UNL     1     -47.233   9.192  -3.036  1.00  0.00     0.141 C 
BRANCH  21  22
HETATM   22  N3  UNL     1     -48.563   9.643  -3.210  1.00  0.00    -0.316 N 
HETATM   23  N4  UNL     1     -49.415   9.629  -2.285  1.00  0.00    -0.345 N 
ATOM     24  H42 UNL     1     -49.118   9.274  -1.375  1.00  0.00     0.176 HD
ATOM     25  H41 UNL     1     -50.373   9.955  -2.410  1.00  0.00     0.176 HD
ATOM     26  H3  UNL     1     -48.842   9.994  -4.125  1.00  0.00     0.185 HD
ENDBRANCH  21  22
ENDBRANCH   6  21
TORSDOF 4
ENDMDL
MODEL 4
REMARK VINA RESULT: -7.178831170      4.608      8.006
REMARK  4 active torsions:
REMARK  status: ('A' for Active; 'I' for Inactive)
REMARK    1  A    between atoms: C2_3  and  C3_4 
REMARK    2  A    between atoms: C3_4  and  C4_5 
REMARK    3  A    between atoms: C6_10  and  C7_11 
REMARK    4  A    between atoms: C7_11  and  N3_12 
ROOT
HETATM    1  C4  UNL     1     -45.400  10.293  -2.433  1.00  0.00     0.109 A 
HETATM    2  N2  UNL     1     -45.947  10.863  -3.518  1.00  0.00    -0.308 N 
ATOM      3  H2  UNL     1     -45.513  11.611  -4.059  1.00  0.00     0.170 HD
HETATM    4  C5  UNL     1     -47.150  10.313  -3.798  1.00  0.00     0.275 A 
HETATM    5  O1  UNL     1     -47.911  10.640  -4.764  1.00  0.00    -0.266 OA
HETATM    6  C6  UNL     1     -47.351   9.361  -2.841  1.00  0.00     0.119 A 
HETATM    7  N5  UNL     1     -46.282   9.368  -2.029  1.00  0.00    -0.337 N 
ATOM      8  H5  UNL     1     -46.158   8.757  -1.221  1.00  0.00     0.167 HD
ENDROOT
BRANCH   1   9
HETATM    9  C3  UNL     1     -44.220  10.605  -1.894  1.00  0.00     0.062 C 
BRANCH   9  10
HETATM   10  C2  UNL     1     -44.117  11.497  -0.749  1.00  0.00    -0.007 A 
HETATM   11  C1  UNL     1     -44.393  12.845  -0.826  1.00  0.00     0.067 A 
HETATM   12  N1  UNL     1     -44.794  13.367  -2.085  1.00  0.00    -0.101 NA
HETATM   13  C15 UNL     1     -44.293  13.686   0.269  1.00  0.00    -0.001 A 
HETATM   14  C10 UNL     1     -43.899  13.162   1.492  1.00  0.00    -0.024 A 
HETATM   15  C14 UNL     1     -44.564  15.033   0.209  1.00  0.00     0.014 A 
HETATM   16  C9  UNL     1     -43.619  11.815   1.590  1.00  0.00     0.013 A 
HETATM   17  C11 UNL     1     -43.784  13.956   2.613  1.00  0.00     0.012 A 
HETATM   18  C8  UNL     1     -43.727  10.981   0.470  1.00  0.00     0.014 A 
HETATM   19  C12 UNL     1     -44.053  15.287   2.556  1.00  0.00     0.001 A 
HETATM   20  C13 UNL     1     -44.450  15.829   1.326  1.00  0.00     0.001 A 
ENDBRANCH   9  10
ENDBRANCH   1   9
BRANCH   6  21
HETATM   21  C7  UNL     1     -48.422   8.595  -2.767  1.00  0.00     0.141 C 
BRANCH  21  22
HETATM   22  N3  UNL     1     -49.703   9.114  -2.463  1.00  0.00    -0.316 N 
HETATM   23  N4  UNL     1     -50.654   8.395  -2.063  1.00  0.00    -0.345 N 
ATOM     24  H42 UNL     1     -50.478   7.395  -1.958  1.00  0.00     0.176 HD
ATOM     25  H41 UNL     1     -51.577   8.770  -1.844  1.00  0.00     0.176 HD
ATOM     26  H3  UNL     1     -49.861  10.115  -2.573  1.00  0.00     0.185 HD
ENDBRANCH  21  22
ENDBRANCH   6  21
TORSDOF 4
ENDMDL
MODEL 5
REMARK VINA RESULT: -7.152874438      4.496      8.112
REMARK  4 active torsions:
REMARK  status: ('A' for Active; 'I' for Inactive)
REMARK    1  A    between atoms: C2_3  and  C3_4 
REMARK    2  A    between atoms: C3_4  and  C4_5 
REMARK    3  A    between atoms: C6_10  and  C7_11 
REMARK    4  A    between atoms: C7_11  and  N3_12 
ROOT
HETATM    1  C4  UNL     1     -45.453  10.232  -2.446  1.00  0.00     0.109 A 
HETATM    2  N2  UNL     1     -46.219   9.225  -1.997  1.00  0.00    -0.308 N 
ATOM      3  H2  UNL     1     -45.973   8.616  -1.216  1.00  0.00     0.170 HD
HETATM    4  C5  UNL     1     -47.359   9.128  -2.717  1.00  0.00     0.275 A 
HETATM    5  O1  UNL     1     -48.285   8.274  -2.534  1.00  0.00    -0.266 OA
HETATM    6  C6  UNL     1     -47.290  10.121  -3.652  1.00  0.00     0.119 A 
HETATM    7  N5  UNL     1     -46.131  10.773  -3.468  1.00  0.00    -0.337 N 
ATOM      8  H5  UNL     1     -45.812  11.566  -4.025  1.00  0.00     0.167 HD
ENDROOT
BRANCH   1   9
HETATM    9  C3  UNL     1     -44.266  10.594  -1.954  1.00  0.00     0.062 C 
BRANCH   9  10
HETATM   10  C2  UNL     1     -44.156  11.485  -0.808  1.00  0.00    -0.007 A 
HETATM   11  C1  UNL     1     -44.420  12.835  -0.885  1.00  0.00     0.067 A 
HETATM   12  N1  UNL     1     -44.814  13.361  -2.144  1.00  0.00    -0.101 NA
HETATM   13  C15 UNL     1     -44.312  13.676   0.210  1.00  0.00    -0.001 A 
HETATM   14  C10 UNL     1     -43.925  13.147   1.434  1.00  0.00    -0.024 A 
HETATM   15  C14 UNL     1     -44.571  15.024   0.151  1.00  0.00     0.014 A 
HETATM   16  C9  UNL     1     -43.657  11.798   1.532  1.00  0.00     0.013 A 
HETATM   17  C11 UNL     1     -43.803  13.940   2.555  1.00  0.00     0.012 A 
HETATM   18  C8  UNL     1     -43.772  10.965   0.411  1.00  0.00     0.014 A 
HETATM   19  C12 UNL     1     -44.059  15.273   2.497  1.00  0.00     0.001 A 
HETATM   20  C13 UNL     1     -44.451  15.819   1.267  1.00  0.00     0.001 A 
ENDBRANCH   9  10
ENDBRANCH   1   9
BRANCH   6  21
HETATM   21  C7  UNL     1     -48.221  10.359  -4.555  1.00  0.00     0.141 C 
BRANCH  21  22
HETATM   22  N3  UNL     1     -49.600  10.359  -4.237  1.00  0.00    -0.316 N 
HETATM   23  N4  UNL     1     -50.380   9.434  -4.581  1.00  0.00    -0.345 N 
ATOM     24  H42 UNL     1     -49.985   8.657  -5.113  1.00  0.00     0.176 HD
ATOM     25  H41 UNL     1     -51.374   9.434  -4.351  1.00  0.00     0.176 HD
ATOM     26  H3  UNL     1     -49.977  11.142  -3.705  1.00  0.00     0.185 HD
ENDBRANCH  21  22
ENDBRANCH   6  21
TORSDOF 4
ENDMDL
