MODEL 1
REMARK VINA RESULT: -6.790284333      0.000      0.000
REMARK  3 active torsions:
REMARK  status: ('A' for Active; 'I' for Inactive)
REMARK    1  A    between atoms: C3_5  and  C4_6 
REMARK    2  A    between atoms: C10_23  and  C11_24 
REMARK    3  A    between atoms: C11_24  and  N7_25 
ROOT
HETATM    1  C4  UNL     1     -42.140  11.441   1.877  1.00  0.00     0.077 A 
HETATM    2  C5  UNL     1     -43.241  11.498   1.060  1.00  0.00     0.036 A 
HETATM    3  C6  UNL     1     -44.105  12.594   1.080  1.00  0.00     0.036 A 
HETATM    4  C7  UNL     1     -43.784  13.614   1.969  1.00  0.00     0.078 A 
HETATM    5  N2  UNL     1     -44.365  14.797   2.263  1.00  0.00    -0.297 N 
ATOM      6  H2  UNL     1     -45.216  15.154   1.829  1.00  0.00     0.187 HD
HETATM    7  N3  UNL     1     -43.671  15.429   3.196  1.00  0.00    -0.283 N 
ATOM      8  H3  UNL     1     -43.911  16.342   3.584  1.00  0.00     0.188 HD
HETATM    9  C8  UNL     1     -42.613  14.701   3.559  1.00  0.00     0.143 A 
HETATM   10  N4  UNL     1     -41.753  15.047   4.442  1.00  0.00    -0.383 N 
ATOM     11  H41 UNL     1     -40.945  14.490   4.719  1.00  0.00     0.157 HD
ATOM     12  H42 UNL     1     -41.717  15.897   5.005  1.00  0.00     0.157 HD
HETATM   13  C9  UNL     1     -42.662  13.552   2.798  1.00  0.00     0.106 A 
HETATM   14  N5  UNL     1     -41.897  12.468   2.710  1.00  0.00    -0.348 N 
ATOM     15  H5  UNL     1     -41.076  12.412   3.312  1.00  0.00     0.166 HD
ENDROOT
BRANCH   1  16
HETATM   16  C3  UNL     1     -41.245  10.268   1.833  1.00  0.00     0.133 A 
HETATM   17  N1  UNL     1     -40.272  10.091   0.941  1.00  0.00    -0.339 N 
HETATM   18  C2  UNL     1     -39.610   8.897   1.159  1.00  0.00     0.052 A 
ATOM     19  H1  UNL     1     -40.046  10.749   0.195  1.00  0.00     0.167 HD
HETATM   20  C1  UNL     1     -38.605   8.477   0.419  1.00  0.00     0.045 C 
HETATM   21  C10 UNL     1     -40.227   8.336   2.244  1.00  0.00     0.075 A 
HETATM   22  N6  UNL     1     -41.225   9.214   2.624  1.00  0.00    -0.338 N 
ATOM     23  H6  UNL     1     -41.859   9.066   3.408  1.00  0.00     0.167 HD
BRANCH  21  24
HETATM   24  C11 UNL     1     -39.979   7.201   2.854  1.00  0.00     0.116 C 
BRANCH  24  25
HETATM   25  N7  UNL     1     -39.048   6.875   3.832  1.00  0.00    -0.397 N 
HETATM   26  C12 UNL     1     -37.656   7.311   3.842  1.00  0.00     0.148 C 
HETATM   27  C13 UNL     1     -39.484   6.066   4.978  1.00  0.00     0.148 C 
ENDBRANCH  24  25
ENDBRANCH  21  24
ENDBRANCH   1  16
TORSDOF 3
ENDMDL
MODEL 2
REMARK VINA RESULT: -6.676360195      1.109      2.208
REMARK  3 active torsions:
REMARK  status: ('A' for Active; 'I' for Inactive)
REMARK    1  A    between atoms: C3_5  and  C4_6 
REMARK    2  A    between atoms: C10_23  and  C11_24 
REMARK    3  A    between atoms: C11_24  and  N7_25 
ROOT
HETATM    1  C4  UNL     1     -42.160  11.487   1.862  1.00  0.00     0.077 A 
HETATM    2  C5  UNL     1     -43.237  11.534   1.012  1.00  0.00     0.036 A 
HETATM    3  C6  UNL     1     -44.107  12.624   1.002  1.00  0.00     0.036 A 
HETATM    4  C7  UNL     1     -43.820  13.650   1.896  1.00  0.00     0.078 A 
HETATM    5  N2  UNL     1     -44.416  14.830   2.168  1.00  0.00    -0.297 N 
ATOM      6  H2  UNL     1     -45.257  15.179   1.706  1.00  0.00     0.187 HD
HETATM    7  N3  UNL     1     -43.755  15.469   3.119  1.00  0.00    -0.283 N 
ATOM      8  H3  UNL     1     -44.012  16.382   3.495  1.00  0.00     0.188 HD
HETATM    9  C8  UNL     1     -42.704  14.750   3.516  1.00  0.00     0.143 A 
HETATM   10  N4  UNL     1     -41.873  15.105   4.423  1.00  0.00    -0.383 N 
ATOM     11  H41 UNL     1     -41.070  14.554   4.727  1.00  0.00     0.157 HD
ATOM     12  H42 UNL     1     -41.860  15.957   4.983  1.00  0.00     0.157 HD
HETATM   13  C9  UNL     1     -42.723  13.598   2.759  1.00  0.00     0.106 A 
HETATM   14  N5  UNL     1     -41.949  12.518   2.698  1.00  0.00    -0.348 N 
ATOM     15  H5  UNL     1     -41.146  12.469   3.324  1.00  0.00     0.166 HD
ENDROOT
BRANCH   1  16
HETATM   16  C3  UNL     1     -41.256  10.319   1.849  1.00  0.00     0.133 A 
HETATM   17  N1  UNL     1     -41.299   9.319   2.727  1.00  0.00    -0.339 N 
HETATM   18  C2  UNL     1     -40.327   8.376   2.453  1.00  0.00     0.052 A 
ATOM     19  H1  UNL     1     -41.963   9.257   3.500  1.00  0.00     0.167 HD
HETATM   20  C1  UNL     1     -40.150   7.284   3.168  1.00  0.00     0.045 C 
HETATM   21  C10 UNL     1     -39.671   8.846   1.348  1.00  0.00     0.075 A 
HETATM   22  N6  UNL     1     -40.276  10.042   1.013  1.00  0.00    -0.338 N 
ATOM     23  H6  UNL     1     -40.002  10.631   0.226  1.00  0.00     0.167 HD
BRANCH  21  24
HETATM   24  C11 UNL     1     -38.664   8.324   0.687  1.00  0.00     0.116 C 
BRANCH  24  25
HETATM   25  N7  UNL     1     -37.318   8.665   0.656  1.00  0.00    -0.397 N 
HETATM   26  C12 UNL     1     -36.460   8.586  -0.520  1.00  0.00     0.148 C 
HETATM   27  C13 UNL     1     -36.697   9.190   1.880  1.00  0.00     0.148 C 
ENDBRANCH  24  25
ENDBRANCH  21  24
ENDBRANCH   1  16
TORSDOF 3
ENDMDL
MODEL 3
REMARK VINA RESULT: -6.380334309      1.124      2.307
REMARK  3 active torsions:
REMARK  status: ('A' for Active; 'I' for Inactive)
REMARK    1  A    between atoms: C3_5  and  C4_6 
REMARK    2  A    between atoms: C10_23  and  C11_24 
REMARK    3  A    between atoms: C11_24  and  N7_25 
ROOT
HETATM    1  C4  UNL     1     -42.178  11.518   1.837  1.00  0.00     0.077 A 
HETATM    2  C5  UNL     1     -43.266  11.572   1.001  1.00  0.00     0.036 A 
HETATM    3  C6  UNL     1     -44.136  12.663   1.012  1.00  0.00     0.036 A 
HETATM    4  C7  UNL     1     -43.836  13.681   1.912  1.00  0.00     0.078 A 
HETATM    5  N2  UNL     1     -44.428  14.859   2.202  1.00  0.00    -0.297 N 
ATOM      6  H2  UNL     1     -45.275  15.212   1.755  1.00  0.00     0.187 HD
HETATM    7  N3  UNL     1     -43.754  15.490   3.149  1.00  0.00    -0.283 N 
ATOM      8  H3  UNL     1     -44.005  16.399   3.537  1.00  0.00     0.188 HD
HETATM    9  C8  UNL     1     -42.698  14.766   3.526  1.00  0.00     0.143 A 
HETATM   10  N4  UNL     1     -41.855  15.113   4.425  1.00  0.00    -0.383 N 
ATOM     11  H41 UNL     1     -41.048  14.559   4.713  1.00  0.00     0.157 HD
ATOM     12  H42 UNL     1     -41.834  15.960   4.992  1.00  0.00     0.157 HD
HETATM   13  C9  UNL     1     -42.728  13.621   2.759  1.00  0.00     0.106 A 
HETATM   14  N5  UNL     1     -41.955  12.541   2.678  1.00  0.00    -0.348 N 
ATOM     15  H5  UNL     1     -41.144  12.487   3.293  1.00  0.00     0.166 HD
ENDROOT
BRANCH   1  16
HETATM   16  C3  UNL     1     -41.275  10.350   1.802  1.00  0.00     0.133 A 
HETATM   17  N1  UNL     1     -41.278   9.363   2.697  1.00  0.00    -0.339 N 
HETATM   18  C2  UNL     1     -40.319   8.416   2.394  1.00  0.00     0.052 A 
ATOM     19  H1  UNL     1     -41.906   9.314   3.500  1.00  0.00     0.167 HD
HETATM   20  C1  UNL     1     -40.109   7.336   3.117  1.00  0.00     0.045 C 
HETATM   21  C10 UNL     1     -39.713   8.868   1.253  1.00  0.00     0.075 A 
HETATM   22  N6  UNL     1     -40.334  10.059   0.926  1.00  0.00    -0.338 N 
ATOM     23  H6  UNL     1     -40.096  10.635   0.119  1.00  0.00     0.167 HD
BRANCH  21  24
HETATM   24  C11 UNL     1     -38.738   8.336   0.555  1.00  0.00     0.116 C 
BRANCH  24  25
HETATM   25  N7  UNL     1     -38.714   7.229  -0.285  1.00  0.00    -0.397 N 
HETATM   26  C12 UNL     1     -39.226   7.202  -1.649  1.00  0.00     0.148 C 
HETATM   27  C13 UNL     1     -38.090   5.990   0.202  1.00  0.00     0.148 C 
ENDBRANCH  24  25
ENDBRANCH  21  24
ENDBRANCH   1  16
TORSDOF 3
ENDMDL
MODEL 4
REMARK VINA RESULT: -6.286548055      4.050      5.506
REMARK  3 active torsions:
REMARK  status: ('A' for Active; 'I' for Inactive)
REMARK    1  A    between atoms: C3_5  and  C4_6 
REMARK    2  A    between atoms: C10_23  and  C11_24 
REMARK    3  A    between atoms: C11_24  and  N7_25 
ROOT
HETATM    1  C4  UNL     1     -43.701  12.414   0.448  1.00  0.00     0.077 A 
HETATM    2  C5  UNL     1     -42.698  11.855   1.200  1.00  0.00     0.036 A 
HETATM    3  C6  UNL     1     -42.243  12.464   2.370  1.00  0.00     0.036 A 
HETATM    4  C7  UNL     1     -42.863  13.658   2.724  1.00  0.00     0.078 A 
HETATM    5  N2  UNL     1     -42.697  14.512   3.757  1.00  0.00    -0.297 N 
ATOM      6  H2  UNL     1     -42.020  14.392   4.511  1.00  0.00     0.187 HD
HETATM    7  N3  UNL     1     -43.540  15.526   3.652  1.00  0.00    -0.283 N 
ATOM      8  H3  UNL     1     -43.606  16.300   4.314  1.00  0.00     0.188 HD
HETATM    9  C8  UNL     1     -44.291  15.393   2.558  1.00  0.00     0.143 A 
HETATM   10  N4  UNL     1     -45.198  16.217   2.186  1.00  0.00    -0.383 N 
ATOM     11  H41 UNL     1     -45.772  16.115   1.349  1.00  0.00     0.157 HD
ATOM     12  H42 UNL     1     -45.499  17.084   2.632  1.00  0.00     0.157 HD
HETATM   13  C9  UNL     1     -43.883  14.222   1.956  1.00  0.00     0.106 A 
HETATM   14  N5  UNL     1     -44.250  13.570   0.856  1.00  0.00    -0.348 N 
ATOM     15  H5  UNL     1     -44.994  13.974   0.287  1.00  0.00     0.166 HD
ENDROOT
BRANCH   1  16
HETATM   16  C3  UNL     1     -44.161  11.746  -0.786  1.00  0.00     0.133 A 
HETATM   17  N1  UNL     1     -44.831  12.346  -1.768  1.00  0.00    -0.339 N 
HETATM   18  C2  UNL     1     -45.120  11.459  -2.787  1.00  0.00     0.052 A 
ATOM     19  H1  UNL     1     -45.094  13.332  -1.769  1.00  0.00     0.167 HD
HETATM   20  C1  UNL     1     -45.775  11.793  -3.879  1.00  0.00     0.045 C 
HETATM   21  C10 UNL     1     -44.591  10.263  -2.384  1.00  0.00     0.075 A 
HETATM   22  N6  UNL     1     -44.012  10.488  -1.149  1.00  0.00    -0.338 N 
ATOM     23  H6  UNL     1     -43.535   9.777  -0.594  1.00  0.00     0.167 HD
BRANCH  21  24
HETATM   24  C11 UNL     1     -44.594   9.098  -2.990  1.00  0.00     0.116 C 
BRANCH  24  25
HETATM   25  N7  UNL     1     -43.550   8.258  -3.356  1.00  0.00    -0.397 N 
HETATM   26  C12 UNL     1     -42.181   8.686  -3.614  1.00  0.00     0.148 C 
HETATM   27  C13 UNL     1     -43.811   6.815  -3.454  1.00  0.00     0.148 C 
ENDBRANCH  24  25
ENDBRANCH  21  24
ENDBRANCH   1  16
TORSDOF 3
ENDMDL
MODEL 5
REMARK VINA RESULT: -6.283464401      4.050      6.005
REMARK  3 active torsions:
REMARK  status: ('A' for Active; 'I' for Inactive)
REMARK    1  A    between atoms: C3_5  and  C4_6 
REMARK    2  A    between atoms: C10_23  and  C11_24 
REMARK    3  A    between atoms: C11_24  and  N7_25 
ROOT
HETATM    1  C4  UNL     1     -43.676  12.465   0.507  1.00  0.00     0.077 A 
HETATM    2  C5  UNL     1     -42.692  11.878   1.262  1.00  0.00     0.036 A 
HETATM    3  C6  UNL     1     -42.241  12.461   2.447  1.00  0.00     0.036 A 
HETATM    4  C7  UNL     1     -42.845  13.660   2.811  1.00  0.00     0.078 A 
HETATM    5  N2  UNL     1     -42.678  14.495   3.859  1.00  0.00    -0.297 N 
ATOM      6  H2  UNL     1     -42.012  14.352   4.619  1.00  0.00     0.187 HD
HETATM    7  N3  UNL     1     -43.502  15.525   3.760  1.00  0.00    -0.283 N 
ATOM      8  H3  UNL     1     -43.563  16.291   4.432  1.00  0.00     0.188 HD
HETATM    9  C8  UNL     1     -44.242  15.421   2.654  1.00  0.00     0.143 A 
HETATM   10  N4  UNL     1     -45.130  16.266   2.284  1.00  0.00    -0.383 N 
ATOM     11  H41 UNL     1     -45.695  16.187   1.439  1.00  0.00     0.157 HD
ATOM     12  H42 UNL     1     -45.422  17.131   2.739  1.00  0.00     0.157 HD
HETATM   13  C9  UNL     1     -43.846  14.253   2.039  1.00  0.00     0.106 A 
HETATM   14  N5  UNL     1     -44.211  13.624   0.925  1.00  0.00    -0.348 N 
ATOM     15  H5  UNL     1     -44.941  14.048   0.354  1.00  0.00     0.166 HD
ENDROOT
BRANCH   1  16
HETATM   16  C3  UNL     1     -44.132  11.823  -0.743  1.00  0.00     0.133 A 
HETATM   17  N1  UNL     1     -44.715  12.464  -1.755  1.00  0.00    -0.339 N 
HETATM   18  C2  UNL     1     -45.026  11.592  -2.781  1.00  0.00     0.052 A 
ATOM     19  H1  UNL     1     -44.905  13.466  -1.770  1.00  0.00     0.167 HD
HETATM   20  C1  UNL     1     -45.609  11.965  -3.901  1.00  0.00     0.045 C 
HETATM   21  C10 UNL     1     -44.603  10.364  -2.351  1.00  0.00     0.075 A 
HETATM   22  N6  UNL     1     -44.061  10.555  -1.094  1.00  0.00    -0.338 N 
ATOM     23  H6  UNL     1     -43.660   9.815  -0.517  1.00  0.00     0.167 HD
BRANCH  21  24
HETATM   24  C11 UNL     1     -44.665   9.198  -2.952  1.00  0.00     0.116 C 
BRANCH  24  25
HETATM   25  N7  UNL     1     -45.749   8.477  -3.435  1.00  0.00    -0.397 N 
HETATM   26  C12 UNL     1     -45.702   7.539  -4.550  1.00  0.00     0.148 C 
HETATM   27  C13 UNL     1     -47.046   8.620  -2.759  1.00  0.00     0.148 C 
ENDBRANCH  24  25
ENDBRANCH  21  24
ENDBRANCH   1  16
TORSDOF 3
ENDMDL
