MODEL 1
REMARK VINA RESULT: -6.995212649      0.000      0.000
REMARK  3 active torsions:
REMARK  status: ('A' for Active; 'I' for Inactive)
REMARK    1  A    between atoms: C2_2  and  C3_3 
REMARK    2  A    between atoms: C3_3  and  C4_4 
REMARK    3  A    between atoms: N2_13  and  N3_15 
ROOT
HETATM    1  C3  UNL     1      37.572 -24.959  -4.037  1.00  0.00     0.158 C 
HETATM    2  N1  UNL     1      38.886 -24.978  -3.393  1.00  0.00    -0.192 N 
ATOM      3  H1  UNL     1      38.959 -25.496  -2.517  1.00  0.00     0.180 HD
HETATM    4  C10 UNL     1      40.054 -24.360  -3.854  1.00  0.00     0.705 C 
HETATM    5  N2  UNL     1      41.197 -24.995  -3.682  1.00  0.00    -0.138 N 
ATOM      6  H2  UNL     1      41.134 -25.902  -3.219  1.00  0.00     0.205 HD
HETATM    7  N4  UNL     1      39.968 -23.100  -4.486  1.00  0.00    -0.098 N 
ATOM      8  H4  UNL     1      40.795 -22.567  -4.751  1.00  0.00     0.199 HD
HETATM    9  S1  UNL     1      38.352 -22.518  -4.780  1.00  0.00     0.335 S 
HETATM   10  O1  UNL     1      38.255 -21.717  -6.039  1.00  0.00    -0.182 OA
HETATM   11  O2  UNL     1      37.822 -21.719  -3.651  1.00  0.00    -0.182 OA
HETATM   12  N5  UNL     1      37.425 -23.973  -5.027  1.00  0.00    -0.270 N 
ATOM     13  H5  UNL     1      36.816 -24.100  -5.835  1.00  0.00     0.176 HD
ENDROOT
BRANCH   1  14
HETATM   14  C2  UNL     1      36.526 -24.729  -2.996  1.00  0.00     0.056 C 
HETATM   15  C1  UNL     1      35.145 -24.414  -3.440  1.00  0.00     0.010 C 
ENDBRANCH   1  14
BRANCH   1  16
HETATM   16  C4  UNL     1      37.475 -26.286  -4.695  1.00  0.00    -0.009 A 
HETATM   17  C5  UNL     1      37.140 -26.461  -6.047  1.00  0.00     0.011 A 
HETATM   18  C6  UNL     1      37.021 -27.727  -6.591  1.00  0.00     0.001 A 
HETATM   19  C7  UNL     1      37.223 -28.874  -5.847  1.00  0.00     0.000 A 
HETATM   20  C8  UNL     1      37.560 -28.706  -4.514  1.00  0.00     0.001 A 
HETATM   21  C9  UNL     1      37.671 -27.464  -3.990  1.00  0.00     0.011 A 
ENDBRANCH   1  16
BRANCH   5  22
HETATM   22  N3  UNL     1      42.449 -24.601  -4.038  1.00  0.00    -0.331 N 
ATOM     23  H32 UNL     1      42.762 -24.953  -4.942  1.00  0.00     0.177 HD
ATOM     24  H31 UNL     1      43.100 -24.008  -3.522  1.00  0.00     0.177 HD
ENDBRANCH   5  22
TORSDOF 3
ENDMDL
MODEL 2
REMARK VINA RESULT: -6.965430457      0.074      1.112
REMARK  3 active torsions:
REMARK  status: ('A' for Active; 'I' for Inactive)
REMARK    1  A    between atoms: C2_2  and  C3_3 
REMARK    2  A    between atoms: C3_3  and  C4_4 
REMARK    3  A    between atoms: N2_13  and  N3_15 
ROOT
HETATM    1  C3  UNL     1      37.553 -24.929  -3.973  1.00  0.00     0.158 C 
HETATM    2  N1  UNL     1      38.875 -24.945  -3.345  1.00  0.00    -0.192 N 
ATOM      3  H1  UNL     1      38.952 -25.439  -2.455  1.00  0.00     0.180 HD
HETATM    4  C10 UNL     1      40.044 -24.354  -3.837  1.00  0.00     0.705 C 
HETATM    5  N2  UNL     1      41.181 -24.997  -3.661  1.00  0.00    -0.138 N 
ATOM      6  H2  UNL     1      41.114 -25.890  -3.173  1.00  0.00     0.205 HD
HETATM    7  N4  UNL     1      39.964 -23.111  -4.503  1.00  0.00    -0.098 N 
ATOM      8  H4  UNL     1      40.794 -22.596  -4.794  1.00  0.00     0.199 HD
HETATM    9  S1  UNL     1      38.352 -22.519  -4.794  1.00  0.00     0.335 S 
HETATM   10  O1  UNL     1      38.247 -21.753  -6.074  1.00  0.00    -0.182 OA
HETATM   11  O2  UNL     1      37.845 -21.683  -3.681  1.00  0.00    -0.182 OA
HETATM   12  N5  UNL     1      37.405 -23.970  -4.988  1.00  0.00    -0.270 N 
ATOM     13  H5  UNL     1      36.784 -24.112  -5.785  1.00  0.00     0.176 HD
ENDROOT
BRANCH   1  14
HETATM   14  C2  UNL     1      36.523 -24.657  -2.926  1.00  0.00     0.056 C 
HETATM   15  C1  UNL     1      35.133 -24.370  -3.360  1.00  0.00     0.010 C 
ENDBRANCH   1  14
BRANCH   1  16
HETATM   16  C4  UNL     1      37.433 -26.273  -4.591  1.00  0.00    -0.009 A 
HETATM   17  C5  UNL     1      37.683 -27.471  -3.902  1.00  0.00     0.011 A 
HETATM   18  C6  UNL     1      37.598 -28.691  -4.546  1.00  0.00     0.001 A 
HETATM   19  C7  UNL     1      37.266 -28.800  -5.884  1.00  0.00     0.000 A 
HETATM   20  C8  UNL     1      37.012 -27.621  -6.566  1.00  0.00     0.001 A 
HETATM   21  C9  UNL     1      37.102 -26.433  -5.928  1.00  0.00     0.011 A 
ENDBRANCH   1  16
BRANCH   5  22
HETATM   22  N3  UNL     1      42.433 -24.628  -4.044  1.00  0.00    -0.331 N 
ATOM     23  H32 UNL     1      42.755 -25.058  -4.910  1.00  0.00     0.177 HD
ATOM     24  H31 UNL     1      43.077 -23.987  -3.580  1.00  0.00     0.177 HD
ENDBRANCH   5  22
TORSDOF 3
ENDMDL
MODEL 3
REMARK VINA RESULT: -6.589467731      3.153      4.739
REMARK  3 active torsions:
REMARK  status: ('A' for Active; 'I' for Inactive)
REMARK    1  A    between atoms: C2_2  and  C3_3 
REMARK    2  A    between atoms: C3_3  and  C4_4 
REMARK    3  A    between atoms: N2_13  and  N3_15 
ROOT
HETATM    1  C3  UNL     1      38.224 -25.100  -4.066  1.00  0.00     0.158 C 
HETATM    2  N1  UNL     1      39.675 -25.014  -4.232  1.00  0.00    -0.192 N 
ATOM      3  H1  UNL     1      40.012 -24.592  -5.097  1.00  0.00     0.180 HD
HETATM    4  C10 UNL     1      40.649 -25.450  -3.327  1.00  0.00     0.705 C 
HETATM    5  N2  UNL     1      41.740 -24.721  -3.196  1.00  0.00    -0.138 N 
ATOM      6  H2  UNL     1      41.784 -23.883  -3.776  1.00  0.00     0.205 HD
HETATM    7  N4  UNL     1      40.429 -26.635  -2.590  1.00  0.00    -0.098 N 
ATOM      8  H4  UNL     1      41.146 -27.045  -1.992  1.00  0.00     0.199 HD
HETATM    9  S1  UNL     1      38.850 -27.348  -2.771  1.00  0.00     0.335 S 
HETATM   10  O1  UNL     1      38.376 -28.010  -1.518  1.00  0.00    -0.182 OA
HETATM   11  O2  UNL     1      38.790 -28.319  -3.889  1.00  0.00    -0.182 OA
HETATM   12  N5  UNL     1      37.807 -25.980  -3.054  1.00  0.00    -0.270 N 
ATOM     13  H5  UNL     1      36.950 -25.830  -2.520  1.00  0.00     0.176 HD
ENDROOT
BRANCH   1  14
HETATM   14  C2  UNL     1      37.615 -25.554  -5.353  1.00  0.00     0.056 C 
HETATM   15  C1  UNL     1      36.159 -25.841  -5.383  1.00  0.00     0.010 C 
ENDBRANCH   1  14
BRANCH   1  16
HETATM   16  C4  UNL     1      37.825 -23.726  -3.671  1.00  0.00    -0.009 A 
HETATM   17  C5  UNL     1      37.023 -23.440  -2.554  1.00  0.00     0.011 A 
HETATM   18  C6  UNL     1      36.648 -22.142  -2.264  1.00  0.00     0.001 A 
HETATM   19  C7  UNL     1      37.035 -21.068  -3.043  1.00  0.00     0.000 A 
HETATM   20  C8  UNL     1      37.831 -21.345  -4.143  1.00  0.00     0.001 A 
HETATM   21  C9  UNL     1      38.190 -22.618  -4.421  1.00  0.00     0.011 A 
ENDBRANCH   1  16
BRANCH   5  22
HETATM   22  N3  UNL     1      42.815 -24.939  -2.392  1.00  0.00    -0.331 N 
ATOM     23  H32 UNL     1      43.207 -25.879  -2.456  1.00  0.00     0.177 HD
ATOM     24  H31 UNL     1      43.269 -24.293  -1.746  1.00  0.00     0.177 HD
ENDBRANCH   5  22
TORSDOF 3
ENDMDL
MODEL 4
REMARK VINA RESULT: -6.351979804      3.882      5.220
REMARK  3 active torsions:
REMARK  status: ('A' for Active; 'I' for Inactive)
REMARK    1  A    between atoms: C2_2  and  C3_3 
REMARK    2  A    between atoms: C3_3  and  C4_4 
REMARK    3  A    between atoms: N2_13  and  N3_15 
ROOT
HETATM    1  C3  UNL     1      35.488 -27.962  -4.347  1.00  0.00     0.158 C 
HETATM    2  N1  UNL     1      34.999 -26.699  -3.792  1.00  0.00    -0.192 N 
ATOM      3  H1  UNL     1      34.101 -26.363  -4.142  1.00  0.00     0.180 HD
HETATM    4  C10 UNL     1      35.634 -25.905  -2.832  1.00  0.00     0.705 C 
HETATM    5  N2  UNL     1      34.880 -25.305  -1.931  1.00  0.00    -0.138 N 
ATOM      6  H2  UNL     1      33.877 -25.476  -2.009  1.00  0.00     0.205 HD
HETATM    7  N4  UNL     1      37.041 -25.780  -2.856  1.00  0.00    -0.098 N 
ATOM      8  H4  UNL     1      37.541 -25.139  -2.240  1.00  0.00     0.199 HD
HETATM    9  S1  UNL     1      37.863 -26.795  -4.008  1.00  0.00     0.335 S 
HETATM   10  O1  UNL     1      39.201 -27.248  -3.516  1.00  0.00    -0.182 OA
HETATM   11  O2  UNL     1      38.024 -26.141  -5.327  1.00  0.00    -0.182 OA
HETATM   12  N5  UNL     1      36.851 -28.210  -4.112  1.00  0.00    -0.270 N 
ATOM     13  H5  UNL     1      37.223 -29.154  -4.011  1.00  0.00     0.176 HD
ENDROOT
BRANCH   1  14
HETATM   14  C2  UNL     1      35.266 -27.961  -5.824  1.00  0.00     0.056 C 
HETATM   15  C1  UNL     1      35.983 -28.967  -6.647  1.00  0.00     0.010 C 
ENDBRANCH   1  14
BRANCH   1  16
HETATM   16  C4  UNL     1      34.704 -28.997  -3.628  1.00  0.00    -0.009 A 
HETATM   17  C5  UNL     1      35.232 -29.802  -2.606  1.00  0.00     0.011 A 
HETATM   18  C6  UNL     1      34.464 -30.782  -2.004  1.00  0.00     0.001 A 
HETATM   19  C7  UNL     1      33.152 -31.020  -2.369  1.00  0.00     0.000 A 
HETATM   20  C8  UNL     1      32.625 -30.225  -3.373  1.00  0.00     0.001 A 
HETATM   21  C9  UNL     1      33.386 -29.272  -3.958  1.00  0.00     0.011 A 
ENDBRANCH   1  16
BRANCH   5  22
HETATM   22  N3  UNL     1      35.262 -24.490  -0.911  1.00  0.00    -0.331 N 
ATOM     23  H32 UNL     1      35.754 -23.647  -1.206  1.00  0.00     0.177 HD
ATOM     24  H31 UNL     1      35.120 -24.615   0.091  1.00  0.00     0.177 HD
ENDBRANCH   5  22
TORSDOF 3
ENDMDL
MODEL 5
REMARK VINA RESULT: -6.301810751      4.055      5.262
REMARK  3 active torsions:
REMARK  status: ('A' for Active; 'I' for Inactive)
REMARK    1  A    between atoms: C2_2  and  C3_3 
REMARK    2  A    between atoms: C3_3  and  C4_4 
REMARK    3  A    between atoms: N2_13  and  N3_15 
ROOT
HETATM    1  C3  UNL     1      35.414 -28.106  -4.233  1.00  0.00     0.158 C 
HETATM    2  N1  UNL     1      35.014 -26.858  -3.582  1.00  0.00    -0.192 N 
ATOM      3  H1  UNL     1      34.127 -26.451  -3.878  1.00  0.00     0.180 HD
HETATM    4  C10 UNL     1      35.724 -26.164  -2.595  1.00  0.00     0.705 C 
HETATM    5  N2  UNL     1      35.033 -25.586  -1.632  1.00  0.00    -0.138 N 
ATOM      6  H2  UNL     1      34.020 -25.696  -1.686  1.00  0.00     0.205 HD
HETATM    7  N4  UNL     1      37.134 -26.116  -2.660  1.00  0.00    -0.098 N 
ATOM      8  H4  UNL     1      37.688 -25.545  -2.022  1.00  0.00     0.199 HD
HETATM    9  S1  UNL     1      37.861 -27.096  -3.903  1.00  0.00     0.335 S 
HETATM   10  O1  UNL     1      39.185 -27.652  -3.488  1.00  0.00    -0.182 OA
HETATM   11  O2  UNL     1      38.017 -26.366  -5.183  1.00  0.00    -0.182 OA
HETATM   12  N5  UNL     1      36.767 -28.443  -4.063  1.00  0.00    -0.270 N 
ATOM     13  H5  UNL     1      37.088 -29.411  -4.035  1.00  0.00     0.176 HD
ENDROOT
BRANCH   1  14
HETATM   14  C2  UNL     1      35.146 -27.995  -5.698  1.00  0.00     0.056 C 
HETATM   15  C1  UNL     1      35.812 -28.956  -6.613  1.00  0.00     0.010 C 
ENDBRANCH   1  14
BRANCH   1  16
HETATM   16  C4  UNL     1      34.595 -29.143  -3.555  1.00  0.00    -0.009 A 
HETATM   17  C5  UNL     1      33.250 -29.398  -3.869  1.00  0.00     0.011 A 
HETATM   18  C6  UNL     1      32.526 -30.347  -3.170  1.00  0.00     0.001 A 
HETATM   19  C7  UNL     1      33.077 -31.087  -2.140  1.00  0.00     0.000 A 
HETATM   20  C8  UNL     1      34.405 -30.842  -1.832  1.00  0.00     0.001 A 
HETATM   21  C9  UNL     1      35.104 -29.909  -2.518  1.00  0.00     0.011 A 
ENDBRANCH   1  16
BRANCH   5  22
HETATM   22  N3  UNL     1      35.492 -24.861  -0.576  1.00  0.00    -0.331 N 
ATOM     23  H32 UNL     1      35.942 -23.982  -0.830  1.00  0.00     0.177 HD
ATOM     24  H31 UNL     1      35.444 -25.085   0.419  1.00  0.00     0.177 HD
ENDBRANCH   5  22
TORSDOF 3
ENDMDL
