MODEL 1
REMARK VINA RESULT: -7.479374433      0.000      0.000
REMARK  3 active torsions:
REMARK  status: ('A' for Active; 'I' for Inactive)
REMARK    1  A    between atoms: N1_1  and  C1_4 
REMARK    2  A    between atoms: C4_12  and  C5_13 
REMARK    3  A    between atoms: C5_13  and  N4_14 
ROOT
HETATM    1  C1  UNL     1      42.019 -24.620  -3.714  1.00  0.00     0.679 A 
HETATM    2  N2  UNL     1      41.394 -23.816  -4.587  1.00  0.00    -0.154 N 
ATOM      3  H2  UNL     1      41.926 -23.197  -5.198  1.00  0.00     0.187 HD
HETATM    4  C2  UNL     1      40.057 -23.844  -4.637  1.00  0.00     0.288 A 
HETATM    5  O1  UNL     1      39.489 -23.081  -5.462  1.00  0.00    -0.265 OA
HETATM    6  C3  UNL     1      39.291 -24.657  -3.840  1.00  0.00     0.129 A 
HETATM    7  N3  UNL     1      37.957 -24.699  -3.875  1.00  0.00    -0.352 N 
ATOM      8  H3  UNL     1      37.471 -24.090  -4.533  1.00  0.00     0.166 HD
HETATM    9  C4  UNL     1      37.220 -25.505  -3.084  1.00  0.00     0.028 A 
HETATM   10  C10 UNL     1      37.829 -26.343  -2.179  1.00  0.00     0.029 A 
HETATM   11  C11 UNL     1      39.209 -26.312  -2.130  1.00  0.00     0.034 A 
HETATM   12  C12 UNL     1      39.948 -25.478  -2.949  1.00  0.00     0.081 A 
HETATM   13  N7  UNL     1      41.288 -25.438  -2.911  1.00  0.00    -0.190 N 
ATOM     14  H7  UNL     1      41.779 -26.045  -2.254  1.00  0.00     0.184 HD
ENDROOT
BRANCH   9  15
HETATM   15  C5  UNL     1      35.750 -25.442  -3.244  1.00  0.00     0.184 C 
BRANCH  15  16
HETATM   16  N4  UNL     1      35.148 -26.661  -3.703  1.00  0.00    -0.356 N 
HETATM   17  C6  UNL     1      34.286 -27.322  -2.979  1.00  0.00     0.108 A 
HETATM   18  C7  UNL     1      33.701 -28.558  -3.487  1.00  0.00     0.106 A 
HETATM   19  N5  UNL     1      34.022 -29.017  -4.656  1.00  0.00    -0.352 N 
HETATM   20  C8  UNL     1      34.972 -28.305  -5.473  1.00  0.00     0.131 A 
ATOM     21  H5  UNL     1      33.603 -29.882  -4.997  1.00  0.00     0.166 HD
HETATM   22  N6  UNL     1      35.316 -28.818  -6.751  1.00  0.00    -0.081 NA
HETATM   23  C9  UNL     1      35.474 -27.199  -4.978  1.00  0.00     0.136 A 
ENDBRANCH  15  16
ENDBRANCH   9  15
BRANCH   1  24
HETATM   24  N1  UNL     1      43.308 -24.603  -3.656  1.00  0.00    -0.234 N 
ATOM     25  H12 UNL     1      43.795 -24.418  -2.780  1.00  0.00     0.174 HD
ATOM     26  H11 UNL     1      43.844 -24.779  -4.505  1.00  0.00     0.174 HD
ENDBRANCH   1  24
TORSDOF 3
ENDMDL
MODEL 2
REMARK VINA RESULT: -7.418815908      0.504      1.443
REMARK  3 active torsions:
REMARK  status: ('A' for Active; 'I' for Inactive)
REMARK    1  A    between atoms: N1_1  and  C1_4 
REMARK    2  A    between atoms: C4_12  and  C5_13 
REMARK    3  A    between atoms: C5_13  and  N4_14 
ROOT
HETATM    1  C1  UNL     1      42.131 -24.622  -3.719  1.00  0.00     0.679 A 
HETATM    2  N2  UNL     1      41.472 -23.797  -4.545  1.00  0.00    -0.154 N 
ATOM      3  H2  UNL     1      41.978 -23.138  -5.137  1.00  0.00     0.187 HD
HETATM    4  C2  UNL     1      40.135 -23.857  -4.575  1.00  0.00     0.288 A 
HETATM    5  O1  UNL     1      39.534 -23.074  -5.356  1.00  0.00    -0.265 OA
HETATM    6  C3  UNL     1      39.404 -24.724  -3.802  1.00  0.00     0.129 A 
HETATM    7  N3  UNL     1      38.071 -24.798  -3.817  1.00  0.00    -0.352 N 
ATOM      8  H3  UNL     1      37.559 -24.174  -4.440  1.00  0.00     0.166 HD
HETATM    9  C4  UNL     1      37.368 -25.656  -3.051  1.00  0.00     0.028 A 
HETATM   10  C10 UNL     1      38.013 -26.517  -2.194  1.00  0.00     0.029 A 
HETATM   11  C11 UNL     1      39.392 -26.453  -2.165  1.00  0.00     0.034 A 
HETATM   12  C12 UNL     1      40.096 -25.566  -2.959  1.00  0.00     0.081 A 
HETATM   13  N7  UNL     1      41.435 -25.493  -2.941  1.00  0.00    -0.190 N 
ATOM     14  H7  UNL     1      41.952 -26.116  -2.319  1.00  0.00     0.184 HD
ENDROOT
BRANCH   9  15
HETATM   15  C5  UNL     1      35.893 -25.624  -3.184  1.00  0.00     0.184 C 
BRANCH  15  16
HETATM   16  N4  UNL     1      35.338 -26.718  -3.928  1.00  0.00    -0.356 N 
HETATM   17  C6  UNL     1      35.725 -26.994  -5.143  1.00  0.00     0.108 A 
HETATM   18  C7  UNL     1      35.131 -28.117  -5.861  1.00  0.00     0.106 A 
HETATM   19  N5  UNL     1      34.217 -28.854  -5.310  1.00  0.00    -0.352 N 
HETATM   20  C8  UNL     1      33.774 -28.567  -3.970  1.00  0.00     0.131 A 
ATOM     21  H5  UNL     1      33.813 -29.636  -5.825  1.00  0.00     0.166 HD
HETATM   22  N6  UNL     1      32.773 -29.380  -3.376  1.00  0.00    -0.081 NA
HETATM   23  C9  UNL     1      34.333 -27.549  -3.361  1.00  0.00     0.136 A 
ENDBRANCH  15  16
ENDBRANCH   9  15
BRANCH   1  24
HETATM   24  N1  UNL     1      43.420 -24.575  -3.681  1.00  0.00    -0.234 N 
ATOM     25  H12 UNL     1      43.965 -24.345  -4.512  1.00  0.00     0.174 HD
ATOM     26  H11 UNL     1      43.897 -24.769  -2.801  1.00  0.00     0.174 HD
ENDBRANCH   1  24
TORSDOF 3
ENDMDL
MODEL 3
REMARK VINA RESULT: -7.350840921      1.929      2.583
REMARK  3 active torsions:
REMARK  status: ('A' for Active; 'I' for Inactive)
REMARK    1  A    between atoms: N1_1  and  C1_4 
REMARK    2  A    between atoms: C4_12  and  C5_13 
REMARK    3  A    between atoms: C5_13  and  N4_14 
ROOT
HETATM    1  C1  UNL     1      39.936 -22.783  -4.246  1.00  0.00     0.679 A 
HETATM    2  N2  UNL     1      39.039 -23.100  -5.191  1.00  0.00    -0.154 N 
ATOM      3  H2  UNL     1      38.766 -22.420  -5.900  1.00  0.00     0.187 HD
HETATM    4  C2  UNL     1      38.510 -24.330  -5.184  1.00  0.00     0.288 A 
HETATM    5  O1  UNL     1      37.669 -24.608  -6.078  1.00  0.00    -0.265 OA
HETATM    6  C3  UNL     1      38.841 -25.285  -4.255  1.00  0.00     0.129 A 
HETATM    7  N3  UNL     1      38.325 -26.516  -4.231  1.00  0.00    -0.352 N 
ATOM      8  H3  UNL     1      37.640 -26.768  -4.944  1.00  0.00     0.166 HD
HETATM    9  C4  UNL     1      38.661 -27.443  -3.312  1.00  0.00     0.028 A 
HETATM   10  C10 UNL     1      39.579 -27.151  -2.329  1.00  0.00     0.029 A 
HETATM   11  C11 UNL     1      40.123 -25.881  -2.339  1.00  0.00     0.034 A 
HETATM   12  C12 UNL     1      39.765 -24.944  -3.291  1.00  0.00     0.081 A 
HETATM   13  N7  UNL     1      40.285 -23.708  -3.313  1.00  0.00    -0.190 N 
ATOM     14  H7  UNL     1      40.970 -23.452  -2.601  1.00  0.00     0.184 HD
ENDROOT
BRANCH   9  15
HETATM   15  C5  UNL     1      38.006 -28.766  -3.419  1.00  0.00     0.184 C 
BRANCH  15  16
HETATM   16  N4  UNL     1      36.827 -28.783  -4.236  1.00  0.00    -0.356 N 
HETATM   17  C6  UNL     1      36.889 -28.837  -5.538  1.00  0.00     0.108 A 
HETATM   18  C7  UNL     1      35.662 -28.851  -6.328  1.00  0.00     0.106 A 
HETATM   19  N5  UNL     1      34.500 -28.810  -5.756  1.00  0.00    -0.352 N 
HETATM   20  C8  UNL     1      34.407 -28.750  -4.319  1.00  0.00     0.131 A 
ATOM     21  H5  UNL     1      33.651 -28.822  -6.322  1.00  0.00     0.166 HD
HETATM   22  N6  UNL     1      33.128 -28.706  -3.704  1.00  0.00    -0.081 NA
HETATM   23  C9  UNL     1      35.533 -28.739  -3.648  1.00  0.00     0.136 A 
ENDBRANCH  15  16
ENDBRANCH   9  15
BRANCH   1  24
HETATM   24  N1  UNL     1      40.453 -21.602  -4.243  1.00  0.00    -0.234 N 
ATOM     25  H12 UNL     1      39.917 -20.790  -3.934  1.00  0.00     0.174 HD
ATOM     26  H11 UNL     1      41.417 -21.482  -4.554  1.00  0.00     0.174 HD
ENDBRANCH   1  24
TORSDOF 3
ENDMDL
MODEL 4
REMARK VINA RESULT: -7.347918658      1.536      2.579
REMARK  3 active torsions:
REMARK  status: ('A' for Active; 'I' for Inactive)
REMARK    1  A    between atoms: N1_1  and  C1_4 
REMARK    2  A    between atoms: C4_12  and  C5_13 
REMARK    3  A    between atoms: C5_13  and  N4_14 
ROOT
HETATM    1  C1  UNL     1      42.202 -24.697  -3.609  1.00  0.00     0.679 A 
HETATM    2  N2  UNL     1      41.660 -25.530  -2.709  1.00  0.00    -0.154 N 
ATOM      3  H2  UNL     1      42.249 -26.051  -2.060  1.00  0.00     0.187 HD
HETATM    4  C2  UNL     1      40.328 -25.662  -2.681  1.00  0.00     0.288 A 
HETATM    5  O1  UNL     1      39.837 -26.448  -1.830  1.00  0.00    -0.265 OA
HETATM    6  C3  UNL     1      39.488 -24.984  -3.530  1.00  0.00     0.129 A 
HETATM    7  N3  UNL     1      38.158 -25.102  -3.518  1.00  0.00    -0.352 N 
ATOM      8  H3  UNL     1      37.734 -25.734  -2.839  1.00  0.00     0.166 HD
HETATM    9  C4  UNL     1      37.347 -24.429  -4.359  1.00  0.00     0.028 A 
HETATM   10  C10 UNL     1      37.871 -23.566  -5.293  1.00  0.00     0.029 A 
HETATM   11  C11 UNL     1      39.245 -23.433  -5.319  1.00  0.00     0.034 A 
HETATM   12  C12 UNL     1      40.060 -24.132  -4.449  1.00  0.00     0.081 A 
HETATM   13  N7  UNL     1      41.396 -24.011  -4.463  1.00  0.00    -0.190 N 
ATOM     14  H7  UNL     1      41.825 -23.381  -5.141  1.00  0.00     0.184 HD
ENDROOT
BRANCH   9  15
HETATM   15  C5  UNL     1      35.891 -24.662  -4.220  1.00  0.00     0.184 C 
BRANCH  15  16
HETATM   16  N4  UNL     1      35.465 -25.990  -4.556  1.00  0.00    -0.356 N 
HETATM   17  C6  UNL     1      35.846 -26.580  -5.656  1.00  0.00     0.108 A 
HETATM   18  C7  UNL     1      35.386 -27.932  -5.956  1.00  0.00     0.106 A 
HETATM   19  N5  UNL     1      34.599 -28.565  -5.144  1.00  0.00    -0.352 N 
HETATM   20  C8  UNL     1      34.166 -27.933  -3.924  1.00  0.00     0.131 A 
ATOM     21  H5  UNL     1      34.287 -29.510  -5.367  1.00  0.00     0.166 HD
HETATM   22  N6  UNL     1      33.304 -28.636  -3.041  1.00  0.00    -0.081 NA
HETATM   23  C9  UNL     1      34.601 -26.718  -3.692  1.00  0.00     0.136 A 
ENDBRANCH  15  16
ENDBRANCH   9  15
BRANCH   1  24
HETATM   24  N1  UNL     1      43.485 -24.561  -3.646  1.00  0.00    -0.234 N 
ATOM     25  H12 UNL     1      44.054 -25.090  -4.306  1.00  0.00     0.174 HD
ATOM     26  H11 UNL     1      43.932 -23.911  -3.001  1.00  0.00     0.174 HD
ENDBRANCH   1  24
TORSDOF 3
ENDMDL
MODEL 5
REMARK VINA RESULT: -7.297138287      1.423      2.123
REMARK  3 active torsions:
REMARK  status: ('A' for Active; 'I' for Inactive)
REMARK    1  A    between atoms: N1_1  and  C1_4 
REMARK    2  A    between atoms: C4_12  and  C5_13 
REMARK    3  A    between atoms: C5_13  and  N4_14 
ROOT
HETATM    1  C1  UNL     1      41.908 -24.663  -3.727  1.00  0.00     0.679 A 
HETATM    2  N2  UNL     1      41.390 -25.454  -2.776  1.00  0.00    -0.154 N 
ATOM      3  H2  UNL     1      41.996 -25.953  -2.125  1.00  0.00     0.187 HD
HETATM    4  C2  UNL     1      40.058 -25.573  -2.699  1.00  0.00     0.288 A 
HETATM    5  O1  UNL     1      39.591 -26.320  -1.801  1.00  0.00    -0.265 OA
HETATM    6  C3  UNL     1      39.196 -24.924  -3.547  1.00  0.00     0.129 A 
HETATM    7  N3  UNL     1      37.866 -25.031  -3.488  1.00  0.00    -0.352 N 
ATOM      8  H3  UNL     1      37.461 -25.631  -2.769  1.00  0.00     0.166 HD
HETATM    9  C4  UNL     1      37.032 -24.386  -4.328  1.00  0.00     0.028 A 
HETATM   10  C10 UNL     1      37.531 -23.567  -5.314  1.00  0.00     0.029 A 
HETATM   11  C11 UNL     1      38.905 -23.446  -5.391  1.00  0.00     0.034 A 
HETATM   12  C12 UNL     1      39.743 -24.116  -4.519  1.00  0.00     0.081 A 
HETATM   13  N7  UNL     1      41.079 -24.007  -4.582  1.00  0.00    -0.190 N 
ATOM     14  H7  UNL     1      41.489 -23.408  -5.299  1.00  0.00     0.184 HD
ENDROOT
BRANCH   9  15
HETATM   15  C5  UNL     1      35.580 -24.601  -4.132  1.00  0.00     0.184 C 
BRANCH  15  16
HETATM   16  N4  UNL     1      35.163 -25.970  -4.224  1.00  0.00    -0.356 N 
HETATM   17  C6  UNL     1      34.512 -26.561  -3.261  1.00  0.00     0.108 A 
HETATM   18  C7  UNL     1      34.108 -27.956  -3.399  1.00  0.00     0.106 A 
HETATM   19  N5  UNL     1      34.386 -28.628  -4.473  1.00  0.00    -0.352 N 
HETATM   20  C8  UNL     1      35.105 -27.997  -5.550  1.00  0.00     0.131 A 
ATOM     21  H5  UNL     1      34.096 -29.602  -4.555  1.00  0.00     0.166 HD
HETATM   22  N6  UNL     1      35.405 -28.742  -6.721  1.00  0.00    -0.081 NA
HETATM   23  C9  UNL     1      35.449 -26.742  -5.384  1.00  0.00     0.136 A 
ENDBRANCH  15  16
ENDBRANCH   9  15
BRANCH   1  24
HETATM   24  N1  UNL     1      43.189 -24.540  -3.811  1.00  0.00    -0.234 N 
ATOM     25  H12 UNL     1      43.648 -24.382  -4.708  1.00  0.00     0.174 HD
ATOM     26  H11 UNL     1      43.749 -24.601  -2.961  1.00  0.00     0.174 HD
ENDBRANCH   1  24
TORSDOF 3
ENDMDL
