MODEL 1
REMARK VINA RESULT: -6.787473509      0.000      0.000
REMARK  4 active torsions:
REMARK  status: ('A' for Active; 'I' for Inactive)
REMARK    1  A    between atoms: C3_3  and  N1_4 
REMARK    2  A    between atoms: N1_4  and  C4_6 
REMARK    3  A    between atoms: C11_20  and  N5_21 
REMARK    4  A    between atoms: N5_21  and  C12_23 
ROOT
HETATM    1  N1  UNL     1      37.021 -24.987  -4.941  1.00  0.00    -0.371 N 
ATOM      2  H1  UNL     1      36.030 -24.749  -4.892  1.00  0.00     0.161 HD
ENDROOT
BRANCH   1   3
HETATM    3  C3  UNL     1      37.842 -24.046  -4.694  1.00  0.00     0.118 A 
HETATM    4  C2  UNL     1      37.320 -22.756  -4.544  1.00  0.00     0.066 A 
HETATM    5  C1  UNL     1      38.176 -21.712  -4.264  1.00  0.00     0.110 A 
HETATM    6  N6  UNL     1      39.505 -21.924  -4.134  1.00  0.00    -0.202 N 
HETATM    7  C11 UNL     1      40.031 -23.154  -4.272  1.00  0.00     0.679 A 
ATOM      8  H6  UNL     1      40.120 -21.136  -3.927  1.00  0.00     0.183 HD
HETATM    9  N4  UNL     1      39.151 -24.193  -4.554  1.00  0.00    -0.177 N 
ATOM     10  H4  UNL     1      39.539 -25.130  -4.661  1.00  0.00     0.185 HD
BRANCH   7  11
HETATM   11  N5  UNL     1      41.235 -23.430  -4.168  1.00  0.00    -0.221 N 
ATOM     12  H5  UNL     1      41.812 -22.598  -4.291  1.00  0.00     0.178 HD
BRANCH  11  13
HETATM   13  C12 UNL     1      42.010 -24.532  -3.933  1.00  0.00     0.099 A 
HETATM   14  C13 UNL     1      43.448 -24.586  -3.537  1.00  0.00     0.028 A 
HETATM   15  C14 UNL     1      42.396 -25.019  -2.590  1.00  0.00     0.028 A 
ENDBRANCH  11  13
ENDBRANCH   7  11
ENDBRANCH   1   3
BRANCH   1  16
HETATM   16  C4  UNL     1      37.340 -26.350  -5.281  1.00  0.00     0.087 C 
HETATM   17  C5  UNL     1      36.453 -26.733  -6.436  1.00  0.00     0.059 C 
HETATM   18  C6  UNL     1      36.140 -28.217  -6.424  1.00  0.00     0.205 C 
HETATM   19  C7  UNL     1      34.893 -28.460  -5.669  1.00  0.00     0.147 C 
HETATM   20  N3  UNL     1      37.323 -28.876  -5.928  1.00  0.00    -0.063 N 
HETATM   21  N2  UNL     1      34.993 -28.816  -4.302  1.00  0.00    -0.417 N 
HETATM   22  C8  UNL     1      36.187 -29.502  -3.942  1.00  0.00     0.147 C 
ATOM     23  H2  UNL     1      34.263 -28.598  -3.625  1.00  0.00     0.153 HD
HETATM   24  C9  UNL     1      37.383 -28.701  -4.486  1.00  0.00     0.205 C 
HETATM   25  C10 UNL     1      37.289 -27.269  -4.106  1.00  0.00     0.059 C 
ATOM     26  H32 UNL     1      37.370 -29.856  -6.204  1.00  0.00     0.278 HD
ATOM     27  H31 UNL     1      38.172 -28.558  -6.395  1.00  0.00     0.278 HD
ENDBRANCH   1  16
TORSDOF 4
ENDMDL
MODEL 2
REMARK VINA RESULT: -6.695098645      1.052      1.550
REMARK  4 active torsions:
REMARK  status: ('A' for Active; 'I' for Inactive)
REMARK    1  A    between atoms: C3_3  and  N1_4 
REMARK    2  A    between atoms: N1_4  and  C4_6 
REMARK    3  A    between atoms: C11_20  and  N5_21 
REMARK    4  A    between atoms: N5_21  and  C12_23 
ROOT
HETATM    1  N1  UNL     1      36.633 -24.736  -3.758  1.00  0.00    -0.371 N 
ATOM      2  H1  UNL     1      36.294 -24.820  -2.800  1.00  0.00     0.161 HD
ENDROOT
BRANCH   1   3
HETATM    3  C3  UNL     1      37.509 -23.838  -3.972  1.00  0.00     0.118 A 
HETATM    4  C2  UNL     1      37.054 -22.537  -4.218  1.00  0.00     0.066 A 
HETATM    5  C1  UNL     1      37.973 -21.534  -4.441  1.00  0.00     0.110 A 
HETATM    6  N6  UNL     1      39.299 -21.795  -4.425  1.00  0.00    -0.202 N 
HETATM    7  C11 UNL     1      39.762 -23.036  -4.190  1.00  0.00     0.679 A 
ATOM      8  H6  UNL     1      39.961 -21.037  -4.594  1.00  0.00     0.183 HD
HETATM    9  N4  UNL     1      38.819 -24.033  -3.967  1.00  0.00    -0.177 N 
ATOM     10  H4  UNL     1      39.159 -24.978  -3.786  1.00  0.00     0.185 HD
BRANCH   7  11
HETATM   11  N5  UNL     1      40.959 -23.356  -4.157  1.00  0.00    -0.221 N 
ATOM     12  H5  UNL     1      41.558 -22.547  -4.326  1.00  0.00     0.178 HD
BRANCH  11  13
HETATM   13  C12 UNL     1      41.706 -24.484  -3.959  1.00  0.00     0.099 A 
HETATM   14  C13 UNL     1      43.150 -24.587  -3.594  1.00  0.00     0.028 A 
HETATM   15  C14 UNL     1      42.105 -25.006  -2.633  1.00  0.00     0.028 A 
ENDBRANCH  11  13
ENDBRANCH   7  11
ENDBRANCH   1   3
BRANCH   1  16
HETATM   16  C4  UNL     1      36.069 -25.645  -4.723  1.00  0.00     0.087 C 
HETATM   17  C5  UNL     1      35.078 -26.508  -3.986  1.00  0.00     0.059 C 
HETATM   18  C6  UNL     1      34.969 -27.883  -4.615  1.00  0.00     0.205 C 
HETATM   19  C7  UNL     1      35.925 -28.807  -3.968  1.00  0.00     0.147 C 
HETATM   20  N3  UNL     1      35.130 -27.693  -6.035  1.00  0.00    -0.063 N 
HETATM   21  N2  UNL     1      37.187 -29.003  -4.577  1.00  0.00    -0.417 N 
HETATM   22  C8  UNL     1      37.210 -28.830  -5.990  1.00  0.00     0.147 C 
ATOM     23  H2  UNL     1      38.021 -29.249  -4.043  1.00  0.00     0.153 HD
HETATM   24  C9  UNL     1      36.540 -27.485  -6.321  1.00  0.00     0.205 C 
HETATM   25  C10 UNL     1      37.106 -26.386  -5.499  1.00  0.00     0.059 C 
ATOM     26  H32 UNL     1      34.730 -28.456  -6.580  1.00  0.00     0.278 HD
ATOM     27  H31 UNL     1      34.544 -26.941  -6.397  1.00  0.00     0.278 HD
ENDBRANCH   1  16
TORSDOF 4
ENDMDL
MODEL 3
REMARK VINA RESULT: -6.617171080      1.601      6.787
REMARK  4 active torsions:
REMARK  status: ('A' for Active; 'I' for Inactive)
REMARK    1  A    between atoms: C3_3  and  N1_4 
REMARK    2  A    between atoms: N1_4  and  C4_6 
REMARK    3  A    between atoms: C11_20  and  N5_21 
REMARK    4  A    between atoms: N5_21  and  C12_23 
ROOT
HETATM    1  N1  UNL     1      36.666 -25.073  -4.863  1.00  0.00    -0.371 N 
ATOM      2  H1  UNL     1      36.311 -24.287  -5.409  1.00  0.00     0.161 HD
ENDROOT
BRANCH   1   3
HETATM    3  C3  UNL     1      36.264 -26.230  -5.207  1.00  0.00     0.118 A 
HETATM    4  C2  UNL     1      36.819 -26.789  -6.364  1.00  0.00     0.066 A 
HETATM    5  C1  UNL     1      36.417 -28.046  -6.763  1.00  0.00     0.110 A 
HETATM    6  N6  UNL     1      35.500 -28.737  -6.051  1.00  0.00    -0.202 N 
HETATM    7  C11 UNL     1      34.953 -28.223  -4.935  1.00  0.00     0.679 A 
ATOM      8  H6  UNL     1      35.217 -29.666  -6.365  1.00  0.00     0.183 HD
HETATM    9  N4  UNL     1      35.371 -26.954  -4.550  1.00  0.00    -0.177 N 
ATOM     10  H4  UNL     1      34.963 -26.555  -3.704  1.00  0.00     0.185 HD
BRANCH   7  11
HETATM   11  N5  UNL     1      34.109 -28.792  -4.227  1.00  0.00    -0.221 N 
ATOM     12  H5  UNL     1      33.211 -28.852  -4.707  1.00  0.00     0.178 HD
BRANCH  11  13
HETATM   13  C12 UNL     1      34.039 -29.362  -2.986  1.00  0.00     0.099 A 
HETATM   14  C13 UNL     1      33.519 -30.711  -2.614  1.00  0.00     0.028 A 
HETATM   15  C14 UNL     1      34.961 -30.406  -2.486  1.00  0.00     0.028 A 
ENDBRANCH  11  13
ENDBRANCH   7  11
ENDBRANCH   1   3
BRANCH   1  16
HETATM   16  C4  UNL     1      37.569 -24.752  -3.787  1.00  0.00     0.087 C 
HETATM   17  C5  UNL     1      37.695 -23.252  -3.752  1.00  0.00     0.059 C 
HETATM   18  C6  UNL     1      39.056 -22.824  -3.237  1.00  0.00     0.205 C 
HETATM   19  C7  UNL     1      39.991 -22.658  -4.370  1.00  0.00     0.147 C 
HETATM   20  N3  UNL     1      39.433 -23.793  -2.238  1.00  0.00    -0.063 N 
HETATM   21  N2  UNL     1      40.836 -23.742  -4.708  1.00  0.00    -0.417 N 
HETATM   22  C8  UNL     1      41.176 -24.604  -3.627  1.00  0.00     0.147 C 
ATOM     23  H2  UNL     1      41.179 -23.894  -5.657  1.00  0.00     0.153 HD
HETATM   24  C9  UNL     1      39.876 -25.005  -2.907  1.00  0.00     0.205 C 
HETATM   25  C10 UNL     1      38.858 -25.499  -3.869  1.00  0.00     0.059 C 
ATOM     26  H32 UNL     1      40.129 -23.431  -1.586  1.00  0.00     0.278 HD
ATOM     27  H31 UNL     1      38.688 -23.969  -1.564  1.00  0.00     0.278 HD
ENDBRANCH   1  16
TORSDOF 4
ENDMDL
MODEL 4
REMARK VINA RESULT: -6.523168689      1.872      7.048
REMARK  4 active torsions:
REMARK  status: ('A' for Active; 'I' for Inactive)
REMARK    1  A    between atoms: C3_3  and  N1_4 
REMARK    2  A    between atoms: N1_4  and  C4_6 
REMARK    3  A    between atoms: C11_20  and  N5_21 
REMARK    4  A    between atoms: N5_21  and  C12_23 
ROOT
HETATM    1  N1  UNL     1      36.556 -25.134  -4.895  1.00  0.00    -0.371 N 
ATOM      2  H1  UNL     1      35.968 -24.349  -5.177  1.00  0.00     0.161 HD
ENDROOT
BRANCH   1   3
HETATM    3  C3  UNL     1      36.171 -26.290  -5.263  1.00  0.00     0.118 A 
HETATM    4  C2  UNL     1      36.805 -26.858  -6.375  1.00  0.00     0.066 A 
HETATM    5  C1  UNL     1      36.425 -28.115  -6.797  1.00  0.00     0.110 A 
HETATM    6  N6  UNL     1      35.454 -28.797  -6.150  1.00  0.00    -0.202 N 
HETATM    7  C11 UNL     1      34.830 -28.274  -5.079  1.00  0.00     0.679 A 
ATOM      8  H6  UNL     1      35.188 -29.725  -6.481  1.00  0.00     0.183 HD
HETATM    9  N4  UNL     1      35.229 -27.006  -4.670  1.00  0.00    -0.177 N 
ATOM     10  H4  UNL     1      34.763 -26.600  -3.858  1.00  0.00     0.185 HD
BRANCH   7  11
HETATM   11  N5  UNL     1      33.933 -28.834  -4.433  1.00  0.00    -0.221 N 
ATOM     12  H5  UNL     1      33.081 -28.917  -4.988  1.00  0.00     0.178 HD
BRANCH  11  13
HETATM   13  C12 UNL     1      33.760 -29.372  -3.187  1.00  0.00     0.099 A 
HETATM   14  C13 UNL     1      33.156 -30.687  -2.822  1.00  0.00     0.028 A 
HETATM   15  C14 UNL     1      34.601 -30.444  -2.610  1.00  0.00     0.028 A 
ENDBRANCH  11  13
ENDBRANCH   7  11
ENDBRANCH   1   3
BRANCH   1  16
HETATM   16  C4  UNL     1      37.731 -24.815  -4.125  1.00  0.00     0.087 C 
HETATM   17  C5  UNL     1      37.258 -24.163  -2.853  1.00  0.00     0.059 C 
HETATM   18  C6  UNL     1      38.278 -23.170  -2.329  1.00  0.00     0.205 C 
HETATM   19  C7  UNL     1      37.990 -21.825  -2.868  1.00  0.00     0.147 C 
HETATM   20  N3  UNL     1      39.574 -23.719  -2.643  1.00  0.00    -0.063 N 
HETATM   21  N2  UNL     1      38.682 -21.404  -4.029  1.00  0.00    -0.417 N 
HETATM   22  C8  UNL     1      39.971 -21.981  -4.208  1.00  0.00     0.147 C 
ATOM     23  H2  UNL     1      38.286 -20.736  -4.691  1.00  0.00     0.153 HD
HETATM   24  C9  UNL     1      39.839 -23.506  -4.057  1.00  0.00     0.205 C 
HETATM   25  C10 UNL     1      38.741 -24.038  -4.902  1.00  0.00     0.059 C 
ATOM     26  H32 UNL     1      40.312 -23.344  -2.047  1.00  0.00     0.278 HD
ATOM     27  H31 UNL     1      39.660 -24.698  -2.373  1.00  0.00     0.278 HD
ENDBRANCH   1  16
TORSDOF 4
ENDMDL
MODEL 5
REMARK VINA RESULT: -6.408348816      2.011      6.932
REMARK  4 active torsions:
REMARK  status: ('A' for Active; 'I' for Inactive)
REMARK    1  A    between atoms: C3_3  and  N1_4 
REMARK    2  A    between atoms: N1_4  and  C4_6 
REMARK    3  A    between atoms: C11_20  and  N5_21 
REMARK    4  A    between atoms: N5_21  and  C12_23 
ROOT
HETATM    1  N1  UNL     1      37.972 -25.714  -4.850  1.00  0.00    -0.371 N 
ATOM      2  H1  UNL     1      38.977 -25.880  -4.795  1.00  0.00     0.161 HD
ENDROOT
BRANCH   1   3
HETATM    3  C3  UNL     1      37.231 -26.744  -4.945  1.00  0.00     0.118 A 
HETATM    4  C2  UNL     1      36.888 -27.175  -6.232  1.00  0.00     0.066 A 
HETATM    5  C1  UNL     1      36.097 -28.296  -6.376  1.00  0.00     0.110 A 
HETATM    6  N6  UNL     1      35.655 -28.975  -5.295  1.00  0.00    -0.202 N 
HETATM    7  C11 UNL     1      35.973 -28.582  -4.048  1.00  0.00     0.679 A 
ATOM      8  H6  UNL     1      35.071 -29.801  -5.426  1.00  0.00     0.183 HD
HETATM    9  N4  UNL     1      36.771 -27.450  -3.924  1.00  0.00    -0.177 N 
ATOM     10  H4  UNL     1      37.019 -27.144  -2.983  1.00  0.00     0.185 HD
BRANCH   7  11
HETATM   11  N5  UNL     1      35.610 -29.150  -3.007  1.00  0.00    -0.221 N 
ATOM     12  H5  UNL     1      35.659 -28.516  -2.210  1.00  0.00     0.178 HD
BRANCH  11  13
HETATM   13  C12 UNL     1      35.164 -30.384  -2.624  1.00  0.00     0.099 A 
HETATM   14  C13 UNL     1      34.526 -30.779  -1.333  1.00  0.00     0.028 A 
HETATM   15  C14 UNL     1      33.741 -30.790  -2.588  1.00  0.00     0.028 A 
ENDBRANCH  11  13
ENDBRANCH   7  11
ENDBRANCH   1   3
BRANCH   1  16
HETATM   16  C4  UNL     1      37.544 -24.338  -4.810  1.00  0.00     0.087 C 
HETATM   17  C5  UNL     1      38.589 -23.533  -5.537  1.00  0.00     0.059 C 
HETATM   18  C6  UNL     1      38.684 -22.124  -4.983  1.00  0.00     0.205 C 
HETATM   19  C7  UNL     1      39.702 -22.073  -3.913  1.00  0.00     0.147 C 
HETATM   20  N3  UNL     1      37.344 -21.747  -4.606  1.00  0.00    -0.063 N 
HETATM   21  N2  UNL     1      39.272 -22.206  -2.571  1.00  0.00    -0.417 N 
HETATM   22  C8  UNL     1      37.946 -21.759  -2.313  1.00  0.00     0.147 C 
ATOM     23  H2  UNL     1      39.870 -22.595  -1.841  1.00  0.00     0.153 HD
HETATM   24  C9  UNL     1      37.011 -22.402  -3.352  1.00  0.00     0.205 C 
HETATM   25  C10 UNL     1      37.223 -23.869  -3.431  1.00  0.00     0.059 C 
ATOM     26  H32 UNL     1      37.220 -20.736  -4.563  1.00  0.00     0.278 HD
ATOM     27  H31 UNL     1      36.662 -21.941  -5.340  1.00  0.00     0.278 HD
ENDBRANCH   1  16
TORSDOF 4
ENDMDL
