MODEL 1
REMARK VINA RESULT: -6.707323682      0.000      0.000
REMARK  4 active torsions:
REMARK  status: ('A' for Active; 'I' for Inactive)
REMARK    1  A    between atoms: N1_2  and  C2_4 
REMARK    2  A    between atoms: C3_7  and  N3_8 
REMARK    3  A    between atoms: N5_15  and  C6_16 
REMARK    4  A    between atoms: C6_16  and  C7_17 
ROOT
HETATM    1  C2  UNL     1      22.695 -16.642 -17.681  1.00  0.00     0.681 A 
HETATM    2  N2  UNL     1      23.335 -17.399 -18.590  1.00  0.00    -0.175 N 
ATOM      3  H2  UNL     1      22.871 -18.244 -18.924  1.00  0.00     0.186 HD
HETATM    4  C3  UNL     1      24.537 -17.114 -19.078  1.00  0.00     0.145 A 
HETATM    5  C4  UNL     1      25.192 -15.979 -18.649  1.00  0.00     0.123 A 
HETATM    6  N4  UNL     1      26.364 -15.388 -18.904  1.00  0.00    -0.346 N 
ATOM      7  H4  UNL     1      27.074 -15.727 -19.554  1.00  0.00     0.167 HD
HETATM    8  C5  UNL     1      26.450 -14.272 -18.159  1.00  0.00     0.185 A 
HETATM    9  N5  UNL     1      25.338 -14.115 -17.407  1.00  0.00    -0.323 N 
HETATM   10  C13 UNL     1      24.554 -15.173 -17.708  1.00  0.00     0.155 A 
HETATM   11  N7  UNL     1      23.325 -15.535 -17.256  1.00  0.00    -0.174 N 
ATOM     12  H7  UNL     1      22.861 -14.942 -16.567  1.00  0.00     0.186 HD
ENDROOT
BRANCH   9  13
HETATM   13  C6  UNL     1      25.057 -13.043 -16.482  1.00  0.00     0.167 C 
BRANCH  13  14
HETATM   14  C7  UNL     1      26.337 -12.504 -15.927  1.00  0.00    -0.034 A 
HETATM   15  C8  UNL     1      26.954 -11.378 -16.210  1.00  0.00     0.009 A 
HETATM   16  C9  UNL     1      26.411 -10.400 -17.211  1.00  0.00     0.068 C 
HETATM   17  N6  UNL     1      28.141 -11.278 -15.441  1.00  0.00    -0.367 N 
HETATM   18  C10 UNL     1      28.292 -12.301 -14.687  1.00  0.00    -0.013 A 
ATOM     19  H6  UNL     1      28.791 -10.493 -15.484  1.00  0.00     0.165 HD
HETATM   20  C11 UNL     1      29.380 -12.617 -13.724  1.00  0.00     0.063 C 
HETATM   21  C12 UNL     1      27.148 -13.203 -14.915  1.00  0.00     0.089 A 
ENDBRANCH  13  14
ENDBRANCH   9  13
BRANCH   4  22
HETATM   22  N3  UNL     1      25.099 -17.881 -19.949  1.00  0.00    -0.383 N 
ATOM     23  H32 UNL     1      24.948 -17.710 -20.943  1.00  0.00     0.157 HD
ATOM     24  H31 UNL     1      25.692 -18.659 -19.658  1.00  0.00     0.157 HD
ENDBRANCH   4  22
BRANCH   1  25
HETATM   25  N1  UNL     1      21.537 -16.928 -17.217  1.00  0.00    -0.230 N 
HETATM   26  C1  UNL     1      20.959 -18.231 -17.187  1.00  0.00     0.165 C 
ATOM     27  H1  UNL     1      20.982 -16.161 -16.836  1.00  0.00     0.177 HD
ENDBRANCH   1  25
TORSDOF 4
ENDMDL
MODEL 2
REMARK VINA RESULT: -6.654852100      1.800      2.824
REMARK  4 active torsions:
REMARK  status: ('A' for Active; 'I' for Inactive)
REMARK    1  A    between atoms: N1_2  and  C2_4 
REMARK    2  A    between atoms: C3_7  and  N3_8 
REMARK    3  A    between atoms: N5_15  and  C6_16 
REMARK    4  A    between atoms: C6_16  and  C7_17 
ROOT
HETATM    1  C2  UNL     1      22.667 -16.512 -17.493  1.00  0.00     0.681 A 
HETATM    2  N2  UNL     1      21.831 -15.462 -17.584  1.00  0.00    -0.175 N 
ATOM      3  H2  UNL     1      20.828 -15.644 -17.559  1.00  0.00     0.186 HD
HETATM    4  C3  UNL     1      22.234 -14.202 -17.704  1.00  0.00     0.145 A 
HETATM    5  C4  UNL     1      23.584 -13.921 -17.738  1.00  0.00     0.123 A 
HETATM    6  N4  UNL     1      24.337 -12.821 -17.845  1.00  0.00    -0.346 N 
ATOM      7  H4  UNL     1      23.988 -11.866 -17.931  1.00  0.00     0.167 HD
HETATM    8  C5  UNL     1      25.631 -13.187 -17.820  1.00  0.00     0.185 A 
HETATM    9  N5  UNL     1      25.744 -14.527 -17.696  1.00  0.00    -0.323 N 
HETATM   10  C13 UNL     1      24.476 -14.988 -17.646  1.00  0.00     0.155 A 
HETATM   11  N7  UNL     1      23.984 -16.249 -17.526  1.00  0.00    -0.174 N 
ATOM     12  H7  UNL     1      24.640 -17.027 -17.458  1.00  0.00     0.186 HD
ENDROOT
BRANCH   9  13
HETATM   13  C6  UNL     1      26.965 -15.295 -17.633  1.00  0.00     0.167 C 
BRANCH  13  14
HETATM   14  C7  UNL     1      28.001 -14.536 -16.867  1.00  0.00    -0.034 A 
HETATM   15  C8  UNL     1      29.194 -14.142 -17.254  1.00  0.00     0.009 A 
HETATM   16  C9  UNL     1      29.720 -14.422 -18.632  1.00  0.00     0.068 C 
HETATM   17  N6  UNL     1      29.835 -13.452 -16.194  1.00  0.00    -0.367 N 
HETATM   18  C10 UNL     1      29.089 -13.400 -15.157  1.00  0.00    -0.013 A 
ATOM     19  H6  UNL     1      30.771 -13.049 -16.251  1.00  0.00     0.165 HD
HETATM   20  C11 UNL     1      29.350 -12.781 -13.829  1.00  0.00     0.063 C 
HETATM   21  C12 UNL     1      27.825 -14.091 -15.474  1.00  0.00     0.089 A 
ENDBRANCH  13  14
ENDBRANCH   9  13
BRANCH   4  22
HETATM   22  N3  UNL     1      21.382 -13.238 -17.787  1.00  0.00    -0.383 N 
ATOM     23  H32 UNL     1      20.971 -12.854 -16.935  1.00  0.00     0.157 HD
ATOM     24  H31 UNL     1      21.110 -12.854 -18.692  1.00  0.00     0.157 HD
ENDBRANCH   4  22
BRANCH   1  25
HETATM   25  N1  UNL     1      22.267 -17.722 -17.378  1.00  0.00    -0.230 N 
HETATM   26  C1  UNL     1      20.939 -18.124 -17.055  1.00  0.00     0.165 C 
ATOM     27  H1  UNL     1      22.955 -18.460 -17.532  1.00  0.00     0.177 HD
ENDBRANCH   1  25
TORSDOF 4
ENDMDL
MODEL 3
REMARK VINA RESULT: -6.617731597      1.749      2.921
REMARK  4 active torsions:
REMARK  status: ('A' for Active; 'I' for Inactive)
REMARK    1  A    between atoms: N1_2  and  C2_4 
REMARK    2  A    between atoms: C3_7  and  N3_8 
REMARK    3  A    between atoms: N5_15  and  C6_16 
REMARK    4  A    between atoms: C6_16  and  C7_17 
ROOT
HETATM    1  C2  UNL     1      23.025 -16.007 -17.713  1.00  0.00     0.681 A 
HETATM    2  N2  UNL     1      22.133 -15.012 -17.858  1.00  0.00    -0.175 N 
ATOM      3  H2  UNL     1      21.173 -15.259 -18.101  1.00  0.00     0.186 HD
HETATM    4  C3  UNL     1      22.425 -13.725 -17.706  1.00  0.00     0.145 A 
HETATM    5  C4  UNL     1      23.713 -13.357 -17.377  1.00  0.00     0.123 A 
HETATM    6  N4  UNL     1      24.358 -12.207 -17.150  1.00  0.00    -0.346 N 
ATOM      7  H4  UNL     1      23.945 -11.275 -17.187  1.00  0.00     0.167 HD
HETATM    8  C5  UNL     1      25.642 -12.488 -16.865  1.00  0.00     0.185 A 
HETATM    9  N5  UNL     1      25.856 -13.822 -16.901  1.00  0.00    -0.323 N 
HETATM   10  C13 UNL     1      24.661 -14.365 -17.219  1.00  0.00     0.155 A 
HETATM   11  N7  UNL     1      24.282 -15.659 -17.393  1.00  0.00    -0.174 N 
ATOM     12  H7  UNL     1      24.980 -16.394 -17.276  1.00  0.00     0.186 HD
ENDROOT
BRANCH   9  13
HETATM   13  C6  UNL     1      27.100 -14.510 -16.651  1.00  0.00     0.167 C 
BRANCH  13  14
HETATM   14  C7  UNL     1      28.079 -13.574 -16.017  1.00  0.00    -0.034 A 
HETATM   15  C8  UNL     1      28.127 -13.142 -14.776  1.00  0.00     0.009 A 
HETATM   16  C9  UNL     1      27.124 -13.566 -13.743  1.00  0.00     0.068 C 
HETATM   17  N6  UNL     1      29.230 -12.265 -14.619  1.00  0.00    -0.367 N 
HETATM   18  C10 UNL     1      29.874 -12.130 -15.715  1.00  0.00    -0.013 A 
ATOM     19  H6  UNL     1      29.477 -11.801 -13.744  1.00  0.00     0.165 HD
HETATM   20  C11 UNL     1      31.084 -11.317 -16.011  1.00  0.00     0.063 C 
HETATM   21  C12 UNL     1      29.206 -12.958 -16.737  1.00  0.00     0.089 A 
ENDBRANCH  13  14
ENDBRANCH   9  13
BRANCH   4  22
HETATM   22  N3  UNL     1      21.523 -12.817 -17.859  1.00  0.00    -0.383 N 
ATOM     23  H32 UNL     1      20.812 -12.931 -18.582  1.00  0.00     0.157 HD
ATOM     24  H31 UNL     1      21.510 -11.985 -17.269  1.00  0.00     0.157 HD
ENDBRANCH   4  22
BRANCH   1  25
HETATM   25  N1  UNL     1      22.732 -17.244 -17.863  1.00  0.00    -0.230 N 
HETATM   26  C1  UNL     1      21.498 -17.850 -17.484  1.00  0.00     0.165 C 
ATOM     27  H1  UNL     1      23.438 -17.845 -18.289  1.00  0.00     0.177 HD
ENDBRANCH   1  25
TORSDOF 4
ENDMDL
MODEL 4
REMARK VINA RESULT: -6.534904057      1.733      2.934
REMARK  4 active torsions:
REMARK  status: ('A' for Active; 'I' for Inactive)
REMARK    1  A    between atoms: N1_2  and  C2_4 
REMARK    2  A    between atoms: C3_7  and  N3_8 
REMARK    3  A    between atoms: N5_15  and  C6_16 
REMARK    4  A    between atoms: C6_16  and  C7_17 
ROOT
HETATM    1  C2  UNL     1      22.560 -13.170 -17.850  1.00  0.00     0.681 A 
HETATM    2  N2  UNL     1      21.923 -14.328 -17.600  1.00  0.00    -0.175 N 
ATOM      3  H2  UNL     1      20.918 -14.295 -17.426  1.00  0.00     0.186 HD
HETATM    4  C3  UNL     1      22.524 -15.512 -17.564  1.00  0.00     0.145 A 
HETATM    5  C4  UNL     1      23.881 -15.591 -17.796  1.00  0.00     0.123 A 
HETATM    6  N4  UNL     1      24.796 -16.566 -17.841  1.00  0.00    -0.346 N 
ATOM      7  H4  UNL     1      24.616 -17.559 -17.690  1.00  0.00     0.167 HD
HETATM    8  C5  UNL     1      25.992 -16.016 -18.119  1.00  0.00     0.185 A 
HETATM    9  N5  UNL     1      25.878 -14.677 -18.259  1.00  0.00    -0.323 N 
HETATM   10  C13 UNL     1      24.570 -14.408 -18.059  1.00  0.00     0.155 A 
HETATM   11  N7  UNL     1      23.882 -13.236 -18.077  1.00  0.00    -0.174 N 
ATOM     12  H7  UNL     1      24.390 -12.373 -18.270  1.00  0.00     0.186 HD
ENDROOT
BRANCH   9  13
HETATM   13  C6  UNL     1      26.935 -13.741 -18.558  1.00  0.00     0.167 C 
BRANCH  13  14
HETATM   14  C7  UNL     1      27.388 -13.069 -17.300  1.00  0.00    -0.034 A 
HETATM   15  C8  UNL     1      27.186 -11.833 -16.903  1.00  0.00     0.009 A 
HETATM   16  C9  UNL     1      26.411 -10.845 -17.727  1.00  0.00     0.068 C 
HETATM   17  N6  UNL     1      27.799 -11.631 -15.641  1.00  0.00    -0.367 N 
HETATM   18  C10 UNL     1      28.378 -12.696 -15.232  1.00  0.00    -0.013 A 
ATOM     19  H6  UNL     1      27.781 -10.751 -15.125  1.00  0.00     0.165 HD
HETATM   20  C11 UNL     1      29.137 -12.941 -13.976  1.00  0.00     0.063 C 
HETATM   21  C12 UNL     1      28.177 -13.741 -16.254  1.00  0.00     0.089 A 
ENDBRANCH  13  14
ENDBRANCH   9  13
BRANCH   4  22
HETATM   22  N3  UNL     1      21.857 -16.587 -17.318  1.00  0.00    -0.383 N 
ATOM     23  H32 UNL     1      20.960 -16.524 -16.836  1.00  0.00     0.157 HD
ATOM     24  H31 UNL     1      22.213 -17.502 -17.597  1.00  0.00     0.157 HD
ENDBRANCH   4  22
BRANCH   1  25
HETATM   25  N1  UNL     1      21.970 -12.034 -17.881  1.00  0.00    -0.230 N 
HETATM   26  C1  UNL     1      22.623 -10.769 -17.952  1.00  0.00     0.165 C 
ATOM     27  H1  UNL     1      20.950 -12.034 -17.853  1.00  0.00     0.177 HD
ENDBRANCH   1  25
TORSDOF 4
ENDMDL
MODEL 5
REMARK VINA RESULT: -6.524730883      1.764      3.319
REMARK  4 active torsions:
REMARK  status: ('A' for Active; 'I' for Inactive)
REMARK    1  A    between atoms: N1_2  and  C2_4 
REMARK    2  A    between atoms: C3_7  and  N3_8 
REMARK    3  A    between atoms: N5_15  and  C6_16 
REMARK    4  A    between atoms: C6_16  and  C7_17 
ROOT
HETATM    1  C2  UNL     1      23.747 -16.154 -18.259  1.00  0.00     0.681 A 
HETATM    2  N2  UNL     1      22.593 -15.466 -18.295  1.00  0.00    -0.175 N 
ATOM      3  H2  UNL     1      21.801 -15.883 -18.784  1.00  0.00     0.186 HD
HETATM    4  C3  UNL     1      22.421 -14.275 -17.731  1.00  0.00     0.145 A 
HETATM    5  C4  UNL     1      23.472 -13.684 -17.061  1.00  0.00     0.123 A 
HETATM    6  N4  UNL     1      23.669 -12.540 -16.396  1.00  0.00    -0.346 N 
ATOM      7  H4  UNL     1      22.974 -11.807 -16.252  1.00  0.00     0.167 HD
HETATM    8  C5  UNL     1      24.938 -12.520 -15.950  1.00  0.00     0.185 A 
HETATM    9  N5  UNL     1      25.588 -13.647 -16.315  1.00  0.00    -0.323 N 
HETATM   10  C13 UNL     1      24.682 -14.372 -17.006  1.00  0.00     0.155 A 
HETATM   11  N7  UNL     1      24.777 -15.587 -17.609  1.00  0.00    -0.174 N 
ATOM     12  H7  UNL     1      25.665 -16.088 -17.566  1.00  0.00     0.186 HD
ENDROOT
BRANCH   9  13
HETATM   13  C6  UNL     1      26.959 -13.993 -16.025  1.00  0.00     0.167 C 
BRANCH  13  14
HETATM   14  C7  UNL     1      27.858 -12.859 -16.405  1.00  0.00    -0.034 A 
HETATM   15  C8  UNL     1      28.733 -12.212 -15.666  1.00  0.00     0.009 A 
HETATM   16  C9  UNL     1      28.966 -12.553 -14.222  1.00  0.00     0.068 C 
HETATM   17  N6  UNL     1      29.363 -11.208 -16.443  1.00  0.00    -0.367 N 
HETATM   18  C10 UNL     1      28.916 -11.200 -17.641  1.00  0.00    -0.013 A 
ATOM     19  H6  UNL     1      30.080 -10.573 -16.091  1.00  0.00     0.165 HD
HETATM   20  C11 UNL     1      29.286 -10.327 -18.787  1.00  0.00     0.063 C 
HETATM   21  C12 UNL     1      27.898 -12.262 -17.751  1.00  0.00     0.089 A 
ENDBRANCH  13  14
ENDBRANCH   9  13
BRANCH   4  22
HETATM   22  N3  UNL     1      21.288 -13.665 -17.801  1.00  0.00    -0.383 N 
ATOM     23  H32 UNL     1      20.581 -13.832 -17.085  1.00  0.00     0.157 HD
ATOM     24  H31 UNL     1      21.086 -13.017 -18.564  1.00  0.00     0.157 HD
ENDBRANCH   4  22
BRANCH   1  25
HETATM   25  N1  UNL     1      23.902 -17.301 -18.806  1.00  0.00    -0.230 N 
HETATM   26  C1  UNL     1      24.806 -17.592 -19.869  1.00  0.00     0.165 C 
ATOM     27  H1  UNL     1      23.331 -18.069 -18.453  1.00  0.00     0.177 HD
ENDBRANCH   1  25
TORSDOF 4
ENDMDL
