MODEL 1
REMARK VINA RESULT: -5.847460120      0.000      0.000
REMARK  3 active torsions:
REMARK  status: ('A' for Active; 'I' for Inactive)
REMARK    1  A    between atoms: C2_2  and  N1_4 
REMARK    2  A    between atoms: C4_5  and  N2_6 
REMARK    3  A    between atoms: C6_12  and  N4_13 
ROOT
HETATM    1  N1  UNL     1      26.166 -13.557 -16.404  1.00  0.00    -0.162 N 
HETATM    2  C4  UNL     1      27.155 -14.324 -16.877  1.00  0.00     0.680 A 
HETATM    3  N3  UNL     1      26.590 -15.110 -17.821  1.00  0.00    -0.184 N 
ATOM      4  H3  UNL     1      27.092 -15.808 -18.368  1.00  0.00     0.184 HD
HETATM    5  C5  UNL     1      25.275 -14.847 -17.942  1.00  0.00     0.139 A 
HETATM    6  C6  UNL     1      24.236 -15.316 -18.705  1.00  0.00     0.150 A 
HETATM    7  N5  UNL     1      22.964 -14.827 -18.588  1.00  0.00    -0.175 N 
ATOM      8  H5  UNL     1      22.202 -15.187 -19.163  1.00  0.00     0.186 HD
HETATM    9  C11 UNL     1      22.757 -13.857 -17.686  1.00  0.00     0.679 A 
HETATM   10  N6  UNL     1      21.558 -13.357 -17.537  1.00  0.00    -0.234 N 
ATOM     11  H61 UNL     1      21.401 -12.619 -16.851  1.00  0.00     0.174 HD
ATOM     12  H62 UNL     1      20.803 -13.723 -18.116  1.00  0.00     0.174 HD
HETATM   13  N7  UNL     1      23.749 -13.376 -16.925  1.00  0.00    -0.174 N 
ATOM     14  H7  UNL     1      23.551 -12.637 -16.251  1.00  0.00     0.186 HD
HETATM   15  C12 UNL     1      24.997 -13.851 -17.036  1.00  0.00     0.170 A 
ENDROOT
BRANCH   6  16
HETATM   16  N4  UNL     1      24.466 -16.333 -19.652  1.00  0.00    -0.365 N 
HETATM   17  C7  UNL     1      24.770 -16.126 -21.055  1.00  0.00     0.124 C 
HETATM   18  C8  UNL     1      25.801 -17.224 -21.365  1.00  0.00     0.021 C 
HETATM   19  C9  UNL     1      25.863 -18.072 -20.106  1.00  0.00     0.021 C 
HETATM   20  C10 UNL     1      24.482 -17.788 -19.500  1.00  0.00     0.124 C 
ENDBRANCH   6  16
BRANCH   2  21
HETATM   21  N2  UNL     1      28.405 -14.313 -16.505  1.00  0.00    -0.234 N 
ATOM     22  H22 UNL     1      29.066 -13.540 -16.585  1.00  0.00     0.174 HD
ATOM     23  H21 UNL     1      28.924 -15.077 -16.071  1.00  0.00     0.174 HD
ENDBRANCH   2  21
BRANCH   1  24
HETATM   24  C2  UNL     1      26.234 -12.551 -15.380  1.00  0.00     0.101 C 
HETATM   25  C1  UNL     1      26.931 -11.291 -15.791  1.00  0.00     0.033 C 
HETATM   26  C3  UNL     1      26.835 -13.193 -14.148  1.00  0.00     0.033 C 
ENDBRANCH   1  24
TORSDOF 3
ENDMDL
MODEL 2
REMARK VINA RESULT: -5.675306962      1.323      1.528
REMARK  3 active torsions:
REMARK  status: ('A' for Active; 'I' for Inactive)
REMARK    1  A    between atoms: C2_2  and  N1_4 
REMARK    2  A    between atoms: C4_5  and  N2_6 
REMARK    3  A    between atoms: C6_12  and  N4_13 
ROOT
HETATM    1  N1  UNL     1      27.667 -13.906 -16.292  1.00  0.00    -0.162 N 
HETATM    2  C4  UNL     1      28.261 -14.798 -17.094  1.00  0.00     0.680 A 
HETATM    3  N3  UNL     1      27.277 -15.304 -17.871  1.00  0.00    -0.184 N 
ATOM      4  H3  UNL     1      27.415 -16.012 -18.591  1.00  0.00     0.184 HD
HETATM    5  C5  UNL     1      26.089 -14.747 -17.567  1.00  0.00     0.139 A 
HETATM    6  C6  UNL     1      24.795 -14.869 -18.007  1.00  0.00     0.150 A 
HETATM    7  N5  UNL     1      23.770 -14.136 -17.474  1.00  0.00    -0.175 N 
ATOM      8  H5  UNL     1      22.813 -14.239 -17.812  1.00  0.00     0.186 HD
HETATM    9  C11 UNL     1      24.072 -13.278 -16.490  1.00  0.00     0.679 A 
HETATM   10  N6  UNL     1      23.127 -12.555 -15.948  1.00  0.00    -0.234 N 
ATOM     11  H61 UNL     1      23.357 -11.902 -15.199  1.00  0.00     0.174 HD
ATOM     12  H62 UNL     1      22.173 -12.665 -16.293  1.00  0.00     0.174 HD
HETATM   13  N7  UNL     1      25.325 -13.134 -16.037  1.00  0.00    -0.174 N 
ATOM     14  H7  UNL     1      25.514 -12.469 -15.287  1.00  0.00     0.186 HD
HETATM   15  C12 UNL     1      26.332 -13.849 -16.555  1.00  0.00     0.170 A 
ENDROOT
BRANCH   6  16
HETATM   16  N4  UNL     1      24.490 -15.771 -19.044  1.00  0.00    -0.365 N 
HETATM   17  C7  UNL     1      24.500 -15.461 -20.460  1.00  0.00     0.124 C 
HETATM   18  C8  UNL     1      25.065 -16.738 -21.104  1.00  0.00     0.021 C 
HETATM   19  C9  UNL     1      25.175 -17.737 -19.965  1.00  0.00     0.021 C 
HETATM   20  C10 UNL     1      24.120 -17.186 -18.996  1.00  0.00     0.124 C 
ENDBRANCH   6  16
BRANCH   2  21
HETATM   21  N2  UNL     1      29.526 -15.110 -17.122  1.00  0.00    -0.234 N 
ATOM     22  H22 UNL     1      30.314 -14.517 -16.860  1.00  0.00     0.174 HD
ATOM     23  H21 UNL     1      29.934 -16.000 -17.407  1.00  0.00     0.174 HD
ENDBRANCH   2  21
BRANCH   1  24
HETATM   24  C2  UNL     1      28.267 -13.090 -15.273  1.00  0.00     0.101 C 
HETATM   25  C1  UNL     1      29.352 -12.182 -15.761  1.00  0.00     0.033 C 
HETATM   26  C3  UNL     1      28.714 -14.009 -14.156  1.00  0.00     0.033 C 
ENDBRANCH   1  24
TORSDOF 3
ENDMDL
MODEL 3
REMARK VINA RESULT: -5.648134678      1.433      5.262
REMARK  3 active torsions:
REMARK  status: ('A' for Active; 'I' for Inactive)
REMARK    1  A    between atoms: C2_2  and  N1_4 
REMARK    2  A    between atoms: C4_5  and  N2_6 
REMARK    3  A    between atoms: C6_12  and  N4_13 
ROOT
HETATM    1  N1  UNL     1      24.689 -15.479 -18.139  1.00  0.00    -0.162 N 
HETATM    2  C4  UNL     1      25.912 -15.872 -17.765  1.00  0.00     0.680 A 
HETATM    3  N3  UNL     1      26.396 -14.877 -16.989  1.00  0.00    -0.184 N 
ATOM      4  H3  UNL     1      27.316 -14.883 -16.548  1.00  0.00     0.184 HD
HETATM    5  C5  UNL     1      25.501 -13.877 -16.874  1.00  0.00     0.139 A 
HETATM    6  C6  UNL     1      25.448 -12.662 -16.240  1.00  0.00     0.150 A 
HETATM    7  N5  UNL     1      24.356 -11.842 -16.321  1.00  0.00    -0.175 N 
ATOM      8  H5  UNL     1      24.333 -10.941 -15.844  1.00  0.00     0.186 HD
HETATM    9  C11 UNL     1      23.318 -12.269 -17.054  1.00  0.00     0.679 A 
HETATM   10  N6  UNL     1      22.251 -11.522 -17.162  1.00  0.00    -0.234 N 
ATOM     11  H61 UNL     1      21.461 -11.846 -17.720  1.00  0.00     0.174 HD
ATOM     12  H62 UNL     1      22.236 -10.622 -16.681  1.00  0.00     0.174 HD
HETATM   13  N7  UNL     1      23.337 -13.450 -17.686  1.00  0.00    -0.174 N 
ATOM     14  H7  UNL     1      22.526 -13.740 -18.233  1.00  0.00     0.186 HD
HETATM   15  C12 UNL     1      24.404 -14.257 -17.610  1.00  0.00     0.170 A 
ENDROOT
BRANCH   6  16
HETATM   16  N4  UNL     1      26.544 -12.226 -15.470  1.00  0.00    -0.365 N 
HETATM   17  C7  UNL     1      26.917 -12.742 -14.167  1.00  0.00     0.124 C 
HETATM   18  C8  UNL     1      28.454 -12.748 -14.211  1.00  0.00     0.021 C 
HETATM   19  C9  UNL     1      28.814 -12.063 -15.518  1.00  0.00     0.021 C 
HETATM   20  C10 UNL     1      27.559 -11.210 -15.750  1.00  0.00     0.124 C 
ENDBRANCH   6  16
BRANCH   2  21
HETATM   21  N2  UNL     1      26.511 -16.986 -18.083  1.00  0.00    -0.234 N 
ATOM     22  H22 UNL     1      26.895 -17.242 -18.992  1.00  0.00     0.174 HD
ATOM     23  H21 UNL     1      26.693 -17.783 -17.472  1.00  0.00     0.174 HD
ENDBRANCH   2  21
BRANCH   1  24
HETATM   24  C2  UNL     1      23.749 -16.172 -18.976  1.00  0.00     0.101 C 
HETATM   25  C1  UNL     1      22.992 -17.266 -18.288  1.00  0.00     0.033 C 
HETATM   26  C3  UNL     1      24.495 -16.643 -20.207  1.00  0.00     0.033 C 
ENDBRANCH   1  24
TORSDOF 3
ENDMDL
MODEL 4
REMARK VINA RESULT: -5.558961537      2.220      4.373
REMARK  3 active torsions:
REMARK  status: ('A' for Active; 'I' for Inactive)
REMARK    1  A    between atoms: C2_2  and  N1_4 
REMARK    2  A    between atoms: C4_5  and  N2_6 
REMARK    3  A    between atoms: C6_12  and  N4_13 
ROOT
HETATM    1  N1  UNL     1      27.106 -13.403 -16.180  1.00  0.00    -0.162 N 
HETATM    2  C4  UNL     1      27.078 -12.066 -16.140  1.00  0.00     0.680 A 
HETATM    3  N3  UNL     1      25.933 -11.704 -16.761  1.00  0.00    -0.184 N 
ATOM      4  H3  UNL     1      25.625 -10.741 -16.891  1.00  0.00     0.184 HD
HETATM    5  C5  UNL     1      25.253 -12.787 -17.185  1.00  0.00     0.139 A 
HETATM    6  C6  UNL     1      24.077 -13.021 -17.851  1.00  0.00     0.150 A 
HETATM    7  N5  UNL     1      23.643 -14.284 -18.148  1.00  0.00    -0.175 N 
ATOM      8  H5  UNL     1      22.766 -14.441 -18.645  1.00  0.00     0.186 HD
HETATM    9  C11 UNL     1      24.417 -15.308 -17.760  1.00  0.00     0.679 A 
HETATM   10  N6  UNL     1      24.046 -16.534 -18.020  1.00  0.00    -0.234 N 
ATOM     11  H61 UNL     1      24.635 -17.313 -17.725  1.00  0.00     0.174 HD
ATOM     12  H62 UNL     1      23.167 -16.682 -18.517  1.00  0.00     0.174 HD
HETATM   13  N7  UNL     1      25.571 -15.115 -17.107  1.00  0.00    -0.174 N 
ATOM     14  H7  UNL     1      26.131 -15.920 -16.829  1.00  0.00     0.186 HD
HETATM   15  C12 UNL     1      26.000 -13.880 -16.815  1.00  0.00     0.170 A 
ENDROOT
BRANCH   6  16
HETATM   16  N4  UNL     1      23.271 -11.937 -18.250  1.00  0.00    -0.365 N 
HETATM   17  C7  UNL     1      22.539 -11.058 -17.359  1.00  0.00     0.124 C 
HETATM   18  C8  UNL     1      22.679  -9.677 -18.021  1.00  0.00     0.021 C 
HETATM   19  C9  UNL     1      23.365  -9.946 -19.350  1.00  0.00     0.021 C 
HETATM   20  C10 UNL     1      22.973 -11.413 -19.583  1.00  0.00     0.124 C 
ENDBRANCH   6  16
BRANCH   2  21
HETATM   21  N2  UNL     1      27.970 -11.276 -15.609  1.00  0.00    -0.234 N 
ATOM     22  H22 UNL     1      28.759 -11.545 -15.021  1.00  0.00     0.174 HD
ATOM     23  H21 UNL     1      28.023 -10.261 -15.697  1.00  0.00     0.174 HD
ENDBRANCH   2  21
BRANCH   1  24
HETATM   24  C2  UNL     1      28.114 -14.287 -15.662  1.00  0.00     0.101 C 
HETATM   25  C1  UNL     1      28.341 -14.174 -14.186  1.00  0.00     0.033 C 
HETATM   26  C3  UNL     1      29.371 -14.074 -16.479  1.00  0.00     0.033 C 
ENDBRANCH   1  24
TORSDOF 3
ENDMDL
MODEL 5
REMARK VINA RESULT: -5.520653924      3.461      5.025
REMARK  3 active torsions:
REMARK  status: ('A' for Active; 'I' for Inactive)
REMARK    1  A    between atoms: C2_2  and  N1_4 
REMARK    2  A    between atoms: C4_5  and  N2_6 
REMARK    3  A    between atoms: C6_12  and  N4_13 
ROOT
HETATM    1  N1  UNL     1      25.678 -12.177 -16.731  1.00  0.00    -0.162 N 
HETATM    2  C4  UNL     1      26.413 -11.131 -17.125  1.00  0.00     0.680 A 
HETATM    3  N3  UNL     1      25.640 -10.446 -17.998  1.00  0.00    -0.184 N 
ATOM      4  H3  UNL     1      25.923  -9.591 -18.474  1.00  0.00     0.184 HD
HETATM    5  C5  UNL     1      24.444 -11.046 -18.153  1.00  0.00     0.139 A 
HETATM    6  C6  UNL     1      23.305 -10.813 -18.882  1.00  0.00     0.150 A 
HETATM    7  N5  UNL     1      22.217 -11.640 -18.822  1.00  0.00    -0.175 N 
ATOM      8  H5  UNL     1      21.378 -11.453 -19.372  1.00  0.00     0.186 HD
HETATM    9  C11 UNL     1      22.297 -12.706 -18.014  1.00  0.00     0.679 A 
HETATM   10  N6  UNL     1      21.283 -13.526 -17.922  1.00  0.00    -0.234 N 
ATOM     11  H61 UNL     1      21.343 -14.338 -17.307  1.00  0.00     0.174 HD
ATOM     12  H62 UNL     1      20.448 -13.331 -18.475  1.00  0.00     0.174 HD
HETATM   13  N7  UNL     1      23.393 -12.963 -17.288  1.00  0.00    -0.174 N 
ATOM     14  H7  UNL     1      23.414 -13.784 -16.684  1.00  0.00     0.186 HD
HETATM   15  C12 UNL     1      24.461 -12.156 -17.342  1.00  0.00     0.170 A 
ENDROOT
BRANCH   6  16
HETATM   16  N4  UNL     1      23.232  -9.687 -19.725  1.00  0.00    -0.365 N 
HETATM   17  C7  UNL     1      24.055  -9.456 -20.896  1.00  0.00     0.124 C 
HETATM   18  C8  UNL     1      23.085  -8.805 -21.895  1.00  0.00     0.021 C 
HETATM   19  C9  UNL     1      21.805  -8.578 -21.109  1.00  0.00     0.021 C 
HETATM   20  C10 UNL     1      22.355  -8.518 -19.677  1.00  0.00     0.124 C 
ENDBRANCH   6  16
BRANCH   2  21
HETATM   21  N2  UNL     1      27.624 -10.833 -16.744  1.00  0.00    -0.234 N 
ATOM     22  H22 UNL     1      28.023  -9.902 -16.627  1.00  0.00     0.174 HD
ATOM     23  H21 UNL     1      28.369 -11.485 -16.499  1.00  0.00     0.174 HD
ENDBRANCH   2  21
BRANCH   1  24
HETATM   24  C2  UNL     1      26.037 -13.219 -15.810  1.00  0.00     0.101 C 
HETATM   25  C1  UNL     1      26.578 -12.733 -14.501  1.00  0.00     0.033 C 
HETATM   26  C3  UNL     1      26.975 -14.163 -16.531  1.00  0.00     0.033 C 
ENDBRANCH   1  24
TORSDOF 3
ENDMDL
