MODEL 1
REMARK VINA RESULT: -7.455835810      0.000      0.000
REMARK  2 active torsions:
REMARK  status: ('A' for Active; 'I' for Inactive)
REMARK    1  A    between atoms: C3_4  and  N2_5 
REMARK    2  A    between atoms: N2_5  and  C4_7 
ROOT
HETATM    1  N2  UNL     1      26.666 -12.936 -17.414  1.00  0.00    -0.367 N 
ATOM      2  H2  UNL     1      26.800 -12.522 -18.336  1.00  0.00     0.162 HD
ENDROOT
BRANCH   1   3
HETATM    3  C3  UNL     1      25.476 -13.269 -17.184  1.00  0.00     0.107 A 
HETATM    4  C2  UNL     1      24.598 -12.274 -16.758  1.00  0.00     0.093 A 
HETATM    5  C1  UNL     1      23.278 -12.533 -16.480  1.00  0.00     0.122 A 
HETATM    6  N1  UNL     1      22.360 -11.550 -16.047  1.00  0.00    -0.083 NA
HETATM    7  N5  UNL     1      22.812 -13.791 -16.624  1.00  0.00    -0.319 N 
HETATM    8  C14 UNL     1      23.647 -14.758 -17.032  1.00  0.00     0.195 A 
ATOM      9  H5  UNL     1      21.835 -14.005 -16.423  1.00  0.00     0.169 HD
HETATM   10  N3  UNL     1      24.948 -14.497 -17.305  1.00  0.00    -0.317 N 
HETATM   11  N4  UNL     1      23.131 -16.075 -17.175  1.00  0.00    -0.063 NA
ATOM     12  H3  UNL     1      25.548 -15.262 -17.614  1.00  0.00     0.170 HD
ENDBRANCH   1   3
BRANCH   1  13
HETATM   13  C4  UNL     1      27.851 -13.016 -16.662  1.00  0.00     0.035 C 
HETATM   14  C5  UNL     1      27.905 -11.914 -15.633  1.00  0.00     0.038 C 
HETATM   15  C6  UNL     1      29.238 -11.673 -15.025  1.00  0.00     0.012 C 
HETATM   16  C7  UNL     1      29.597 -12.569 -13.892  1.00  0.00     0.172 C 
HETATM   17  C11 UNL     1      30.367 -11.600 -16.051  1.00  0.00     0.011 C 
HETATM   18  O1  UNL     1      29.424 -13.879 -14.031  1.00  0.00    -0.385 OA
HETATM   19  C8  UNL     1      29.406 -14.423 -15.291  1.00  0.00     0.124 C 
HETATM   20  C9  UNL     1      30.538 -14.023 -16.170  1.00  0.00     0.037 C 
HETATM   21  C13 UNL     1      28.043 -14.316 -15.951  1.00  0.00     0.062 C 
HETATM   22  C10 UNL     1      30.305 -12.790 -16.970  1.00  0.00    -0.009 C 
HETATM   23  C12 UNL     1      29.003 -12.894 -17.675  1.00  0.00     0.035 C 
ENDBRANCH   1  13
TORSDOF 2
ENDMDL
MODEL 2
REMARK VINA RESULT: -7.439062589      0.596      1.820
REMARK  2 active torsions:
REMARK  status: ('A' for Active; 'I' for Inactive)
REMARK    1  A    between atoms: C3_4  and  N2_5 
REMARK    2  A    between atoms: N2_5  and  C4_7 
ROOT
HETATM    1  N2  UNL     1      26.660 -12.988 -17.444  1.00  0.00    -0.367 N 
ATOM      2  H2  UNL     1      26.829 -12.746 -18.420  1.00  0.00     0.162 HD
ENDROOT
BRANCH   1   3
HETATM    3  C3  UNL     1      25.443 -13.159 -17.176  1.00  0.00     0.107 A 
HETATM    4  C2  UNL     1      24.918 -14.438 -17.353  1.00  0.00     0.093 A 
HETATM    5  C1  UNL     1      23.602 -14.732 -17.089  1.00  0.00     0.122 A 
HETATM    6  N1  UNL     1      23.035 -16.015 -17.256  1.00  0.00    -0.083 NA
HETATM    7  N5  UNL     1      22.788 -13.752 -16.645  1.00  0.00    -0.319 N 
HETATM    8  C14 UNL     1      23.281 -12.516 -16.472  1.00  0.00     0.195 A 
ATOM      9  H5  UNL     1      21.808 -13.948 -16.443  1.00  0.00     0.169 HD
HETATM   10  N3  UNL     1      24.579 -12.232 -16.733  1.00  0.00    -0.317 N 
HETATM   11  N4  UNL     1      22.402 -11.502 -16.003  1.00  0.00    -0.063 NA
ATOM     12  H3  UNL     1      24.913 -11.279 -16.587  1.00  0.00     0.170 HD
ENDBRANCH   1   3
BRANCH   1  13
HETATM   13  C4  UNL     1      27.834 -13.060 -16.676  1.00  0.00     0.035 C 
HETATM   14  C5  UNL     1      27.875 -11.948 -15.658  1.00  0.00     0.038 C 
HETATM   15  C6  UNL     1      29.200 -11.701 -15.036  1.00  0.00     0.012 C 
HETATM   16  C7  UNL     1      29.544 -12.585 -13.888  1.00  0.00     0.172 C 
HETATM   17  C11 UNL     1      30.343 -11.640 -16.047  1.00  0.00     0.011 C 
HETATM   18  O1  UNL     1      29.372 -13.896 -14.015  1.00  0.00    -0.385 OA
HETATM   19  C8  UNL     1      29.370 -14.454 -15.270  1.00  0.00     0.124 C 
HETATM   20  C9  UNL     1      30.514 -14.064 -16.138  1.00  0.00     0.037 C 
HETATM   21  C13 UNL     1      28.016 -14.353 -15.948  1.00  0.00     0.062 C 
HETATM   22  C10 UNL     1      30.292 -12.840 -16.954  1.00  0.00    -0.009 C 
HETATM   23  C12 UNL     1      28.999 -12.951 -17.674  1.00  0.00     0.035 C 
ENDBRANCH   1  13
TORSDOF 2
ENDMDL
MODEL 3
REMARK VINA RESULT: -7.284953873      1.569      1.832
REMARK  2 active torsions:
REMARK  status: ('A' for Active; 'I' for Inactive)
REMARK    1  A    between atoms: C3_4  and  N2_5 
REMARK    2  A    between atoms: N2_5  and  C4_7 
ROOT
HETATM    1  N2  UNL     1      26.059 -14.419 -17.779  1.00  0.00    -0.367 N 
ATOM      2  H2  UNL     1      26.537 -14.798 -18.596  1.00  0.00     0.162 HD
ENDROOT
BRANCH   1   3
HETATM    3  C3  UNL     1      24.812 -14.570 -17.817  1.00  0.00     0.107 A 
HETATM    4  C2  UNL     1      24.052 -13.535 -18.358  1.00  0.00     0.093 A 
HETATM    5  C1  UNL     1      22.682 -13.601 -18.446  1.00  0.00     0.122 A 
HETATM    6  N1  UNL     1      21.880 -12.572 -18.989  1.00  0.00    -0.083 NA
HETATM    7  N5  UNL     1      22.049 -14.702 -17.994  1.00  0.00    -0.319 N 
HETATM    8  C14 UNL     1      22.768 -15.705 -17.469  1.00  0.00     0.195 A 
ATOM      9  H5  UNL     1      21.032 -14.771 -18.050  1.00  0.00     0.169 HD
HETATM   10  N3  UNL     1      24.118 -15.636 -17.385  1.00  0.00    -0.317 N 
HETATM   11  N4  UNL     1      22.075 -16.855 -16.999  1.00  0.00    -0.063 NA
ATOM     12  H3  UNL     1      24.626 -16.422 -16.979  1.00  0.00     0.170 HD
ENDBRANCH   1   3
BRANCH   1  13
HETATM   13  C4  UNL     1      26.930 -13.836 -16.843  1.00  0.00     0.035 C 
HETATM   14  C5  UNL     1      26.160 -13.281 -15.671  1.00  0.00     0.038 C 
HETATM   15  C6  UNL     1      26.912 -12.342 -14.801  1.00  0.00     0.012 C 
HETATM   16  C7  UNL     1      27.773 -12.977 -13.765  1.00  0.00     0.172 C 
HETATM   17  C11 UNL     1      27.679 -11.276 -15.580  1.00  0.00     0.011 C 
HETATM   18  O1  UNL     1      28.586 -13.964 -14.125  1.00  0.00    -0.385 OA
HETATM   19  C8  UNL     1      28.990 -14.056 -15.435  1.00  0.00     0.124 C 
HETATM   20  C9  UNL     1      29.524 -12.797 -16.023  1.00  0.00     0.037 C 
HETATM   21  C13 UNL     1      27.973 -14.765 -16.309  1.00  0.00     0.062 C 
HETATM   22  C10 UNL     1      28.503 -11.922 -16.660  1.00  0.00    -0.009 C 
HETATM   23  C12 UNL     1      27.679 -12.724 -17.599  1.00  0.00     0.035 C 
ENDBRANCH   1  13
TORSDOF 2
ENDMDL
MODEL 4
REMARK VINA RESULT: -7.280388304      1.758      2.139
REMARK  2 active torsions:
REMARK  status: ('A' for Active; 'I' for Inactive)
REMARK    1  A    between atoms: C3_4  and  N2_5 
REMARK    2  A    between atoms: N2_5  and  C4_7 
ROOT
HETATM    1  N2  UNL     1      26.150 -11.662 -17.705  1.00  0.00    -0.367 N 
ATOM      2  H2  UNL     1      26.639 -11.132 -18.426  1.00  0.00     0.162 HD
ENDROOT
BRANCH   1   3
HETATM    3  C3  UNL     1      24.898 -11.574 -17.785  1.00  0.00     0.107 A 
HETATM    4  C2  UNL     1      24.340 -10.297 -17.771  1.00  0.00     0.093 A 
HETATM    5  C1  UNL     1      22.984 -10.090 -17.853  1.00  0.00     0.122 A 
HETATM    6  N1  UNL     1      22.383  -8.811 -17.841  1.00  0.00    -0.083 NA
HETATM    7  N5  UNL     1      22.163 -11.156 -17.950  1.00  0.00    -0.319 N 
HETATM    8  C14 UNL     1      22.688 -12.390 -17.963  1.00  0.00     0.195 A 
ATOM      9  H5  UNL     1      21.153 -11.025 -18.012  1.00  0.00     0.169 HD
HETATM   10  N3  UNL     1      24.025 -12.589 -17.883  1.00  0.00    -0.317 N 
HETATM   11  N4  UNL     1      21.800 -13.496 -18.066  1.00  0.00    -0.063 NA
ATOM     12  H3  UNL     1      24.382 -13.544 -17.897  1.00  0.00     0.170 HD
ENDBRANCH   1   3
BRANCH   1  13
HETATM   13  C4  UNL     1      27.013 -12.342 -16.829  1.00  0.00     0.035 C 
HETATM   14  C5  UNL     1      26.565 -12.170 -15.399  1.00  0.00     0.038 C 
HETATM   15  C6  UNL     1      27.570 -12.531 -14.368  1.00  0.00     0.012 C 
HETATM   16  C7  UNL     1      27.651 -13.978 -14.030  1.00  0.00     0.172 C 
HETATM   17  C11 UNL     1      28.956 -11.949 -14.643  1.00  0.00     0.011 C 
HETATM   18  O1  UNL     1      27.719 -14.864 -15.017  1.00  0.00    -0.385 OA
HETATM   19  C8  UNL     1      28.200 -14.468 -16.241  1.00  0.00     0.124 C 
HETATM   20  C9  UNL     1      29.493 -13.734 -16.206  1.00  0.00     0.037 C 
HETATM   21  C13 UNL     1      27.136 -13.807 -17.098  1.00  0.00     0.062 C 
HETATM   22  C10 UNL     1      29.372 -12.259 -16.056  1.00  0.00    -0.009 C 
HETATM   23  C12 UNL     1      28.409 -11.735 -17.057  1.00  0.00     0.035 C 
ENDBRANCH   1  13
TORSDOF 2
ENDMDL
MODEL 5
REMARK VINA RESULT: -7.211379024      1.594      2.266
REMARK  2 active torsions:
REMARK  status: ('A' for Active; 'I' for Inactive)
REMARK    1  A    between atoms: C3_4  and  N2_5 
REMARK    2  A    between atoms: N2_5  and  C4_7 
ROOT
HETATM    1  N2  UNL     1      26.221 -11.843 -17.484  1.00  0.00    -0.367 N 
ATOM      2  H2  UNL     1      26.682 -11.517 -18.332  1.00  0.00     0.162 HD
ENDROOT
BRANCH   1   3
HETATM    3  C3  UNL     1      24.970 -11.716 -17.516  1.00  0.00     0.107 A 
HETATM    4  C2  UNL     1      24.457 -10.436 -17.718  1.00  0.00     0.093 A 
HETATM    5  C1  UNL     1      23.106 -10.189 -17.770  1.00  0.00     0.122 A 
HETATM    6  N1  UNL     1      22.550  -8.906 -17.974  1.00  0.00    -0.083 NA
HETATM    7  N5  UNL     1      22.246 -11.217 -17.620  1.00  0.00    -0.319 N 
HETATM    8  C14 UNL     1      22.727 -12.454 -17.423  1.00  0.00     0.195 A 
ATOM      9  H5  UNL     1      21.239 -11.056 -17.656  1.00  0.00     0.169 HD
HETATM   10  N3  UNL     1      24.059 -12.692 -17.373  1.00  0.00    -0.317 N 
HETATM   11  N4  UNL     1      21.798 -13.519 -17.268  1.00  0.00    -0.063 NA
ATOM     12  H3  UNL     1      24.383 -13.648 -17.223  1.00  0.00     0.170 HD
ENDBRANCH   1   3
BRANCH   1  13
HETATM   13  C4  UNL     1      27.113 -12.342 -16.520  1.00  0.00     0.035 C 
HETATM   14  C5  UNL     1      28.444 -11.638 -16.610  1.00  0.00     0.038 C 
HETATM   15  C6  UNL     1      29.566 -12.302 -15.901  1.00  0.00     0.012 C 
HETATM   16  C7  UNL     1      29.663 -12.017 -14.443  1.00  0.00     0.172 C 
HETATM   17  C11 UNL     1      29.656 -13.802 -16.179  1.00  0.00     0.011 C 
HETATM   18  O1  UNL     1      28.570 -12.121 -13.696  1.00  0.00    -0.385 OA
HETATM   19  C8  UNL     1      27.541 -12.925 -14.121  1.00  0.00     0.124 C 
HETATM   20  C9  UNL     1      27.939 -14.300 -14.529  1.00  0.00     0.037 C 
HETATM   21  C13 UNL     1      26.627 -12.227 -15.111  1.00  0.00     0.062 C 
HETATM   22  C10 UNL     1      28.312 -14.445 -15.962  1.00  0.00    -0.009 C 
HETATM   23  C12 UNL     1      27.254 -13.846 -16.813  1.00  0.00     0.035 C 
ENDBRANCH   1  13
TORSDOF 2
ENDMDL
