MODEL 1
REMARK VINA RESULT: -6.616000758      0.000      0.000
REMARK  3 active torsions:
REMARK  status: ('A' for Active; 'I' for Inactive)
REMARK    1  A    between atoms: N1_2  and  C2_4 
REMARK    2  A    between atoms: C2_4  and  C3_5 
REMARK    3  A    between atoms: C14_19  and  O4_20 
ROOT
HETATM    1  C3  UNL     1      29.156 -14.382 -16.022  1.00  0.00    -0.018 C 
HETATM    2  C4  UNL     1      28.843 -13.941 -14.838  1.00  0.00    -0.016 C 
HETATM    3  C5  UNL     1      27.555 -13.858 -14.149  1.00  0.00     0.028 C 
HETATM    4  C6  UNL     1      26.901 -12.480 -14.236  1.00  0.00     0.006 C 
HETATM    5  C7  UNL     1      26.953 -11.879 -15.595  1.00  0.00     0.038 C 
HETATM    6  C8  UNL     1      25.827 -12.307 -16.465  1.00  0.00     0.189 C 
HETATM    7  O1  UNL     1      24.654 -12.363 -15.720  1.00  0.00    -0.230 OA
HETATM    8  O2  UNL     1      23.997 -13.475 -15.919  1.00  0.00    -0.201 OA
HETATM    9  C9  UNL     1      23.773 -13.749 -17.252  1.00  0.00     0.190 C 
HETATM   10  C10 UNL     1      22.753 -12.798 -17.787  1.00  0.00     0.081 C 
HETATM   11  C11 UNL     1      23.194 -15.146 -17.369  1.00  0.00     0.081 C 
HETATM   12  O3  UNL     1      24.937 -13.737 -18.039  1.00  0.00    -0.345 OA
HETATM   13  C12 UNL     1      25.989 -13.677 -17.085  1.00  0.00     0.160 C 
HETATM   14  C13 UNL     1      27.335 -13.906 -17.691  1.00  0.00     0.071 C 
HETATM   15  C14 UNL     1      28.141 -14.953 -16.994  1.00  0.00     0.154 C 
ENDROOT
BRANCH   1  16
HETATM   16  C2  UNL     1      30.565 -14.378 -16.558  1.00  0.00     0.091 C 
BRANCH  16  17
HETATM   17  N1  UNL     1      30.791 -14.953 -17.812  1.00  0.00    -0.403 N 
HETATM   18  C1  UNL     1      31.562 -14.211 -18.741  1.00  0.00     0.145 C 
ATOM     19  H1  UNL     1      30.417 -15.872 -18.048  1.00  0.00     0.158 HD
ENDBRANCH  16  17
ENDBRANCH   1  16
BRANCH  15  20
HETATM   20  O4  UNL     1      27.389 -15.875 -16.302  1.00  0.00    -0.391 OA
ATOM     21  H4  UNL     1      27.350 -16.662 -16.833  1.00  0.00     0.210 HD
ENDBRANCH  15  20
TORSDOF 3
ENDMDL
MODEL 2
REMARK VINA RESULT: -6.538594147      3.811      5.793
REMARK  3 active torsions:
REMARK  status: ('A' for Active; 'I' for Inactive)
REMARK    1  A    between atoms: N1_2  and  C2_4 
REMARK    2  A    between atoms: C2_4  and  C3_5 
REMARK    3  A    between atoms: C14_19  and  O4_20 
ROOT
HETATM    1  C3  UNL     1      23.525 -15.218 -17.484  1.00  0.00    -0.018 C 
HETATM    2  C4  UNL     1      24.800 -14.959 -17.483  1.00  0.00    -0.016 C 
HETATM    3  C5  UNL     1      25.528 -13.695 -17.364  1.00  0.00     0.028 C 
HETATM    4  C6  UNL     1      25.966 -13.111 -18.706  1.00  0.00     0.006 C 
HETATM    5  C7  UNL     1      24.910 -13.158 -19.751  1.00  0.00     0.038 C 
HETATM    6  C8  UNL     1      23.993 -11.989 -19.707  1.00  0.00     0.189 C 
HETATM    7  O1  UNL     1      24.719 -10.835 -19.434  1.00  0.00    -0.230 OA
HETATM    8  O2  UNL     1      24.164 -10.116 -18.493  1.00  0.00    -0.201 OA
HETATM    9  C9  UNL     1      22.833  -9.845 -18.724  1.00  0.00     0.190 C 
HETATM   10  C10 UNL     1      22.716  -8.861 -19.842  1.00  0.00     0.081 C 
HETATM   11  C11 UNL     1      22.250  -9.191 -17.485  1.00  0.00     0.081 C 
HETATM   12  O3  UNL     1      22.053 -10.986 -18.971  1.00  0.00    -0.345 OA
HETATM   13  C12 UNL     1      22.919 -12.064 -18.645  1.00  0.00     0.160 C 
HETATM   14  C13 UNL     1      22.215 -13.381 -18.597  1.00  0.00     0.071 C 
HETATM   15  C14 UNL     1      22.458 -14.150 -17.339  1.00  0.00     0.154 C 
ENDROOT
BRANCH   1  16
HETATM   16  C2  UNL     1      22.966 -16.611 -17.626  1.00  0.00     0.091 C 
BRANCH  16  17
HETATM   17  N1  UNL     1      21.586 -16.781 -17.485  1.00  0.00    -0.403 N 
HETATM   18  C1  UNL     1      21.122 -18.066 -17.110  1.00  0.00     0.145 C 
ATOM     19  H1  UNL     1      20.938 -16.010 -17.645  1.00  0.00     0.158 HD
ENDBRANCH  16  17
ENDBRANCH   1  16
BRANCH  15  20
HETATM   20  O4  UNL     1      22.806 -13.369 -16.260  1.00  0.00    -0.391 OA
ATOM     21  H4  UNL     1      23.465 -13.847 -15.769  1.00  0.00     0.210 HD
ENDBRANCH  15  20
TORSDOF 3
ENDMDL
MODEL 3
REMARK VINA RESULT: -6.318145304      2.188      2.618
REMARK  3 active torsions:
REMARK  status: ('A' for Active; 'I' for Inactive)
REMARK    1  A    between atoms: N1_2  and  C2_4 
REMARK    2  A    between atoms: C2_4  and  C3_5 
REMARK    3  A    between atoms: C14_19  and  O4_20 
ROOT
HETATM    1  C3  UNL     1      30.131 -12.204 -15.998  1.00  0.00    -0.018 C 
HETATM    2  C4  UNL     1      29.963 -13.374 -15.454  1.00  0.00    -0.016 C 
HETATM    3  C5  UNL     1      28.908 -14.374 -15.621  1.00  0.00     0.028 C 
HETATM    4  C6  UNL     1      27.837 -14.321 -14.532  1.00  0.00     0.006 C 
HETATM    5  C7  UNL     1      27.383 -12.944 -14.207  1.00  0.00     0.038 C 
HETATM    6  C8  UNL     1      26.295 -12.462 -15.097  1.00  0.00     0.189 C 
HETATM    7  O1  UNL     1      25.404 -13.499 -15.350  1.00  0.00    -0.230 OA
HETATM    8  O2  UNL     1      25.120 -13.605 -16.622  1.00  0.00    -0.201 OA
HETATM    9  C9  UNL     1      24.706 -12.420 -17.192  1.00  0.00     0.190 C 
HETATM   10  C10 UNL     1      23.339 -12.084 -16.695  1.00  0.00     0.081 C 
HETATM   11  C11 UNL     1      24.606 -12.614 -18.693  1.00  0.00     0.081 C 
HETATM   12  O3  UNL     1      25.595 -11.350 -16.991  1.00  0.00    -0.345 OA
HETATM   13  C12 UNL     1      26.754 -11.971 -16.452  1.00  0.00     0.160 C 
HETATM   14  C13 UNL     1      27.929 -11.050 -16.390  1.00  0.00     0.071 C 
HETATM   15  C14 UNL     1      29.168 -11.610 -17.009  1.00  0.00     0.154 C 
ENDROOT
BRANCH   1  16
HETATM   16  C2  UNL     1      31.302 -11.308 -15.686  1.00  0.00     0.091 C 
BRANCH  16  17
HETATM   17  N1  UNL     1      32.174 -10.981 -16.728  1.00  0.00    -0.403 N 
HETATM   18  C1  UNL     1      33.191 -11.914 -17.045  1.00  0.00     0.145 C 
ATOM     19  H1  UNL     1      32.081 -10.104 -17.241  1.00  0.00     0.158 HD
ENDBRANCH  16  17
ENDBRANCH   1  16
BRANCH  15  20
HETATM   20  O4  UNL     1      28.934 -12.574 -17.964  1.00  0.00    -0.391 OA
ATOM     21  H4  UNL     1      29.668 -13.177 -17.939  1.00  0.00     0.210 HD
ENDBRANCH  15  20
TORSDOF 3
ENDMDL
MODEL 4
REMARK VINA RESULT: -6.262267207      2.041      2.168
REMARK  3 active torsions:
REMARK  status: ('A' for Active; 'I' for Inactive)
REMARK    1  A    between atoms: N1_2  and  C2_4 
REMARK    2  A    between atoms: C2_4  and  C3_5 
REMARK    3  A    between atoms: C14_19  and  O4_20 
ROOT
HETATM    1  C3  UNL     1      29.943 -12.381 -15.637  1.00  0.00    -0.018 C 
HETATM    2  C4  UNL     1      29.490 -12.926 -14.545  1.00  0.00    -0.016 C 
HETATM    3  C5  UNL     1      28.449 -13.931 -14.328  1.00  0.00     0.028 C 
HETATM    4  C6  UNL     1      27.095 -13.338 -13.944  1.00  0.00     0.006 C 
HETATM    5  C7  UNL     1      26.703 -12.163 -14.765  1.00  0.00     0.038 C 
HETATM    6  C8  UNL     1      26.017 -12.536 -16.029  1.00  0.00     0.189 C 
HETATM    7  O1  UNL     1      25.155 -13.602 -15.797  1.00  0.00    -0.230 OA
HETATM    8  O2  UNL     1      25.289 -14.547 -16.690  1.00  0.00    -0.201 OA
HETATM    9  C9  UNL     1      25.206 -14.091 -17.988  1.00  0.00     0.190 C 
HETATM   10  C10 UNL     1      23.793 -13.713 -18.288  1.00  0.00     0.081 C 
HETATM   11  C11 UNL     1      25.578 -15.225 -18.924  1.00  0.00     0.081 C 
HETATM   12  O3  UNL     1      26.085 -13.035 -18.279  1.00  0.00    -0.345 OA
HETATM   13  C12 UNL     1      26.938 -12.983 -17.143  1.00  0.00     0.160 C 
HETATM   14  C13 UNL     1      28.117 -12.088 -17.343  1.00  0.00     0.071 C 
HETATM   15  C14 UNL     1      29.425 -12.731 -17.019  1.00  0.00     0.154 C 
ENDROOT
BRANCH   1  16
HETATM   16  C2  UNL     1      31.035 -11.342 -15.650  1.00  0.00     0.091 C 
BRANCH  16  17
HETATM   17  N1  UNL     1      31.637 -11.038 -16.873  1.00  0.00    -0.403 N 
HETATM   18  C1  UNL     1      33.003 -11.378 -17.032  1.00  0.00     0.145 C 
ATOM     19  H1  UNL     1      31.113 -10.589 -17.625  1.00  0.00     0.158 HD
ENDBRANCH  16  17
ENDBRANCH   1  16
BRANCH  15  20
HETATM   20  O4  UNL     1      29.417 -14.105 -17.115  1.00  0.00    -0.391 OA
ATOM     21  H4  UNL     1      30.144 -14.427 -16.596  1.00  0.00     0.210 HD
ENDBRANCH  15  20
TORSDOF 3
ENDMDL
MODEL 5
REMARK VINA RESULT: -6.253998979      2.851      4.668
REMARK  3 active torsions:
REMARK  status: ('A' for Active; 'I' for Inactive)
REMARK    1  A    between atoms: N1_2  and  C2_4 
REMARK    2  A    between atoms: C2_4  and  C3_5 
REMARK    3  A    between atoms: C14_19  and  O4_20 
ROOT
HETATM    1  C3  UNL     1      32.518 -12.574 -17.818  1.00  0.00    -0.018 C 
HETATM    2  C4  UNL     1      32.100 -13.730 -18.245  1.00  0.00    -0.016 C 
HETATM    3  C5  UNL     1      30.749 -14.244 -18.471  1.00  0.00     0.028 C 
HETATM    4  C6  UNL     1      30.215 -15.091 -17.317  1.00  0.00     0.006 C 
HETATM    5  C7  UNL     1      30.472 -14.503 -15.976  1.00  0.00     0.038 C 
HETATM    6  C8  UNL     1      29.429 -13.532 -15.555  1.00  0.00     0.189 C 
HETATM    7  O1  UNL     1      28.175 -13.997 -15.935  1.00  0.00    -0.230 OA
HETATM    8  O2  UNL     1      27.465 -13.072 -16.526  1.00  0.00    -0.201 OA
HETATM    9  C9  UNL     1      27.382 -11.901 -15.804  1.00  0.00     0.190 C 
HETATM   10  C10 UNL     1      26.506 -12.115 -14.614  1.00  0.00     0.081 C 
HETATM   11  C11 UNL     1      26.718 -10.846 -16.669  1.00  0.00     0.081 C 
HETATM   12  O3  UNL     1      28.628 -11.374 -15.427  1.00  0.00    -0.345 OA
HETATM   13  C12 UNL     1      29.561 -12.154 -16.163  1.00  0.00     0.160 C 
HETATM   14  C13 UNL     1      30.949 -11.604 -16.107  1.00  0.00     0.071 C 
HETATM   15  C14 UNL     1      31.586 -11.436 -17.448  1.00  0.00     0.154 C 
ENDROOT
BRANCH   1  16
HETATM   16  C2  UNL     1      33.977 -12.236 -17.647  1.00  0.00     0.091 C 
BRANCH  16  17
HETATM   17  N1  UNL     1      34.806 -12.319 -18.769  1.00  0.00    -0.403 N 
HETATM   18  C1  UNL     1      34.335 -11.741 -19.973  1.00  0.00     0.145 C 
ATOM     19  H1  UNL     1      35.716 -12.778 -18.722  1.00  0.00     0.158 HD
ENDBRANCH  16  17
ENDBRANCH   1  16
BRANCH  15  20
HETATM   20  O4  UNL     1      30.690 -11.290 -18.483  1.00  0.00    -0.391 OA
ATOM     21  H4  UNL     1      30.278 -10.440 -18.381  1.00  0.00     0.210 HD
ENDBRANCH  15  20
TORSDOF 3
ENDMDL
