MODEL 1
REMARK VINA RESULT: -6.367846970      0.000      0.000
REMARK  4 active torsions:
REMARK  status: ('A' for Active; 'I' for Inactive)
REMARK    1  A    between atoms: C3_3  and  O1_4 
REMARK    2  A    between atoms: N1_12  and  C10_14 
REMARK    3  A    between atoms: C11_19  and  C13_21 
REMARK    4  A    between atoms: C13_21  and  O3_23 
ROOT
HETATM    1  C1  UNL     1      25.107 -18.022 -19.701  1.00  0.00     0.017 C 
HETATM    2  C2  UNL     1      24.787 -16.753 -19.801  1.00  0.00    -0.048 C 
HETATM    3  C3  UNL     1      24.896 -16.080 -21.116  1.00  0.00     0.150 C 
HETATM    4  C4  UNL     1      25.463 -14.700 -21.032  1.00  0.00     0.015 C 
HETATM    5  C5  UNL     1      26.965 -14.807 -21.154  1.00  0.00     0.012 C 
HETATM    6  C6  UNL     1      25.056 -13.925 -19.796  1.00  0.00     0.016 C 
HETATM    7  C7  UNL     1      23.908 -14.598 -19.189  1.00  0.00     0.039 C 
HETATM    8  C8  UNL     1      24.330 -15.990 -18.661  1.00  0.00     0.098 C 
HETATM    9  C9  UNL     1      23.035 -16.390 -18.092  1.00  0.00     0.128 C 
HETATM   10  N1  UNL     1      22.583 -17.593 -18.088  1.00  0.00    -0.336 N 
ATOM     11  H1  UNL     1      23.159 -18.322 -18.507  1.00  0.00     0.168 HD
HETATM   12  O2  UNL     1      22.475 -15.224 -17.601  1.00  0.00    -0.325 OA
HETATM   13  C11 UNL     1      23.300 -14.077 -17.946  1.00  0.00     0.095 C 
HETATM   14  C12 UNL     1      24.247 -13.874 -16.808  1.00  0.00     0.050 C 
ENDROOT
BRANCH  10  15
HETATM   15  C10 UNL     1      21.335 -17.967 -17.537  1.00  0.00     0.175 C 
HETATM   16  N2  UNL     1      20.876 -17.459 -16.438  1.00  0.00    -0.395 N 
ATOM     17  H22 UNL     1      21.451 -16.763 -15.962  1.00  0.00     0.156 HD
ATOM     18  H21 UNL     1      19.976 -17.728 -16.041  1.00  0.00     0.156 HD
ENDBRANCH  10  15
BRANCH  13  19
HETATM   19  C13 UNL     1      22.351 -12.916 -18.153  1.00  0.00     0.149 C 
HETATM   20  C14 UNL     1      22.568 -11.917 -17.039  1.00  0.00     0.042 C 
BRANCH  19  21
HETATM   21  O3  UNL     1      21.011 -13.384 -18.107  1.00  0.00    -0.393 OA
ATOM     22  H3  UNL     1      20.448 -12.782 -18.579  1.00  0.00     0.210 HD
ENDBRANCH  19  21
ENDBRANCH  13  19
BRANCH   3  23
HETATM   23  O1  UNL     1      25.572 -16.879 -22.039  1.00  0.00    -0.391 OA
ATOM     24  H1  UNL     1      25.744 -16.405 -22.844  1.00  0.00     0.210 HD
ENDBRANCH   3  23
TORSDOF 4
ENDMDL
MODEL 2
REMARK VINA RESULT: -6.297706419      1.826      4.429
REMARK  4 active torsions:
REMARK  status: ('A' for Active; 'I' for Inactive)
REMARK    1  A    between atoms: C3_3  and  O1_4 
REMARK    2  A    between atoms: N1_12  and  C10_14 
REMARK    3  A    between atoms: C11_19  and  C13_21 
REMARK    4  A    between atoms: C13_21  and  O3_23 
ROOT
HETATM    1  C1  UNL     1      22.458 -13.492 -16.757  1.00  0.00     0.017 C 
HETATM    2  C2  UNL     1      23.606 -13.945 -17.204  1.00  0.00    -0.048 C 
HETATM    3  C3  UNL     1      24.855 -13.564 -16.506  1.00  0.00     0.150 C 
HETATM    4  C4  UNL     1      25.981 -13.243 -17.435  1.00  0.00     0.015 C 
HETATM    5  C5  UNL     1      25.912 -11.767 -17.754  1.00  0.00     0.012 C 
HETATM    6  C6  UNL     1      26.021 -14.085 -18.693  1.00  0.00     0.016 C 
HETATM    7  C7  UNL     1      25.163 -15.253 -18.491  1.00  0.00     0.039 C 
HETATM    8  C8  UNL     1      23.687 -14.806 -18.362  1.00  0.00     0.098 C 
HETATM    9  C9  UNL     1      23.086 -16.141 -18.219  1.00  0.00     0.128 C 
HETATM   10  N1  UNL     1      22.064 -16.403 -17.485  1.00  0.00    -0.336 N 
ATOM     11  H1  UNL     1      21.639 -15.636 -16.964  1.00  0.00     0.168 HD
HETATM   12  O2  UNL     1      23.849 -16.974 -19.019  1.00  0.00    -0.325 OA
HETATM   13  C11 UNL     1      24.987 -16.253 -19.566  1.00  0.00     0.095 C 
HETATM   14  C12 UNL     1      24.551 -15.703 -20.885  1.00  0.00     0.050 C 
ENDROOT
BRANCH  10  15
HETATM   15  C10 UNL     1      21.494 -17.691 -17.355  1.00  0.00     0.175 C 
HETATM   16  N2  UNL     1      20.749 -18.027 -16.351  1.00  0.00    -0.395 N 
ATOM     17  H22 UNL     1      20.575 -17.323 -15.633  1.00  0.00     0.156 HD
ATOM     18  H21 UNL     1      20.337 -18.956 -16.257  1.00  0.00     0.156 HD
ENDBRANCH  10  15
BRANCH  13  19
HETATM   19  C13 UNL     1      26.115 -17.258 -19.675  1.00  0.00     0.149 C 
HETATM   20  C14 UNL     1      25.998 -17.963 -21.008  1.00  0.00     0.042 C 
BRANCH  19  21
HETATM   21  O3  UNL     1      26.004 -18.212 -18.629  1.00  0.00    -0.393 OA
ATOM     22  H3  UNL     1      25.991 -19.087 -18.998  1.00  0.00     0.210 HD
ENDBRANCH  19  21
ENDBRANCH  13  19
BRANCH   3  23
HETATM   23  O1  UNL     1      24.627 -12.551 -15.574  1.00  0.00    -0.391 OA
ATOM     24  H1  UNL     1      24.773 -12.858 -14.687  1.00  0.00     0.210 HD
ENDBRANCH   3  23
TORSDOF 4
ENDMDL
MODEL 3
REMARK VINA RESULT: -6.084091583      2.129      2.389
REMARK  4 active torsions:
REMARK  status: ('A' for Active; 'I' for Inactive)
REMARK    1  A    between atoms: C3_3  and  O1_4 
REMARK    2  A    between atoms: N1_12  and  C10_14 
REMARK    3  A    between atoms: C11_19  and  C13_21 
REMARK    4  A    between atoms: C13_21  and  O3_23 
ROOT
HETATM    1  C1  UNL     1      26.842 -16.459 -17.515  1.00  0.00     0.017 C 
HETATM    2  C2  UNL     1      26.416 -15.282 -17.910  1.00  0.00    -0.048 C 
HETATM    3  C3  UNL     1      27.149 -14.567 -18.980  1.00  0.00     0.150 C 
HETATM    4  C4  UNL     1      27.294 -13.102 -18.725  1.00  0.00     0.015 C 
HETATM    5  C5  UNL     1      28.571 -12.891 -17.946  1.00  0.00     0.012 C 
HETATM    6  C6  UNL     1      26.107 -12.461 -18.038  1.00  0.00     0.016 C 
HETATM    7  C7  UNL     1      24.968 -13.373 -18.142  1.00  0.00     0.039 C 
HETATM    8  C8  UNL     1      25.247 -14.660 -17.328  1.00  0.00     0.098 C 
HETATM    9  C9  UNL     1      23.964 -15.335 -17.575  1.00  0.00     0.128 C 
HETATM   10  N1  UNL     1      23.826 -16.605 -17.710  1.00  0.00    -0.336 N 
ATOM     11  H1  UNL     1      24.660 -17.188 -17.643  1.00  0.00     0.168 HD
HETATM   12  O2  UNL     1      23.021 -14.323 -17.619  1.00  0.00    -0.325 OA
HETATM   13  C11 UNL     1      23.664 -13.022 -17.539  1.00  0.00     0.095 C 
HETATM   14  C12 UNL     1      23.708 -12.656 -16.091  1.00  0.00     0.050 C 
ENDROOT
BRANCH  10  15
HETATM   15  C10 UNL     1      22.586 -17.244 -17.947  1.00  0.00     0.175 C 
HETATM   16  N2  UNL     1      21.495 -16.900 -17.340  1.00  0.00    -0.395 N 
ATOM     17  H22 UNL     1      21.549 -16.135 -16.667  1.00  0.00     0.156 HD
ATOM     18  H21 UNL     1      20.601 -17.360 -17.512  1.00  0.00     0.156 HD
ENDBRANCH  10  15
BRANCH  13  19
HETATM   19  C13 UNL     1      22.824 -12.079 -18.373  1.00  0.00     0.149 C 
HETATM   20  C14 UNL     1      22.753 -10.746 -17.661  1.00  0.00     0.042 C 
BRANCH  19  21
HETATM   21  O3  UNL     1      21.513 -12.606 -18.511  1.00  0.00    -0.393 OA
ATOM     22  H3  UNL     1      21.550 -13.433 -18.976  1.00  0.00     0.210 HD
ENDBRANCH  19  21
ENDBRANCH  13  19
BRANCH   3  23
HETATM   23  O1  UNL     1      28.370 -15.184 -19.257  1.00  0.00    -0.391 OA
ATOM     24  H1  UNL     1      28.611 -15.795 -18.570  1.00  0.00     0.210 HD
ENDBRANCH   3  23
TORSDOF 4
ENDMDL
MODEL 4
REMARK VINA RESULT: -5.951190611      5.127      6.102
REMARK  4 active torsions:
REMARK  status: ('A' for Active; 'I' for Inactive)
REMARK    1  A    between atoms: C3_3  and  O1_4 
REMARK    2  A    between atoms: N1_12  and  C10_14 
REMARK    3  A    between atoms: C11_19  and  C13_21 
REMARK    4  A    between atoms: C13_21  and  O3_23 
ROOT
HETATM    1  C1  UNL     1      30.749 -14.514 -18.299  1.00  0.00     0.017 C 
HETATM    2  C2  UNL     1      30.089 -13.637 -17.579  1.00  0.00    -0.048 C 
HETATM    3  C3  UNL     1      30.345 -12.193 -17.782  1.00  0.00     0.150 C 
HETATM    4  C4  UNL     1      30.402 -11.415 -16.508  1.00  0.00     0.015 C 
HETATM    5  C5  UNL     1      31.833 -11.426 -16.021  1.00  0.00     0.012 C 
HETATM    6  C6  UNL     1      29.444 -11.888 -15.435  1.00  0.00     0.016 C 
HETATM    7  C7  UNL     1      28.443 -12.751 -16.063  1.00  0.00     0.039 C 
HETATM    8  C8  UNL     1      29.115 -14.042 -16.589  1.00  0.00     0.098 C 
HETATM    9  C9  UNL     1      27.905 -14.702 -17.104  1.00  0.00     0.128 C 
HETATM   10  N1  UNL     1      27.872 -15.442 -18.154  1.00  0.00    -0.336 N 
ATOM     11  H1  UNL     1      28.741 -15.583 -18.668  1.00  0.00     0.168 HD
HETATM   12  O2  UNL     1      26.893 -14.345 -16.229  1.00  0.00    -0.325 OA
HETATM   13  C11 UNL     1      27.379 -13.383 -15.253  1.00  0.00     0.095 C 
HETATM   14  C12 UNL     1      27.856 -14.172 -14.076  1.00  0.00     0.050 C 
ENDROOT
BRANCH  10  15
HETATM   15  C10 UNL     1      26.702 -16.072 -18.639  1.00  0.00     0.175 C 
HETATM   16  N2  UNL     1      25.905 -16.750 -17.876  1.00  0.00    -0.395 N 
ATOM     17  H22 UNL     1      26.145 -16.823 -16.887  1.00  0.00     0.156 HD
ATOM     18  H21 UNL     1      25.061 -17.204 -18.226  1.00  0.00     0.156 HD
ENDBRANCH  10  15
BRANCH  13  19
HETATM   19  C13 UNL     1      26.212 -12.473 -14.935  1.00  0.00     0.149 C 
HETATM   20  C14 UNL     1      25.073 -12.813 -15.869  1.00  0.00     0.042 C 
BRANCH  19  21
HETATM   21  O3  UNL     1      26.595 -11.121 -15.138  1.00  0.00    -0.393 OA
ATOM     22  H3  UNL     1      25.832 -10.606 -15.373  1.00  0.00     0.210 HD
ENDBRANCH  19  21
ENDBRANCH  13  19
BRANCH   3  23
HETATM   23  O1  UNL     1      31.468 -11.986 -18.584  1.00  0.00    -0.391 OA
ATOM     24  H1  UNL     1      31.423 -11.150 -19.033  1.00  0.00     0.210 HD
ENDBRANCH   3  23
TORSDOF 4
ENDMDL
MODEL 5
REMARK VINA RESULT: -5.894125435      3.277      4.168
REMARK  4 active torsions:
REMARK  status: ('A' for Active; 'I' for Inactive)
REMARK    1  A    between atoms: C3_3  and  O1_4 
REMARK    2  A    between atoms: N1_12  and  C10_14 
REMARK    3  A    between atoms: C11_19  and  C13_21 
REMARK    4  A    between atoms: C13_21  and  O3_23 
ROOT
HETATM    1  C1  UNL     1      27.092 -15.642 -17.701  1.00  0.00     0.017 C 
HETATM    2  C2  UNL     1      25.904 -15.121 -17.902  1.00  0.00    -0.048 C 
HETATM    3  C3  UNL     1      24.764 -16.016 -18.206  1.00  0.00     0.150 C 
HETATM    4  C4  UNL     1      23.861 -15.487 -19.273  1.00  0.00     0.015 C 
HETATM    5  C5  UNL     1      24.380 -15.978 -20.605  1.00  0.00     0.012 C 
HETATM    6  C6  UNL     1      23.685 -13.983 -19.263  1.00  0.00     0.016 C 
HETATM    7  C7  UNL     1      24.149 -13.475 -17.971  1.00  0.00     0.039 C 
HETATM    8  C8  UNL     1      25.675 -13.695 -17.836  1.00  0.00     0.098 C 
HETATM    9  C9  UNL     1      25.851 -13.072 -16.515  1.00  0.00     0.128 C 
HETATM   10  N1  UNL     1      26.687 -13.475 -15.627  1.00  0.00    -0.336 N 
ATOM     11  H1  UNL     1      27.271 -14.281 -15.849  1.00  0.00     0.168 HD
HETATM   12  O2  UNL     1      24.949 -12.022 -16.483  1.00  0.00    -0.325 OA
HETATM   13  C11 UNL     1      24.118 -12.027 -17.676  1.00  0.00     0.095 C 
HETATM   14  C12 UNL     1      24.803 -11.156 -18.678  1.00  0.00     0.050 C 
ENDROOT
BRANCH  10  15
HETATM   15  C10 UNL     1      26.848 -12.868 -14.359  1.00  0.00     0.175 C 
HETATM   16  N2  UNL     1      28.009 -12.671 -13.821  1.00  0.00    -0.395 N 
ATOM     17  H22 UNL     1      28.831 -12.973 -14.344  1.00  0.00     0.156 HD
ATOM     18  H21 UNL     1      28.124 -12.233 -12.907  1.00  0.00     0.156 HD
ENDBRANCH  10  15
BRANCH  13  19
HETATM   19  C13 UNL     1      22.762 -11.505 -17.252  1.00  0.00     0.149 C 
HETATM   20  C14 UNL     1      22.654 -10.056 -17.675  1.00  0.00     0.042 C 
BRANCH  19  21
HETATM   21  O3  UNL     1      22.640 -11.590 -15.840  1.00  0.00    -0.393 OA
ATOM     22  H3  UNL     1      21.721 -11.597 -15.600  1.00  0.00     0.210 HD
ENDBRANCH  19  21
ENDBRANCH  13  19
BRANCH   3  23
HETATM   23  O1  UNL     1      25.196 -17.316 -18.469  1.00  0.00    -0.391 OA
ATOM     24  H1  UNL     1      26.072 -17.321 -18.836  1.00  0.00     0.210 HD
ENDBRANCH   3  23
TORSDOF 4
ENDMDL
