MODEL 1
REMARK VINA RESULT: -7.154789856      0.000      0.000
REMARK  6 active torsions:
REMARK  status: ('A' for Active; 'I' for Inactive)
REMARK    1  A    between atoms: N1_2  and  C2_4 
REMARK    2  A    between atoms: C3_7  and  N3_8 
REMARK    3  A    between atoms: N3_8  and  N4_10 
REMARK    4  A    between atoms: C4_15  and  N6_16 
REMARK    5  A    between atoms: N6_16  and  N7_18 
REMARK    6  A    between atoms: C5_20  and  C6_21 
ROOT
HETATM    1  C2  UNL     1      62.270  27.565   7.580  1.00  0.00     0.706 A 
HETATM    2  N2  UNL     1      61.099  27.190   6.986  1.00  0.00    -0.020 N 
ATOM      3  H2  UNL     1      61.130  26.720   6.080  1.00  0.00     0.203 HD
HETATM    4  C3  UNL     1      59.906  27.424   7.560  1.00  0.00     0.725 A 
HETATM    5  N5  UNL     1      59.902  28.044   8.752  1.00  0.00    -0.018 N 
ATOM      6  H5  UNL     1      59.015  28.236   9.217  1.00  0.00     0.203 HD
HETATM    7  C4  UNL     1      61.054  28.414   9.341  1.00  0.00     0.726 A 
HETATM    8  N8  UNL     1      62.248  28.181   8.768  1.00  0.00    -0.020 N 
ATOM      9  H8  UNL     1      63.113  28.467   9.226  1.00  0.00     0.203 HD
ENDROOT
BRANCH   7  10
HETATM   10  N6  UNL     1      61.049  29.009  10.485  1.00  0.00    -0.131 N 
ATOM     11  H6  UNL     1      61.878  28.954  11.078  1.00  0.00     0.205 HD
BRANCH  10  12
HETATM   12  N7  UNL     1      59.983  29.696  10.916  1.00  0.00    -0.297 N 
HETATM   13  C5  UNL     1      59.182  29.527  11.838  1.00  0.00     0.119 C 
ATOM     14  H7  UNL     1      59.794  30.535  10.367  1.00  0.00     0.186 HD
BRANCH  13  15
HETATM   15  C6  UNL     1      59.156  28.452  12.800  1.00  0.00    -0.019 A 
HETATM   16  C7  UNL     1      58.952  28.610  14.142  1.00  0.00     0.013 A 
HETATM   17  C8  UNL     1      58.950  27.477  14.977  1.00  0.00     0.007 A 
HETATM   18  C9  UNL     1      59.143  26.213  14.511  1.00  0.00    -0.062 A 
HETATM   19  C10 UNL     1      59.139  25.025  15.401  1.00  0.00     0.048 C 
HETATM   20  C11 UNL     1      59.350  26.047  13.160  1.00  0.00     0.007 A 
HETATM   21  C12 UNL     1      59.355  27.146  12.328  1.00  0.00     0.013 A 
ENDBRANCH  13  15
ENDBRANCH  10  12
ENDBRANCH   7  10
BRANCH   4  22
HETATM   22  N3  UNL     1      58.796  27.058   6.974  1.00  0.00    -0.138 N 
ATOM     23  H3  UNL     1      57.952  26.877   7.518  1.00  0.00     0.205 HD
BRANCH  22  24
HETATM   24  N4  UNL     1      58.795  26.922   5.588  1.00  0.00    -0.331 N 
ATOM     25  H42 UNL     1      59.598  26.504   5.117  1.00  0.00     0.177 HD
ATOM     26  H41 UNL     1      57.979  27.249   5.070  1.00  0.00     0.177 HD
ENDBRANCH  22  24
ENDBRANCH   4  22
BRANCH   1  27
HETATM   27  N1  UNL     1      63.403  27.333   7.017  1.00  0.00    -0.229 N 
HETATM   28  C1  UNL     1      64.330  26.391   7.580  1.00  0.00     0.165 C 
ATOM     29  H1  UNL     1      63.648  27.827   6.159  1.00  0.00     0.177 HD
ENDBRANCH   1  27
TORSDOF 6
ENDMDL
MODEL 2
REMARK VINA RESULT: -7.103679427      0.636      2.565
REMARK  6 active torsions:
REMARK  status: ('A' for Active; 'I' for Inactive)
REMARK    1  A    between atoms: N1_2  and  C2_4 
REMARK    2  A    between atoms: C3_7  and  N3_8 
REMARK    3  A    between atoms: N3_8  and  N4_10 
REMARK    4  A    between atoms: C4_15  and  N6_16 
REMARK    5  A    between atoms: N6_16  and  N7_18 
REMARK    6  A    between atoms: C5_20  and  C6_21 
ROOT
HETATM    1  C2  UNL     1      59.921  27.440   7.666  1.00  0.00     0.706 A 
HETATM    2  N2  UNL     1      61.101  27.184   7.029  1.00  0.00    -0.020 N 
ATOM      3  H2  UNL     1      61.085  26.707   6.127  1.00  0.00     0.203 HD
HETATM    4  C3  UNL     1      62.284  27.543   7.557  1.00  0.00     0.725 A 
HETATM    5  N5  UNL     1      62.268  28.170   8.746  1.00  0.00    -0.018 N 
ATOM      6  H5  UNL     1      63.147  28.458   9.175  1.00  0.00     0.203 HD
HETATM    7  C4  UNL     1      61.107  28.424   9.376  1.00  0.00     0.726 A 
HETATM    8  N8  UNL     1      59.923  28.066   8.849  1.00  0.00    -0.020 N 
ATOM      9  H8  UNL     1      59.050  28.265   9.337  1.00  0.00     0.203 HD
ENDROOT
BRANCH   7  10
HETATM   10  N6  UNL     1      61.093  29.026  10.516  1.00  0.00    -0.131 N 
ATOM     11  H6  UNL     1      61.913  28.967  11.120  1.00  0.00     0.205 HD
BRANCH  10  12
HETATM   12  N7  UNL     1      60.028  29.727  10.929  1.00  0.00    -0.297 N 
HETATM   13  C5  UNL     1      59.215  29.573  11.842  1.00  0.00     0.119 C 
ATOM     14  H7  UNL     1      59.853  30.563  10.371  1.00  0.00     0.186 HD
BRANCH  13  15
HETATM   15  C6  UNL     1      59.167  28.507  12.813  1.00  0.00    -0.019 A 
HETATM   16  C7  UNL     1      58.954  28.678  14.151  1.00  0.00     0.013 A 
HETATM   17  C8  UNL     1      58.931  27.552  14.996  1.00  0.00     0.007 A 
HETATM   18  C9  UNL     1      59.113  26.282  14.542  1.00  0.00    -0.062 A 
HETATM   19  C10 UNL     1      59.087  25.101  15.442  1.00  0.00     0.048 C 
HETATM   20  C11 UNL     1      59.329  26.102  13.194  1.00  0.00     0.007 A 
HETATM   21  C12 UNL     1      59.354  27.194  12.353  1.00  0.00     0.013 A 
ENDBRANCH  13  15
ENDBRANCH  10  12
ENDBRANCH   7  10
BRANCH   4  22
HETATM   22  N3  UNL     1      63.404  27.288   6.932  1.00  0.00    -0.138 N 
ATOM     23  H3  UNL     1      63.679  27.827   6.111  1.00  0.00     0.205 HD
BRANCH  22  24
HETATM   24  N4  UNL     1      64.210  26.260   7.415  1.00  0.00    -0.331 N 
ATOM     25  H42 UNL     1      63.784  25.414   7.793  1.00  0.00     0.177 HD
ATOM     26  H41 UNL     1      65.222  26.381   7.377  1.00  0.00     0.177 HD
ENDBRANCH  22  24
ENDBRANCH   4  22
BRANCH   1  27
HETATM   27  N1  UNL     1      58.797  27.091   7.146  1.00  0.00    -0.229 N 
HETATM   28  C1  UNL     1      58.743  26.149   6.063  1.00  0.00     0.165 C 
ATOM     29  H1  UNL     1      57.930  27.489   7.508  1.00  0.00     0.177 HD
ENDBRANCH   1  27
TORSDOF 6
ENDMDL
MODEL 3
REMARK VINA RESULT: -7.092165615      0.139      1.062
REMARK  6 active torsions:
REMARK  status: ('A' for Active; 'I' for Inactive)
REMARK    1  A    between atoms: N1_2  and  C2_4 
REMARK    2  A    between atoms: C3_7  and  N3_8 
REMARK    3  A    between atoms: N3_8  and  N4_10 
REMARK    4  A    between atoms: C4_15  and  N6_16 
REMARK    5  A    between atoms: N6_16  and  N7_18 
REMARK    6  A    between atoms: C5_20  and  C6_21 
ROOT
HETATM    1  C2  UNL     1      62.256  27.506   7.573  1.00  0.00     0.706 A 
HETATM    2  N2  UNL     1      61.063  27.172   6.998  1.00  0.00    -0.020 N 
ATOM      3  H2  UNL     1      61.062  26.684   6.102  1.00  0.00     0.203 HD
HETATM    4  C3  UNL     1      59.888  27.470   7.581  1.00  0.00     0.725 A 
HETATM    5  N5  UNL     1      59.926  28.112   8.761  1.00  0.00    -0.018 N 
ATOM      6  H5  UNL     1      59.053  28.352   9.232  1.00  0.00     0.203 HD
HETATM    7  C4  UNL     1      61.100  28.441   9.329  1.00  0.00     0.726 A 
HETATM    8  N8  UNL     1      62.275  28.145   8.748  1.00  0.00    -0.020 N 
ATOM      9  H8  UNL     1      63.157  28.401   9.191  1.00  0.00     0.203 HD
ENDROOT
BRANCH   7  10
HETATM   10  N6  UNL     1      61.134  29.058  10.462  1.00  0.00    -0.131 N 
ATOM     11  H6  UNL     1      61.988  29.026  11.020  1.00  0.00     0.205 HD
BRANCH  10  12
HETATM   12  N7  UNL     1      60.077  29.739  10.925  1.00  0.00    -0.297 N 
HETATM   13  C5  UNL     1      59.264  29.530  11.827  1.00  0.00     0.119 C 
ATOM     14  H7  UNL     1      59.911  30.614  10.427  1.00  0.00     0.186 HD
BRANCH  13  15
HETATM   15  C6  UNL     1      59.208  28.399  12.721  1.00  0.00    -0.019 A 
HETATM   16  C7  UNL     1      59.388  27.097  12.346  1.00  0.00     0.013 A 
HETATM   17  C8  UNL     1      59.307  26.082  13.317  1.00  0.00     0.007 A 
HETATM   18  C9  UNL     1      59.056  26.332  14.631  1.00  0.00    -0.062 A 
HETATM   19  C10 UNL     1      58.974  25.253  15.648  1.00  0.00     0.048 C 
HETATM   20  C11 UNL     1      58.874  27.641  15.017  1.00  0.00     0.007 A 
HETATM   21  C12 UNL     1      58.949  28.648  14.077  1.00  0.00     0.013 A 
ENDBRANCH  13  15
ENDBRANCH  10  12
ENDBRANCH   7  10
BRANCH   4  22
HETATM   22  N3  UNL     1      58.756  27.142   7.014  1.00  0.00    -0.138 N 
ATOM     23  H3  UNL     1      57.884  27.149   7.544  1.00  0.00     0.205 HD
BRANCH  22  24
HETATM   24  N4  UNL     1      58.771  26.783   5.669  1.00  0.00    -0.331 N 
ATOM     25  H42 UNL     1      58.800  25.798   5.405  1.00  0.00     0.177 HD
ATOM     26  H41 UNL     1      58.753  27.526   4.970  1.00  0.00     0.177 HD
ENDBRANCH  22  24
ENDBRANCH   4  22
BRANCH   1  27
HETATM   27  N1  UNL     1      63.371  27.213   7.002  1.00  0.00    -0.229 N 
HETATM   28  C1  UNL     1      64.264  26.245   7.575  1.00  0.00     0.165 C 
ATOM     29  H1  UNL     1      63.626  27.677   6.130  1.00  0.00     0.177 HD
ENDBRANCH   1  27
TORSDOF 6
ENDMDL
MODEL 4
REMARK VINA RESULT: -7.049355877      0.648      2.785
REMARK  6 active torsions:
REMARK  status: ('A' for Active; 'I' for Inactive)
REMARK    1  A    between atoms: N1_2  and  C2_4 
REMARK    2  A    between atoms: C3_7  and  N3_8 
REMARK    3  A    between atoms: N3_8  and  N4_10 
REMARK    4  A    between atoms: C4_15  and  N6_16 
REMARK    5  A    between atoms: N6_16  and  N7_18 
REMARK    6  A    between atoms: C5_20  and  C6_21 
ROOT
HETATM    1  C2  UNL     1      60.035  27.433   7.698  1.00  0.00     0.706 A 
HETATM    2  N2  UNL     1      61.197  27.134   7.047  1.00  0.00    -0.020 N 
ATOM      3  H2  UNL     1      61.154  26.649   6.151  1.00  0.00     0.203 HD
HETATM    4  C3  UNL     1      62.398  27.461   7.556  1.00  0.00     0.725 A 
HETATM    5  N5  UNL     1      62.418  28.100   8.738  1.00  0.00    -0.018 N 
ATOM      6  H5  UNL     1      63.312  28.364   9.152  1.00  0.00     0.203 HD
HETATM    7  C4  UNL     1      61.275  28.396   9.381  1.00  0.00     0.726 A 
HETATM    8  N8  UNL     1      60.073  28.070   8.875  1.00  0.00    -0.020 N 
ATOM      9  H8  UNL     1      59.214  28.301   9.373  1.00  0.00     0.203 HD
ENDROOT
BRANCH   7  10
HETATM   10  N6  UNL     1      61.295  29.010  10.516  1.00  0.00    -0.131 N 
ATOM     11  H6  UNL     1      62.130  28.947  11.100  1.00  0.00     0.205 HD
BRANCH  10  12
HETATM   12  N7  UNL     1      60.249  29.726  10.947  1.00  0.00    -0.297 N 
HETATM   13  C5  UNL     1      59.402  29.545  11.825  1.00  0.00     0.119 C 
ATOM     14  H7  UNL     1      60.127  30.606  10.445  1.00  0.00     0.186 HD
BRANCH  13  15
HETATM   15  C6  UNL     1      59.281  28.417  12.716  1.00  0.00    -0.019 A 
HETATM   16  C7  UNL     1      59.414  27.109  12.342  1.00  0.00     0.013 A 
HETATM   17  C8  UNL     1      59.271  26.097  13.310  1.00  0.00     0.007 A 
HETATM   18  C9  UNL     1      59.005  26.357  14.620  1.00  0.00    -0.062 A 
HETATM   19  C10 UNL     1      58.857  25.283  15.633  1.00  0.00     0.048 C 
HETATM   20  C11 UNL     1      58.870  27.673  15.003  1.00  0.00     0.007 A 
HETATM   21  C12 UNL     1      59.006  28.676  14.067  1.00  0.00     0.013 A 
ENDBRANCH  13  15
ENDBRANCH  10  12
ENDBRANCH   7  10
BRANCH   4  22
HETATM   22  N3  UNL     1      63.501  27.164   6.918  1.00  0.00    -0.138 N 
ATOM     23  H3  UNL     1      63.748  27.642   6.051  1.00  0.00     0.205 HD
BRANCH  22  24
HETATM   24  N4  UNL     1      64.327  26.179   7.452  1.00  0.00    -0.331 N 
ATOM     25  H42 UNL     1      64.161  25.198   7.227  1.00  0.00     0.177 HD
ATOM     26  H41 UNL     1      65.091  26.468   8.064  1.00  0.00     0.177 HD
ENDBRANCH  22  24
ENDBRANCH   4  22
BRANCH   1  27
HETATM   27  N1  UNL     1      58.893  27.114   7.197  1.00  0.00    -0.229 N 
HETATM   28  C1  UNL     1      58.798  26.184   6.106  1.00  0.00     0.165 C 
ATOM     29  H1  UNL     1      58.043  27.527   7.580  1.00  0.00     0.177 HD
ENDBRANCH   1  27
TORSDOF 6
ENDMDL
MODEL 5
REMARK VINA RESULT: -7.046782023      1.039      1.549
REMARK  6 active torsions:
REMARK  status: ('A' for Active; 'I' for Inactive)
REMARK    1  A    between atoms: N1_2  and  C2_4 
REMARK    2  A    between atoms: C3_7  and  N3_8 
REMARK    3  A    between atoms: N3_8  and  N4_10 
REMARK    4  A    between atoms: C4_15  and  N6_16 
REMARK    5  A    between atoms: N6_16  and  N7_18 
REMARK    6  A    between atoms: C5_20  and  C6_21 
ROOT
HETATM    1  C2  UNL     1      62.188  27.716   7.161  1.00  0.00     0.706 A 
HETATM    2  N2  UNL     1      61.371  27.827   6.073  1.00  0.00    -0.020 N 
ATOM      3  H2  UNL     1      61.778  27.781   5.138  1.00  0.00     0.203 HD
HETATM    4  C3  UNL     1      60.043  27.995   6.199  1.00  0.00     0.725 A 
HETATM    5  N5  UNL     1      59.539  28.050   7.443  1.00  0.00    -0.018 N 
ATOM      6  H5  UNL     1      58.536  28.175   7.576  1.00  0.00     0.203 HD
HETATM    7  C4  UNL     1      60.342  27.941   8.517  1.00  0.00     0.726 A 
HETATM    8  N8  UNL     1      61.670  27.773   8.393  1.00  0.00    -0.020 N 
ATOM      9  H8  UNL     1      62.267  27.691   9.216  1.00  0.00     0.203 HD
ENDROOT
BRANCH   7  10
HETATM   10  N6  UNL     1      59.858  27.994   9.712  1.00  0.00    -0.131 N 
ATOM     11  H6  UNL     1      59.347  27.189  10.077  1.00  0.00     0.205 HD
BRANCH  10  12
HETATM   12  N7  UNL     1      60.008  29.078  10.484  1.00  0.00    -0.297 N 
HETATM   13  C5  UNL     1      59.901  29.276  11.696  1.00  0.00     0.119 C 
ATOM     14  H7  UNL     1      60.265  29.915   9.960  1.00  0.00     0.186 HD
BRANCH  13  15
HETATM   15  C6  UNL     1      59.554  28.321  12.720  1.00  0.00    -0.019 A 
HETATM   16  C7  UNL     1      59.664  26.964  12.592  1.00  0.00     0.013 A 
HETATM   17  C8  UNL     1      59.292  26.137  13.668  1.00  0.00     0.007 A 
HETATM   18  C9  UNL     1      58.821  26.625  14.849  1.00  0.00    -0.062 A 
HETATM   19  C10 UNL     1      58.431  25.744  15.978  1.00  0.00     0.048 C 
HETATM   20  C11 UNL     1      58.708  27.991  14.985  1.00  0.00     0.007 A 
HETATM   21  C12 UNL     1      59.068  28.815  13.940  1.00  0.00     0.013 A 
ENDBRANCH  13  15
ENDBRANCH  10  12
ENDBRANCH   7  10
BRANCH   4  22
HETATM   22  N3  UNL     1      59.276  28.100   5.144  1.00  0.00    -0.138 N 
ATOM     23  H3  UNL     1      58.617  27.360   4.900  1.00  0.00     0.205 HD
BRANCH  22  24
HETATM   24  N4  UNL     1      59.384  29.247   4.362  1.00  0.00    -0.331 N 
ATOM     25  H42 UNL     1      60.222  29.825   4.419  1.00  0.00     0.177 HD
ATOM     26  H41 UNL     1      58.609  29.484   3.742  1.00  0.00     0.177 HD
ENDBRANCH  22  24
ENDBRANCH   4  22
BRANCH   1  27
HETATM   27  N1  UNL     1      63.457  27.555   7.023  1.00  0.00    -0.229 N 
HETATM   28  C1  UNL     1      64.106  26.358   7.482  1.00  0.00     0.165 C 
ATOM     29  H1  UNL     1      64.012  28.288   6.582  1.00  0.00     0.177 HD
ENDBRANCH   1  27
TORSDOF 6
ENDMDL
