MODEL 1
REMARK VINA RESULT: -6.680875135      0.000      0.000
REMARK  5 active torsions:
REMARK  status: ('A' for Active; 'I' for Inactive)
REMARK    1  A    between atoms: N1_2  and  C2_4 
REMARK    2  A    between atoms: C3_7  and  N3_8 
REMARK    3  A    between atoms: N5_14  and  C5_16 
REMARK    4  A    between atoms: C5_16  and  C6_17 
REMARK    5  A    between atoms: N6_23  and  O1_24 
ROOT
HETATM    1  C2  UNL     1      59.572  25.381  14.808  1.00  0.00     0.706 A 
HETATM    2  N2  UNL     1      59.205  26.290  15.727  1.00  0.00    -0.022 N 
ATOM      3  H2  UNL     1      59.136  25.989  16.699  1.00  0.00     0.203 HD
HETATM    4  C3  UNL     1      58.924  27.562  15.442  1.00  0.00     0.705 A 
HETATM    5  N4  UNL     1      59.022  27.939  14.151  1.00  0.00    -0.022 N 
ATOM      6  H4  UNL     1      58.813  28.906  13.905  1.00  0.00     0.203 HD
HETATM    7  C4  UNL     1      59.383  27.087  13.176  1.00  0.00     0.707 A 
HETATM    8  N5  UNL     1      59.493  27.378  11.946  1.00  0.00    -0.219 N 
ATOM      9  H5  UNL     1      59.779  26.615  11.333  1.00  0.00     0.178 HD
HETATM   10  N7  UNL     1      59.659  25.796  13.531  1.00  0.00    -0.022 N 
ATOM     11  H7  UNL     1      59.937  25.131  12.810  1.00  0.00     0.203 HD
ENDROOT
BRANCH   8  12
HETATM   12  C5  UNL     1      59.269  28.634  11.310  1.00  0.00     0.197 C 
BRANCH  12  13
HETATM   13  C6  UNL     1      60.189  29.704  11.832  1.00  0.00     0.058 A 
HETATM   14  C7  UNL     1      59.702  30.842  12.442  1.00  0.00     0.036 A 
HETATM   15  C8  UNL     1      60.531  31.836  12.929  1.00  0.00    -0.059 A 
HETATM   16  C9  UNL     1      60.011  33.046  13.578  1.00  0.00     0.048 C 
HETATM   17  C10 UNL     1      61.896  31.618  12.762  1.00  0.00     0.026 A 
HETATM   18  C11 UNL     1      62.390  30.489  12.156  1.00  0.00     0.123 A 
HETATM   19  N6  UNL     1      61.513  29.571  11.712  1.00  0.00    -0.239 N 
BRANCH  19  20
HETATM   20  O1  UNL     1      62.029  28.450  11.109  1.00  0.00    -0.283 OA
ATOM     21  H1  UNL     1      62.700  28.544  10.444  1.00  0.00     0.245 HD
ENDBRANCH  19  20
ENDBRANCH  12  13
ENDBRANCH   8  12
BRANCH   4  22
HETATM   22  N3  UNL     1      58.571  28.431  16.333  1.00  0.00    -0.234 N 
ATOM     23  H32 UNL     1      57.655  28.875  16.265  1.00  0.00     0.174 HD
ATOM     24  H31 UNL     1      59.163  28.705  17.116  1.00  0.00     0.174 HD
ENDBRANCH   4  22
BRANCH   1  25
HETATM   25  N1  UNL     1      59.835  24.159  15.131  1.00  0.00    -0.229 N 
HETATM   26  C1  UNL     1      61.138  23.632  15.351  1.00  0.00     0.165 C 
ATOM     27  H1  UNL     1      59.046  23.521  15.236  1.00  0.00     0.177 HD
ENDBRANCH   1  25
TORSDOF 5
ENDMDL
MODEL 2
REMARK VINA RESULT: -6.568769734      1.319      2.067
REMARK  5 active torsions:
REMARK  status: ('A' for Active; 'I' for Inactive)
REMARK    1  A    between atoms: N1_2  and  C2_4 
REMARK    2  A    between atoms: C3_7  and  N3_8 
REMARK    3  A    between atoms: N5_14  and  C5_16 
REMARK    4  A    between atoms: C5_16  and  C6_17 
REMARK    5  A    between atoms: N6_23  and  O1_24 
ROOT
HETATM    1  C2  UNL     1      59.529  25.385  14.825  1.00  0.00     0.706 A 
HETATM    2  N2  UNL     1      59.178  26.326  15.719  1.00  0.00    -0.022 N 
ATOM      3  H2  UNL     1      59.080  26.046  16.696  1.00  0.00     0.203 HD
HETATM    4  C3  UNL     1      58.952  27.602  15.405  1.00  0.00     0.705 A 
HETATM    5  N4  UNL     1      59.089  27.949  14.109  1.00  0.00    -0.022 N 
ATOM      6  H4  UNL     1      58.922  28.919  13.841  1.00  0.00     0.203 HD
HETATM    7  C4  UNL     1      59.436  27.065  13.158  1.00  0.00     0.707 A 
HETATM    8  N5  UNL     1      59.581  27.328  11.925  1.00  0.00    -0.219 N 
ATOM      9  H5  UNL     1      59.849  26.542  11.333  1.00  0.00     0.178 HD
HETATM   10  N7  UNL     1      59.655  25.772  13.542  1.00  0.00    -0.022 N 
ATOM     11  H7  UNL     1      59.921  25.083  12.840  1.00  0.00     0.203 HD
ENDROOT
BRANCH   8  12
HETATM   12  C5  UNL     1      59.416  28.578  11.261  1.00  0.00     0.197 C 
BRANCH  12  13
HETATM   13  C6  UNL     1      60.584  29.499  11.493  1.00  0.00     0.058 A 
HETATM   14  C7  UNL     1      61.886  29.052  11.400  1.00  0.00     0.036 A 
HETATM   15  C8  UNL     1      62.972  29.881  11.609  1.00  0.00    -0.059 A 
HETATM   16  C9  UNL     1      64.358  29.405  11.509  1.00  0.00     0.048 C 
HETATM   17  C10 UNL     1      62.669  31.204  11.922  1.00  0.00     0.026 A 
HETATM   18  C11 UNL     1      61.377  31.657  12.017  1.00  0.00     0.123 A 
HETATM   19  N6  UNL     1      60.379  30.783  11.797  1.00  0.00    -0.239 N 
BRANCH  19  20
HETATM   20  O1  UNL     1      59.094  31.258  11.898  1.00  0.00    -0.283 OA
ATOM     21  H1  UNL     1      58.734  31.784  11.194  1.00  0.00     0.245 HD
ENDBRANCH  19  20
ENDBRANCH  12  13
ENDBRANCH   8  12
BRANCH   4  22
HETATM   22  N3  UNL     1      58.615  28.500  16.272  1.00  0.00    -0.234 N 
ATOM     23  H32 UNL     1      59.099  28.539  17.169  1.00  0.00     0.174 HD
ATOM     24  H31 UNL     1      57.880  29.188  16.111  1.00  0.00     0.174 HD
ENDBRANCH   4  22
BRANCH   1  25
HETATM   25  N1  UNL     1      59.738  24.161  15.176  1.00  0.00    -0.229 N 
HETATM   26  C1  UNL     1      61.017  23.581  15.403  1.00  0.00     0.165 C 
ATOM     27  H1  UNL     1      58.922  23.562  15.300  1.00  0.00     0.177 HD
ENDBRANCH   1  25
TORSDOF 5
ENDMDL
MODEL 3
REMARK VINA RESULT: -6.566598536      1.143      1.352
REMARK  5 active torsions:
REMARK  status: ('A' for Active; 'I' for Inactive)
REMARK    1  A    between atoms: N1_2  and  C2_4 
REMARK    2  A    between atoms: C3_7  and  N3_8 
REMARK    3  A    between atoms: N5_14  and  C5_16 
REMARK    4  A    between atoms: C5_16  and  C6_17 
REMARK    5  A    between atoms: N6_23  and  O1_24 
ROOT
HETATM    1  C2  UNL     1      59.504  25.314  14.914  1.00  0.00     0.706 A 
HETATM    2  N2  UNL     1      59.136  26.249  15.808  1.00  0.00    -0.022 N 
ATOM      3  H2  UNL     1      59.013  25.962  16.779  1.00  0.00     0.203 HD
HETATM    4  C3  UNL     1      58.923  27.528  15.499  1.00  0.00     0.705 A 
HETATM    5  N4  UNL     1      59.093  27.886  14.210  1.00  0.00    -0.022 N 
ATOM      6  H4  UNL     1      58.937  28.859  13.946  1.00  0.00     0.203 HD
HETATM    7  C4  UNL     1      59.459  27.008  13.260  1.00  0.00     0.707 A 
HETATM    8  N5  UNL     1      59.635  27.281  12.033  1.00  0.00    -0.219 N 
ATOM      9  H5  UNL     1      59.914  26.499  11.441  1.00  0.00     0.178 HD
HETATM   10  N7  UNL     1      59.663  25.711  13.639  1.00  0.00    -0.022 N 
ATOM     11  H7  UNL     1      59.943  25.026  12.936  1.00  0.00     0.203 HD
ENDROOT
BRANCH   8  12
HETATM   12  C5  UNL     1      59.492  28.538  11.376  1.00  0.00     0.197 C 
BRANCH  12  13
HETATM   13  C6  UNL     1      60.794  29.290  11.307  1.00  0.00     0.058 A 
HETATM   14  C7  UNL     1      61.192  30.139  12.319  1.00  0.00     0.036 A 
HETATM   15  C8  UNL     1      62.384  30.838  12.275  1.00  0.00    -0.059 A 
HETATM   16  C9  UNL     1      62.807  31.743  13.352  1.00  0.00     0.048 C 
HETATM   17  C10 UNL     1      63.163  30.632  11.138  1.00  0.00     0.026 A 
HETATM   18  C11 UNL     1      62.774  29.789  10.127  1.00  0.00     0.123 A 
HETATM   19  N6  UNL     1      61.599  29.147  10.251  1.00  0.00    -0.239 N 
BRANCH  19  20
HETATM   20  O1  UNL     1      61.231  28.308   9.228  1.00  0.00    -0.283 OA
ATOM     21  H1  UNL     1      61.866  27.699   8.870  1.00  0.00     0.245 HD
ENDBRANCH  19  20
ENDBRANCH  12  13
ENDBRANCH   8  12
BRANCH   4  22
HETATM   22  N3  UNL     1      58.570  28.421  16.366  1.00  0.00    -0.234 N 
ATOM     23  H32 UNL     1      57.898  29.142  16.099  1.00  0.00     0.174 HD
ATOM     24  H31 UNL     1      58.928  28.451  17.320  1.00  0.00     0.174 HD
ENDBRANCH   4  22
BRANCH   1  25
HETATM   25  N1  UNL     1      59.699  24.086  15.260  1.00  0.00    -0.229 N 
HETATM   26  C1  UNL     1      60.973  23.471  15.416  1.00  0.00     0.165 C 
ATOM     27  H1  UNL     1      58.875  23.511  15.434  1.00  0.00     0.177 HD
ENDBRANCH   1  25
TORSDOF 5
ENDMDL
MODEL 4
REMARK VINA RESULT: -6.456131594      3.562      6.366
REMARK  5 active torsions:
REMARK  status: ('A' for Active; 'I' for Inactive)
REMARK    1  A    between atoms: N1_2  and  C2_4 
REMARK    2  A    between atoms: C3_7  and  N3_8 
REMARK    3  A    between atoms: N5_14  and  C5_16 
REMARK    4  A    between atoms: C5_16  and  C6_17 
REMARK    5  A    between atoms: N6_23  and  O1_24 
ROOT
HETATM    1  C2  UNL     1      62.131  27.453   7.482  1.00  0.00     0.706 A 
HETATM    2  N2  UNL     1      61.067  27.196   6.701  1.00  0.00    -0.022 N 
ATOM      3  H2  UNL     1      61.237  26.819   5.769  1.00  0.00     0.203 HD
HETATM    4  C3  UNL     1      59.804  27.406   7.075  1.00  0.00     0.705 A 
HETATM    5  N4  UNL     1      59.603  27.905   8.312  1.00  0.00    -0.022 N 
ATOM      6  H4  UNL     1      58.647  28.074   8.623  1.00  0.00     0.203 HD
HETATM    7  C4  UNL     1      60.617  28.186   9.149  1.00  0.00     0.707 A 
HETATM    8  N5  UNL     1      60.494  28.655  10.322  1.00  0.00    -0.219 N 
ATOM      9  H5  UNL     1      61.365  28.812  10.829  1.00  0.00     0.178 HD
HETATM   10  N7  UNL     1      61.888  27.949   8.709  1.00  0.00    -0.022 N 
ATOM     11  H7  UNL     1      62.674  28.153   9.327  1.00  0.00     0.203 HD
ENDROOT
BRANCH   8  12
HETATM   12  C5  UNL     1      59.299  28.992  11.021  1.00  0.00     0.197 C 
BRANCH  12  13
HETATM   13  C6  UNL     1      59.262  28.389  12.400  1.00  0.00     0.058 A 
HETATM   14  C7  UNL     1      59.321  27.024  12.593  1.00  0.00     0.036 A 
HETATM   15  C8  UNL     1      59.290  26.451  13.851  1.00  0.00    -0.059 A 
HETATM   16  C9  UNL     1      59.353  24.998  14.056  1.00  0.00     0.048 C 
HETATM   17  C10 UNL     1      59.193  27.342  14.918  1.00  0.00     0.026 A 
HETATM   18  C11 UNL     1      59.134  28.701  14.734  1.00  0.00     0.123 A 
HETATM   19  N6  UNL     1      59.171  29.174  13.476  1.00  0.00    -0.239 N 
BRANCH  19  20
HETATM   20  O1  UNL     1      59.111  30.537  13.316  1.00  0.00    -0.283 OA
ATOM     21  H1  UNL     1      59.395  31.104  14.023  1.00  0.00     0.245 HD
ENDBRANCH  19  20
ENDBRANCH  12  13
ENDBRANCH   8  12
BRANCH   4  22
HETATM   22  N3  UNL     1      58.786  27.157   6.316  1.00  0.00    -0.234 N 
ATOM     23  H32 UNL     1      58.692  27.644   5.425  1.00  0.00     0.174 HD
ATOM     24  H31 UNL     1      58.056  26.488   6.559  1.00  0.00     0.174 HD
ENDBRANCH   4  22
BRANCH   1  25
HETATM   25  N1  UNL     1      63.337  27.233   7.078  1.00  0.00    -0.229 N 
HETATM   26  C1  UNL     1      64.167  26.165   7.520  1.00  0.00     0.165 C 
ATOM     27  H1  UNL     1      63.725  27.876   6.388  1.00  0.00     0.177 HD
ENDBRANCH   1  25
TORSDOF 5
ENDMDL
MODEL 5
REMARK VINA RESULT: -6.424793075      3.657      5.964
REMARK  5 active torsions:
REMARK  status: ('A' for Active; 'I' for Inactive)
REMARK    1  A    between atoms: N1_2  and  C2_4 
REMARK    2  A    between atoms: C3_7  and  N3_8 
REMARK    3  A    between atoms: N5_14  and  C5_16 
REMARK    4  A    between atoms: C5_16  and  C6_17 
REMARK    5  A    between atoms: N6_23  and  O1_24 
ROOT
HETATM    1  C2  UNL     1      62.098  27.433   7.403  1.00  0.00     0.706 A 
HETATM    2  N2  UNL     1      61.069  27.162   6.582  1.00  0.00    -0.022 N 
ATOM      3  H2  UNL     1      61.280  26.808   5.649  1.00  0.00     0.203 HD
HETATM    4  C3  UNL     1      59.789  27.328   6.916  1.00  0.00     0.705 A 
HETATM    5  N4  UNL     1      59.533  27.797   8.155  1.00  0.00    -0.022 N 
ATOM      6  H4  UNL     1      58.563  27.933   8.437  1.00  0.00     0.203 HD
HETATM    7  C4  UNL     1      60.510  28.090   9.031  1.00  0.00     0.707 A 
HETATM    8  N5  UNL     1      60.335  28.533  10.207  1.00  0.00    -0.219 N 
ATOM      9  H5  UNL     1      61.184  28.705  10.747  1.00  0.00     0.178 HD
HETATM   10  N7  UNL     1      61.802  27.898   8.630  1.00  0.00    -0.022 N 
ATOM     11  H7  UNL     1      62.560  28.112   9.277  1.00  0.00     0.203 HD
ENDROOT
BRANCH   8  12
HETATM   12  C5  UNL     1      59.108  28.821  10.872  1.00  0.00     0.197 C 
BRANCH  12  13
HETATM   13  C6  UNL     1      59.330  29.345  12.266  1.00  0.00     0.058 A 
HETATM   14  C7  UNL     1      59.031  28.585  13.379  1.00  0.00     0.036 A 
HETATM   15  C8  UNL     1      59.228  29.047  14.667  1.00  0.00    -0.059 A 
HETATM   16  C9  UNL     1      58.908  28.239  15.851  1.00  0.00     0.048 C 
HETATM   17  C10 UNL     1      59.750  30.334  14.773  1.00  0.00     0.026 A 
HETATM   18  C11 UNL     1      60.050  31.096  13.672  1.00  0.00     0.123 A 
HETATM   19  N6  UNL     1      59.828  30.569  12.455  1.00  0.00    -0.239 N 
BRANCH  19  20
HETATM   20  O1  UNL     1      60.137  31.349  11.367  1.00  0.00    -0.283 OA
ATOM     21  H1  UNL     1      59.771  32.223  11.299  1.00  0.00     0.245 HD
ENDBRANCH  19  20
ENDBRANCH  12  13
ENDBRANCH   8  12
BRANCH   4  22
HETATM   22  N3  UNL     1      58.804  27.065   6.120  1.00  0.00    -0.234 N 
ATOM     23  H32 UNL     1      58.965  27.042   5.113  1.00  0.00     0.174 HD
ATOM     24  H31 UNL     1      57.856  26.875   6.444  1.00  0.00     0.174 HD
ENDBRANCH   4  22
BRANCH   1  25
HETATM   25  N1  UNL     1      63.323  27.256   7.035  1.00  0.00    -0.229 N 
HETATM   26  C1  UNL     1      64.196  26.256   7.548  1.00  0.00     0.165 C 
ATOM     27  H1  UNL     1      63.694  27.881   6.321  1.00  0.00     0.177 HD
ENDBRANCH   1  25
TORSDOF 5
ENDMDL
