MODEL 1
REMARK VINA RESULT: -9.532084838      0.000      0.000
REMARK  9 active torsions:
REMARK  status: ('A' for Active; 'I' for Inactive)
REMARK    1  A    between atoms: O1_2  and  C2_3 
REMARK    2  A    between atoms: C5_6  and  C6_7 
REMARK    3  A    between atoms: C7_8  and  C8_9 
REMARK    4  A    between atoms: C13_14  and  C14_15 
REMARK    5  A    between atoms: C14_15  and  C15_20 
REMARK    6  A    between atoms: N1_16  and  O2_18 
REMARK    7  A    between atoms: C18_23  and  O3_24 
REMARK    8  A    between atoms: C22_29  and  O4_30 
REMARK    9  A    between atoms: O4_30  and  C23_31 
ROOT
HETATM    1  C8  UNL     1      -1.756  29.685 -15.894  1.00  0.00     0.018 C 
HETATM    2  C9  UNL     1      -0.680  29.277 -16.873  1.00  0.00     0.009 C 
HETATM    3  C10 UNL     1      -1.220  28.905 -18.212  1.00  0.00     0.001 C 
HETATM    4  C11 UNL     1      -2.610  28.369 -18.246  1.00  0.00     0.001 C 
HETATM    5  C12 UNL     1      -3.614  29.151 -17.425  1.00  0.00     0.011 C 
HETATM    6  C13 UNL     1      -2.860  30.280 -16.783  1.00  0.00     0.046 C 
ENDROOT
BRANCH   1   7
HETATM    7  C7  UNL     1      -2.196  28.612 -15.028  1.00  0.00    -0.021 C 
HETATM    8  C6  UNL     1      -2.060  28.494 -13.725  1.00  0.00     0.008 C 
BRANCH   8   9
HETATM    9  C5  UNL     1      -2.541  27.372 -12.930  1.00  0.00    -0.034 A 
HETATM   10  C4  UNL     1      -3.914  27.114 -12.887  1.00  0.00     0.014 A 
HETATM   11  C3  UNL     1      -4.413  26.064 -12.152  1.00  0.00     0.040 A 
HETATM   12  C2  UNL     1      -3.606  25.213 -11.423  1.00  0.00     0.101 A 
HETATM   13  C22 UNL     1      -2.255  25.442 -11.448  1.00  0.00     0.103 A 
HETATM   14  C21 UNL     1      -1.751  26.530 -12.210  1.00  0.00     0.051 A 
BRANCH  12  15
HETATM   15  O1  UNL     1      -4.195  24.160 -10.696  1.00  0.00    -0.353 OA
HETATM   16  C1  UNL     1      -4.164  22.836 -11.123  1.00  0.00     0.210 C 
ENDBRANCH  12  15
BRANCH  13  17
HETATM   17  O4  UNL     1      -1.388  24.675 -10.775  1.00  0.00    -0.343 OA
BRANCH  17  18
HETATM   18  C23 UNL     1      -0.761  24.558  -9.596  1.00  0.00     0.129 C 
HETATM   19  C24 UNL     1      -1.105  23.305  -8.805  1.00  0.00     0.032 C 
HETATM   20  C25 UNL     1       0.096  22.416  -8.589  1.00  0.00     0.002 C 
HETATM   21  C26 UNL     1       1.198  23.074  -7.823  1.00  0.00     0.000 C 
HETATM   22  C27 UNL     1       1.271  24.539  -8.254  1.00  0.00     0.002 C 
HETATM   23  C28 UNL     1       0.768  24.573  -9.681  1.00  0.00     0.032 C 
ENDBRANCH  17  18
ENDBRANCH  13  17
ENDBRANCH   8   9
ENDBRANCH   1   7
BRANCH   6  24
HETATM   24  C14 UNL     1      -3.737  31.210 -15.988  1.00  0.00     0.047 C 
HETATM   25  N1  UNL     1      -3.279  32.315 -15.592  1.00  0.00    -0.272 N 
ATOM     26  H1  UNL     1      -2.308  32.468 -15.866  1.00  0.00     0.194 HD
BRANCH  25  27
HETATM   27  O2  UNL     1      -3.783  33.306 -14.904  1.00  0.00    -0.290 OA
ATOM     28  H2  UNL     1      -3.910  34.230 -15.083  1.00  0.00     0.244 HD
ENDBRANCH  25  27
BRANCH  24  29
HETATM   29  C15 UNL     1      -5.069  30.743 -15.649  1.00  0.00    -0.011 A 
HETATM   30  C16 UNL     1      -5.290  29.944 -14.519  1.00  0.00     0.016 A 
HETATM   31  C17 UNL     1      -6.536  29.511 -14.135  1.00  0.00     0.037 A 
HETATM   32  C18 UNL     1      -7.665  29.841 -14.849  1.00  0.00     0.065 A 
HETATM   33  C19 UNL     1      -7.482  30.621 -15.961  1.00  0.00     0.037 A 
HETATM   34  C20 UNL     1      -6.207  31.061 -16.351  1.00  0.00     0.016 A 
BRANCH  32  35
HETATM   35  O3  UNL     1      -8.919  29.395 -14.447  1.00  0.00    -0.361 OA
ATOM     36  H3  UNL     1      -9.503  29.961 -13.956  1.00  0.00     0.217 HD
ENDBRANCH  32  35
ENDBRANCH  24  29
ENDBRANCH   6  24
TORSDOF 9
ENDMDL
MODEL 2
REMARK VINA RESULT: -8.892815796      3.057      9.350
REMARK  9 active torsions:
REMARK  status: ('A' for Active; 'I' for Inactive)
REMARK    1  A    between atoms: O1_2  and  C2_3 
REMARK    2  A    between atoms: C5_6  and  C6_7 
REMARK    3  A    between atoms: C7_8  and  C8_9 
REMARK    4  A    between atoms: C13_14  and  C14_15 
REMARK    5  A    between atoms: C14_15  and  C15_20 
REMARK    6  A    between atoms: N1_16  and  O2_18 
REMARK    7  A    between atoms: C18_23  and  O3_24 
REMARK    8  A    between atoms: C22_29  and  O4_30 
REMARK    9  A    between atoms: O4_30  and  C23_31 
ROOT
HETATM    1  C8  UNL     1       0.042  23.538 -11.264  1.00  0.00     0.018 C 
HETATM    2  C9  UNL     1       1.532  23.408 -11.049  1.00  0.00     0.009 C 
HETATM    3  C10 UNL     1       1.985  23.977  -9.747  1.00  0.00     0.001 C 
HETATM    4  C11 UNL     1       1.166  25.084  -9.181  1.00  0.00     0.001 C 
HETATM    5  C12 UNL     1      -0.331  24.849  -9.209  1.00  0.00     0.011 C 
HETATM    6  C13 UNL     1      -0.543  23.504  -9.843  1.00  0.00     0.046 C 
ENDROOT
BRANCH   1   7
HETATM    7  C7  UNL     1      -0.337  24.699 -12.041  1.00  0.00    -0.021 C 
HETATM    8  C6  UNL     1       0.316  25.285 -13.021  1.00  0.00     0.008 C 
BRANCH   8   9
HETATM    9  C5  UNL     1      -0.147  26.457 -13.754  1.00  0.00    -0.034 A 
HETATM   10  C4  UNL     1       0.425  26.747 -14.995  1.00  0.00     0.014 A 
HETATM   11  C3  UNL     1       0.018  27.841 -15.723  1.00  0.00     0.040 A 
HETATM   12  C2  UNL     1      -0.963  28.707 -15.283  1.00  0.00     0.101 A 
HETATM   13  C22 UNL     1      -1.541  28.448 -14.068  1.00  0.00     0.103 A 
HETATM   14  C21 UNL     1      -1.112  27.315 -13.325  1.00  0.00     0.051 A 
BRANCH  12  15
HETATM   15  O1  UNL     1      -1.323  29.805 -16.088  1.00  0.00    -0.353 OA
HETATM   16  C1  UNL     1      -2.406  29.779 -16.962  1.00  0.00     0.210 C 
ENDBRANCH  12  15
BRANCH  13  17
HETATM   17  O4  UNL     1      -2.500  29.227 -13.552  1.00  0.00    -0.343 OA
BRANCH  17  18
HETATM   18  C23 UNL     1      -3.805  29.248 -13.247  1.00  0.00     0.129 C 
HETATM   19  C24 UNL     1      -4.550  30.497 -13.696  1.00  0.00     0.032 C 
HETATM   20  C25 UNL     1      -5.640  30.185 -14.693  1.00  0.00     0.002 C 
HETATM   21  C26 UNL     1      -6.695  29.268 -14.161  1.00  0.00     0.000 C 
HETATM   22  C27 UNL     1      -6.017  28.231 -13.266  1.00  0.00     0.002 C 
HETATM   23  C28 UNL     1      -4.613  28.075 -13.808  1.00  0.00     0.032 C 
ENDBRANCH  17  18
ENDBRANCH  13  17
ENDBRANCH   8   9
ENDBRANCH   1   7
BRANCH   6  24
HETATM   24  C14 UNL     1      -1.987  23.079  -9.874  1.00  0.00     0.047 C 
HETATM   25  N1  UNL     1      -2.880  23.920 -10.160  1.00  0.00    -0.272 N 
ATOM     26  H1  UNL     1      -2.508  24.852 -10.349  1.00  0.00     0.194 HD
BRANCH  25  27
HETATM   27  O2  UNL     1      -4.181  23.854 -10.266  1.00  0.00    -0.290 OA
ATOM     28  H2  UNL     1      -4.800  24.136 -10.930  1.00  0.00     0.244 HD
ENDBRANCH  25  27
BRANCH  24  29
HETATM   29  C15 UNL     1      -2.288  21.711  -9.492  1.00  0.00    -0.011 A 
HETATM   30  C16 UNL     1      -1.786  21.165  -8.303  1.00  0.00     0.016 A 
HETATM   31  C17 UNL     1      -2.075  19.891  -7.879  1.00  0.00     0.037 A 
HETATM   32  C18 UNL     1      -2.889  19.056  -8.610  1.00  0.00     0.065 A 
HETATM   33  C19 UNL     1      -3.395  19.561  -9.779  1.00  0.00     0.037 A 
HETATM   34  C20 UNL     1      -3.097  20.864 -10.209  1.00  0.00     0.016 A 
BRANCH  32  35
HETATM   35  O3  UNL     1      -3.172  17.768  -8.167  1.00  0.00    -0.361 OA
ATOM     36  H3  UNL     1      -2.832  17.010  -8.626  1.00  0.00     0.217 HD
ENDBRANCH  32  35
ENDBRANCH  24  29
ENDBRANCH   6  24
TORSDOF 9
ENDMDL
MODEL 3
REMARK VINA RESULT: -8.824769331      5.843     12.592
REMARK  9 active torsions:
REMARK  status: ('A' for Active; 'I' for Inactive)
REMARK    1  A    between atoms: O1_2  and  C2_3 
REMARK    2  A    between atoms: C5_6  and  C6_7 
REMARK    3  A    between atoms: C7_8  and  C8_9 
REMARK    4  A    between atoms: C13_14  and  C14_15 
REMARK    5  A    between atoms: C14_15  and  C15_20 
REMARK    6  A    between atoms: N1_16  and  O2_18 
REMARK    7  A    between atoms: C18_23  and  O3_24 
REMARK    8  A    between atoms: C22_29  and  O4_30 
REMARK    9  A    between atoms: O4_30  and  C23_31 
ROOT
HETATM    1  C8  UNL     1      -4.071  17.947  -9.342  1.00  0.00     0.018 C 
HETATM    2  C9  UNL     1      -4.375  17.477 -10.745  1.00  0.00     0.009 C 
HETATM    3  C10 UNL     1      -3.351  16.534 -11.279  1.00  0.00     0.001 C 
HETATM    4  C11 UNL     1      -1.970  16.672 -10.739  1.00  0.00     0.001 C 
HETATM    5  C12 UNL     1      -1.885  16.810  -9.233  1.00  0.00     0.011 C 
HETATM    6  C13 UNL     1      -3.296  16.775  -8.717  1.00  0.00     0.046 C 
ENDROOT
BRANCH   1   7
HETATM    7  C7  UNL     1      -3.382  19.219  -9.288  1.00  0.00    -0.021 C 
HETATM    8  C6  UNL     1      -3.422  20.216 -10.145  1.00  0.00     0.008 C 
BRANCH   8   9
HETATM    9  C5  UNL     1      -2.692  21.469 -10.007  1.00  0.00    -0.034 A 
HETATM   10  C4  UNL     1      -1.692  21.564  -9.036  1.00  0.00     0.014 A 
HETATM   11  C3  UNL     1      -0.974  22.727  -8.870  1.00  0.00     0.040 A 
HETATM   12  C2  UNL     1      -1.192  23.853  -9.639  1.00  0.00     0.101 A 
HETATM   13  C22 UNL     1      -2.168  23.788 -10.599  1.00  0.00     0.103 A 
HETATM   14  C21 UNL     1      -2.902  22.583 -10.760  1.00  0.00     0.051 A 
BRANCH  12  15
HETATM   15  O1  UNL     1      -0.415  25.005  -9.407  1.00  0.00    -0.353 OA
HETATM   16  C1  UNL     1       0.929  24.950  -9.048  1.00  0.00     0.210 C 
ENDBRANCH  12  15
BRANCH  13  17
HETATM   17  O4  UNL     1      -2.456  24.826 -11.396  1.00  0.00    -0.343 OA
BRANCH  17  18
HETATM   18  C23 UNL     1      -3.305  25.853 -11.542  1.00  0.00     0.129 C 
HETATM   19  C24 UNL     1      -2.679  27.134 -12.074  1.00  0.00     0.032 C 
HETATM   20  C25 UNL     1      -3.261  27.546 -13.405  1.00  0.00     0.002 C 
HETATM   21  C26 UNL     1      -4.731  27.816 -13.358  1.00  0.00     0.000 C 
HETATM   22  C27 UNL     1      -5.372  26.804 -12.408  1.00  0.00     0.002 C 
HETATM   23  C28 UNL     1      -4.494  25.573 -12.465  1.00  0.00     0.032 C 
ENDBRANCH  17  18
ENDBRANCH  13  17
ENDBRANCH   8   9
ENDBRANCH   1   7
BRANCH   6  24
HETATM   24  C14 UNL     1      -3.385  16.821  -7.216  1.00  0.00     0.047 C 
HETATM   25  N1  UNL     1      -4.456  17.193  -6.665  1.00  0.00    -0.272 N 
ATOM     26  H1  UNL     1      -5.187  17.439  -7.333  1.00  0.00     0.194 HD
BRANCH  25  27
HETATM   27  O2  UNL     1      -4.829  17.332  -5.419  1.00  0.00    -0.290 OA
ATOM     28  H2  UNL     1      -4.744  18.034  -4.784  1.00  0.00     0.244 HD
ENDBRANCH  25  27
BRANCH  24  29
HETATM   29  C15 UNL     1      -2.185  16.499  -6.466  1.00  0.00    -0.011 A 
HETATM   30  C16 UNL     1      -1.254  17.491  -6.130  1.00  0.00     0.016 A 
HETATM   31  C17 UNL     1      -0.124  17.243  -5.388  1.00  0.00     0.037 A 
HETATM   32  C18 UNL     1       0.168  15.982  -4.921  1.00  0.00     0.065 A 
HETATM   33  C19 UNL     1      -0.723  14.989  -5.234  1.00  0.00     0.037 A 
HETATM   34  C20 UNL     1      -1.877  15.246  -5.993  1.00  0.00     0.016 A 
BRANCH  32  35
HETATM   35  O3  UNL     1       1.316  15.747  -4.171  1.00  0.00    -0.361 OA
ATOM     36  H3  UNL     1       1.878  15.006  -4.361  1.00  0.00     0.217 HD
ENDBRANCH  32  35
ENDBRANCH  24  29
ENDBRANCH   6  24
TORSDOF 9
ENDMDL
MODEL 4
REMARK VINA RESULT: -8.816601775      6.467     12.659
REMARK  9 active torsions:
REMARK  status: ('A' for Active; 'I' for Inactive)
REMARK    1  A    between atoms: O1_2  and  C2_3 
REMARK    2  A    between atoms: C5_6  and  C6_7 
REMARK    3  A    between atoms: C7_8  and  C8_9 
REMARK    4  A    between atoms: C13_14  and  C14_15 
REMARK    5  A    between atoms: C14_15  and  C15_20 
REMARK    6  A    between atoms: N1_16  and  O2_18 
REMARK    7  A    between atoms: C18_23  and  O3_24 
REMARK    8  A    between atoms: C22_29  and  O4_30 
REMARK    9  A    between atoms: O4_30  and  C23_31 
ROOT
HETATM    1  C8  UNL     1      -3.691  17.597  -9.115  1.00  0.00     0.018 C 
HETATM    2  C9  UNL     1      -4.444  17.271 -10.384  1.00  0.00     0.009 C 
HETATM    3  C10 UNL     1      -3.633  16.485 -11.358  1.00  0.00     0.001 C 
HETATM    4  C11 UNL     1      -2.156  16.672 -11.302  1.00  0.00     0.001 C 
HETATM    5  C12 UNL     1      -1.562  16.639  -9.909  1.00  0.00     0.011 C 
HETATM    6  C13 UNL     1      -2.705  16.428  -8.957  1.00  0.00     0.046 C 
ENDROOT
BRANCH   1   7
HETATM    7  C7  UNL     1      -3.074  18.906  -9.122  1.00  0.00    -0.021 C 
HETATM    8  C6  UNL     1      -3.339  19.940  -9.891  1.00  0.00     0.008 C 
BRANCH   8   9
HETATM    9  C5  UNL     1      -2.663  21.229  -9.824  1.00  0.00    -0.034 A 
HETATM   10  C4  UNL     1      -1.660  21.417  -8.869  1.00  0.00     0.014 A 
HETATM   11  C3  UNL     1      -0.993  22.616  -8.770  1.00  0.00     0.040 A 
HETATM   12  C2  UNL     1      -1.266  23.692  -9.593  1.00  0.00     0.101 A 
HETATM   13  C22 UNL     1      -2.246  23.535 -10.538  1.00  0.00     0.103 A 
HETATM   14  C21 UNL     1      -2.928  22.293 -10.630  1.00  0.00     0.051 A 
BRANCH  12  15
HETATM   15  O1  UNL     1      -0.538  24.886  -9.428  1.00  0.00    -0.353 OA
HETATM   16  C1  UNL     1       0.793  24.910  -9.021  1.00  0.00     0.210 C 
ENDBRANCH  12  15
BRANCH  13  17
HETATM   17  O4  UNL     1      -2.585  24.517 -11.384  1.00  0.00    -0.343 OA
BRANCH  17  18
HETATM   18  C23 UNL     1      -3.358  25.607 -11.495  1.00  0.00     0.129 C 
HETATM   19  C24 UNL     1      -2.634  26.866 -11.949  1.00  0.00     0.032 C 
HETATM   20  C25 UNL     1      -3.154  27.382 -13.269  1.00  0.00     0.002 C 
HETATM   21  C26 UNL     1      -4.602  27.751 -13.238  1.00  0.00     0.000 C 
HETATM   22  C27 UNL     1      -5.334  26.742 -12.353  1.00  0.00     0.002 C 
HETATM   23  C28 UNL     1      -4.541  25.456 -12.455  1.00  0.00     0.032 C 
ENDBRANCH  17  18
ENDBRANCH  13  17
ENDBRANCH   8   9
ENDBRANCH   1   7
BRANCH   6  24
HETATM   24  C14 UNL     1      -2.272  16.290  -7.523  1.00  0.00     0.047 C 
HETATM   25  N1  UNL     1      -1.107  16.633  -7.186  1.00  0.00    -0.272 N 
ATOM     26  H1  UNL     1      -0.551  16.985  -7.966  1.00  0.00     0.194 HD
BRANCH  25  27
HETATM   27  O2  UNL     1      -0.459  16.632  -6.051  1.00  0.00    -0.290 OA
ATOM     28  H2  UNL     1       0.454  16.507  -5.817  1.00  0.00     0.244 HD
ENDBRANCH  25  27
BRANCH  24  29
HETATM   29  C15 UNL     1      -3.214  15.688  -6.596  1.00  0.00    -0.011 A 
HETATM   30  C16 UNL     1      -3.997  16.479  -5.745  1.00  0.00     0.016 A 
HETATM   31  C17 UNL     1      -4.930  15.958  -4.881  1.00  0.00     0.037 A 
HETATM   32  C18 UNL     1      -5.156  14.604  -4.796  1.00  0.00     0.065 A 
HETATM   33  C19 UNL     1      -4.404  13.803  -5.615  1.00  0.00     0.037 A 
HETATM   34  C20 UNL     1      -3.451  14.338  -6.497  1.00  0.00     0.016 A 
BRANCH  32  35
HETATM   35  O3  UNL     1      -6.104  14.092  -3.916  1.00  0.00    -0.361 OA
ATOM     36  H3  UNL     1      -6.154  13.160  -3.742  1.00  0.00     0.217 HD
ENDBRANCH  32  35
ENDBRANCH  24  29
ENDBRANCH   6  24
TORSDOF 9
ENDMDL
MODEL 5
REMARK VINA RESULT: -8.773663931      1.906      2.900
REMARK  9 active torsions:
REMARK  status: ('A' for Active; 'I' for Inactive)
REMARK    1  A    between atoms: O1_2  and  C2_3 
REMARK    2  A    between atoms: C5_6  and  C6_7 
REMARK    3  A    between atoms: C7_8  and  C8_9 
REMARK    4  A    between atoms: C13_14  and  C14_15 
REMARK    5  A    between atoms: C14_15  and  C15_20 
REMARK    6  A    between atoms: N1_16  and  O2_18 
REMARK    7  A    between atoms: C18_23  and  O3_24 
REMARK    8  A    between atoms: C22_29  and  O4_30 
REMARK    9  A    between atoms: O4_30  and  C23_31 
ROOT
HETATM    1  C8  UNL     1      -2.152  28.613 -13.461  1.00  0.00     0.018 C 
HETATM    2  C9  UNL     1      -0.757  29.029 -13.864  1.00  0.00     0.009 C 
HETATM    3  C10 UNL     1      -0.502  28.877 -15.326  1.00  0.00     0.001 C 
HETATM    4  C11 UNL     1      -1.285  27.825 -16.034  1.00  0.00     0.001 C 
HETATM    5  C12 UNL     1      -2.764  27.804 -15.709  1.00  0.00     0.011 C 
HETATM    6  C13 UNL     1      -3.001  28.900 -14.710  1.00  0.00     0.046 C 
ENDROOT
BRANCH   1   7
HETATM    7  C7  UNL     1      -2.239  27.252 -12.976  1.00  0.00    -0.021 C 
HETATM    8  C6  UNL     1      -2.457  26.823 -11.752  1.00  0.00     0.008 C 
BRANCH   8   9
HETATM    9  C5  UNL     1      -2.531  25.423 -11.354  1.00  0.00    -0.034 A 
HETATM   10  C4  UNL     1      -3.786  24.815 -11.256  1.00  0.00     0.014 A 
HETATM   11  C3  UNL     1      -3.905  23.495 -10.886  1.00  0.00     0.040 A 
HETATM   12  C2  UNL     1      -2.813  22.701 -10.594  1.00  0.00     0.101 A 
HETATM   13  C22 UNL     1      -1.570  23.272 -10.683  1.00  0.00     0.103 A 
HETATM   14  C21 UNL     1      -1.460  24.636 -11.065  1.00  0.00     0.051 A 
BRANCH  12  15
HETATM   15  O1  UNL     1      -3.019  21.358 -10.224  1.00  0.00    -0.353 OA
HETATM   16  C1  UNL     1      -4.139  20.629 -10.613  1.00  0.00     0.210 C 
ENDBRANCH  12  15
BRANCH  13  17
HETATM   17  O4  UNL     1      -0.450  22.587 -10.420  1.00  0.00    -0.343 OA
BRANCH  17  18
HETATM   18  C23 UNL     1       0.642  22.589  -9.642  1.00  0.00     0.129 C 
HETATM   19  C24 UNL     1       1.833  23.348 -10.208  1.00  0.00     0.032 C 
HETATM   20  C25 UNL     1       2.231  24.519  -9.341  1.00  0.00     0.002 C 
HETATM   21  C26 UNL     1       2.636  24.128  -7.956  1.00  0.00     0.000 C 
HETATM   22  C27 UNL     1       1.734  22.980  -7.501  1.00  0.00     0.002 C 
HETATM   23  C28 UNL     1       0.427  23.167  -8.240  1.00  0.00     0.032 C 
ENDBRANCH  17  18
ENDBRANCH  13  17
ENDBRANCH   8   9
ENDBRANCH   1   7
BRANCH   6  24
HETATM   24  C14 UNL     1      -4.450  29.068 -14.338  1.00  0.00     0.047 C 
HETATM   25  N1  UNL     1      -5.005  28.222 -13.587  1.00  0.00    -0.272 N 
ATOM     26  H1  UNL     1      -4.377  27.471 -13.296  1.00  0.00     0.194 HD
BRANCH  25  27
HETATM   27  O2  UNL     1      -6.212  28.101 -13.101  1.00  0.00    -0.290 OA
ATOM     28  H2  UNL     1      -7.081  28.163 -13.481  1.00  0.00     0.244 HD
ENDBRANCH  25  27
BRANCH  24  29
HETATM   29  C15 UNL     1      -5.168  30.179 -14.937  1.00  0.00    -0.011 A 
HETATM   30  C16 UNL     1      -4.510  31.371 -15.266  1.00  0.00     0.016 A 
HETATM   31  C17 UNL     1      -5.137  32.434 -15.870  1.00  0.00     0.037 A 
HETATM   32  C18 UNL     1      -6.473  32.393 -16.195  1.00  0.00     0.065 A 
HETATM   33  C19 UNL     1      -7.145  31.239 -15.884  1.00  0.00     0.037 A 
HETATM   34  C20 UNL     1      -6.502  30.155 -15.267  1.00  0.00     0.016 A 
BRANCH  32  35
HETATM   35  O3  UNL     1      -7.093  33.477 -16.807  1.00  0.00    -0.361 OA
ATOM     36  H3  UNL     1      -7.884  33.361 -17.319  1.00  0.00     0.217 HD
ENDBRANCH  32  35
ENDBRANCH  24  29
ENDBRANCH   6  24
TORSDOF 9
ENDMDL
