MODEL 1
REMARK VINA RESULT: -4.203904669      0.000      0.000
REMARK  0 active torsions:
REMARK  status: ('A' for Active; 'I' for Inactive)
ROOT
HETATM    1  S1  UNL     1      28.288   3.182 -13.300  1.00  0.00    -0.092 SA
HETATM    2  C1  UNL     1      29.830   2.272 -13.514  1.00  0.00     0.058 C 
HETATM    3  C2  UNL     1      30.923   2.825 -12.643  1.00  0.00     0.016 C 
HETATM    4  C3  UNL     1      31.549   3.479 -13.856  1.00  0.00     0.002 C 
HETATM    5  C4  UNL     1      30.554   2.761 -14.751  1.00  0.00     0.016 C 
ENDROOT
TORSDOF 0
ENDMDL
MODEL 2
REMARK VINA RESULT: -3.995201312      1.776      2.579
REMARK  0 active torsions:
REMARK  status: ('A' for Active; 'I' for Inactive)
ROOT
HETATM    1  S1  UNL     1      31.224   3.184 -12.743  1.00  0.00    -0.092 SA
HETATM    2  C1  UNL     1      30.224   2.341 -13.983  1.00  0.00     0.058 C 
HETATM    3  C2  UNL     1      29.506   3.319 -14.871  1.00  0.00     0.016 C 
HETATM    4  C3  UNL     1      28.215   3.026 -14.137  1.00  0.00     0.002 C 
HETATM    5  C4  UNL     1      28.906   1.906 -13.379  1.00  0.00     0.016 C 
ENDROOT
TORSDOF 0
ENDMDL
MODEL 3
REMARK VINA RESULT: -3.873667920      0.886      1.598
REMARK  0 active torsions:
REMARK  status: ('A' for Active; 'I' for Inactive)
ROOT
HETATM    1  S1  UNL     1      28.692   1.824 -13.484  1.00  0.00    -0.092 SA
HETATM    2  C1  UNL     1      29.801   3.242 -13.381  1.00  0.00     0.058 C 
HETATM    3  C2  UNL     1      30.635   3.382 -14.624  1.00  0.00     0.016 C 
HETATM    4  C3  UNL     1      31.831   2.835 -13.874  1.00  0.00     0.002 C 
HETATM    5  C4  UNL     1      31.034   2.879 -12.581  1.00  0.00     0.016 C 
ENDROOT
TORSDOF 0
ENDMDL
MODEL 4
REMARK VINA RESULT: -3.866055851      1.003      1.255
REMARK  0 active torsions:
REMARK  status: ('A' for Active; 'I' for Inactive)
ROOT
HETATM    1  S1  UNL     1      29.013   3.406 -14.885  1.00  0.00    -0.092 SA
HETATM    2  C1  UNL     1      30.176   2.330 -14.023  1.00  0.00     0.058 C 
HETATM    3  C2  UNL     1      30.054   2.469 -12.531  1.00  0.00     0.016 C 
HETATM    4  C3  UNL     1      31.332   3.281 -12.510  1.00  0.00     0.002 C 
HETATM    5  C4  UNL     1      31.546   2.973 -13.982  1.00  0.00     0.016 C 
ENDROOT
TORSDOF 0
ENDMDL
MODEL 5
REMARK VINA RESULT: -3.785441654      2.092      2.668
REMARK  0 active torsions:
REMARK  status: ('A' for Active; 'I' for Inactive)
ROOT
HETATM    1  S1  UNL     1      31.204   3.042 -12.805  1.00  0.00    -0.092 SA
HETATM    2  C1  UNL     1      29.558   2.312 -12.709  1.00  0.00     0.058 C 
HETATM    3  C2  UNL     1      29.140   1.717 -14.024  1.00  0.00     0.016 C 
HETATM    4  C3  UNL     1      28.221   2.897 -14.258  1.00  0.00     0.002 C 
HETATM    5  C4  UNL     1      28.504   3.390 -12.850  1.00  0.00     0.016 C 
ENDROOT
TORSDOF 0
ENDMDL
