MODEL 1
REMARK VINA RESULT: -4.552859926      0.000      0.000
REMARK  0 active torsions:
REMARK  status: ('A' for Active; 'I' for Inactive)
ROOT
HETATM    1  C1  UNL     1      28.991   1.451 -13.918  1.00  0.00     0.046 C 
HETATM    2  C2  UNL     1      29.253   2.907 -13.550  1.00  0.00     0.118 C 
HETATM    3  C3  UNL     1      28.010   3.733 -13.579  1.00  0.00     0.046 C 
HETATM    4  C4  UNL     1      30.236   3.542 -14.543  1.00  0.00     0.039 C 
HETATM    5  C5  UNL     1      31.511   2.801 -14.124  1.00  0.00     0.030 C 
HETATM    6  C6  UNL     1      31.381   2.954 -12.606  1.00  0.00     0.233 C 
HETATM    7  N1  UNL     1      29.968   2.932 -12.320  1.00  0.00    -0.067 N 
ATOM      8  H11 UNL     1      29.706   2.163 -11.701  1.00  0.00     0.278 HD
ATOM      9  H12 UNL     1      29.680   3.702 -11.717  1.00  0.00     0.278 HD
ENDROOT
TORSDOF 0
ENDMDL
MODEL 2
REMARK VINA RESULT: -4.251162260      1.151      2.049
REMARK  0 active torsions:
REMARK  status: ('A' for Active; 'I' for Inactive)
ROOT
HETATM    1  C1  UNL     1      28.279   3.773 -13.213  1.00  0.00     0.046 C 
HETATM    2  C2  UNL     1      29.163   2.601 -13.622  1.00  0.00     0.118 C 
HETATM    3  C3  UNL     1      28.374   1.364 -13.901  1.00  0.00     0.046 C 
HETATM    4  C4  UNL     1      30.152   2.258 -12.500  1.00  0.00     0.039 C 
HETATM    5  C5  UNL     1      31.065   3.486 -12.602  1.00  0.00     0.030 C 
HETATM    6  C6  UNL     1      31.245   3.515 -14.123  1.00  0.00     0.233 C 
HETATM    7  N1  UNL     1      30.008   3.031 -14.683  1.00  0.00    -0.067 N 
ATOM      8  H11 UNL     1      29.557   3.720 -15.286  1.00  0.00     0.278 HD
ATOM      9  H12 UNL     1      30.155   2.305 -15.384  1.00  0.00     0.278 HD
ENDROOT
TORSDOF 0
ENDMDL
MODEL 3
REMARK VINA RESULT: -3.991279624      0.869      2.756
REMARK  0 active torsions:
REMARK  status: ('A' for Active; 'I' for Inactive)
ROOT
HETATM    1  C1  UNL     1      30.600   3.628 -14.705  1.00  0.00     0.046 C 
HETATM    2  C2  UNL     1      30.194   2.998 -13.378  1.00  0.00     0.118 C 
HETATM    3  C3  UNL     1      31.371   2.688 -12.512  1.00  0.00     0.046 C 
HETATM    4  C4  UNL     1      29.454   1.675 -13.616  1.00  0.00     0.039 C 
HETATM    5  C5  UNL     1      28.148   2.233 -14.195  1.00  0.00     0.030 C 
HETATM    6  C6  UNL     1      27.901   3.350 -13.178  1.00  0.00     0.233 C 
HETATM    7  N1  UNL     1      29.203   3.824 -12.778  1.00  0.00    -0.067 N 
ATOM      8  H11 UNL     1      29.340   4.813 -12.989  1.00  0.00     0.278 HD
ATOM      9  H12 UNL     1      29.303   3.882 -11.765  1.00  0.00     0.278 HD
ENDROOT
TORSDOF 0
ENDMDL
MODEL 4
REMARK VINA RESULT: -3.903738973      1.288      2.107
REMARK  0 active torsions:
REMARK  status: ('A' for Active; 'I' for Inactive)
ROOT
HETATM    1  C1  UNL     1      28.465   3.667 -13.059  1.00  0.00     0.046 C 
HETATM    2  C2  UNL     1      29.367   2.439 -13.020  1.00  0.00     0.118 C 
HETATM    3  C3  UNL     1      28.830   1.368 -12.129  1.00  0.00     0.046 C 
HETATM    4  C4  UNL     1      30.756   2.810 -12.487  1.00  0.00     0.039 C 
HETATM    5  C5  UNL     1      31.262   3.624 -13.685  1.00  0.00     0.030 C 
HETATM    6  C6  UNL     1      30.841   2.672 -14.808  1.00  0.00     0.233 C 
HETATM    7  N1  UNL     1      29.626   2.036 -14.360  1.00  0.00    -0.067 N 
ATOM      8  H11 UNL     1      28.838   2.219 -14.982  1.00  0.00     0.278 HD
ATOM      9  H12 UNL     1      29.655   1.022 -14.465  1.00  0.00     0.278 HD
ENDROOT
TORSDOF 0
ENDMDL
MODEL 5
REMARK VINA RESULT: -3.770971001      1.163      2.773
REMARK  0 active torsions:
REMARK  status: ('A' for Active; 'I' for Inactive)
ROOT
HETATM    1  C1  UNL     1      29.960   3.587 -12.313  1.00  0.00     0.046 C 
HETATM    2  C2  UNL     1      30.170   2.754 -13.572  1.00  0.00     0.118 C 
HETATM    3  C3  UNL     1      31.616   2.511 -13.857  1.00  0.00     0.046 C 
HETATM    4  C4  UNL     1      29.587   3.474 -14.794  1.00  0.00     0.039 C 
HETATM    5  C5  UNL     1      28.095   3.320 -14.473  1.00  0.00     0.030 C 
HETATM    6  C6  UNL     1      28.092   1.838 -14.087  1.00  0.00     0.233 C 
HETATM    7  N1  UNL     1      29.369   1.582 -13.468  1.00  0.00    -0.067 N 
ATOM      8  H11 UNL     1      29.278   1.256 -12.505  1.00  0.00     0.278 HD
ATOM      9  H12 UNL     1      29.831   0.758 -13.853  1.00  0.00     0.278 HD
ENDROOT
TORSDOF 0
ENDMDL
