MODEL 1
REMARK VINA RESULT: -5.598625114      0.000      0.000
REMARK  0 active torsions:
REMARK  status: ('A' for Active; 'I' for Inactive)
ROOT
HETATM    1  C1  UNL     1      28.185   2.859 -14.002  1.00  0.00     0.010 C 
HETATM    2  C2  UNL     1      29.478   2.158 -13.623  1.00  0.00    -0.018 C 
HETATM    3  C3  UNL     1      30.490   2.497 -14.689  1.00  0.00     0.004 C 
HETATM    4  C4  UNL     1      31.310   3.586 -13.988  1.00  0.00     0.000 C 
HETATM    5  C5  UNL     1      31.496   2.875 -12.643  1.00  0.00     0.000 C 
HETATM    6  C6  UNL     1      30.020   2.619 -12.312  1.00  0.00     0.004 C 
ENDROOT
TORSDOF 0
ENDMDL
MODEL 2
REMARK VINA RESULT: -5.346869821      0.719      1.785
REMARK  0 active torsions:
REMARK  status: ('A' for Active; 'I' for Inactive)
ROOT
HETATM    1  C1  UNL     1      28.513   1.747 -13.869  1.00  0.00     0.010 C 
HETATM    2  C2  UNL     1      29.336   3.022 -13.909  1.00  0.00    -0.018 C 
HETATM    3  C3  UNL     1      29.815   3.281 -12.501  1.00  0.00     0.004 C 
HETATM    4  C4  UNL     1      31.263   2.786 -12.583  1.00  0.00     0.000 C 
HETATM    5  C5  UNL     1      31.647   3.475 -13.897  1.00  0.00     0.000 C 
HETATM    6  C6  UNL     1      30.536   2.907 -14.789  1.00  0.00     0.004 C 
ENDROOT
TORSDOF 0
ENDMDL
MODEL 3
REMARK VINA RESULT: -5.218107879      0.951      2.832
REMARK  0 active torsions:
REMARK  status: ('A' for Active; 'I' for Inactive)
ROOT
HETATM    1  C1  UNL     1      31.404   3.214 -12.560  1.00  0.00     0.010 C 
HETATM    2  C2  UNL     1      30.513   2.475 -13.542  1.00  0.00    -0.018 C 
HETATM    3  C3  UNL     1      29.261   2.086 -12.794  1.00  0.00     0.004 C 
HETATM    4  C4  UNL     1      28.277   3.157 -13.280  1.00  0.00     0.000 C 
HETATM    5  C5  UNL     1      28.598   3.072 -14.777  1.00  0.00     0.000 C 
HETATM    6  C6  UNL     1      30.110   3.321 -14.704  1.00  0.00     0.004 C 
ENDROOT
TORSDOF 0
ENDMDL
MODEL 4
REMARK VINA RESULT: -5.011859200      0.898      2.830
REMARK  0 active torsions:
REMARK  status: ('A' for Active; 'I' for Inactive)
ROOT
HETATM    1  C1  UNL     1      31.560   3.580 -14.234  1.00  0.00     0.010 C 
HETATM    2  C2  UNL     1      30.383   2.627 -14.319  1.00  0.00    -0.018 C 
HETATM    3  C3  UNL     1      29.924   2.366 -12.905  1.00  0.00     0.004 C 
HETATM    4  C4  UNL     1      28.698   3.282 -12.814  1.00  0.00     0.000 C 
HETATM    5  C5  UNL     1      28.049   2.896 -14.148  1.00  0.00     0.000 C 
HETATM    6  C6  UNL     1      29.231   3.199 -15.077  1.00  0.00     0.004 C 
ENDROOT
TORSDOF 0
ENDMDL
MODEL 5
REMARK VINA RESULT: -5.005162285      0.942      1.078
REMARK  0 active torsions:
REMARK  status: ('A' for Active; 'I' for Inactive)
ROOT
HETATM    1  C1  UNL     1      29.052   3.410 -15.161  1.00  0.00     0.010 C 
HETATM    2  C2  UNL     1      29.840   2.445 -14.293  1.00  0.00    -0.018 C 
HETATM    3  C3  UNL     1      31.273   2.918 -14.297  1.00  0.00     0.004 C 
HETATM    4  C4  UNL     1      31.358   3.625 -12.939  1.00  0.00     0.000 C 
HETATM    5  C5  UNL     1      30.680   2.540 -12.095  1.00  0.00     0.000 C 
HETATM    6  C6  UNL     1      29.366   2.425 -12.878  1.00  0.00     0.004 C 
ENDROOT
TORSDOF 0
ENDMDL
