MODEL 1
REMARK VINA RESULT: -4.590505556      0.000      0.000
REMARK  1 active torsions:
REMARK  status: ('A' for Active; 'I' for Inactive)
REMARK    1  A    between atoms: C5_5  and  N1_6 
ROOT
HETATM    1  C1  UNL     1      30.167   2.586 -12.352  1.00  0.00     0.017 C 
HETATM    2  C2  UNL     1      29.759   2.785 -13.793  1.00  0.00    -0.018 A 
HETATM    3  C3  UNL     1      28.236   2.866 -13.926  1.00  0.00     0.017 C 
HETATM    4  C4  UNL     1      30.469   2.184 -14.910  1.00  0.00     0.044 A 
HETATM    5  C5  UNL     1      30.632   3.646 -14.599  1.00  0.00     0.192 A 
ENDROOT
BRANCH   5   6
HETATM    6  N1  UNL     1      31.952   3.963 -14.037  1.00  0.00    -0.074 N 
ATOM      7  H13 UNL     1      31.967   3.723 -13.046  1.00  0.00     0.274 HD
ATOM      8  H12 UNL     1      32.644   3.308 -14.400  1.00  0.00     0.274 HD
ATOM      9  H11 UNL     1      32.288   4.918 -14.163  1.00  0.00     0.274 HD
ENDBRANCH   5   6
TORSDOF 1
ENDMDL
MODEL 2
REMARK VINA RESULT: -4.432195446      1.911      2.815
REMARK  1 active torsions:
REMARK  status: ('A' for Active; 'I' for Inactive)
REMARK    1  A    between atoms: C5_5  and  N1_6 
ROOT
HETATM    1  C1  UNL     1      30.582   2.602 -14.791  1.00  0.00     0.017 C 
HETATM    2  C2  UNL     1      30.196   2.696 -13.333  1.00  0.00    -0.018 A 
HETATM    3  C3  UNL     1      31.397   3.091 -12.471  1.00  0.00     0.017 C 
HETATM    4  C4  UNL     1      29.223   1.813 -12.710  1.00  0.00     0.044 A 
HETATM    5  C5  UNL     1      28.859   3.232 -13.052  1.00  0.00     0.192 A 
ENDROOT
BRANCH   5   6
HETATM    6  N1  UNL     1      27.929   3.322 -14.185  1.00  0.00    -0.074 N 
ATOM      7  H13 UNL     1      27.186   2.633 -14.072  1.00  0.00     0.274 HD
ATOM      8  H12 UNL     1      27.395   4.188 -14.120  1.00  0.00     0.274 HD
ATOM      9  H11 UNL     1      28.332   3.240 -15.119  1.00  0.00     0.274 HD
ENDBRANCH   5   6
TORSDOF 1
ENDMDL
MODEL 3
REMARK VINA RESULT: -4.402288040      1.089      1.850
REMARK  1 active torsions:
REMARK  status: ('A' for Active; 'I' for Inactive)
REMARK    1  A    between atoms: C5_5  and  N1_6 
ROOT
HETATM    1  C1  UNL     1      29.156   3.588 -15.041  1.00  0.00     0.017 C 
HETATM    2  C2  UNL     1      29.600   2.781 -13.843  1.00  0.00    -0.018 A 
HETATM    3  C3  UNL     1      28.777   1.498 -13.711  1.00  0.00     0.017 C 
HETATM    4  C4  UNL     1      30.047   3.386 -12.599  1.00  0.00     0.044 A 
HETATM    5  C5  UNL     1      31.039   2.786 -13.557  1.00  0.00     0.192 A 
ENDROOT
BRANCH   5   6
HETATM    6  N1  UNL     1      31.848   3.800 -14.246  1.00  0.00    -0.074 N 
ATOM      7  H13 UNL     1      32.818   3.488 -14.293  1.00  0.00     0.274 HD
ATOM      8  H12 UNL     1      31.606   3.814 -15.237  1.00  0.00     0.274 HD
ATOM      9  H11 UNL     1      31.812   4.749 -13.873  1.00  0.00     0.274 HD
ENDBRANCH   5   6
TORSDOF 1
ENDMDL
MODEL 4
REMARK VINA RESULT: -4.215826532      1.304      1.304
REMARK  1 active torsions:
REMARK  status: ('A' for Active; 'I' for Inactive)
REMARK    1  A    between atoms: C5_5  and  N1_6 
ROOT
HETATM    1  C1  UNL     1      29.012   1.916 -13.171  1.00  0.00     0.017 C 
HETATM    2  C2  UNL     1      29.757   2.802 -14.143  1.00  0.00    -0.018 A 
HETATM    3  C3  UNL     1      28.785   3.548 -15.061  1.00  0.00     0.017 C 
HETATM    4  C4  UNL     1      31.039   2.440 -14.726  1.00  0.00     0.044 A 
HETATM    5  C5  UNL     1      30.961   3.462 -13.625  1.00  0.00     0.192 A 
ENDROOT
BRANCH   5   6
HETATM    6  N1  UNL     1      31.492   2.964 -12.350  1.00  0.00    -0.074 N 
ATOM      7  H13 UNL     1      32.451   3.290 -12.230  1.00  0.00     0.274 HD
ATOM      8  H12 UNL     1      31.033   3.446 -11.577  1.00  0.00     0.274 HD
ATOM      9  H11 UNL     1      31.451   1.957 -12.196  1.00  0.00     0.274 HD
ENDBRANCH   5   6
TORSDOF 1
ENDMDL
MODEL 5
REMARK VINA RESULT: -4.205129493      1.143      2.148
REMARK  1 active torsions:
REMARK  status: ('A' for Active; 'I' for Inactive)
REMARK    1  A    between atoms: C5_5  and  N1_6 
ROOT
HETATM    1  C1  UNL     1      30.218   3.179 -14.860  1.00  0.00     0.017 C 
HETATM    2  C2  UNL     1      29.399   2.712 -13.679  1.00  0.00    -0.018 A 
HETATM    3  C3  UNL     1      28.253   1.803 -14.131  1.00  0.00     0.017 C 
HETATM    4  C4  UNL     1      29.137   3.543 -12.515  1.00  0.00     0.044 A 
HETATM    5  C5  UNL     1      30.144   2.428 -12.447  1.00  0.00     0.192 A 
ENDROOT
BRANCH   5   6
HETATM    6  N1  UNL     1      31.528   2.916 -12.382  1.00  0.00    -0.074 N 
ATOM      7  H13 UNL     1      31.898   3.018 -13.327  1.00  0.00     0.274 HD
ATOM      8  H12 UNL     1      31.533   3.888 -12.072  1.00  0.00     0.274 HD
ATOM      9  H11 UNL     1      32.181   2.375 -11.816  1.00  0.00     0.274 HD
ENDBRANCH   5   6
TORSDOF 1
ENDMDL
