MODEL 1
REMARK VINA RESULT: -7.389219485      0.000      0.000
REMARK  4 active torsions:
REMARK  status: ('A' for Active; 'I' for Inactive)
REMARK    1  A    between atoms: O1_2  and  C2_3 
REMARK    2  A    between atoms: C5_7  and  O2_8 
REMARK    3  A    between atoms: C7_11  and  C8_12 
REMARK    4  A    between atoms: C10_18  and  N1_19 
ROOT
HETATM    1  C2  UNL     1      43.305  34.163  15.872  1.00  0.00     0.178 C 
HETATM    2 BR1  UNL     1      45.112  34.086  15.195  1.00  0.00    -0.046 Br
HETATM    3  C3  UNL     1      43.043  35.546  16.280  1.00  0.00     0.026 C 
HETATM    4  C4  UNL     1      42.210  36.086  15.417  1.00  0.00     0.019 C 
HETATM    5  C5  UNL     1      41.830  35.133  14.350  1.00  0.00     0.144 C 
HETATM    6  C6  UNL     1      40.370  35.240  14.217  1.00  0.00    -0.022 C 
HETATM    7  C7  UNL     1      39.805  36.233  13.546  1.00  0.00     0.048 C 
HETATM    8  C9  UNL     1      39.603  34.192  14.872  1.00  0.00     0.181 C 
HETATM    9  S1  UNL     1      40.832  33.175  15.637  1.00  0.00     0.182 S 
HETATM   10  O4  UNL     1      40.554  31.772  15.242  1.00  0.00    -0.225 OA
HETATM   11  O5  UNL     1      40.835  33.428  17.084  1.00  0.00    -0.225 OA
HETATM   12  C10 UNL     1      42.281  33.861  14.819  1.00  0.00     0.216 C 
ENDROOT
BRANCH   1  13
HETATM   13  O1  UNL     1      43.246  33.302  16.948  1.00  0.00    -0.366 OA
HETATM   14  C1  UNL     1      44.405  33.302  17.655  1.00  0.00     0.204 C 
ENDBRANCH   1  13
BRANCH  12  15
HETATM   15  N1  UNL     1      42.714  32.880  13.928  1.00  0.00    -0.394 N 
HETATM   16  C11 UNL     1      42.141  32.798  12.646  1.00  0.00     0.144 C 
HETATM   17  C12 UNL     1      43.362  31.729  14.306  1.00  0.00     0.144 C 
ENDBRANCH  12  15
BRANCH   5  18
HETATM   18  O2  UNL     1      42.370  35.619  13.164  1.00  0.00    -0.377 OA
ATOM     19  H2  UNL     1      41.793  36.311  12.861  1.00  0.00     0.211 HD
ENDBRANCH   5  18
BRANCH   7  20
HETATM   20  C8  UNL     1      38.367  36.387  13.383  1.00  0.00     0.259 C 
HETATM   21  O3  UNL     1      37.848  36.443  12.264  1.00  0.00    -0.302 OA
ENDBRANCH   7  20
TORSDOF 4
ENDMDL
MODEL 2
REMARK VINA RESULT: -6.057913678      3.454      6.002
REMARK  4 active torsions:
REMARK  status: ('A' for Active; 'I' for Inactive)
REMARK    1  A    between atoms: O1_2  and  C2_3 
REMARK    2  A    between atoms: C5_7  and  O2_8 
REMARK    3  A    between atoms: C7_11  and  C8_12 
REMARK    4  A    between atoms: C10_18  and  N1_19 
ROOT
HETATM    1  C2  UNL     1      43.629  34.373  15.561  1.00  0.00     0.178 C 
HETATM    2 BR1  UNL     1      42.027  33.442  16.107  1.00  0.00    -0.046 Br
HETATM    3  C3  UNL     1      43.303  35.798  15.468  1.00  0.00     0.026 C 
HETATM    4  C4  UNL     1      43.882  36.426  16.470  1.00  0.00     0.019 C 
HETATM    5  C5  UNL     1      44.647  35.497  17.332  1.00  0.00     0.144 C 
HETATM    6  C6  UNL     1      45.946  36.143  17.564  1.00  0.00    -0.022 C 
HETATM    7  C7  UNL     1      46.091  37.109  18.458  1.00  0.00     0.048 C 
HETATM    8  C9  UNL     1      47.044  35.652  16.745  1.00  0.00     0.181 C 
HETATM    9  S1  UNL     1      46.297  34.421  15.718  1.00  0.00     0.182 S 
HETATM   10  O4  UNL     1      47.125  33.194  15.823  1.00  0.00    -0.225 OA
HETATM   11  O5  UNL     1      46.143  34.956  14.358  1.00  0.00    -0.225 OA
HETATM   12  C10 UNL     1      44.724  34.283  16.582  1.00  0.00     0.216 C 
ENDROOT
BRANCH   1  13
HETATM   13  O1  UNL     1      43.989  33.858  14.333  1.00  0.00    -0.366 OA
HETATM   14  C1  UNL     1      42.936  33.273  13.706  1.00  0.00     0.204 C 
ENDBRANCH   1  13
BRANCH  12  15
HETATM   15  N1  UNL     1      44.750  33.045  17.221  1.00  0.00    -0.394 N 
HETATM   16  C11 UNL     1      45.270  32.942  18.525  1.00  0.00     0.144 C 
HETATM   17  C12 UNL     1      44.686  31.838  16.566  1.00  0.00     0.144 C 
ENDBRANCH  12  15
BRANCH   5  18
HETATM   18  O2  UNL     1      44.000  35.462  18.562  1.00  0.00    -0.377 OA
ATOM     19  H2  UNL     1      43.361  34.759  18.518  1.00  0.00     0.211 HD
ENDBRANCH   5  18
BRANCH   7  20
HETATM   20  C8  UNL     1      47.354  37.782  18.727  1.00  0.00     0.259 C 
HETATM   21  O3  UNL     1      47.966  37.602  19.785  1.00  0.00    -0.302 OA
ENDBRANCH   7  20
TORSDOF 4
ENDMDL
MODEL 3
REMARK VINA RESULT: -5.962962641      2.723      5.544
REMARK  4 active torsions:
REMARK  status: ('A' for Active; 'I' for Inactive)
REMARK    1  A    between atoms: O1_2  and  C2_3 
REMARK    2  A    between atoms: C5_7  and  O2_8 
REMARK    3  A    between atoms: C7_11  and  C8_12 
REMARK    4  A    between atoms: C10_18  and  N1_19 
ROOT
HETATM    1  C2  UNL     1      42.659  34.655  14.994  1.00  0.00     0.178 C 
HETATM    2 BR1  UNL     1      41.173  33.422  15.050  1.00  0.00    -0.046 Br
HETATM    3  C3  UNL     1      42.323  35.794  15.851  1.00  0.00     0.026 C 
HETATM    4  C4  UNL     1      43.062  35.734  16.938  1.00  0.00     0.019 C 
HETATM    5  C5  UNL     1      43.963  34.558  16.925  1.00  0.00     0.144 C 
HETATM    6  C6  UNL     1      45.282  35.060  17.333  1.00  0.00    -0.022 C 
HETATM    7  C7  UNL     1      45.577  35.284  18.605  1.00  0.00     0.048 C 
HETATM    8  C9  UNL     1      46.226  35.292  16.251  1.00  0.00     0.181 C 
HETATM    9  S1  UNL     1      45.315  34.878  14.791  1.00  0.00     0.182 S 
HETATM   10  O4  UNL     1      46.150  33.940  14.001  1.00  0.00    -0.225 OA
HETATM   11  O5  UNL     1      44.933  36.114  14.094  1.00  0.00    -0.225 OA
HETATM   12  C10 UNL     1      43.912  34.075  15.581  1.00  0.00     0.216 C 
ENDROOT
BRANCH   1  13
HETATM   13  O1  UNL     1      42.807  35.041  13.678  1.00  0.00    -0.366 OA
HETATM   14  C1  UNL     1      41.606  35.209  13.067  1.00  0.00     0.204 C 
ENDBRANCH   1  13
BRANCH  12  15
HETATM   15  N1  UNL     1      44.046  32.716  15.302  1.00  0.00    -0.394 N 
HETATM   16  C11 UNL     1      44.660  31.867  16.241  1.00  0.00     0.144 C 
HETATM   17  C12 UNL     1      43.999  32.182  14.037  1.00  0.00     0.144 C 
ENDBRANCH  12  15
BRANCH   5  18
HETATM   18  O2  UNL     1      43.533  33.709  17.939  1.00  0.00    -0.377 OA
ATOM     19  H2  UNL     1      43.365  34.252  18.701  1.00  0.00     0.211 HD
ENDBRANCH   5  18
BRANCH   7  20
HETATM   20  C8  UNL     1      46.866  35.780  19.064  1.00  0.00     0.259 C 
HETATM   21  O3  UNL     1      46.949  36.750  19.823  1.00  0.00    -0.302 OA
ENDBRANCH   7  20
TORSDOF 4
ENDMDL
MODEL 4
REMARK VINA RESULT: -5.935721971      1.911      3.227
REMARK  4 active torsions:
REMARK  status: ('A' for Active; 'I' for Inactive)
REMARK    1  A    between atoms: O1_2  and  C2_3 
REMARK    2  A    between atoms: C5_7  and  O2_8 
REMARK    3  A    between atoms: C7_11  and  C8_12 
REMARK    4  A    between atoms: C10_18  and  N1_19 
ROOT
HETATM    1  C2  UNL     1      43.160  32.917  15.325  1.00  0.00     0.178 C 
HETATM    2 BR1  UNL     1      44.148  32.863  16.984  1.00  0.00    -0.046 Br
HETATM    3  C3  UNL     1      42.175  31.834  15.361  1.00  0.00     0.026 C 
HETATM    4  C4  UNL     1      40.978  32.361  15.509  1.00  0.00     0.019 C 
HETATM    5  C5  UNL     1      41.036  33.839  15.589  1.00  0.00     0.144 C 
HETATM    6  C6  UNL     1      39.980  34.330  14.693  1.00  0.00    -0.022 C 
HETATM    7  C7  UNL     1      38.708  34.349  15.063  1.00  0.00     0.048 C 
HETATM    8  C9  UNL     1      40.429  34.783  13.385  1.00  0.00     0.181 C 
HETATM    9  S1  UNL     1      42.176  34.502  13.411  1.00  0.00     0.182 S 
HETATM   10  O4  UNL     1      42.833  35.761  12.983  1.00  0.00    -0.225 OA
HETATM   11  O5  UNL     1      42.487  33.324  12.589  1.00  0.00    -0.225 OA
HETATM   12  C10 UNL     1      42.359  34.176  15.171  1.00  0.00     0.216 C 
ENDROOT
BRANCH   1  13
HETATM   13  O1  UNL     1      44.076  32.730  14.311  1.00  0.00    -0.366 OA
HETATM   14  C1  UNL     1      45.207  32.128  14.760  1.00  0.00     0.204 C 
ENDBRANCH   1  13
BRANCH  12  15
HETATM   15  N1  UNL     1      43.017  35.287  15.696  1.00  0.00    -0.394 N 
HETATM   16  C11 UNL     1      42.287  36.264  16.398  1.00  0.00     0.144 C 
HETATM   17  C12 UNL     1      44.241  35.734  15.261  1.00  0.00     0.144 C 
ENDBRANCH  12  15
BRANCH   5  18
HETATM   18  O2  UNL     1      40.651  34.189  16.879  1.00  0.00    -0.377 OA
ATOM     19  H2  UNL     1      41.004  35.055  17.047  1.00  0.00     0.211 HD
ENDBRANCH   5  18
BRANCH   7  20
HETATM   20  C8  UNL     1      37.624  34.825  14.215  1.00  0.00     0.259 C 
HETATM   21  O3  UNL     1      37.517  36.019  13.917  1.00  0.00    -0.302 OA
ENDBRANCH   7  20
TORSDOF 4
ENDMDL
MODEL 5
REMARK VINA RESULT: -5.892011022      2.432      4.146
REMARK  4 active torsions:
REMARK  status: ('A' for Active; 'I' for Inactive)
REMARK    1  A    between atoms: O1_2  and  C2_3 
REMARK    2  A    between atoms: C5_7  and  O2_8 
REMARK    3  A    between atoms: C7_11  and  C8_12 
REMARK    4  A    between atoms: C10_18  and  N1_19 
ROOT
HETATM    1  C2  UNL     1      44.094  34.883  15.854  1.00  0.00     0.178 C 
HETATM    2 BR1  UNL     1      44.397  34.730  17.756  1.00  0.00    -0.046 Br
HETATM    3  C3  UNL     1      45.155  34.136  15.175  1.00  0.00     0.026 C 
HETATM    4  C4  UNL     1      44.634  33.041  14.662  1.00  0.00     0.019 C 
HETATM    5  C5  UNL     1      43.183  32.940  14.943  1.00  0.00     0.144 C 
HETATM    6  C6  UNL     1      42.553  32.567  13.669  1.00  0.00    -0.022 C 
HETATM    7  C7  UNL     1      42.566  31.318  13.228  1.00  0.00     0.048 C 
HETATM    8  C9  UNL     1      41.928  33.657  12.937  1.00  0.00     0.181 C 
HETATM    9  S1  UNL     1      42.239  35.081  13.939  1.00  0.00     0.182 S 
HETATM   10  O4  UNL     1      40.943  35.777  14.135  1.00  0.00    -0.225 OA
HETATM   11  O5  UNL     1      43.294  35.891  13.314  1.00  0.00    -0.225 OA
HETATM   12  C10 UNL     1      42.813  34.235  15.420  1.00  0.00     0.216 C 
ENDROOT
BRANCH   1  13
HETATM   13  O1  UNL     1      44.151  36.227  15.550  1.00  0.00    -0.366 OA
HETATM   14  C1  UNL     1      44.996  36.894  16.377  1.00  0.00     0.204 C 
ENDBRANCH   1  13
BRANCH  12  15
HETATM   15  N1  UNL     1      41.798  34.389  16.363  1.00  0.00    -0.394 N 
HETATM   16  C11 UNL     1      40.715  33.490  16.377  1.00  0.00     0.144 C 
HETATM   17  C12 UNL     1      41.537  35.562  17.029  1.00  0.00     0.144 C 
ENDBRANCH  12  15
BRANCH   5  18
HETATM   18  O2  UNL     1      43.012  31.857  15.799  1.00  0.00    -0.377 OA
ATOM     19  H2  UNL     1      42.076  31.736  15.907  1.00  0.00     0.211 HD
ENDBRANCH   5  18
BRANCH   7  20
HETATM   20  C8  UNL     1      41.958  30.894  11.975  1.00  0.00     0.259 C 
HETATM   21  O3  UNL     1      41.240  29.891  11.915  1.00  0.00    -0.302 OA
ENDBRANCH   7  20
TORSDOF 4
ENDMDL
