MODEL 1
REMARK VINA RESULT: -6.930270237      0.000      0.000
REMARK  7 active torsions:
REMARK  status: ('A' for Active; 'I' for Inactive)
REMARK    1  A    between atoms: C2_2  and  C3_3 
REMARK    2  A    between atoms: C4_8  and  N3_9 
REMARK    3  A    between atoms: N3_9  and  C5_11 
REMARK    4  A    between atoms: C5_11  and  O1_13 
REMARK    5  A    between atoms: C7_15  and  N4_16 
REMARK       I    between atoms: N4_16  and  C8_18 
REMARK    6  A    between atoms: C8_18  and  C9_20 
REMARK    7  A    between atoms: C9_20  and  S1_21 
ROOT
HETATM    1  C3  UNL     1      40.117  36.118  13.860  1.00  0.00     0.068 A 
HETATM    2  N1  UNL     1      40.493  36.505  15.060  1.00  0.00    -0.296 N 
ATOM      3  H1  UNL     1      39.931  37.236  15.494  1.00  0.00     0.187 HD
HETATM    4  N2  UNL     1      41.504  36.060  15.759  1.00  0.00    -0.282 N 
ATOM      5  H2  UNL     1      41.624  36.496  16.674  1.00  0.00     0.188 HD
HETATM    6  C4  UNL     1      42.396  35.127  15.459  1.00  0.00     0.156 A 
HETATM    7  C7  UNL     1      42.401  34.407  14.246  1.00  0.00     0.124 A 
HETATM    8  S3  UNL     1      41.105  34.897  13.209  1.00  0.00    -0.054 SA
ENDROOT
BRANCH   7   9
HETATM    9  N4  UNL     1      43.184  33.541  13.891  1.00  0.00    -0.317 N 
HETATM   10  C8  UNL     1      44.009  32.525  14.164  1.00  0.00     0.234 C 
HETATM   11  O2  UNL     1      44.679  32.403  15.210  1.00  0.00    -0.272 OA
ATOM     12  H4  UNL     1      43.236  33.645  12.877  1.00  0.00     0.169 HD
BRANCH  10  13
HETATM   13  C9  UNL     1      44.180  31.417  13.155  1.00  0.00     0.210 C 
BRANCH  13  14
HETATM   14  S1  UNL     1      42.652  30.610  12.786  1.00  0.00     0.013 S 
HETATM   15  C10 UNL     1      42.106  31.189  11.195  1.00  0.00     0.127 C 
HETATM   16  O3  UNL     1      41.668  30.919  13.859  1.00  0.00    -0.259 OA
HETATM   17  S2  UNL     1      42.858  28.916  12.661  1.00  0.00     0.008 SA
ENDBRANCH  13  14
ENDBRANCH  10  13
ENDBRANCH   7   9
BRANCH   6  18
HETATM   18  N3  UNL     1      43.321  34.836  16.295  1.00  0.00    -0.324 N 
ATOM     19  H3  UNL     1      43.612  33.860  16.240  1.00  0.00     0.169 HD
BRANCH  18  20
HETATM   20  C5  UNL     1      44.007  35.543  17.245  1.00  0.00     0.112 C 
HETATM   21  C6  UNL     1      45.284  36.289  17.141  1.00  0.00     0.097 C 
BRANCH  20  22
HETATM   22  O1  UNL     1      43.499  35.600  18.444  1.00  0.00    -0.350 OA
ATOM     23  H1  UNL     1      43.836  34.998  19.097  1.00  0.00     0.219 HD
ENDBRANCH  20  22
ENDBRANCH  18  20
ENDBRANCH   6  18
BRANCH   1  24
HETATM   24  C2  UNL     1      38.953  36.685  13.127  1.00  0.00     0.062 C 
HETATM   25  C1  UNL     1      37.731  35.851  13.510  1.00  0.00     0.012 C 
ENDBRANCH   1  24
TORSDOF 7
ENDMDL
MODEL 2
REMARK VINA RESULT: -6.849284507      1.514      1.883
REMARK  7 active torsions:
REMARK  status: ('A' for Active; 'I' for Inactive)
REMARK    1  A    between atoms: C2_2  and  C3_3 
REMARK    2  A    between atoms: C4_8  and  N3_9 
REMARK    3  A    between atoms: N3_9  and  C5_11 
REMARK    4  A    between atoms: C5_11  and  O1_13 
REMARK    5  A    between atoms: C7_15  and  N4_16 
REMARK       I    between atoms: N4_16  and  C8_18 
REMARK    6  A    between atoms: C8_18  and  C9_20 
REMARK    7  A    between atoms: C9_20  and  S1_21 
ROOT
HETATM    1  C3  UNL     1      40.102  36.029  14.091  1.00  0.00     0.068 A 
HETATM    2  N1  UNL     1      40.582  36.619  15.165  1.00  0.00    -0.296 N 
ATOM      3  H1  UNL     1      40.326  37.597  15.294  1.00  0.00     0.187 HD
HETATM    4  N2  UNL     1      41.350  36.095  16.085  1.00  0.00    -0.282 N 
ATOM      5  H2  UNL     1      41.613  36.728  16.841  1.00  0.00     0.188 HD
HETATM    6  C4  UNL     1      41.837  34.867  16.184  1.00  0.00     0.156 A 
HETATM    7  C7  UNL     1      41.588  33.846  15.243  1.00  0.00     0.124 A 
HETATM    8  S3  UNL     1      40.576  34.401  13.953  1.00  0.00    -0.054 SA
ENDROOT
BRANCH   7   9
HETATM    9  N4  UNL     1      42.000  32.698  15.256  1.00  0.00    -0.317 N 
HETATM   10  C8  UNL     1      41.815  31.385  15.080  1.00  0.00     0.234 C 
HETATM   11  O2  UNL     1      40.742  30.777  15.274  1.00  0.00    -0.272 OA
ATOM     12  H4  UNL     1      42.974  32.780  15.547  1.00  0.00     0.169 HD
BRANCH  10  13
HETATM   13  C9  UNL     1      42.966  30.529  14.615  1.00  0.00     0.210 C 
BRANCH  13  14
HETATM   14  S1  UNL     1      43.693  31.142  13.125  1.00  0.00     0.013 S 
HETATM   15  C10 UNL     1      44.903  29.953  12.586  1.00  0.00     0.127 C 
HETATM   16  O3  UNL     1      44.301  32.473  13.392  1.00  0.00    -0.259 OA
HETATM   17  S2  UNL     1      42.531  31.277  11.876  1.00  0.00     0.008 SA
ENDBRANCH  13  14
ENDBRANCH  10  13
ENDBRANCH   7   9
BRANCH   6  18
HETATM   18  N3  UNL     1      42.580  34.553  17.178  1.00  0.00    -0.324 N 
ATOM     19  H3  UNL     1      42.156  33.851  17.783  1.00  0.00     0.169 HD
BRANCH  18  20
HETATM   20  C5  UNL     1      43.817  34.950  17.608  1.00  0.00     0.112 C 
HETATM   21  C6  UNL     1      45.140  34.825  16.952  1.00  0.00     0.097 C 
BRANCH  20  22
HETATM   22  O1  UNL     1      43.896  35.535  18.770  1.00  0.00    -0.350 OA
ATOM     23  H1  UNL     1      43.988  34.984  19.538  1.00  0.00     0.219 HD
ENDBRANCH  20  22
ENDBRANCH  18  20
ENDBRANCH   6  18
BRANCH   1  24
HETATM   24  C2  UNL     1      39.238  36.701  13.085  1.00  0.00     0.062 C 
HETATM   25  C1  UNL     1      37.824  36.148  13.264  1.00  0.00     0.012 C 
ENDBRANCH   1  24
TORSDOF 7
ENDMDL
MODEL 3
REMARK VINA RESULT: -6.716003082      1.270      1.270
REMARK  7 active torsions:
REMARK  status: ('A' for Active; 'I' for Inactive)
REMARK    1  A    between atoms: C2_2  and  C3_3 
REMARK    2  A    between atoms: C4_8  and  N3_9 
REMARK    3  A    between atoms: N3_9  and  C5_11 
REMARK    4  A    between atoms: C5_11  and  O1_13 
REMARK    5  A    between atoms: C7_15  and  N4_16 
REMARK       I    between atoms: N4_16  and  C8_18 
REMARK    6  A    between atoms: C8_18  and  C9_20 
REMARK    7  A    between atoms: C9_20  and  S1_21 
ROOT
HETATM    1  C3  UNL     1      40.314  35.918  14.018  1.00  0.00     0.068 A 
HETATM    2  N1  UNL     1      40.574  36.397  15.215  1.00  0.00    -0.296 N 
ATOM      3  H1  UNL     1      40.095  37.262  15.468  1.00  0.00     0.187 HD
HETATM    4  N2  UNL     1      41.374  35.894  16.119  1.00  0.00    -0.282 N 
ATOM      5  H2  UNL     1      41.435  36.425  16.988  1.00  0.00     0.188 HD
HETATM    6  C4  UNL     1      42.117  34.798  16.075  1.00  0.00     0.156 A 
HETATM    7  C7  UNL     1      42.170  33.929  14.965  1.00  0.00     0.124 A 
HETATM    8  S3  UNL     1      41.151  34.476  13.677  1.00  0.00    -0.054 SA
ENDROOT
BRANCH   7   9
HETATM    9  N4  UNL     1      42.828  32.909  14.842  1.00  0.00    -0.317 N 
HETATM   10  C8  UNL     1      43.331  31.773  15.336  1.00  0.00     0.234 C 
HETATM   11  O2  UNL     1      43.665  31.591  16.525  1.00  0.00    -0.272 OA
ATOM     12  H4  UNL     1      43.163  32.937  13.878  1.00  0.00     0.169 HD
BRANCH  10  13
HETATM   13  C9  UNL     1      43.533  30.591  14.421  1.00  0.00     0.210 C 
BRANCH  13  14
HETATM   14  S1  UNL     1      42.055  29.644  14.219  1.00  0.00     0.013 S 
HETATM   15  C10 UNL     1      41.807  29.395  12.475  1.00  0.00     0.127 C 
HETATM   16  O3  UNL     1      40.919  30.377  14.843  1.00  0.00    -0.259 OA
HETATM   17  S2  UNL     1      42.205  28.096  14.932  1.00  0.00     0.008 SA
ENDBRANCH  13  14
ENDBRANCH  10  13
ENDBRANCH   7   9
BRANCH   6  18
HETATM   18  N3  UNL     1      42.842  34.478  17.081  1.00  0.00    -0.324 N 
ATOM     19  H3  UNL     1      42.495  33.655  17.573  1.00  0.00     0.169 HD
BRANCH  18  20
HETATM   20  C5  UNL     1      43.978  34.993  17.642  1.00  0.00     0.112 C 
HETATM   21  C6  UNL     1      45.383  34.936  17.174  1.00  0.00     0.097 C 
BRANCH  20  22
HETATM   22  O1  UNL     1      43.858  35.648  18.763  1.00  0.00    -0.350 OA
ATOM     23  H1  UNL     1      44.552  36.253  18.998  1.00  0.00     0.219 HD
ENDBRANCH  20  22
ENDBRANCH  18  20
ENDBRANCH   6  18
BRANCH   1  24
HETATM   24  C2  UNL     1      39.393  36.559  13.043  1.00  0.00     0.062 C 
HETATM   25  C1  UNL     1      37.976  36.110  13.399  1.00  0.00     0.012 C 
ENDBRANCH   1  24
TORSDOF 7
ENDMDL
MODEL 4
REMARK VINA RESULT: -6.697849261      1.830      2.483
REMARK  7 active torsions:
REMARK  status: ('A' for Active; 'I' for Inactive)
REMARK    1  A    between atoms: C2_2  and  C3_3 
REMARK    2  A    between atoms: C4_8  and  N3_9 
REMARK    3  A    between atoms: N3_9  and  C5_11 
REMARK    4  A    between atoms: C5_11  and  O1_13 
REMARK    5  A    between atoms: C7_15  and  N4_16 
REMARK       I    between atoms: N4_16  and  C8_18 
REMARK    6  A    between atoms: C8_18  and  C9_20 
REMARK    7  A    between atoms: C9_20  and  S1_21 
ROOT
HETATM    1  C3  UNL     1      40.010  36.056  14.105  1.00  0.00     0.068 A 
HETATM    2  N1  UNL     1      40.537  36.682  15.135  1.00  0.00    -0.296 N 
ATOM      3  H1  UNL     1      40.283  37.663  15.244  1.00  0.00     0.187 HD
HETATM    4  N2  UNL     1      41.348  36.191  16.036  1.00  0.00    -0.282 N 
ATOM      5  H2  UNL     1      41.644  36.849  16.757  1.00  0.00     0.188 HD
HETATM    6  C4  UNL     1      41.844  34.968  16.152  1.00  0.00     0.156 A 
HETATM    7  C7  UNL     1      41.555  33.915  15.258  1.00  0.00     0.124 A 
HETATM    8  S3  UNL     1      40.483  34.425  13.999  1.00  0.00    -0.054 SA
ENDROOT
BRANCH   7   9
HETATM    9  N4  UNL     1      41.972  32.769  15.290  1.00  0.00    -0.317 N 
HETATM   10  C8  UNL     1      41.812  31.459  15.077  1.00  0.00     0.234 C 
HETATM   11  O2  UNL     1      40.729  30.843  15.163  1.00  0.00    -0.272 OA
ATOM     12  H4  UNL     1      42.915  32.851  15.669  1.00  0.00     0.169 HD
BRANCH  10  13
HETATM   13  C9  UNL     1      43.006  30.617  14.704  1.00  0.00     0.210 C 
BRANCH  13  14
HETATM   14  S1  UNL     1      44.463  31.101  15.579  1.00  0.00     0.013 S 
HETATM   15  C10 UNL     1      45.432  29.636  15.866  1.00  0.00     0.127 C 
HETATM   16  O3  UNL     1      44.068  31.764  16.851  1.00  0.00    -0.259 OA
HETATM   17  S2  UNL     1      45.423  32.166  14.646  1.00  0.00     0.008 SA
ENDBRANCH  13  14
ENDBRANCH  10  13
ENDBRANCH   7   9
BRANCH   6  18
HETATM   18  N3  UNL     1      42.634  34.689  17.120  1.00  0.00    -0.324 N 
ATOM     19  H3  UNL     1      42.312  33.898  17.678  1.00  0.00     0.169 HD
BRANCH  18  20
HETATM   20  C5  UNL     1      43.813  35.214  17.573  1.00  0.00     0.112 C 
HETATM   21  C6  UNL     1      45.077  35.484  16.848  1.00  0.00     0.097 C 
BRANCH  20  22
HETATM   22  O1  UNL     1      43.886  35.548  18.831  1.00  0.00    -0.350 OA
ATOM     23  H1  UNL     1      43.679  36.445  19.064  1.00  0.00     0.219 HD
ENDBRANCH  20  22
ENDBRANCH  18  20
ENDBRANCH   6  18
BRANCH   1  24
HETATM   24  C2  UNL     1      39.098  36.692  13.118  1.00  0.00     0.062 C 
HETATM   25  C1  UNL     1      37.740  36.001  13.248  1.00  0.00     0.012 C 
ENDBRANCH   1  24
TORSDOF 7
ENDMDL
MODEL 5
REMARK VINA RESULT: -6.681009028      1.470      1.508
REMARK  7 active torsions:
REMARK  status: ('A' for Active; 'I' for Inactive)
REMARK    1  A    between atoms: C2_2  and  C3_3 
REMARK    2  A    between atoms: C4_8  and  N3_9 
REMARK    3  A    between atoms: N3_9  and  C5_11 
REMARK    4  A    between atoms: C5_11  and  O1_13 
REMARK    5  A    between atoms: C7_15  and  N4_16 
REMARK       I    between atoms: N4_16  and  C8_18 
REMARK    6  A    between atoms: C8_18  and  C9_20 
REMARK    7  A    between atoms: C9_20  and  S1_21 
ROOT
HETATM    1  C3  UNL     1      40.251  36.072  13.895  1.00  0.00     0.068 A 
HETATM    2  N1  UNL     1      40.549  36.411  15.131  1.00  0.00    -0.296 N 
ATOM      3  H1  UNL     1      39.967  37.134  15.553  1.00  0.00     0.187 HD
HETATM    4  N2  UNL     1      41.506  35.929  15.881  1.00  0.00    -0.282 N 
ATOM      5  H2  UNL     1      41.569  36.332  16.816  1.00  0.00     0.188 HD
HETATM    6  C4  UNL     1      42.406  34.996  15.608  1.00  0.00     0.156 A 
HETATM    7  C7  UNL     1      42.486  34.318  14.373  1.00  0.00     0.124 A 
HETATM    8  S3  UNL     1      41.268  34.861  13.269  1.00  0.00    -0.054 SA
ENDROOT
BRANCH   7   9
HETATM    9  N4  UNL     1      43.282  33.456  14.041  1.00  0.00    -0.317 N 
HETATM   10  C8  UNL     1      44.494  32.894  14.104  1.00  0.00     0.234 C 
HETATM   11  O2  UNL     1      45.563  33.510  14.291  1.00  0.00    -0.272 OA
ATOM     12  H4  UNL     1      42.764  32.868  13.388  1.00  0.00     0.169 HD
BRANCH  10  13
HETATM   13  C9  UNL     1      44.629  31.402  13.936  1.00  0.00     0.210 C 
BRANCH  13  14
HETATM   14  S1  UNL     1      43.741  30.507  15.174  1.00  0.00     0.013 S 
HETATM   15  C10 UNL     1      42.195  29.989  14.460  1.00  0.00     0.127 C 
HETATM   16  O3  UNL     1      43.540  31.386  16.358  1.00  0.00    -0.259 OA
HETATM   17  S2  UNL     1      44.579  29.091  15.640  1.00  0.00     0.008 SA
ENDBRANCH  13  14
ENDBRANCH  10  13
ENDBRANCH   7   9
BRANCH   6  18
HETATM   18  N3  UNL     1      43.270  34.664  16.493  1.00  0.00    -0.324 N 
ATOM     19  H3  UNL     1      43.418  33.656  16.544  1.00  0.00     0.169 HD
BRANCH  18  20
HETATM   20  C5  UNL     1      44.038  35.360  17.386  1.00  0.00     0.112 C 
HETATM   21  C6  UNL     1      45.415  35.890  17.249  1.00  0.00     0.097 C 
BRANCH  20  22
HETATM   22  O1  UNL     1      43.522  35.626  18.554  1.00  0.00    -0.350 OA
ATOM     23  H1  UNL     1      43.312  36.532  18.749  1.00  0.00     0.219 HD
ENDBRANCH  20  22
ENDBRANCH  18  20
ENDBRANCH   6  18
BRANCH   1  24
HETATM   24  C2  UNL     1      39.146  36.678  13.106  1.00  0.00     0.062 C 
HETATM   25  C1  UNL     1      37.864  35.933  13.480  1.00  0.00     0.012 C 
ENDBRANCH   1  24
TORSDOF 7
ENDMDL
