MODEL 1
REMARK VINA RESULT: -7.375768551      0.000      0.000
REMARK  3 active torsions:
REMARK  status: ('A' for Active; 'I' for Inactive)
REMARK    1  A    between atoms: C2_2  and  C3_4 
REMARK    2  A    between atoms: C3_4  and  C4_5 
REMARK    3  A    between atoms: N1_13  and  O2_15 
ROOT
HETATM    1  C4  UNL     1     -10.398  -6.863  -3.393  1.00  0.00    -0.027 C 
HETATM    2  C5  UNL     1     -11.732  -7.229  -4.070  1.00  0.00     0.016 C 
HETATM    3  C6  UNL     1     -10.598  -5.600  -2.684  1.00  0.00    -0.001 C 
HETATM    4  C7  UNL     1      -9.446  -4.622  -2.622  1.00  0.00     0.007 C 
HETATM    5  C8  UNL     1      -9.831  -3.308  -2.029  1.00  0.00     0.016 C 
HETATM    6  C9  UNL     1     -10.769  -3.326  -0.878  1.00  0.00     0.001 C 
HETATM    7  C10 UNL     1     -10.015  -3.272   0.439  1.00  0.00     0.022 C 
HETATM    8  C11 UNL     1     -11.727  -2.188  -0.883  1.00  0.00     0.018 C 
HETATM    9  N1  UNL     1     -11.702  -1.074  -0.241  1.00  0.00    -0.277 N 
ATOM     10  H1  UNL     1     -10.924  -0.882   0.390  1.00  0.00     0.193 HD
HETATM   11  C12 UNL     1     -12.802  -2.587  -1.824  1.00  0.00     0.056 C 
HETATM   12  C13 UNL     1     -12.976  -4.069  -1.509  1.00  0.00     0.012 C 
HETATM   13  C14 UNL     1     -11.742  -4.463  -0.812  1.00  0.00     0.004 C 
HETATM   14  C15 UNL     1     -11.053  -5.710  -1.236  1.00  0.00    -0.005 C 
HETATM   15  C16 UNL     1     -11.923  -6.879  -0.959  1.00  0.00     0.006 C 
HETATM   16  C17 UNL     1     -11.337  -8.162  -1.427  1.00  0.00     0.010 C 
HETATM   17  C18 UNL     1     -10.218  -8.063  -2.415  1.00  0.00    -0.040 C 
HETATM   18  C19 UNL     1      -8.914  -8.026  -1.689  1.00  0.00     0.015 C 
HETATM   19  C20 UNL     1     -10.231  -9.375  -3.170  1.00  0.00     0.015 C 
ENDROOT
BRANCH   1  20
HETATM   20  C3  UNL     1      -9.345  -6.983  -4.419  1.00  0.00     0.088 C 
BRANCH  20  21
HETATM   21  C2  UNL     1      -9.647  -6.684  -5.815  1.00  0.00     0.123 C 
HETATM   22  C1  UNL     1      -9.860  -7.628  -6.918  1.00  0.00     0.091 C 
HETATM   23  O1  UNL     1      -9.736  -5.479  -6.118  1.00  0.00    -0.298 OA
ENDBRANCH  20  21
ENDBRANCH   1  20
BRANCH   9  24
HETATM   24  O2  UNL     1     -12.695  -0.137  -0.382  1.00  0.00    -0.290 OA
ATOM     25  H2  UNL     1     -12.501   0.792  -0.439  1.00  0.00     0.244 HD
ENDBRANCH   9  24
TORSDOF 3
ENDMDL
MODEL 2
REMARK VINA RESULT: -7.035411429      1.901      3.566
REMARK  3 active torsions:
REMARK  status: ('A' for Active; 'I' for Inactive)
REMARK    1  A    between atoms: C2_2  and  C3_4 
REMARK    2  A    between atoms: C3_4  and  C4_5 
REMARK    3  A    between atoms: N1_13  and  O2_15 
ROOT
HETATM    1  C4  UNL     1     -10.806  -6.321  -2.798  1.00  0.00    -0.027 C 
HETATM    2  C5  UNL     1      -9.539  -6.610  -1.970  1.00  0.00     0.016 C 
HETATM    3  C6  UNL     1     -11.321  -5.021  -2.371  1.00  0.00    -0.001 C 
HETATM    4  C7  UNL     1     -12.820  -4.816  -2.345  1.00  0.00     0.007 C 
HETATM    5  C8  UNL     1     -13.219  -3.518  -1.727  1.00  0.00     0.016 C 
HETATM    6  C9  UNL     1     -12.376  -2.332  -2.024  1.00  0.00     0.001 C 
HETATM    7  C10 UNL     1     -12.954  -1.529  -3.176  1.00  0.00     0.022 C 
HETATM    8  C11 UNL     1     -12.236  -1.406  -0.868  1.00  0.00     0.018 C 
HETATM    9  N1  UNL     1     -12.855  -0.312  -0.597  1.00  0.00    -0.277 N 
ATOM     10  H1  UNL     1     -13.569   0.028  -1.242  1.00  0.00     0.193 HD
HETATM   11  C12 UNL     1     -11.177  -2.002  -0.018  1.00  0.00     0.056 C 
HETATM   12  C13 UNL     1     -10.176  -2.506  -1.050  1.00  0.00     0.012 C 
HETATM   13  C14 UNL     1     -10.927  -2.582  -2.313  1.00  0.00     0.004 C 
HETATM   14  C15 UNL     1     -10.807  -3.813  -3.139  1.00  0.00    -0.005 C 
HETATM   15  C16 UNL     1      -9.414  -3.950  -3.628  1.00  0.00     0.006 C 
HETATM   16  C17 UNL     1      -9.191  -5.200  -4.400  1.00  0.00     0.010 C 
HETATM   17  C18 UNL     1     -10.219  -6.274  -4.240  1.00  0.00    -0.040 C 
HETATM   18  C19 UNL     1     -11.272  -6.117  -5.287  1.00  0.00     0.015 C 
HETATM   19  C20 UNL     1      -9.503  -7.568  -4.568  1.00  0.00     0.015 C 
ENDROOT
BRANCH   1  20
HETATM   20  C3  UNL     1     -11.658  -7.523  -2.718  1.00  0.00     0.088 C 
BRANCH  20  21
HETATM   21  C2  UNL     1     -11.719  -8.295  -1.481  1.00  0.00     0.123 C 
HETATM   22  C1  UNL     1     -11.385  -9.709  -1.279  1.00  0.00     0.091 C 
HETATM   23  O1  UNL     1     -12.104  -7.686  -0.465  1.00  0.00    -0.298 OA
ENDBRANCH  20  21
ENDBRANCH   1  20
BRANCH   9  24
HETATM   24  O2  UNL     1     -12.580   0.411   0.536  1.00  0.00    -0.290 OA
ATOM     25  H2  UNL     1     -11.995   0.083   1.209  1.00  0.00     0.244 HD
ENDBRANCH   9  24
TORSDOF 3
ENDMDL
MODEL 3
REMARK VINA RESULT: -6.345947035      2.785      6.047
REMARK  3 active torsions:
REMARK  status: ('A' for Active; 'I' for Inactive)
REMARK    1  A    between atoms: C2_2  and  C3_4 
REMARK    2  A    between atoms: C3_4  and  C4_5 
REMARK    3  A    between atoms: N1_13  and  O2_15 
ROOT
HETATM    1  C4  UNL     1     -11.308  -4.312  -2.005  1.00  0.00    -0.027 C 
HETATM    2  C5  UNL     1     -10.706  -2.961  -2.435  1.00  0.00     0.016 C 
HETATM    3  C6  UNL     1     -11.010  -5.280  -3.059  1.00  0.00    -0.001 C 
HETATM    4  C7  UNL     1     -12.034  -6.353  -3.359  1.00  0.00     0.007 C 
HETATM    5  C8  UNL     1     -11.691  -7.162  -4.565  1.00  0.00     0.016 C 
HETATM    6  C9  UNL     1     -10.262  -7.511  -4.771  1.00  0.00     0.001 C 
HETATM    7  C10 UNL     1      -9.954  -8.892  -4.222  1.00  0.00     0.022 C 
HETATM    8  C11 UNL     1      -9.857  -7.506  -6.203  1.00  0.00     0.018 C 
HETATM    9  N1  UNL     1      -9.727  -8.477  -7.036  1.00  0.00    -0.277 N 
ATOM     10  H1  UNL     1      -9.919  -9.429  -6.723  1.00  0.00     0.193 HD
HETATM   11  C12 UNL     1      -9.605  -6.082  -6.532  1.00  0.00     0.056 C 
HETATM   12  C13 UNL     1      -8.913  -5.574  -5.272  1.00  0.00     0.012 C 
HETATM   13  C14 UNL     1      -9.244  -6.556  -4.227  1.00  0.00     0.004 C 
HETATM   14  C15 UNL     1      -9.711  -6.057  -2.906  1.00  0.00    -0.005 C 
HETATM   15  C16 UNL     1      -8.621  -5.297  -2.247  1.00  0.00     0.006 C 
HETATM   16  C17 UNL     1      -9.033  -4.697  -0.952  1.00  0.00     0.010 C 
HETATM   17  C18 UNL     1     -10.505  -4.598  -0.701  1.00  0.00    -0.040 C 
HETATM   18  C19 UNL     1     -10.973  -5.825   0.009  1.00  0.00     0.015 C 
HETATM   19  C20 UNL     1     -10.669  -3.463   0.288  1.00  0.00     0.015 C 
ENDROOT
BRANCH   1  20
HETATM   20  C3  UNL     1     -12.704  -4.055  -1.603  1.00  0.00     0.088 C 
BRANCH  20  21
HETATM   21  C2  UNL     1     -13.522  -3.113  -2.361  1.00  0.00     0.123 C 
HETATM   22  C1  UNL     1     -13.763  -1.694  -2.080  1.00  0.00     0.091 C 
HETATM   23  O1  UNL     1     -14.091  -3.563  -3.374  1.00  0.00    -0.298 OA
ENDBRANCH  20  21
ENDBRANCH   1  20
BRANCH   9  24
HETATM   24  O2  UNL     1      -9.337  -8.267  -8.335  1.00  0.00    -0.290 OA
ATOM     25  H2  UNL     1      -9.608  -8.847  -9.037  1.00  0.00     0.244 HD
ENDBRANCH   9  24
TORSDOF 3
ENDMDL
MODEL 4
REMARK VINA RESULT: -6.198734515      2.621      6.004
REMARK  3 active torsions:
REMARK  status: ('A' for Active; 'I' for Inactive)
REMARK    1  A    between atoms: C2_2  and  C3_4 
REMARK    2  A    between atoms: C3_4  and  C4_5 
REMARK    3  A    between atoms: N1_13  and  O2_15 
ROOT
HETATM    1  C4  UNL     1     -11.223  -4.672  -2.098  1.00  0.00    -0.027 C 
HETATM    2  C5  UNL     1     -10.138  -3.583  -2.190  1.00  0.00     0.016 C 
HETATM    3  C6  UNL     1     -11.239  -5.384  -3.375  1.00  0.00    -0.001 C 
HETATM    4  C7  UNL     1     -12.566  -5.884  -3.902  1.00  0.00     0.007 C 
HETATM    5  C8  UNL     1     -12.473  -6.434  -5.286  1.00  0.00     0.016 C 
HETATM    6  C9  UNL     1     -11.264  -7.227  -5.627  1.00  0.00     0.001 C 
HETATM    7  C10 UNL     1     -11.525  -8.713  -5.461  1.00  0.00     0.022 C 
HETATM    8  C11 UNL     1     -10.797  -7.016  -7.024  1.00  0.00     0.018 C 
HETATM    9  N1  UNL     1     -10.984  -7.723  -8.081  1.00  0.00    -0.277 N 
ATOM     10  H1  UNL     1     -11.534  -8.579  -8.015  1.00  0.00     0.193 HD
HETATM   11  C12 UNL     1     -10.016  -5.755  -6.986  1.00  0.00     0.056 C 
HETATM   12  C13 UNL     1      -9.265  -5.877  -5.665  1.00  0.00     0.012 C 
HETATM   13  C14 UNL     1     -10.002  -6.891  -4.894  1.00  0.00     0.004 C 
HETATM   14  C15 UNL     1     -10.332  -6.603  -3.473  1.00  0.00    -0.005 C 
HETATM   15  C16 UNL     1      -9.082  -6.496  -2.682  1.00  0.00     0.006 C 
HETATM   16  C17 UNL     1      -9.324  -6.131  -1.263  1.00  0.00     0.010 C 
HETATM   17  C18 UNL     1     -10.666  -5.555  -0.942  1.00  0.00    -0.040 C 
HETATM   18  C19 UNL     1     -11.599  -6.654  -0.552  1.00  0.00     0.015 C 
HETATM   19  C20 UNL     1     -10.460  -4.728   0.310  1.00  0.00     0.015 C 
ENDROOT
BRANCH   1  20
HETATM   20  C3  UNL     1     -12.447  -4.022  -1.593  1.00  0.00     0.088 C 
BRANCH  20  21
HETATM   21  C2  UNL     1     -12.748  -2.643  -1.964  1.00  0.00     0.123 C 
HETATM   22  C1  UNL     1     -13.245  -2.138  -3.248  1.00  0.00     0.091 C 
HETATM   23  O1  UNL     1     -12.561  -1.779  -1.085  1.00  0.00    -0.298 OA
ENDBRANCH  20  21
ENDBRANCH   1  20
BRANCH   9  24
HETATM   24  O2  UNL     1     -10.464  -7.356  -9.297  1.00  0.00    -0.290 OA
ATOM     25  H2  UNL     1     -10.724  -6.551  -9.729  1.00  0.00     0.244 HD
ENDBRANCH   9  24
TORSDOF 3
ENDMDL
MODEL 5
REMARK VINA RESULT: -6.174486450      1.863      3.520
REMARK  3 active torsions:
REMARK  status: ('A' for Active; 'I' for Inactive)
REMARK    1  A    between atoms: C2_2  and  C3_4 
REMARK    2  A    between atoms: C3_4  and  C4_5 
REMARK    3  A    between atoms: N1_13  and  O2_15 
ROOT
HETATM    1  C4  UNL     1     -10.887  -6.798  -3.405  1.00  0.00    -0.027 C 
HETATM    2  C5  UNL     1      -9.493  -7.412  -3.177  1.00  0.00     0.016 C 
HETATM    3  C6  UNL     1     -10.996  -5.624  -2.541  1.00  0.00    -0.001 C 
HETATM    4  C7  UNL     1     -12.343  -5.303  -1.931  1.00  0.00     0.007 C 
HETATM    5  C8  UNL     1     -12.281  -4.193  -0.937  1.00  0.00     0.016 C 
HETATM    6  C9  UNL     1     -11.385  -3.049  -1.243  1.00  0.00     0.001 C 
HETATM    7  C10 UNL     1     -12.154  -1.915  -1.897  1.00  0.00     0.022 C 
HETATM    8  C11 UNL     1     -10.714  -2.489  -0.039  1.00  0.00     0.018 C 
HETATM    9  N1  UNL     1     -11.006  -1.460   0.675  1.00  0.00    -0.277 N 
ATOM     10  H1  UNL     1     -11.819  -0.897   0.425  1.00  0.00     0.193 HD
HETATM   11  C12 UNL     1      -9.560  -3.385   0.215  1.00  0.00     0.056 C 
HETATM   12  C13 UNL     1      -9.055  -3.675  -1.194  1.00  0.00     0.012 C 
HETATM   13  C14 UNL     1     -10.178  -3.337  -2.083  1.00  0.00     0.004 C 
HETATM   14  C15 UNL     1     -10.554  -4.302  -3.150  1.00  0.00    -0.005 C 
HETATM   15  C16 UNL     1      -9.444  -4.422  -4.127  1.00  0.00     0.006 C 
HETATM   16  C17 UNL     1      -9.711  -5.429  -5.186  1.00  0.00     0.010 C 
HETATM   17  C18 UNL     1     -10.804  -6.412  -4.912  1.00  0.00    -0.040 C 
HETATM   18  C19 UNL     1     -12.095  -5.884  -5.445  1.00  0.00     0.015 C 
HETATM   19  C20 UNL     1     -10.476  -7.625  -5.757  1.00  0.00     0.015 C 
ENDROOT
BRANCH   1  20
HETATM   20  C3  UNL     1     -11.866  -7.896  -3.295  1.00  0.00     0.088 C 
BRANCH  20  21
HETATM   21  C2  UNL     1     -11.654  -8.972  -2.331  1.00  0.00     0.123 C 
HETATM   22  C1  UNL     1     -11.225 -10.350  -2.592  1.00  0.00     0.091 C 
HETATM   23  O1  UNL     1     -11.863  -8.693  -1.134  1.00  0.00    -0.298 OA
ENDBRANCH  20  21
ENDBRANCH   1  20
BRANCH   9  24
HETATM   24  O2  UNL     1     -10.253  -1.100   1.764  1.00  0.00    -0.290 OA
ATOM     25  H2  UNL     1     -10.641  -0.680   2.523  1.00  0.00     0.244 HD
ENDBRANCH   9  24
TORSDOF 3
ENDMDL
