MODEL 1
REMARK VINA RESULT: -7.690233429      0.000      0.000
REMARK  5 active torsions:
REMARK  status: ('A' for Active; 'I' for Inactive)
REMARK    1  A    between atoms: C2_2  and  C3_3 
REMARK    2  A    between atoms: C3_3  and  O1_4 
REMARK    3  A    between atoms: O1_4  and  C4_5 
REMARK    4  A    between atoms: C14_15  and  O2_16 
REMARK    5  A    between atoms: C19_22  and  O3_24 
ROOT
HETATM    1  C4  UNL     1      -8.532  -4.423  -0.368  1.00  0.00     0.156 C 
HETATM    2  C5  UNL     1      -9.764  -4.176   0.523  1.00  0.00     0.036 C 
HETATM    3  C6  UNL     1     -10.683  -3.297  -0.297  1.00  0.00     0.013 C 
HETATM    4  C7  UNL     1     -11.156  -4.089  -1.482  1.00  0.00    -0.030 C 
HETATM    5  C8  UNL     1     -12.145  -5.112  -0.990  1.00  0.00     0.016 C 
HETATM    6  C9  UNL     1     -11.920  -3.191  -2.467  1.00  0.00     0.026 C 
HETATM    7  C10 UNL     1     -12.911  -2.373  -1.686  1.00  0.00     0.014 C 
HETATM    8  C11 UNL     1     -13.934  -1.703  -2.547  1.00  0.00     0.037 C 
HETATM    9  C12 UNL     1     -14.185  -2.377  -3.828  1.00  0.00    -0.057 C 
HETATM   10  C13 UNL     1     -14.711  -1.670  -4.821  1.00  0.00     0.017 C 
HETATM   11  C14 UNL     1     -13.882  -3.811  -4.067  1.00  0.00     0.175 C 
HETATM   12  C15 UNL     1     -12.559  -4.100  -3.446  1.00  0.00    -0.046 C 
HETATM   13  C16 UNL     1     -11.942  -5.216  -3.792  1.00  0.00    -0.020 C 
HETATM   14  C17 UNL     1     -10.623  -5.651  -3.266  1.00  0.00     0.036 C 
HETATM   15  C18 UNL     1     -10.030  -4.695  -2.288  1.00  0.00     0.034 C 
HETATM   16  C19 UNL     1      -9.000  -5.369  -1.412  1.00  0.00     0.085 C 
HETATM   17  C20 UNL     1      -7.863  -5.844  -2.274  1.00  0.00     0.049 C 
ENDROOT
BRANCH   1  18
HETATM   18  O1  UNL     1      -7.457  -4.818   0.376  1.00  0.00    -0.379 OA
BRANCH  18  19
HETATM   19  C3  UNL     1      -6.492  -3.865   0.550  1.00  0.00     0.195 C 
BRANCH  19  20
HETATM   20  C2  UNL     1      -5.128  -4.223   0.144  1.00  0.00    -0.011 C 
HETATM   21  C1  UNL     1      -4.756  -4.124  -1.114  1.00  0.00     0.009 C 
ENDBRANCH  19  20
ENDBRANCH  18  19
ENDBRANCH   1  18
BRANCH  16  22
HETATM   22  O3  UNL     1      -9.536  -6.536  -0.822  1.00  0.00    -0.387 OA
ATOM     23  H3  UNL     1     -10.471  -6.441  -0.681  1.00  0.00     0.210 HD
ENDBRANCH  16  22
BRANCH  11  24
HETATM   24  O2  UNL     1     -13.840  -4.055  -5.421  1.00  0.00    -0.387 OA
ATOM     25  H2  UNL     1     -13.271  -4.795  -5.593  1.00  0.00     0.210 HD
ENDBRANCH  11  24
TORSDOF 5
ENDMDL
MODEL 2
REMARK VINA RESULT: -7.127611452      2.270      3.219
REMARK  5 active torsions:
REMARK  status: ('A' for Active; 'I' for Inactive)
REMARK    1  A    between atoms: C2_2  and  C3_3 
REMARK    2  A    between atoms: C3_3  and  O1_4 
REMARK    3  A    between atoms: O1_4  and  C4_5 
REMARK    4  A    between atoms: C14_15  and  O2_16 
REMARK    5  A    between atoms: C19_22  and  O3_24 
ROOT
HETATM    1  C4  UNL     1     -10.598  -2.209  -1.044  1.00  0.00     0.156 C 
HETATM    2  C5  UNL     1     -12.028  -2.176  -0.470  1.00  0.00     0.036 C 
HETATM    3  C6  UNL     1     -12.922  -1.821  -1.638  1.00  0.00     0.013 C 
HETATM    4  C7  UNL     1     -12.876  -2.952  -2.624  1.00  0.00    -0.030 C 
HETATM    5  C8  UNL     1     -13.651  -4.105  -2.043  1.00  0.00     0.016 C 
HETATM    6  C9  UNL     1     -13.590  -2.568  -3.929  1.00  0.00     0.026 C 
HETATM    7  C10 UNL     1     -14.917  -1.953  -3.574  1.00  0.00     0.014 C 
HETATM    8  C11 UNL     1     -15.844  -1.834  -4.742  1.00  0.00     0.037 C 
HETATM    9  C12 UNL     1     -15.598  -2.807  -5.815  1.00  0.00    -0.057 C 
HETATM   10  C13 UNL     1     -16.039  -2.526  -7.035  1.00  0.00     0.017 C 
HETATM   11  C14 UNL     1     -14.884  -4.092  -5.601  1.00  0.00     0.175 C 
HETATM   12  C15 UNL     1     -13.719  -3.815  -4.715  1.00  0.00    -0.046 C 
HETATM   13  C16 UNL     1     -12.768  -4.731  -4.637  1.00  0.00    -0.020 C 
HETATM   14  C17 UNL     1     -11.546  -4.611  -3.803  1.00  0.00     0.036 C 
HETATM   15  C18 UNL     1     -11.472  -3.334  -3.037  1.00  0.00     0.034 C 
HETATM   16  C19 UNL     1     -10.541  -3.452  -1.853  1.00  0.00     0.085 C 
HETATM   17  C20 UNL     1      -9.149  -3.720  -2.354  1.00  0.00     0.049 C 
ENDROOT
BRANCH   1  18
HETATM   18  O1  UNL     1      -9.667  -2.082  -0.053  1.00  0.00    -0.379 OA
BRANCH  18  19
HETATM   19  C3  UNL     1     -10.177  -1.865   1.197  1.00  0.00     0.195 C 
BRANCH  19  20
HETATM   20  C2  UNL     1      -9.753  -0.637   1.879  1.00  0.00    -0.011 C 
HETATM   21  C1  UNL     1     -10.415   0.488   1.708  1.00  0.00     0.009 C 
ENDBRANCH  19  20
ENDBRANCH  18  19
ENDBRANCH   1  18
BRANCH  16  22
HETATM   22  O3  UNL     1     -10.880  -4.575  -1.065  1.00  0.00    -0.387 OA
ATOM     23  H3  UNL     1     -10.473  -5.362  -1.411  1.00  0.00     0.210 HD
ENDBRANCH  16  22
BRANCH  11  24
HETATM   24  O2  UNL     1     -14.460  -4.591  -6.811  1.00  0.00    -0.387 OA
ATOM     25  H2  UNL     1     -15.211  -4.853  -7.329  1.00  0.00     0.210 HD
ENDBRANCH  11  24
TORSDOF 5
ENDMDL
MODEL 3
REMARK VINA RESULT: -7.119082305      1.247      1.643
REMARK  5 active torsions:
REMARK  status: ('A' for Active; 'I' for Inactive)
REMARK    1  A    between atoms: C2_2  and  C3_3 
REMARK    2  A    between atoms: C3_3  and  O1_4 
REMARK    3  A    between atoms: O1_4  and  C4_5 
REMARK    4  A    between atoms: C14_15  and  O2_16 
REMARK    5  A    between atoms: C19_22  and  O3_24 
ROOT
HETATM    1  C4  UNL     1      -7.113  -4.596  -1.034  1.00  0.00     0.156 C 
HETATM    2  C5  UNL     1      -7.881  -4.247   0.256  1.00  0.00     0.036 C 
HETATM    3  C6  UNL     1      -8.984  -3.306  -0.175  1.00  0.00     0.013 C 
HETATM    4  C7  UNL     1      -9.934  -4.068  -1.053  1.00  0.00    -0.030 C 
HETATM    5  C8  UNL     1     -10.721  -5.008  -0.178  1.00  0.00     0.016 C 
HETATM    6  C9  UNL     1     -10.959  -3.122  -1.697  1.00  0.00     0.026 C 
HETATM    7  C10 UNL     1     -11.509  -2.223  -0.623  1.00  0.00     0.014 C 
HETATM    8  C11 UNL     1     -12.739  -1.483  -1.044  1.00  0.00     0.037 C 
HETATM    9  C12 UNL     1     -13.514  -2.145  -2.101  1.00  0.00    -0.057 C 
HETATM   10  C13 UNL     1     -14.337  -1.407  -2.837  1.00  0.00     0.017 C 
HETATM   11  C14 UNL     1     -13.428  -3.600  -2.385  1.00  0.00     0.175 C 
HETATM   12  C15 UNL     1     -11.990  -3.985  -2.316  1.00  0.00    -0.046 C 
HETATM   13  C16 UNL     1     -11.634  -5.149  -2.833  1.00  0.00    -0.020 C 
HETATM   14  C17 UNL     1     -10.248  -5.680  -2.845  1.00  0.00     0.036 C 
HETATM   15  C18 UNL     1      -9.256  -4.766  -2.210  1.00  0.00     0.034 C 
HETATM   16  C19 UNL     1      -8.015  -5.511  -1.778  1.00  0.00     0.085 C 
HETATM   17  C20 UNL     1      -7.340  -6.079  -2.996  1.00  0.00     0.049 C 
ENDROOT
BRANCH   1  18
HETATM   18  O1  UNL     1      -5.863  -5.067  -0.751  1.00  0.00    -0.379 OA
BRANCH  18  19
HETATM   19  C3  UNL     1      -4.857  -4.149  -0.874  1.00  0.00     0.195 C 
BRANCH  19  20
HETATM   20  C2  UNL     1      -3.975  -4.286  -2.039  1.00  0.00    -0.011 C 
HETATM   21  C1  UNL     1      -4.170  -3.556  -3.117  1.00  0.00     0.009 C 
ENDBRANCH  19  20
ENDBRANCH  18  19
ENDBRANCH   1  18
BRANCH  16  22
HETATM   22  O3  UNL     1      -8.357  -6.628  -0.983  1.00  0.00    -0.387 OA
ATOM     23  H3  UNL     1      -9.140  -7.049  -1.317  1.00  0.00     0.210 HD
ENDBRANCH  16  22
BRANCH  11  24
HETATM   24  O2  UNL     1     -13.934  -3.857  -3.639  1.00  0.00    -0.387 OA
ATOM     25  H2  UNL     1     -14.031  -4.794  -3.757  1.00  0.00     0.210 HD
ENDBRANCH  11  24
TORSDOF 5
ENDMDL
MODEL 4
REMARK VINA RESULT: -7.103659656      3.178      5.377
REMARK  5 active torsions:
REMARK  status: ('A' for Active; 'I' for Inactive)
REMARK    1  A    between atoms: C2_2  and  C3_3 
REMARK    2  A    between atoms: C3_3  and  O1_4 
REMARK    3  A    between atoms: O1_4  and  C4_5 
REMARK    4  A    between atoms: C14_15  and  O2_16 
REMARK    5  A    between atoms: C19_22  and  O3_24 
ROOT
HETATM    1  C4  UNL     1     -12.564  -1.705  -0.858  1.00  0.00     0.156 C 
HETATM    2  C5  UNL     1     -11.094  -2.161  -0.790  1.00  0.00     0.036 C 
HETATM    3  C6  UNL     1     -11.143  -3.673  -0.759  1.00  0.00     0.013 C 
HETATM    4  C7  UNL     1     -11.687  -4.152  -2.074  1.00  0.00    -0.030 C 
HETATM    5  C8  UNL     1     -10.621  -3.948  -3.118  1.00  0.00     0.016 C 
HETATM    6  C9  UNL     1     -11.964  -5.662  -2.032  1.00  0.00     0.026 C 
HETATM    7  C10 UNL     1     -10.760  -6.344  -1.440  1.00  0.00     0.014 C 
HETATM    8  C11 UNL     1     -10.764  -7.827  -1.640  1.00  0.00     0.037 C 
HETATM    9  C12 UNL     1     -11.531  -8.281  -2.807  1.00  0.00    -0.057 C 
HETATM   10  C13 UNL     1     -11.961  -9.537  -2.830  1.00  0.00     0.017 C 
HETATM   11  C14 UNL     1     -11.846  -7.407  -3.965  1.00  0.00     0.175 C 
HETATM   12  C15 UNL     1     -12.238  -6.073  -3.427  1.00  0.00    -0.046 C 
HETATM   13  C16 UNL     1     -12.854  -5.233  -4.241  1.00  0.00    -0.020 C 
HETATM   14  C17 UNL     1     -13.309  -3.871  -3.863  1.00  0.00     0.036 C 
HETATM   15  C18 UNL     1     -13.007  -3.516  -2.447  1.00  0.00     0.034 C 
HETATM   16  C19 UNL     1     -12.997  -2.019  -2.242  1.00  0.00     0.085 C 
HETATM   17  C20 UNL     1     -14.373  -1.481  -2.524  1.00  0.00     0.049 C 
ENDROOT
BRANCH   1  18
HETATM   18  O1  UNL     1     -12.695  -0.405  -0.457  1.00  0.00    -0.379 OA
BRANCH  18  19
HETATM   19  C3  UNL     1     -11.589   0.130   0.143  1.00  0.00     0.195 C 
BRANCH  19  20
HETATM   20  C2  UNL     1     -11.819   0.971   1.323  1.00  0.00    -0.011 C 
HETATM   21  C1  UNL     1     -10.924   1.861   1.696  1.00  0.00     0.009 C 
ENDBRANCH  19  20
ENDBRANCH  18  19
ENDBRANCH   1  18
BRANCH  16  22
HETATM   22  O3  UNL     1     -12.149  -1.395  -3.184  1.00  0.00    -0.387 OA
ATOM     23  H3  UNL     1     -11.733  -2.042  -3.742  1.00  0.00     0.210 HD
ENDBRANCH  16  22
BRANCH  11  24
HETATM   24  O2  UNL     1     -12.879  -7.954  -4.690  1.00  0.00    -0.387 OA
ATOM     25  H2  UNL     1     -12.700  -7.864  -5.618  1.00  0.00     0.210 HD
ENDBRANCH  11  24
TORSDOF 5
ENDMDL
MODEL 5
REMARK VINA RESULT: -6.985972365      2.306      3.539
REMARK  5 active torsions:
REMARK  status: ('A' for Active; 'I' for Inactive)
REMARK    1  A    between atoms: C2_2  and  C3_3 
REMARK    2  A    between atoms: C3_3  and  O1_4 
REMARK    3  A    between atoms: O1_4  and  C4_5 
REMARK    4  A    between atoms: C14_15  and  O2_16 
REMARK    5  A    between atoms: C19_22  and  O3_24 
ROOT
HETATM    1  C4  UNL     1      -9.787  -2.583  -0.143  1.00  0.00     0.156 C 
HETATM    2  C5  UNL     1     -11.326  -2.525  -0.195  1.00  0.00     0.036 C 
HETATM    3  C6  UNL     1     -11.694  -2.899  -1.614  1.00  0.00     0.013 C 
HETATM    4  C7  UNL     1     -11.307  -4.332  -1.837  1.00  0.00    -0.030 C 
HETATM    5  C8  UNL     1     -12.277  -5.198  -1.079  1.00  0.00     0.016 C 
HETATM    6  C9  UNL     1     -11.457  -4.713  -3.318  1.00  0.00     0.026 C 
HETATM    7  C10 UNL     1     -12.800  -4.231  -3.793  1.00  0.00     0.014 C 
HETATM    8  C11 UNL     1     -13.206  -4.816  -5.109  1.00  0.00     0.037 C 
HETATM    9  C12 UNL     1     -12.596  -6.118  -5.409  1.00  0.00    -0.057 C 
HETATM   10  C13 UNL     1     -12.528  -6.506  -6.677  1.00  0.00     0.017 C 
HETATM   11  C14 UNL     1     -12.054  -7.024  -4.365  1.00  0.00     0.175 C 
HETATM   12  C15 UNL     1     -11.309  -6.184  -3.385  1.00  0.00    -0.046 C 
HETATM   13  C16 UNL     1     -10.487  -6.792  -2.547  1.00  0.00    -0.020 C 
HETATM   14  C17 UNL     1      -9.674  -6.103  -1.513  1.00  0.00     0.036 C 
HETATM   15  C18 UNL     1      -9.863  -4.625  -1.496  1.00  0.00     0.034 C 
HETATM   16  C19 UNL     1      -9.460  -4.031  -0.167  1.00  0.00     0.085 C 
HETATM   17  C20 UNL     1      -7.989  -4.266   0.045  1.00  0.00     0.049 C 
ENDROOT
BRANCH   1  18
HETATM   18  O1  UNL     1      -9.302  -1.864   0.912  1.00  0.00    -0.379 OA
BRANCH  18  19
HETATM   19  C3  UNL     1     -10.218  -1.064   1.537  1.00  0.00     0.195 C 
BRANCH  19  20
HETATM   20  C2  UNL     1      -9.688   0.015   2.378  1.00  0.00    -0.011 C 
HETATM   21  C1  UNL     1      -8.437  -0.004   2.784  1.00  0.00     0.009 C 
ENDBRANCH  19  20
ENDBRANCH  18  19
ENDBRANCH   1  18
BRANCH  16  22
HETATM   22  O3  UNL     1     -10.105  -4.705   0.895  1.00  0.00    -0.387 OA
ATOM     23  H3  UNL     1     -10.276  -4.109   1.615  1.00  0.00     0.210 HD
ENDBRANCH  16  22
BRANCH  11  24
HETATM   24  O2  UNL     1     -11.214  -7.946  -4.944  1.00  0.00    -0.387 OA
ATOM     25  H2  UNL     1     -11.722  -8.564  -5.455  1.00  0.00     0.210 HD
ENDBRANCH  11  24
TORSDOF 5
ENDMDL
