MODEL 1
REMARK VINA RESULT: -6.569212236      0.000      0.000
REMARK  15 active torsions:
REMARK  status: ('A' for Active; 'I' for Inactive)
REMARK    1  A    between atoms: C2_2  and  C4_4 
REMARK    2  A    between atoms: C4_4  and  N1_5 
REMARK    3  A    between atoms: C4_4  and  C13_23 
REMARK    4  A    between atoms: N1_5  and  C5_7 
REMARK    5  A    between atoms: C5_7  and  C6_8 
REMARK    6  A    between atoms: C5_7  and  C7_10 
REMARK    7  A    between atoms: C7_10  and  C8_11 
REMARK    8  A    between atoms: C7_10  and  N4_19 
REMARK    9  A    between atoms: C8_11  and  C9_12 
REMARK   10  A    between atoms: N4_19  and  C12_21 
REMARK   11  A    between atoms: C13_23  and  C14_24 
REMARK   12  A    between atoms: C13_23  and  C15_26 
REMARK   13  A    between atoms: C15_26  and  C16_27 
REMARK   14  A    between atoms: C16_27  and  C17_28 
REMARK   15  A    between atoms: C17_28  and  N5_29 
ROOT
HETATM    1  N1  UNL     1     -34.092   7.268 -31.309  1.00  0.00    -0.404 N 
ATOM      2  H1  UNL     1     -33.444   6.723 -30.741  1.00  0.00     0.154 HD
ENDROOT
BRANCH   1   3
HETATM    3  C4  UNL     1     -35.260   6.651 -31.698  1.00  0.00     0.091 C 
BRANCH   3   4
HETATM    4  C2  UNL     1     -36.040   6.189 -30.453  1.00  0.00     0.001 C 
HETATM    5  C1  UNL     1     -37.268   7.083 -30.227  1.00  0.00     0.011 C 
HETATM    6  C3  UNL     1     -35.225   6.330 -29.190  1.00  0.00     0.011 C 
ENDBRANCH   3   4
BRANCH   3   7
HETATM    7  C13 UNL     1     -35.286   5.607 -32.742  1.00  0.00     0.070 C 
BRANCH   7   8
HETATM    8  C14 UNL     1     -34.005   5.311 -33.409  1.00  0.00     0.237 C 
HETATM    9  O3  UNL     1     -33.488   6.056 -34.222  1.00  0.00    -0.306 OA
ENDBRANCH   7   8
BRANCH   7  10
HETATM   10  C15 UNL     1     -35.899   4.287 -32.382  1.00  0.00     0.015 C 
BRANCH  10  11
HETATM   11  C16 UNL     1     -37.345   4.262 -32.929  1.00  0.00     0.020 C 
BRANCH  11  12
HETATM   12  C17 UNL     1     -38.109   3.359 -31.951  1.00  0.00     0.122 C 
BRANCH  12  13
HETATM   13  N5  UNL     1     -38.395   2.123 -32.620  1.00  0.00    -0.367 N 
HETATM   14  C18 UNL     1     -38.948   1.153 -31.984  1.00  0.00     0.196 C 
HETATM   15  N6  UNL     1     -39.270   1.323 -30.614  1.00  0.00    -0.067 NA
HETATM   16  N7  UNL     1     -39.254  -0.092 -32.601  1.00  0.00    -0.067 NA
ATOM     17  H5  UNL     1     -38.159   2.013 -33.607  1.00  0.00     0.161 HD
ENDBRANCH  12  13
ENDBRANCH  11  12
ENDBRANCH  10  11
ENDBRANCH   7  10
ENDBRANCH   3   7
ENDBRANCH   1   3
BRANCH   1  18
HETATM   18  C5  UNL     1     -33.718   8.581 -31.628  1.00  0.00     0.162 C 
BRANCH  18  19
HETATM   19  C6  UNL     1     -33.983   9.629 -30.618  1.00  0.00     0.257 C 
HETATM   20  O1  UNL     1     -35.064  10.085 -30.312  1.00  0.00    -0.305 OA
ENDBRANCH  18  19
BRANCH  18  21
HETATM   21  C7  UNL     1     -32.243   8.525 -31.998  1.00  0.00     0.118 C 
BRANCH  21  22
HETATM   22  C8  UNL     1     -31.341   9.426 -31.289  1.00  0.00     0.086 C 
BRANCH  22  23
HETATM   23  C9  UNL     1     -30.313   8.798 -30.420  1.00  0.00     0.027 A 
HETATM   24  C10 UNL     1     -30.424   8.800 -29.018  1.00  0.00     0.114 A 
HETATM   25  N2  UNL     1     -29.372   8.160 -28.498  1.00  0.00    -0.360 N 
HETATM   26  C11 UNL     1     -28.628   7.769 -29.540  1.00  0.00     0.180 A 
ATOM     27  H2  UNL     1     -29.177   8.003 -27.510  1.00  0.00     0.166 HD
HETATM   28  N3  UNL     1     -29.192   8.151 -30.695  1.00  0.00    -0.355 N 
ATOM     29  H3  UNL     1     -28.820   7.973 -31.627  1.00  0.00     0.166 HD
ENDBRANCH  22  23
ENDBRANCH  21  22
BRANCH  21  30
HETATM   30  N4  UNL     1     -32.105   8.732 -33.432  1.00  0.00    -0.361 N 
ATOM     31  H4  UNL     1     -32.935   8.951 -33.982  1.00  0.00     0.162 HD
BRANCH  30  32
HETATM   32  C12 UNL     1     -30.858   8.639 -34.084  1.00  0.00     0.348 C 
HETATM   33  O2  UNL     1     -30.518   7.543 -34.583  1.00  0.00    -0.284 OA
ENDBRANCH  30  32
ENDBRANCH  21  30
ENDBRANCH  18  21
ENDBRANCH   1  18
TORSDOF 15
ENDMDL
MODEL 2
REMARK VINA RESULT: -6.408630789      1.040      1.171
REMARK  15 active torsions:
REMARK  status: ('A' for Active; 'I' for Inactive)
REMARK    1  A    between atoms: C2_2  and  C4_4 
REMARK    2  A    between atoms: C4_4  and  N1_5 
REMARK    3  A    between atoms: C4_4  and  C13_23 
REMARK    4  A    between atoms: N1_5  and  C5_7 
REMARK    5  A    between atoms: C5_7  and  C6_8 
REMARK    6  A    between atoms: C5_7  and  C7_10 
REMARK    7  A    between atoms: C7_10  and  C8_11 
REMARK    8  A    between atoms: C7_10  and  N4_19 
REMARK    9  A    between atoms: C8_11  and  C9_12 
REMARK   10  A    between atoms: N4_19  and  C12_21 
REMARK   11  A    between atoms: C13_23  and  C14_24 
REMARK   12  A    between atoms: C13_23  and  C15_26 
REMARK   13  A    between atoms: C15_26  and  C16_27 
REMARK   14  A    between atoms: C16_27  and  C17_28 
REMARK   15  A    between atoms: C17_28  and  N5_29 
ROOT
HETATM    1  N1  UNL     1     -34.086   7.341 -31.247  1.00  0.00    -0.404 N 
ATOM      2  H1  UNL     1     -33.456   6.805 -30.650  1.00  0.00     0.154 HD
ENDROOT
BRANCH   1   3
HETATM    3  C4  UNL     1     -35.262   6.735 -31.628  1.00  0.00     0.091 C 
BRANCH   3   4
HETATM    4  C2  UNL     1     -36.042   6.288 -30.377  1.00  0.00     0.001 C 
HETATM    5  C1  UNL     1     -37.252   7.203 -30.144  1.00  0.00     0.011 C 
HETATM    6  C3  UNL     1     -35.215   6.417 -29.120  1.00  0.00     0.011 C 
ENDBRANCH   3   4
BRANCH   3   7
HETATM    7  C13 UNL     1     -35.304   5.685 -32.665  1.00  0.00     0.070 C 
BRANCH   7   8
HETATM    8  C14 UNL     1     -34.009   5.282 -33.245  1.00  0.00     0.237 C 
HETATM    9  O3  UNL     1     -33.418   5.940 -34.082  1.00  0.00    -0.306 OA
ENDBRANCH   7   8
BRANCH   7  10
HETATM   10  C15 UNL     1     -36.042   4.422 -32.340  1.00  0.00     0.015 C 
BRANCH  10  11
HETATM   11  C16 UNL     1     -37.426   4.483 -33.030  1.00  0.00     0.020 C 
BRANCH  11  12
HETATM   12  C17 UNL     1     -38.182   3.267 -32.477  1.00  0.00     0.122 C 
BRANCH  12  13
HETATM   13  N5  UNL     1     -39.004   2.740 -33.529  1.00  0.00    -0.367 N 
HETATM   14  C18 UNL     1     -40.241   3.074 -33.616  1.00  0.00     0.196 C 
HETATM   15  N6  UNL     1     -40.780   3.970 -32.659  1.00  0.00    -0.067 NA
HETATM   16  N7  UNL     1     -41.098   2.581 -34.639  1.00  0.00    -0.067 NA
ATOM     17  H5  UNL     1     -38.603   2.096 -34.211  1.00  0.00     0.161 HD
ENDBRANCH  12  13
ENDBRANCH  11  12
ENDBRANCH  10  11
ENDBRANCH   7  10
ENDBRANCH   3   7
ENDBRANCH   1   3
BRANCH   1  18
HETATM   18  C5  UNL     1     -33.681   8.634 -31.610  1.00  0.00     0.162 C 
BRANCH  18  19
HETATM   19  C6  UNL     1     -33.917   9.721 -30.635  1.00  0.00     0.257 C 
HETATM   20  O1  UNL     1     -34.991  10.137 -30.259  1.00  0.00    -0.305 OA
ENDBRANCH  18  19
BRANCH  18  21
HETATM   21  C7  UNL     1     -32.209   8.529 -31.981  1.00  0.00     0.118 C 
BRANCH  21  22
HETATM   22  C8  UNL     1     -31.282   9.429 -31.302  1.00  0.00     0.086 C 
BRANCH  22  23
HETATM   23  C9  UNL     1     -30.275   8.804 -30.407  1.00  0.00     0.027 A 
HETATM   24  C10 UNL     1     -30.398   8.845 -29.007  1.00  0.00     0.114 A 
HETATM   25  N2  UNL     1     -29.365   8.199 -28.460  1.00  0.00    -0.360 N 
HETATM   26  C11 UNL     1     -28.619   7.766 -29.484  1.00  0.00     0.180 A 
ATOM     27  H2  UNL     1     -29.182   8.064 -27.466  1.00  0.00     0.166 HD
HETATM   28  N3  UNL     1     -29.164   8.128 -30.654  1.00  0.00    -0.355 N 
ATOM     29  H3  UNL     1     -28.787   7.918 -31.577  1.00  0.00     0.166 HD
ENDBRANCH  22  23
ENDBRANCH  21  22
BRANCH  21  30
HETATM   30  N4  UNL     1     -32.068   8.686 -33.421  1.00  0.00    -0.361 N 
ATOM     31  H4  UNL     1     -32.902   8.859 -33.982  1.00  0.00     0.162 HD
BRANCH  30  32
HETATM   32  C12 UNL     1     -30.815   8.607 -34.063  1.00  0.00     0.348 C 
HETATM   33  O2  UNL     1     -30.500   7.544 -34.641  1.00  0.00    -0.284 OA
ENDBRANCH  30  32
ENDBRANCH  21  30
ENDBRANCH  18  21
ENDBRANCH   1  18
TORSDOF 15
ENDMDL
MODEL 3
REMARK VINA RESULT: -6.230993969      8.895     12.067
REMARK  15 active torsions:
REMARK  status: ('A' for Active; 'I' for Inactive)
REMARK    1  A    between atoms: C2_2  and  C4_4 
REMARK    2  A    between atoms: C4_4  and  N1_5 
REMARK    3  A    between atoms: C4_4  and  C13_23 
REMARK    4  A    between atoms: N1_5  and  C5_7 
REMARK    5  A    between atoms: C5_7  and  C6_8 
REMARK    6  A    between atoms: C5_7  and  C7_10 
REMARK    7  A    between atoms: C7_10  and  C8_11 
REMARK    8  A    between atoms: C7_10  and  N4_19 
REMARK    9  A    between atoms: C8_11  and  C9_12 
REMARK   10  A    between atoms: N4_19  and  C12_21 
REMARK   11  A    between atoms: C13_23  and  C14_24 
REMARK   12  A    between atoms: C13_23  and  C15_26 
REMARK   13  A    between atoms: C15_26  and  C16_27 
REMARK   14  A    between atoms: C16_27  and  C17_28 
REMARK   15  A    between atoms: C17_28  and  N5_29 
ROOT
HETATM    1  N1  UNL     1     -43.204   2.341 -33.759  1.00  0.00    -0.404 N 
ATOM      2  H1  UNL     1     -43.812   1.541 -33.584  1.00  0.00     0.154 HD
ENDROOT
BRANCH   1   3
HETATM    3  C4  UNL     1     -43.760   3.594 -33.628  1.00  0.00     0.091 C 
BRANCH   3   4
HETATM    4  C2  UNL     1     -44.782   3.588 -32.476  1.00  0.00     0.001 C 
HETATM    5  C1  UNL     1     -44.074   3.789 -31.129  1.00  0.00     0.011 C 
HETATM    6  C3  UNL     1     -45.481   2.256 -32.348  1.00  0.00     0.011 C 
ENDBRANCH   3   4
BRANCH   3   7
HETATM    7  C13 UNL     1     -44.289   4.344 -34.785  1.00  0.00     0.070 C 
BRANCH   7   8
HETATM    8  C14 UNL     1     -44.861   3.542 -35.882  1.00  0.00     0.237 C 
HETATM    9  O3  UNL     1     -44.189   2.839 -36.616  1.00  0.00    -0.306 OA
ENDBRANCH   7   8
BRANCH   7  10
HETATM   10  C15 UNL     1     -45.264   5.447 -34.504  1.00  0.00     0.015 C 
BRANCH  10  11
HETATM   11  C16 UNL     1     -44.463   6.697 -34.067  1.00  0.00     0.020 C 
BRANCH  11  12
HETATM   12  C17 UNL     1     -45.215   7.221 -32.836  1.00  0.00     0.122 C 
BRANCH  12  13
HETATM   13  N5  UNL     1     -45.085   8.650 -32.811  1.00  0.00    -0.367 N 
HETATM   14  C18 UNL     1     -45.931   9.368 -32.165  1.00  0.00     0.196 C 
HETATM   15  N6  UNL     1     -46.992   8.728 -31.476  1.00  0.00    -0.067 NA
HETATM   16  N7  UNL     1     -45.847  10.787 -32.108  1.00  0.00    -0.067 NA
ATOM     17  H5  UNL     1     -44.316   9.098 -33.311  1.00  0.00     0.161 HD
ENDBRANCH  12  13
ENDBRANCH  11  12
ENDBRANCH  10  11
ENDBRANCH   7  10
ENDBRANCH   3   7
ENDBRANCH   1   3
BRANCH   1  18
HETATM   18  C5  UNL     1     -41.875   2.073 -34.114  1.00  0.00     0.162 C 
BRANCH  18  19
HETATM   19  C6  UNL     1     -40.894   3.170 -33.963  1.00  0.00     0.257 C 
HETATM   20  O1  UNL     1     -39.818   3.261 -34.514  1.00  0.00    -0.305 OA
ENDBRANCH  18  19
BRANCH  18  21
HETATM   21  C7  UNL     1     -41.462   0.844 -33.317  1.00  0.00     0.118 C 
BRANCH  21  22
HETATM   22  C8  UNL     1     -42.522  -0.070 -32.900  1.00  0.00     0.086 C 
BRANCH  22  23
HETATM   23  C9  UNL     1     -42.291  -1.517 -33.140  1.00  0.00     0.027 A 
HETATM   24  C10 UNL     1     -43.347  -2.445 -33.153  1.00  0.00     0.114 A 
HETATM   25  N2  UNL     1     -42.854  -3.662 -33.401  1.00  0.00    -0.360 N 
HETATM   26  C11 UNL     1     -41.532  -3.501 -33.540  1.00  0.00     0.180 A 
ATOM     27  H2  UNL     1     -43.377  -4.534 -33.470  1.00  0.00     0.166 HD
HETATM   28  N3  UNL     1     -41.192  -2.213 -33.384  1.00  0.00    -0.355 N 
ATOM     29  H3  UNL     1     -40.248  -1.835 -33.443  1.00  0.00     0.166 HD
ENDBRANCH  22  23
ENDBRANCH  21  22
BRANCH  21  30
HETATM   30  N4  UNL     1     -40.701   1.266 -32.151  1.00  0.00    -0.361 N 
ATOM     31  H4  UNL     1     -41.068   2.019 -31.568  1.00  0.00     0.162 HD
BRANCH  30  32
HETATM   32  C12 UNL     1     -39.473   0.667 -31.801  1.00  0.00     0.348 C 
HETATM   33  O2  UNL     1     -39.010  -0.232 -32.538  1.00  0.00    -0.284 OA
ENDBRANCH  30  32
ENDBRANCH  21  30
ENDBRANCH  18  21
ENDBRANCH   1  18
TORSDOF 15
ENDMDL
MODEL 4
REMARK VINA RESULT: -6.179706352      8.432     12.142
REMARK  15 active torsions:
REMARK  status: ('A' for Active; 'I' for Inactive)
REMARK    1  A    between atoms: C2_2  and  C4_4 
REMARK    2  A    between atoms: C4_4  and  N1_5 
REMARK    3  A    between atoms: C4_4  and  C13_23 
REMARK    4  A    between atoms: N1_5  and  C5_7 
REMARK    5  A    between atoms: C5_7  and  C6_8 
REMARK    6  A    between atoms: C5_7  and  C7_10 
REMARK    7  A    between atoms: C7_10  and  C8_11 
REMARK    8  A    between atoms: C7_10  and  N4_19 
REMARK    9  A    between atoms: C8_11  and  C9_12 
REMARK   10  A    between atoms: N4_19  and  C12_21 
REMARK   11  A    between atoms: C13_23  and  C14_24 
REMARK   12  A    between atoms: C13_23  and  C15_26 
REMARK   13  A    between atoms: C15_26  and  C16_27 
REMARK   14  A    between atoms: C16_27  and  C17_28 
REMARK   15  A    between atoms: C17_28  and  N5_29 
ROOT
HETATM    1  N1  UNL     1     -41.907  -0.149 -33.379  1.00  0.00    -0.404 N 
ATOM      2  H1  UNL     1     -41.526   0.043 -34.305  1.00  0.00     0.154 HD
ENDROOT
BRANCH   1   3
HETATM    3  C4  UNL     1     -42.073  -1.469 -33.026  1.00  0.00     0.091 C 
BRANCH   3   4
HETATM    4  C2  UNL     1     -40.960  -2.319 -33.669  1.00  0.00     0.001 C 
HETATM    5  C1  UNL     1     -41.278  -3.814 -33.529  1.00  0.00     0.011 C 
HETATM    6  C3  UNL     1     -39.635  -2.141 -32.967  1.00  0.00     0.011 C 
ENDBRANCH   3   4
BRANCH   3   7
HETATM    7  C13 UNL     1     -43.376  -2.155 -33.137  1.00  0.00     0.070 C 
BRANCH   7   8
HETATM    8  C14 UNL     1     -44.039  -2.517 -31.871  1.00  0.00     0.237 C 
HETATM    9  O3  UNL     1     -44.254  -3.668 -31.536  1.00  0.00    -0.306 OA
ENDBRANCH   7   8
BRANCH   7  10
HETATM   10  C15 UNL     1     -44.420  -1.515 -34.002  1.00  0.00     0.015 C 
BRANCH  10  11
HETATM   11  C16 UNL     1     -44.071  -1.812 -35.479  1.00  0.00     0.020 C 
BRANCH  11  12
HETATM   12  C17 UNL     1     -45.024  -0.921 -36.285  1.00  0.00     0.122 C 
BRANCH  12  13
HETATM   13  N5  UNL     1     -46.369  -1.310 -35.970  1.00  0.00    -0.367 N 
HETATM   14  C18 UNL     1     -47.280  -1.293 -36.876  1.00  0.00     0.196 C 
HETATM   15  N6  UNL     1     -46.935  -0.885 -38.189  1.00  0.00    -0.067 NA
HETATM   16  N7  UNL     1     -48.626  -1.670 -36.616  1.00  0.00    -0.067 NA
ATOM     17  H5  UNL     1     -46.603  -1.603 -35.021  1.00  0.00     0.161 HD
ENDBRANCH  12  13
ENDBRANCH  11  12
ENDBRANCH  10  11
ENDBRANCH   7  10
ENDBRANCH   3   7
ENDBRANCH   1   3
BRANCH   1  18
HETATM   18  C5  UNL     1     -42.220   0.955 -32.572  1.00  0.00     0.162 C 
BRANCH  18  19
HETATM   19  C6  UNL     1     -41.461   1.114 -31.312  1.00  0.00     0.257 C 
HETATM   20  O1  UNL     1     -40.267   0.974 -31.161  1.00  0.00    -0.305 OA
ENDBRANCH  18  19
BRANCH  18  21
HETATM   21  C7  UNL     1     -42.086   2.183 -33.461  1.00  0.00     0.118 C 
BRANCH  21  22
HETATM   22  C8  UNL     1     -43.037   2.320 -34.559  1.00  0.00     0.086 C 
BRANCH  22  23
HETATM   23  C9  UNL     1     -43.603   3.674 -34.790  1.00  0.00     0.027 A 
HETATM   24  C10 UNL     1     -44.761   3.874 -35.562  1.00  0.00     0.114 A 
HETATM   25  N2  UNL     1     -45.044   5.179 -35.591  1.00  0.00    -0.360 N 
HETATM   26  C11 UNL     1     -44.096   5.778 -34.860  1.00  0.00     0.180 A 
ATOM     27  H2  UNL     1     -45.824   5.628 -36.072  1.00  0.00     0.166 HD
HETATM   28  N3  UNL     1     -43.230   4.875 -34.377  1.00  0.00    -0.355 N 
ATOM     29  H3  UNL     1     -42.421   5.079 -33.792  1.00  0.00     0.166 HD
ENDBRANCH  22  23
ENDBRANCH  21  22
BRANCH  21  30
HETATM   30  N4  UNL     1     -40.730   2.244 -33.986  1.00  0.00    -0.361 N 
ATOM     31  H4  UNL     1     -40.373   1.456 -34.526  1.00  0.00     0.162 HD
BRANCH  30  32
HETATM   32  C12 UNL     1     -39.895   3.361 -33.772  1.00  0.00     0.348 C 
HETATM   33  O2  UNL     1     -40.269   4.481 -34.182  1.00  0.00    -0.284 OA
ENDBRANCH  30  32
ENDBRANCH  21  30
ENDBRANCH  18  21
ENDBRANCH   1  18
TORSDOF 15
ENDMDL
MODEL 5
REMARK VINA RESULT: -6.157234614      5.497     11.254
REMARK  15 active torsions:
REMARK  status: ('A' for Active; 'I' for Inactive)
REMARK    1  A    between atoms: C2_2  and  C4_4 
REMARK    2  A    between atoms: C4_4  and  N1_5 
REMARK    3  A    between atoms: C4_4  and  C13_23 
REMARK    4  A    between atoms: N1_5  and  C5_7 
REMARK    5  A    between atoms: C5_7  and  C6_8 
REMARK    6  A    between atoms: C5_7  and  C7_10 
REMARK    7  A    between atoms: C7_10  and  C8_11 
REMARK    8  A    between atoms: C7_10  and  N4_19 
REMARK    9  A    between atoms: C8_11  and  C9_12 
REMARK   10  A    between atoms: N4_19  and  C12_21 
REMARK   11  A    between atoms: C13_23  and  C14_24 
REMARK   12  A    between atoms: C13_23  and  C15_26 
REMARK   13  A    between atoms: C15_26  and  C16_27 
REMARK   14  A    between atoms: C16_27  and  C17_28 
REMARK   15  A    between atoms: C17_28  and  N5_29 
ROOT
HETATM    1  N1  UNL     1     -42.395   4.220 -33.154  1.00  0.00    -0.404 N 
ATOM      2  H1  UNL     1     -42.412   4.556 -34.117  1.00  0.00     0.154 HD
ENDROOT
BRANCH   1   3
HETATM    3  C4  UNL     1     -41.305   4.562 -32.386  1.00  0.00     0.091 C 
BRANCH   3   4
HETATM    4  C2  UNL     1     -41.107   6.090 -32.422  1.00  0.00     0.001 C 
HETATM    5  C1  UNL     1     -41.754   6.744 -31.194  1.00  0.00     0.011 C 
HETATM    6  C3  UNL     1     -41.801   6.722 -33.604  1.00  0.00     0.011 C 
ENDBRANCH   3   4
BRANCH   3   7
HETATM    7  C13 UNL     1     -40.007   3.869 -32.512  1.00  0.00     0.070 C 
BRANCH   7   8
HETATM    8  C14 UNL     1     -39.565   3.546 -33.881  1.00  0.00     0.237 C 
HETATM    9  O3  UNL     1     -40.290   3.031 -34.713  1.00  0.00    -0.306 OA
ENDBRANCH   7   8
BRANCH   7  10
HETATM   10  C15 UNL     1     -38.830   4.477 -31.811  1.00  0.00     0.015 C 
BRANCH  10  11
HETATM   11  C16 UNL     1     -37.554   3.745 -32.291  1.00  0.00     0.020 C 
BRANCH  11  12
HETATM   12  C17 UNL     1     -36.452   4.811 -32.222  1.00  0.00     0.122 C 
BRANCH  12  13
HETATM   13  N5  UNL     1     -35.571   4.612 -33.337  1.00  0.00    -0.367 N 
HETATM   14  C18 UNL     1     -34.574   5.400 -33.525  1.00  0.00     0.196 C 
HETATM   15  N6  UNL     1     -34.357   6.464 -32.614  1.00  0.00    -0.067 NA
HETATM   16  N7  UNL     1     -33.671   5.246 -34.613  1.00  0.00    -0.067 NA
ATOM     17  H5  UNL     1     -35.738   3.842 -33.984  1.00  0.00     0.161 HD
ENDBRANCH  12  13
ENDBRANCH  11  12
ENDBRANCH  10  11
ENDBRANCH   7  10
ENDBRANCH   3   7
ENDBRANCH   1   3
BRANCH   1  18
HETATM   18  C5  UNL     1     -43.485   3.449 -32.724  1.00  0.00     0.162 C 
BRANCH  18  19
HETATM   19  C6  UNL     1     -44.778   4.141 -32.537  1.00  0.00     0.257 C 
HETATM   20  O1  UNL     1     -45.436   4.692 -33.392  1.00  0.00    -0.305 OA
ENDBRANCH  18  19
BRANCH  18  21
HETATM   21  C7  UNL     1     -43.607   2.298 -33.713  1.00  0.00     0.118 C 
BRANCH  21  22
HETATM   22  C8  UNL     1     -42.808   1.105 -33.453  1.00  0.00     0.086 C 
BRANCH  22  23
HETATM   23  C9  UNL     1     -43.361  -0.188 -33.930  1.00  0.00     0.027 A 
HETATM   24  C10 UNL     1     -43.671  -1.236 -33.045  1.00  0.00     0.114 A 
HETATM   25  N2  UNL     1     -44.158  -2.266 -33.744  1.00  0.00    -0.360 N 
HETATM   26  C11 UNL     1     -44.154  -1.876 -35.024  1.00  0.00     0.180 A 
ATOM     27  H2  UNL     1     -44.468  -3.165 -33.376  1.00  0.00     0.166 HD
HETATM   28  N3  UNL     1     -43.676  -0.628 -35.138  1.00  0.00    -0.355 N 
ATOM     29  H3  UNL     1     -43.573  -0.106 -36.008  1.00  0.00     0.166 HD
ENDBRANCH  22  23
ENDBRANCH  21  22
BRANCH  21  30
HETATM   30  N4  UNL     1     -43.320   2.790 -35.052  1.00  0.00    -0.361 N 
ATOM     31  H4  UNL     1     -42.380   3.123 -35.265  1.00  0.00     0.162 HD
BRANCH  30  32
HETATM   32  C12 UNL     1     -44.302   2.819 -36.064  1.00  0.00     0.348 C 
HETATM   33  O2  UNL     1     -45.131   1.885 -36.127  1.00  0.00    -0.284 OA
ENDBRANCH  30  32
ENDBRANCH  21  30
ENDBRANCH  18  21
ENDBRANCH   1  18
TORSDOF 15
ENDMDL
