MODEL 1
REMARK VINA RESULT: -5.465018992      0.000      0.000
REMARK  18 active torsions:
REMARK  status: ('A' for Active; 'I' for Inactive)
REMARK    1  A    between atoms: N1_2  and  C3_4 
REMARK    2  A    between atoms: C3_4  and  N2_6 
REMARK    3  A    between atoms: N2_6  and  C4_8 
REMARK    4  A    between atoms: C4_8  and  C5_9 
REMARK    5  A    between atoms: C5_9  and  N3_10 
REMARK    6  A    between atoms: N3_10  and  C6_12 
REMARK    7  A    between atoms: C6_12  and  C7_13 
REMARK    8  A    between atoms: C7_13  and  C8_14 
REMARK    9  A    between atoms: C8_14  and  C9_15 
REMARK   10  A    between atoms: C9_15  and  N4_16 
REMARK   11  A    between atoms: N4_16  and  C10_19 
REMARK   12  A    between atoms: C10_19  and  C11_20 
REMARK   13  A    between atoms: C11_20  and  C12_21 
REMARK   14  A    between atoms: C12_21  and  N5_22 
REMARK   15  A    between atoms: N5_22  and  C13_24 
REMARK   16  A    between atoms: C13_24  and  C14_25 
REMARK   17  A    between atoms: C14_25  and  N6_26 
REMARK   18  A    between atoms: N6_26  and  C15_28 
ROOT
HETATM    1  N4  UNL     1     -32.810   7.820 -33.747  1.00  0.00    -0.075 N 
ATOM      2  H41 UNL     1     -32.622   7.647 -34.734  1.00  0.00     0.277 HD
ATOM      3  H42 UNL     1     -33.526   8.538 -33.860  1.00  0.00     0.277 HD
ENDROOT
BRANCH   1   4
HETATM    4  C9  UNL     1     -31.634   8.314 -33.035  1.00  0.00     0.232 C 
BRANCH   4   5
HETATM    5  C8  UNL     1     -30.442   8.222 -33.917  1.00  0.00     0.029 C 
BRANCH   5   6
HETATM    6  C7  UNL     1     -29.202   8.918 -33.353  1.00  0.00     0.021 C 
BRANCH   6   7
HETATM    7  C6  UNL     1     -28.161   7.866 -33.058  1.00  0.00     0.113 C 
BRANCH   7   8
HETATM    8  N3  UNL     1     -28.259   7.502 -31.687  1.00  0.00    -0.420 N 
ATOM      9  H3  UNL     1     -28.300   6.526 -31.395  1.00  0.00     0.153 HD
BRANCH   8  10
HETATM   10  C5  UNL     1     -28.296   8.572 -30.735  1.00  0.00     0.133 C 
BRANCH  10  11
HETATM   11  C4  UNL     1     -28.755   7.908 -29.415  1.00  0.00     0.141 C 
BRANCH  11  12
HETATM   12  N2  UNL     1     -30.133   7.497 -29.644  1.00  0.00    -0.366 N 
ATOM     13  H2  UNL     1     -30.339   6.653 -30.180  1.00  0.00     0.161 HD
BRANCH  12  14
HETATM   14  C3  UNL     1     -31.182   8.285 -29.114  1.00  0.00     0.169 C 
HETATM   15  S1  UNL     1     -30.826   9.523 -28.109  1.00  0.00    -0.041 SA
BRANCH  14  16
HETATM   16  N1  UNL     1     -32.509   7.963 -29.475  1.00  0.00    -0.367 N 
HETATM   17  C1  UNL     1     -33.425   9.021 -29.838  1.00  0.00     0.151 C 
HETATM   18  C2  UNL     1     -32.947   6.596 -29.465  1.00  0.00     0.151 C 
ENDBRANCH  14  16
ENDBRANCH  12  14
ENDBRANCH  11  12
ENDBRANCH  10  11
ENDBRANCH   8  10
ENDBRANCH   7   8
ENDBRANCH   6   7
ENDBRANCH   5   6
ENDBRANCH   4   5
ENDBRANCH   1   4
BRANCH   1  19
HETATM   19  C10 UNL     1     -33.310   6.649 -33.070  1.00  0.00     0.234 C 
BRANCH  19  20
HETATM   20  C11 UNL     1     -33.713   5.621 -34.069  1.00  0.00     0.047 C 
BRANCH  20  21
HETATM   21  C12 UNL     1     -34.392   4.395 -33.458  1.00  0.00     0.120 C 
BRANCH  21  22
HETATM   22  N5  UNL     1     -35.797   4.554 -33.483  1.00  0.00    -0.401 N 
ATOM     23  H5  UNL     1     -36.293   4.505 -34.372  1.00  0.00     0.158 HD
BRANCH  22  24
HETATM   24  C13 UNL     1     -36.519   4.777 -32.295  1.00  0.00     0.075 C 
BRANCH  24  25
HETATM   25  C14 UNL     1     -37.923   4.272 -32.240  1.00  0.00     0.165 C 
BRANCH  25  26
HETATM   26  N6  UNL     1     -38.475   3.817 -33.477  1.00  0.00    -0.370 N 
ATOM     27  H6  UNL     1     -37.828   3.446 -34.173  1.00  0.00     0.161 HD
BRANCH  26  28
HETATM   28  C15 UNL     1     -39.742   3.840 -33.782  1.00  0.00     0.117 A 
HETATM   29  C16 UNL     1     -40.598   4.883 -33.431  1.00  0.00     0.068 A 
HETATM   30  C17 UNL     1     -41.831   4.536 -33.919  1.00  0.00     0.111 A 
HETATM   31  N7  UNL     1     -41.748   3.341 -34.543  1.00  0.00    -0.310 N 
HETATM   32  N8  UNL     1     -40.491   2.959 -34.441  1.00  0.00    -0.286 N 
ATOM     33  H7  UNL     1     -42.507   2.836 -35.001  1.00  0.00     0.186 HD
ATOM     34  H8  UNL     1     -40.132   2.084 -34.825  1.00  0.00     0.188 HD
ENDBRANCH  26  28
ENDBRANCH  25  26
ENDBRANCH  24  25
ENDBRANCH  22  24
ENDBRANCH  21  22
ENDBRANCH  20  21
ENDBRANCH  19  20
ENDBRANCH   1  19
TORSDOF 18
ENDMDL
MODEL 2
REMARK VINA RESULT: -5.350852947      5.244     12.707
REMARK  18 active torsions:
REMARK  status: ('A' for Active; 'I' for Inactive)
REMARK    1  A    between atoms: N1_2  and  C3_4 
REMARK    2  A    between atoms: C3_4  and  N2_6 
REMARK    3  A    between atoms: N2_6  and  C4_8 
REMARK    4  A    between atoms: C4_8  and  C5_9 
REMARK    5  A    between atoms: C5_9  and  N3_10 
REMARK    6  A    between atoms: N3_10  and  C6_12 
REMARK    7  A    between atoms: C6_12  and  C7_13 
REMARK    8  A    between atoms: C7_13  and  C8_14 
REMARK    9  A    between atoms: C8_14  and  C9_15 
REMARK   10  A    between atoms: C9_15  and  N4_16 
REMARK   11  A    between atoms: N4_16  and  C10_19 
REMARK   12  A    between atoms: C10_19  and  C11_20 
REMARK   13  A    between atoms: C11_20  and  C12_21 
REMARK   14  A    between atoms: C12_21  and  N5_22 
REMARK   15  A    between atoms: N5_22  and  C13_24 
REMARK   16  A    between atoms: C13_24  and  C14_25 
REMARK   17  A    between atoms: C14_25  and  N6_26 
REMARK   18  A    between atoms: N6_26  and  C15_28 
ROOT
HETATM    1  N4  UNL     1     -42.962   5.207 -34.435  1.00  0.00    -0.075 N 
ATOM      2  H41 UNL     1     -43.596   5.739 -33.838  1.00  0.00     0.277 HD
ATOM      3  H42 UNL     1     -43.155   5.689 -35.313  1.00  0.00     0.277 HD
ENDROOT
BRANCH   1   4
HETATM    4  C9  UNL     1     -43.309   3.790 -34.491  1.00  0.00     0.232 C 
BRANCH   4   5
HETATM    5  C8  UNL     1     -44.613   3.622 -35.184  1.00  0.00     0.029 C 
BRANCH   5   6
HETATM    6  C7  UNL     1     -44.678   2.389 -36.086  1.00  0.00     0.021 C 
BRANCH   6   7
HETATM    7  C6  UNL     1     -44.936   1.180 -35.219  1.00  0.00     0.113 C 
BRANCH   7   8
HETATM    8  N3  UNL     1     -45.599   0.194 -36.000  1.00  0.00    -0.420 N 
ATOM      9  H3  UNL     1     -46.292   0.448 -36.704  1.00  0.00     0.153 HD
BRANCH   8  10
HETATM   10  C5  UNL     1     -45.247  -1.172 -35.753  1.00  0.00     0.133 C 
BRANCH  10  11
HETATM   11  C4  UNL     1     -43.912  -1.099 -34.975  1.00  0.00     0.141 C 
BRANCH  11  12
HETATM   12  N2  UNL     1     -43.775  -2.389 -34.314  1.00  0.00    -0.366 N 
ATOM     13  H2  UNL     1     -44.351  -3.182 -34.600  1.00  0.00     0.161 HD
BRANCH  12  14
HETATM   14  C3  UNL     1     -42.830  -2.528 -33.269  1.00  0.00     0.169 C 
HETATM   15  S1  UNL     1     -41.385  -3.224 -33.580  1.00  0.00    -0.041 SA
BRANCH  14  16
HETATM   16  N1  UNL     1     -43.181  -2.058 -31.984  1.00  0.00    -0.367 N 
HETATM   17  C1  UNL     1     -44.424  -2.487 -31.385  1.00  0.00     0.151 C 
HETATM   18  C2  UNL     1     -42.315  -1.149 -31.287  1.00  0.00     0.151 C 
ENDBRANCH  14  16
ENDBRANCH  12  14
ENDBRANCH  11  12
ENDBRANCH  10  11
ENDBRANCH   8  10
ENDBRANCH   7   8
ENDBRANCH   6   7
ENDBRANCH   5   6
ENDBRANCH   4   5
ENDBRANCH   1   4
BRANCH   1  19
HETATM   19  C10 UNL     1     -41.586   5.338 -34.027  1.00  0.00     0.234 C 
BRANCH  19  20
HETATM   20  C11 UNL     1     -41.034   4.000 -33.675  1.00  0.00     0.047 C 
BRANCH  20  21
HETATM   21  C12 UNL     1     -39.507   3.935 -33.697  1.00  0.00     0.120 C 
BRANCH  21  22
HETATM   22  N5  UNL     1     -39.034   3.219 -32.573  1.00  0.00    -0.401 N 
ATOM     23  H5  UNL     1     -39.681   2.646 -32.032  1.00  0.00     0.158 HD
BRANCH  22  24
HETATM   24  C13 UNL     1     -37.680   3.287 -32.192  1.00  0.00     0.075 C 
BRANCH  24  25
HETATM   25  C14 UNL     1     -36.977   4.590 -32.387  1.00  0.00     0.165 C 
BRANCH  25  26
HETATM   26  N6  UNL     1     -35.904   4.589 -33.330  1.00  0.00    -0.370 N 
ATOM     27  H6  UNL     1     -35.927   3.887 -34.070  1.00  0.00     0.161 HD
BRANCH  26  28
HETATM   28  C15 UNL     1     -34.897   5.418 -33.316  1.00  0.00     0.117 A 
HETATM   29  C16 UNL     1     -34.703   6.374 -32.320  1.00  0.00     0.068 A 
HETATM   30  C17 UNL     1     -33.557   7.043 -32.662  1.00  0.00     0.111 A 
HETATM   31  N7  UNL     1     -33.061   6.530 -33.809  1.00  0.00    -0.310 N 
HETATM   32  N8  UNL     1     -33.885   5.567 -34.168  1.00  0.00    -0.286 N 
ATOM     33  H7  UNL     1     -32.218   6.830 -34.300  1.00  0.00     0.186 HD
ATOM     34  H8  UNL     1     -33.760   4.997 -35.005  1.00  0.00     0.188 HD
ENDBRANCH  26  28
ENDBRANCH  25  26
ENDBRANCH  24  25
ENDBRANCH  22  24
ENDBRANCH  21  22
ENDBRANCH  20  21
ENDBRANCH  19  20
ENDBRANCH   1  19
TORSDOF 18
ENDMDL
MODEL 3
REMARK VINA RESULT: -5.324165680      5.357     12.048
REMARK  18 active torsions:
REMARK  status: ('A' for Active; 'I' for Inactive)
REMARK    1  A    between atoms: N1_2  and  C3_4 
REMARK    2  A    between atoms: C3_4  and  N2_6 
REMARK    3  A    between atoms: N2_6  and  C4_8 
REMARK    4  A    between atoms: C4_8  and  C5_9 
REMARK    5  A    between atoms: C5_9  and  N3_10 
REMARK    6  A    between atoms: N3_10  and  C6_12 
REMARK    7  A    between atoms: C6_12  and  C7_13 
REMARK    8  A    between atoms: C7_13  and  C8_14 
REMARK    9  A    between atoms: C8_14  and  C9_15 
REMARK   10  A    between atoms: C9_15  and  N4_16 
REMARK   11  A    between atoms: N4_16  and  C10_19 
REMARK   12  A    between atoms: C10_19  and  C11_20 
REMARK   13  A    between atoms: C11_20  and  C12_21 
REMARK   14  A    between atoms: C12_21  and  N5_22 
REMARK   15  A    between atoms: N5_22  and  C13_24 
REMARK   16  A    between atoms: C13_24  and  C14_25 
REMARK   17  A    between atoms: C14_25  and  N6_26 
REMARK   18  A    between atoms: N6_26  and  C15_28 
ROOT
HETATM    1  N4  UNL     1     -42.811   7.676 -32.255  1.00  0.00    -0.075 N 
ATOM      2  H41 UNL     1     -42.331   7.855 -31.374  1.00  0.00     0.277 HD
ATOM      3  H42 UNL     1     -43.102   8.632 -32.457  1.00  0.00     0.277 HD
ENDROOT
BRANCH   1   4
HETATM    4  C9  UNL     1     -43.945   6.770 -32.096  1.00  0.00     0.232 C 
BRANCH   4   5
HETATM    5  C8  UNL     1     -44.845   6.885 -33.273  1.00  0.00     0.029 C 
BRANCH   5   6
HETATM    6  C7  UNL     1     -45.313   5.538 -33.825  1.00  0.00     0.021 C 
BRANCH   6   7
HETATM    7  C6  UNL     1     -44.829   5.415 -35.249  1.00  0.00     0.113 C 
BRANCH   7   8
HETATM    8  N3  UNL     1     -44.478   4.059 -35.494  1.00  0.00    -0.420 N 
ATOM      9  H3  UNL     1     -44.059   3.766 -36.376  1.00  0.00     0.153 HD
BRANCH   8  10
HETATM   10  C5  UNL     1     -44.740   3.123 -34.441  1.00  0.00     0.133 C 
BRANCH  10  11
HETATM   11  C4  UNL     1     -44.986   1.777 -35.163  1.00  0.00     0.141 C 
BRANCH  11  12
HETATM   12  N2  UNL     1     -43.683   1.133 -35.243  1.00  0.00    -0.366 N 
ATOM     13  H2  UNL     1     -42.891   1.618 -35.668  1.00  0.00     0.161 HD
BRANCH  12  14
HETATM   14  C3  UNL     1     -43.530  -0.174 -34.723  1.00  0.00     0.169 C 
HETATM   15  S1  UNL     1     -44.469  -1.381 -35.298  1.00  0.00    -0.041 SA
BRANCH  14  16
HETATM   16  N1  UNL     1     -42.565  -0.384 -33.713  1.00  0.00    -0.367 N 
HETATM   17  C1  UNL     1     -41.887   0.752 -33.132  1.00  0.00     0.151 C 
HETATM   18  C2  UNL     1     -42.250  -1.716 -33.282  1.00  0.00     0.151 C 
ENDBRANCH  14  16
ENDBRANCH  12  14
ENDBRANCH  11  12
ENDBRANCH  10  11
ENDBRANCH   8  10
ENDBRANCH   7   8
ENDBRANCH   6   7
ENDBRANCH   5   6
ENDBRANCH   4   5
ENDBRANCH   1   4
BRANCH   1  19
HETATM   19  C10 UNL     1     -41.926   7.147 -33.263  1.00  0.00     0.234 C 
BRANCH  19  20
HETATM   20  C11 UNL     1     -41.251   5.922 -32.752  1.00  0.00     0.047 C 
BRANCH  20  21
HETATM   21  C12 UNL     1     -41.250   4.757 -33.742  1.00  0.00     0.120 C 
BRANCH  21  22
HETATM   22  N5  UNL     1     -39.925   4.334 -33.995  1.00  0.00    -0.401 N 
ATOM     23  H5  UNL     1     -39.437   4.676 -34.821  1.00  0.00     0.158 HD
BRANCH  22  24
HETATM   24  C13 UNL     1     -39.271   3.446 -33.118  1.00  0.00     0.075 C 
BRANCH  24  25
HETATM   25  C14 UNL     1     -38.038   3.940 -32.435  1.00  0.00     0.165 C 
BRANCH  25  26
HETATM   26  N6  UNL     1     -36.983   4.386 -33.289  1.00  0.00    -0.370 N 
ATOM     27  H6  UNL     1     -37.229   4.651 -34.243  1.00  0.00     0.161 HD
BRANCH  26  28
HETATM   28  C15 UNL     1     -35.730   4.480 -32.940  1.00  0.00     0.117 A 
HETATM   29  C16 UNL     1     -35.186   5.607 -32.326  1.00  0.00     0.068 A 
HETATM   30  C17 UNL     1     -33.860   5.323 -32.129  1.00  0.00     0.111 A 
HETATM   31  N7  UNL     1     -33.592   4.083 -32.594  1.00  0.00    -0.310 N 
HETATM   32  N8  UNL     1     -34.728   3.614 -33.069  1.00  0.00    -0.286 N 
ATOM     33  H7  UNL     1     -32.690   3.606 -32.581  1.00  0.00     0.186 HD
ATOM     34  H8  UNL     1     -34.828   2.689 -33.488  1.00  0.00     0.188 HD
ENDBRANCH  26  28
ENDBRANCH  25  26
ENDBRANCH  24  25
ENDBRANCH  22  24
ENDBRANCH  21  22
ENDBRANCH  20  21
ENDBRANCH  19  20
ENDBRANCH   1  19
TORSDOF 18
ENDMDL
MODEL 4
REMARK VINA RESULT: -5.317098703      3.699     11.101
REMARK  18 active torsions:
REMARK  status: ('A' for Active; 'I' for Inactive)
REMARK    1  A    between atoms: N1_2  and  C3_4 
REMARK    2  A    between atoms: C3_4  and  N2_6 
REMARK    3  A    between atoms: N2_6  and  C4_8 
REMARK    4  A    between atoms: C4_8  and  C5_9 
REMARK    5  A    between atoms: C5_9  and  N3_10 
REMARK    6  A    between atoms: N3_10  and  C6_12 
REMARK    7  A    between atoms: C6_12  and  C7_13 
REMARK    8  A    between atoms: C7_13  and  C8_14 
REMARK    9  A    between atoms: C8_14  and  C9_15 
REMARK   10  A    between atoms: C9_15  and  N4_16 
REMARK   11  A    between atoms: N4_16  and  C10_19 
REMARK   12  A    between atoms: C10_19  and  C11_20 
REMARK   13  A    between atoms: C11_20  and  C12_21 
REMARK   14  A    between atoms: C12_21  and  N5_22 
REMARK   15  A    between atoms: N5_22  and  C13_24 
REMARK   16  A    between atoms: C13_24  and  C14_25 
REMARK   17  A    between atoms: C14_25  and  N6_26 
REMARK   18  A    between atoms: N6_26  and  C15_28 
ROOT
HETATM    1  N4  UNL     1     -34.982   6.392 -31.875  1.00  0.00    -0.075 N 
ATOM      2  H41 UNL     1     -34.462   6.487 -31.004  1.00  0.00     0.277 HD
ATOM      3  H42 UNL     1     -35.035   7.381 -32.119  1.00  0.00     0.277 HD
ENDROOT
BRANCH   1   4
HETATM    4  C9  UNL     1     -36.300   5.797 -31.674  1.00  0.00     0.232 C 
BRANCH   4   5
HETATM    5  C8  UNL     1     -36.495   4.680 -32.636  1.00  0.00     0.029 C 
BRANCH   5   6
HETATM    6  C7  UNL     1     -37.601   3.704 -32.230  1.00  0.00     0.021 C 
BRANCH   6   7
HETATM    7  C6  UNL     1     -38.846   4.046 -33.014  1.00  0.00     0.113 C 
BRANCH   7   8
HETATM    8  N3  UNL     1     -39.220   2.913 -33.787  1.00  0.00    -0.420 N 
ATOM      9  H3  UNL     1     -38.685   2.624 -34.606  1.00  0.00     0.153 HD
BRANCH   8  10
HETATM   10  C5  UNL     1     -40.386   2.196 -33.362  1.00  0.00     0.133 C 
BRANCH  10  11
HETATM   11  C4  UNL     1     -41.433   2.454 -34.471  1.00  0.00     0.141 C 
BRANCH  11  12
HETATM   12  N2  UNL     1     -42.528   3.157 -33.817  1.00  0.00    -0.366 N 
ATOM     13  H2  UNL     1     -42.692   3.043 -32.816  1.00  0.00     0.161 HD
BRANCH  12  14
HETATM   14  C3  UNL     1     -43.361   4.000 -34.590  1.00  0.00     0.169 C 
HETATM   15  S1  UNL     1     -44.398   3.338 -35.664  1.00  0.00    -0.041 SA
BRANCH  14  16
HETATM   16  N1  UNL     1     -43.257   5.397 -34.403  1.00  0.00    -0.367 N 
HETATM   17  C1  UNL     1     -42.020   5.957 -33.908  1.00  0.00     0.151 C 
HETATM   18  C2  UNL     1     -44.377   6.248 -34.688  1.00  0.00     0.151 C 
ENDBRANCH  14  16
ENDBRANCH  12  14
ENDBRANCH  11  12
ENDBRANCH  10  11
ENDBRANCH   8  10
ENDBRANCH   7   8
ENDBRANCH   6   7
ENDBRANCH   5   6
ENDBRANCH   4   5
ENDBRANCH   1   4
BRANCH   1  19
HETATM   19  C10 UNL     1     -34.265   5.622 -32.862  1.00  0.00     0.234 C 
BRANCH  19  20
HETATM   20  C11 UNL     1     -33.222   6.469 -33.504  1.00  0.00     0.047 C 
BRANCH  20  21
HETATM   21  C12 UNL     1     -32.969   7.793 -32.783  1.00  0.00     0.120 C 
BRANCH  21  22
HETATM   22  N5  UNL     1     -32.193   8.650 -33.597  1.00  0.00    -0.401 N 
ATOM     23  H5  UNL     1     -32.646   9.409 -34.105  1.00  0.00     0.158 HD
BRANCH  22  24
HETATM   24  C13 UNL     1     -30.801   8.468 -33.714  1.00  0.00     0.075 C 
BRANCH  24  25
HETATM   25  C14 UNL     1     -29.935   9.118 -32.685  1.00  0.00     0.165 C 
BRANCH  25  26
HETATM   26  N6  UNL     1     -28.998   8.265 -32.025  1.00  0.00    -0.370 N 
ATOM     27  H6  UNL     1     -28.452   7.626 -32.604  1.00  0.00     0.161 HD
BRANCH  26  28
HETATM   28  C15 UNL     1     -28.788   8.241 -30.738  1.00  0.00     0.117 A 
HETATM   29  C16 UNL     1     -27.868   9.068 -30.094  1.00  0.00     0.068 A 
HETATM   30  C17 UNL     1     -27.936   8.740 -28.765  1.00  0.00     0.111 A 
HETATM   31  N7  UNL     1     -28.851   7.762 -28.589  1.00  0.00    -0.310 N 
HETATM   32  N8  UNL     1     -29.336   7.492 -29.784  1.00  0.00    -0.286 N 
ATOM     33  H7  UNL     1     -29.113   7.320 -27.708  1.00  0.00     0.186 HD
ATOM     34  H8  UNL     1     -30.052   6.786 -29.959  1.00  0.00     0.188 HD
ENDBRANCH  26  28
ENDBRANCH  25  26
ENDBRANCH  24  25
ENDBRANCH  22  24
ENDBRANCH  21  22
ENDBRANCH  20  21
ENDBRANCH  19  20
ENDBRANCH   1  19
TORSDOF 18
ENDMDL
MODEL 5
REMARK VINA RESULT: -5.315384416      7.757     12.494
REMARK  18 active torsions:
REMARK  status: ('A' for Active; 'I' for Inactive)
REMARK    1  A    between atoms: N1_2  and  C3_4 
REMARK    2  A    between atoms: C3_4  and  N2_6 
REMARK    3  A    between atoms: N2_6  and  C4_8 
REMARK    4  A    between atoms: C4_8  and  C5_9 
REMARK    5  A    between atoms: C5_9  and  N3_10 
REMARK    6  A    between atoms: N3_10  and  C6_12 
REMARK    7  A    between atoms: C6_12  and  C7_13 
REMARK    8  A    between atoms: C7_13  and  C8_14 
REMARK    9  A    between atoms: C8_14  and  C9_15 
REMARK   10  A    between atoms: C9_15  and  N4_16 
REMARK   11  A    between atoms: N4_16  and  C10_19 
REMARK   12  A    between atoms: C10_19  and  C11_20 
REMARK   13  A    between atoms: C11_20  and  C12_21 
REMARK   14  A    between atoms: C12_21  and  N5_22 
REMARK   15  A    between atoms: N5_22  and  C13_24 
REMARK   16  A    between atoms: C13_24  and  C14_25 
REMARK   17  A    between atoms: C14_25  and  N6_26 
REMARK   18  A    between atoms: N6_26  and  C15_28 
ROOT
HETATM    1  N4  UNL     1     -44.802   3.576 -35.716  1.00  0.00    -0.075 N 
ATOM      2  H41 UNL     1     -45.645   3.954 -36.148  1.00  0.00     0.277 HD
ATOM      3  H42 UNL     1     -44.148   4.297 -36.022  1.00  0.00     0.277 HD
ENDROOT
BRANCH   1   4
HETATM    4  C9  UNL     1     -44.456   2.255 -36.235  1.00  0.00     0.232 C 
BRANCH   4   5
HETATM    5  C8  UNL     1     -45.126   1.208 -35.422  1.00  0.00     0.029 C 
BRANCH   5   6
HETATM    6  C7  UNL     1     -45.900   0.183 -36.253  1.00  0.00     0.021 C 
BRANCH   6   7
HETATM    7  C6  UNL     1     -45.424  -1.197 -35.868  1.00  0.00     0.113 C 
BRANCH   7   8
HETATM    8  N3  UNL     1     -44.201  -1.072 -35.153  1.00  0.00    -0.420 N 
ATOM      9  H3  UNL     1     -43.494  -0.388 -35.420  1.00  0.00     0.153 HD
BRANCH   8  10
HETATM   10  C5  UNL     1     -44.011  -1.951 -34.038  1.00  0.00     0.133 C 
BRANCH  10  11
HETATM   11  C4  UNL     1     -42.497  -2.265 -34.038  1.00  0.00     0.141 C 
BRANCH  11  12
HETATM   12  N2  UNL     1     -42.020  -1.889 -32.715  1.00  0.00    -0.366 N 
ATOM     13  H2  UNL     1     -42.190  -2.495 -31.912  1.00  0.00     0.161 HD
BRANCH  12  14
HETATM   14  C3  UNL     1     -41.317  -0.670 -32.560  1.00  0.00     0.169 C 
HETATM   15  S1  UNL     1     -39.708  -0.702 -32.277  1.00  0.00    -0.041 SA
BRANCH  14  16
HETATM   16  N1  UNL     1     -42.044   0.538 -32.653  1.00  0.00    -0.367 N 
HETATM   17  C1  UNL     1     -41.787   1.440 -33.753  1.00  0.00     0.151 C 
HETATM   18  C2  UNL     1     -43.018   0.871 -31.653  1.00  0.00     0.151 C 
ENDBRANCH  14  16
ENDBRANCH  12  14
ENDBRANCH  11  12
ENDBRANCH  10  11
ENDBRANCH   8  10
ENDBRANCH   7   8
ENDBRANCH   6   7
ENDBRANCH   5   6
ENDBRANCH   4   5
ENDBRANCH   1   4
BRANCH   1  19
HETATM   19  C10 UNL     1     -44.908   3.502 -34.280  1.00  0.00     0.234 C 
BRANCH  19  20
HETATM   20  C11 UNL     1     -45.063   4.871 -33.714  1.00  0.00     0.047 C 
BRANCH  20  21
HETATM   21  C12 UNL     1     -44.757   5.991 -34.709  1.00  0.00     0.120 C 
BRANCH  21  22
HETATM   22  N5  UNL     1     -44.004   7.008 -34.080  1.00  0.00    -0.401 N 
ATOM     23  H5  UNL     1     -44.188   7.985 -34.308  1.00  0.00     0.158 HD
BRANCH  22  24
HETATM   24  C13 UNL     1     -43.003   6.690 -33.142  1.00  0.00     0.075 C 
BRANCH  24  25
HETATM   25  C14 UNL     1     -41.598   6.601 -33.642  1.00  0.00     0.165 C 
BRANCH  25  26
HETATM   26  N6  UNL     1     -41.186   5.324 -34.132  1.00  0.00    -0.370 N 
ATOM     27  H6  UNL     1     -41.705   4.930 -34.916  1.00  0.00     0.161 HD
BRANCH  26  28
HETATM   28  C15 UNL     1     -40.196   4.625 -33.651  1.00  0.00     0.117 A 
HETATM   29  C16 UNL     1     -39.995   4.413 -32.288  1.00  0.00     0.068 A 
HETATM   30  C17 UNL     1     -38.862   3.648 -32.190  1.00  0.00     0.111 A 
HETATM   31  N7  UNL     1     -38.383   3.394 -33.427  1.00  0.00    -0.310 N 
HETATM   32  N8  UNL     1     -39.202   3.991 -34.269  1.00  0.00    -0.286 N 
ATOM     33  H7  UNL     1     -37.553   2.850 -33.662  1.00  0.00     0.186 HD
ATOM     34  H8  UNL     1     -39.087   3.970 -35.283  1.00  0.00     0.188 HD
ENDBRANCH  26  28
ENDBRANCH  25  26
ENDBRANCH  24  25
ENDBRANCH  22  24
ENDBRANCH  21  22
ENDBRANCH  20  21
ENDBRANCH  19  20
ENDBRANCH   1  19
TORSDOF 18
ENDMDL
