MODEL 1
REMARK VINA RESULT: -6.799226629      0.000      0.000
REMARK  17 active torsions:
REMARK  status: ('A' for Active; 'I' for Inactive)
REMARK    1  A    between atoms: N1_1  and  C1_5 
REMARK    2  A    between atoms: C1_5  and  C2_6 
REMARK    3  A    between atoms: C2_6  and  C3_7 
REMARK    4  A    between atoms: C3_7  and  N2_8 
REMARK    5  A    between atoms: C7_13  and  C8_14 
REMARK    6  A    between atoms: C8_14  and  N4_15 
REMARK    7  A    between atoms: C12_19  and  C13_20 
REMARK    8  A    between atoms: C13_20  and  N5_21 
REMARK    9  A    between atoms: N5_21  and  C14_23 
REMARK   10  A    between atoms: C14_23  and  C15_24 
REMARK   11  A    between atoms: C15_24  and  C16_25 
REMARK   12  A    between atoms: C16_25  and  N6_26 
REMARK   13  A    between atoms: N6_26  and  C17_28 
REMARK   14  A    between atoms: C17_28  and  C18_29 
REMARK   15  A    between atoms: C18_29  and  C19_30 
REMARK   16  A    between atoms: C19_30  and  N7_31 
REMARK   17  A    between atoms: N7_31  and  O1_33 
ROOT
HETATM    1  N4  UNL     1     -44.095   3.256 -34.186  1.00  0.00     0.102 N 
HETATM    2  C9  UNL     1     -45.230   3.927 -33.616  1.00  0.00     0.273 C 
HETATM    3  C10 UNL     1     -44.648   4.476 -32.304  1.00  0.00     0.033 C 
HETATM    4  C11 UNL     1     -43.274   4.934 -32.735  1.00  0.00     0.043 C 
HETATM    5  C12 UNL     1     -43.019   4.225 -34.006  1.00  0.00     0.261 C 
ENDROOT
BRANCH   1   6
HETATM    6  C8  UNL     1     -44.246   2.773 -35.517  1.00  0.00     0.313 C 
BRANCH   6   7
HETATM    7  C7  UNL     1     -44.463   1.281 -35.486  1.00  0.00    -0.013 A 
HETATM    8  C6  UNL     1     -43.563   0.453 -34.846  1.00  0.00     0.038 A 
HETATM    9  C5  UNL     1     -43.766  -0.909 -34.819  1.00  0.00     0.062 A 
HETATM   10  C4  UNL     1     -44.887  -1.420 -35.448  1.00  0.00     0.117 A 
HETATM   11  N3  UNL     1     -42.819  -1.728 -34.138  1.00  0.00    -0.101 NA
HETATM   12  N2  UNL     1     -45.786  -0.640 -36.084  1.00  0.00    -0.364 N 
HETATM   13  C20 UNL     1     -45.549   0.685 -36.086  1.00  0.00     0.099 A 
BRANCH  12  14
HETATM   14  C3  UNL     1     -46.959  -1.175 -36.751  1.00  0.00     0.129 C 
BRANCH  14  15
HETATM   15  C2  UNL     1     -47.348  -0.413 -37.990  1.00  0.00     0.047 C 
BRANCH  15  16
HETATM   16  C1  UNL     1     -47.482  -1.425 -39.109  1.00  0.00     0.231 C 
BRANCH  16  17
HETATM   17  N1  UNL     1     -46.220  -1.462 -39.814  1.00  0.00    -0.079 N 
ATOM     18  H13 UNL     1     -46.308  -1.221 -40.801  1.00  0.00     0.274 HD
ATOM     19  H12 UNL     1     -45.593  -0.702 -39.547  1.00  0.00     0.274 HD
ATOM     20  H11 UNL     1     -45.812  -2.385 -39.664  1.00  0.00     0.274 HD
ENDBRANCH  16  17
ENDBRANCH  15  16
ENDBRANCH  14  15
ENDBRANCH  12  14
ENDBRANCH   6   7
ENDBRANCH   1   6
BRANCH   5  21
HETATM   21  C13 UNL     1     -41.678   3.613 -34.069  1.00  0.00     0.095 C 
BRANCH  21  22
HETATM   22  N5  UNL     1     -40.639   4.111 -33.304  1.00  0.00    -0.380 N 
ATOM     23  H5  UNL     1     -40.905   4.562 -32.429  1.00  0.00     0.164 HD
BRANCH  22  24
HETATM   24  C14 UNL     1     -39.281   4.073 -33.578  1.00  0.00     0.061 C 
BRANCH  24  25
HETATM   25  C15 UNL     1     -38.355   3.520 -32.535  1.00  0.00     0.063 C 
BRANCH  25  26
HETATM   26  C16 UNL     1     -37.255   4.507 -32.246  1.00  0.00     0.118 C 
BRANCH  26  27
HETATM   27  N6  UNL     1     -36.292   4.500 -33.287  1.00  0.00    -0.421 N 
ATOM     28  H6  UNL     1     -36.550   4.392 -34.268  1.00  0.00     0.153 HD
BRANCH  27  29
HETATM   29  C17 UNL     1     -34.921   4.655 -32.860  1.00  0.00     0.115 C 
BRANCH  29  30
HETATM   30  C18 UNL     1     -33.964   4.157 -33.910  1.00  0.00     0.041 C 
BRANCH  30  31
HETATM   31  C19 UNL     1     -33.400   2.833 -33.483  1.00  0.00     0.148 C 
BRANCH  31  32
HETATM   32  N7  UNL     1     -33.313   1.832 -34.495  1.00  0.00    -0.305 N 
ATOM     33  H7  UNL     1     -33.789   1.918 -35.393  1.00  0.00     0.187 HD
BRANCH  32  34
HETATM   34  O1  UNL     1     -32.553   0.760 -34.173  1.00  0.00    -0.295 OA
ATOM     35  H1  UNL     1     -32.927   0.188 -33.513  1.00  0.00     0.244 HD
ENDBRANCH  32  34
ENDBRANCH  31  32
ENDBRANCH  30  31
ENDBRANCH  29  30
ENDBRANCH  27  29
ENDBRANCH  26  27
ENDBRANCH  25  26
ENDBRANCH  24  25
ENDBRANCH  22  24
ENDBRANCH  21  22
ENDBRANCH   5  21
TORSDOF 17
ENDMDL
MODEL 2
REMARK VINA RESULT: -6.750625464      1.900      3.517
REMARK  17 active torsions:
REMARK  status: ('A' for Active; 'I' for Inactive)
REMARK    1  A    between atoms: N1_1  and  C1_5 
REMARK    2  A    between atoms: C1_5  and  C2_6 
REMARK    3  A    between atoms: C2_6  and  C3_7 
REMARK    4  A    between atoms: C3_7  and  N2_8 
REMARK    5  A    between atoms: C7_13  and  C8_14 
REMARK    6  A    between atoms: C8_14  and  N4_15 
REMARK    7  A    between atoms: C12_19  and  C13_20 
REMARK    8  A    between atoms: C13_20  and  N5_21 
REMARK    9  A    between atoms: N5_21  and  C14_23 
REMARK   10  A    between atoms: C14_23  and  C15_24 
REMARK   11  A    between atoms: C15_24  and  C16_25 
REMARK   12  A    between atoms: C16_25  and  N6_26 
REMARK   13  A    between atoms: N6_26  and  C17_28 
REMARK   14  A    between atoms: C17_28  and  C18_29 
REMARK   15  A    between atoms: C18_29  and  C19_30 
REMARK   16  A    between atoms: C19_30  and  N7_31 
REMARK   17  A    between atoms: N7_31  and  O1_33 
ROOT
HETATM    1  N4  UNL     1     -41.925  -1.106 -33.365  1.00  0.00     0.102 N 
HETATM    2  C9  UNL     1     -41.802  -2.535 -33.429  1.00  0.00     0.273 C 
HETATM    3  C10 UNL     1     -40.310  -2.711 -33.752  1.00  0.00     0.033 C 
HETATM    4  C11 UNL     1     -39.672  -1.646 -32.889  1.00  0.00     0.043 C 
HETATM    5  C12 UNL     1     -40.771  -0.714 -32.564  1.00  0.00     0.261 C 
ENDROOT
BRANCH   1   6
HETATM    6  C8  UNL     1     -43.173  -0.596 -32.905  1.00  0.00     0.313 C 
BRANCH   6   7
HETATM    7  C7  UNL     1     -43.926   0.007 -34.063  1.00  0.00    -0.013 A 
HETATM    8  C6  UNL     1     -43.820   1.354 -34.347  1.00  0.00     0.038 A 
HETATM    9  C5  UNL     1     -44.509   1.899 -35.407  1.00  0.00     0.062 A 
HETATM   10  C4  UNL     1     -45.304   1.067 -36.173  1.00  0.00     0.117 A 
HETATM   11  N3  UNL     1     -44.363   3.292 -35.671  1.00  0.00    -0.101 NA
HETATM   12  N2  UNL     1     -45.432  -0.253 -35.924  1.00  0.00    -0.364 N 
HETATM   13  C20 UNL     1     -44.742  -0.745 -34.878  1.00  0.00     0.099 A 
BRANCH  12  14
HETATM   14  C3  UNL     1     -46.273  -1.126 -36.722  1.00  0.00     0.129 C 
BRANCH  14  15
HETATM   15  C2  UNL     1     -47.099  -0.398 -37.747  1.00  0.00     0.047 C 
BRANCH  15  16
HETATM   16  C1  UNL     1     -47.399  -1.383 -38.858  1.00  0.00     0.231 C 
BRANCH  16  17
HETATM   17  N1  UNL     1     -46.253  -1.402 -39.741  1.00  0.00    -0.079 N 
ATOM     18  H13 UNL     1     -45.988  -0.473 -40.068  1.00  0.00     0.274 HD
ATOM     19  H12 UNL     1     -45.383  -1.626 -39.259  1.00  0.00     0.274 HD
ATOM     20  H11 UNL     1     -46.464  -2.047 -40.502  1.00  0.00     0.274 HD
ENDBRANCH  16  17
ENDBRANCH  15  16
ENDBRANCH  14  15
ENDBRANCH  12  14
ENDBRANCH   6   7
ENDBRANCH   1   6
BRANCH   5  21
HETATM   21  C13 UNL     1     -40.400   0.703 -32.744  1.00  0.00     0.095 C 
BRANCH  21  22
HETATM   22  N5  UNL     1     -39.442   1.290 -31.937  1.00  0.00    -0.380 N 
ATOM     23  H5  UNL     1     -39.506   1.078 -30.942  1.00  0.00     0.164 HD
BRANCH  22  24
HETATM   24  C14 UNL     1     -38.405   2.128 -32.312  1.00  0.00     0.061 C 
BRANCH  24  25
HETATM   25  C15 UNL     1     -38.725   3.553 -32.655  1.00  0.00     0.063 C 
BRANCH  25  26
HETATM   26  C16 UNL     1     -37.487   4.403 -32.536  1.00  0.00     0.118 C 
BRANCH  26  27
HETATM   27  N6  UNL     1     -36.322   3.619 -32.735  1.00  0.00    -0.421 N 
ATOM     28  H6  UNL     1     -36.312   2.610 -32.587  1.00  0.00     0.153 HD
BRANCH  27  29
HETATM   29  C17 UNL     1     -35.152   4.351 -33.161  1.00  0.00     0.115 C 
BRANCH  29  30
HETATM   30  C18 UNL     1     -33.889   3.605 -32.819  1.00  0.00     0.041 C 
BRANCH  30  31
HETATM   31  C19 UNL     1     -33.317   2.996 -34.065  1.00  0.00     0.148 C 
BRANCH  31  32
HETATM   32  N7  UNL     1     -33.558   1.602 -34.249  1.00  0.00    -0.305 N 
ATOM     33  H7  UNL     1     -34.495   1.219 -34.370  1.00  0.00     0.187 HD
BRANCH  32  34
HETATM   34  O1  UNL     1     -32.449   0.827 -34.252  1.00  0.00    -0.295 OA
ATOM     35  H1  UNL     1     -32.535   0.007 -34.725  1.00  0.00     0.244 HD
ENDBRANCH  32  34
ENDBRANCH  31  32
ENDBRANCH  30  31
ENDBRANCH  29  30
ENDBRANCH  27  29
ENDBRANCH  26  27
ENDBRANCH  25  26
ENDBRANCH  24  25
ENDBRANCH  22  24
ENDBRANCH  21  22
ENDBRANCH   5  21
TORSDOF 17
ENDMDL
MODEL 3
REMARK VINA RESULT: -6.715648073      1.289      3.367
REMARK  17 active torsions:
REMARK  status: ('A' for Active; 'I' for Inactive)
REMARK    1  A    between atoms: N1_1  and  C1_5 
REMARK    2  A    between atoms: C1_5  and  C2_6 
REMARK    3  A    between atoms: C2_6  and  C3_7 
REMARK    4  A    between atoms: C3_7  and  N2_8 
REMARK    5  A    between atoms: C7_13  and  C8_14 
REMARK    6  A    between atoms: C8_14  and  N4_15 
REMARK    7  A    between atoms: C12_19  and  C13_20 
REMARK    8  A    between atoms: C13_20  and  N5_21 
REMARK    9  A    between atoms: N5_21  and  C14_23 
REMARK   10  A    between atoms: C14_23  and  C15_24 
REMARK   11  A    between atoms: C15_24  and  C16_25 
REMARK   12  A    between atoms: C16_25  and  N6_26 
REMARK   13  A    between atoms: N6_26  and  C17_28 
REMARK   14  A    between atoms: C17_28  and  C18_29 
REMARK   15  A    between atoms: C18_29  and  C19_30 
REMARK   16  A    between atoms: C19_30  and  N7_31 
REMARK   17  A    between atoms: N7_31  and  O1_33 
ROOT
HETATM    1  N4  UNL     1     -44.096   3.154 -34.244  1.00  0.00     0.102 N 
HETATM    2  C9  UNL     1     -45.211   3.913 -33.751  1.00  0.00     0.273 C 
HETATM    3  C10 UNL     1     -44.638   4.519 -32.461  1.00  0.00     0.033 C 
HETATM    4  C11 UNL     1     -43.232   4.884 -32.882  1.00  0.00     0.043 C 
HETATM    5  C12 UNL     1     -42.980   4.083 -34.096  1.00  0.00     0.261 C 
ENDROOT
BRANCH   1   6
HETATM    6  C8  UNL     1     -44.236   2.592 -35.545  1.00  0.00     0.313 C 
BRANCH   6   7
HETATM    7  C7  UNL     1     -44.406   1.098 -35.429  1.00  0.00    -0.013 A 
HETATM    8  C6  UNL     1     -45.506   0.471 -35.980  1.00  0.00     0.038 A 
HETATM    9  C5  UNL     1     -45.657  -0.893 -35.872  1.00  0.00     0.062 A 
HETATM   10  C4  UNL     1     -44.684  -1.612 -35.201  1.00  0.00     0.117 A 
HETATM   11  N3  UNL     1     -46.801  -1.503 -36.464  1.00  0.00    -0.101 NA
HETATM   12  N2  UNL     1     -43.598  -1.032 -34.650  1.00  0.00    -0.364 N 
HETATM   13  C20 UNL     1     -43.490   0.303 -34.778  1.00  0.00     0.099 A 
BRANCH  12  14
HETATM   14  C3  UNL     1     -42.580  -1.784 -33.939  1.00  0.00     0.129 C 
BRANCH  14  15
HETATM   15  C2  UNL     1     -41.611  -0.918 -33.179  1.00  0.00     0.047 C 
BRANCH  15  16
HETATM   16  C1  UNL     1     -40.793  -1.837 -32.295  1.00  0.00     0.231 C 
BRANCH  16  17
HETATM   17  N1  UNL     1     -39.431  -1.803 -32.778  1.00  0.00    -0.079 N 
ATOM     18  H13 UNL     1     -39.323  -1.250 -33.628  1.00  0.00     0.274 HD
ATOM     19  H12 UNL     1     -38.811  -1.252 -32.183  1.00  0.00     0.274 HD
ATOM     20  H11 UNL     1     -39.121  -2.768 -32.888  1.00  0.00     0.274 HD
ENDBRANCH  16  17
ENDBRANCH  15  16
ENDBRANCH  14  15
ENDBRANCH  12  14
ENDBRANCH   6   7
ENDBRANCH   1   6
BRANCH   5  21
HETATM   21  C13 UNL     1     -41.668   3.406 -34.081  1.00  0.00     0.095 C 
BRANCH  21  22
HETATM   22  N5  UNL     1     -40.496   4.141 -34.066  1.00  0.00    -0.380 N 
ATOM     23  H5  UNL     1     -40.563   5.096 -34.417  1.00  0.00     0.164 HD
BRANCH  22  24
HETATM   24  C14 UNL     1     -39.243   3.741 -33.632  1.00  0.00     0.061 C 
BRANCH  24  25
HETATM   25  C15 UNL     1     -38.608   4.484 -32.494  1.00  0.00     0.063 C 
BRANCH  25  26
HETATM   26  C16 UNL     1     -37.207   3.982 -32.266  1.00  0.00     0.118 C 
BRANCH  26  27
HETATM   27  N6  UNL     1     -36.320   4.522 -33.232  1.00  0.00    -0.421 N 
ATOM     28  H6  UNL     1     -36.629   4.792 -34.166  1.00  0.00     0.153 HD
BRANCH  27  29
HETATM   29  C17 UNL     1     -34.949   4.663 -32.799  1.00  0.00     0.115 C 
BRANCH  29  30
HETATM   30  C18 UNL     1     -33.994   4.143 -33.841  1.00  0.00     0.041 C 
BRANCH  30  31
HETATM   31  C19 UNL     1     -33.524   2.774 -33.446  1.00  0.00     0.148 C 
BRANCH  31  32
HETATM   32  N7  UNL     1     -33.291   1.859 -34.516  1.00  0.00    -0.305 N 
ATOM     33  H7  UNL     1     -33.656   2.010 -35.456  1.00  0.00     0.187 HD
BRANCH  32  34
HETATM   34  O1  UNL     1     -32.549   0.775 -34.188  1.00  0.00    -0.295 OA
ATOM     35  H1  UNL     1     -32.332   0.204 -34.915  1.00  0.00     0.244 HD
ENDBRANCH  32  34
ENDBRANCH  31  32
ENDBRANCH  30  31
ENDBRANCH  29  30
ENDBRANCH  27  29
ENDBRANCH  26  27
ENDBRANCH  25  26
ENDBRANCH  24  25
ENDBRANCH  22  24
ENDBRANCH  21  22
ENDBRANCH   5  21
TORSDOF 17
ENDMDL
MODEL 4
REMARK VINA RESULT: -6.709607772      2.034      4.478
REMARK  17 active torsions:
REMARK  status: ('A' for Active; 'I' for Inactive)
REMARK    1  A    between atoms: N1_1  and  C1_5 
REMARK    2  A    between atoms: C1_5  and  C2_6 
REMARK    3  A    between atoms: C2_6  and  C3_7 
REMARK    4  A    between atoms: C3_7  and  N2_8 
REMARK    5  A    between atoms: C7_13  and  C8_14 
REMARK    6  A    between atoms: C8_14  and  N4_15 
REMARK    7  A    between atoms: C12_19  and  C13_20 
REMARK    8  A    between atoms: C13_20  and  N5_21 
REMARK    9  A    between atoms: N5_21  and  C14_23 
REMARK   10  A    between atoms: C14_23  and  C15_24 
REMARK   11  A    between atoms: C15_24  and  C16_25 
REMARK   12  A    between atoms: C16_25  and  N6_26 
REMARK   13  A    between atoms: N6_26  and  C17_28 
REMARK   14  A    between atoms: C17_28  and  C18_29 
REMARK   15  A    between atoms: C18_29  and  C19_30 
REMARK   16  A    between atoms: C19_30  and  N7_31 
REMARK   17  A    between atoms: N7_31  and  O1_33 
ROOT
HETATM    1  N4  UNL     1     -41.965  -1.327 -33.388  1.00  0.00     0.102 N 
HETATM    2  C9  UNL     1     -41.831  -2.755 -33.451  1.00  0.00     0.273 C 
HETATM    3  C10 UNL     1     -40.338  -2.921 -33.773  1.00  0.00     0.033 C 
HETATM    4  C11 UNL     1     -39.709  -1.851 -32.910  1.00  0.00     0.043 C 
HETATM    5  C12 UNL     1     -40.814  -0.927 -32.585  1.00  0.00     0.261 C 
ENDROOT
BRANCH   1   6
HETATM    6  C8  UNL     1     -43.216  -0.825 -32.928  1.00  0.00     0.313 C 
BRANCH   6   7
HETATM    7  C7  UNL     1     -44.013  -0.315 -34.102  1.00  0.00    -0.013 A 
HETATM    8  C6  UNL     1     -44.862  -1.155 -34.794  1.00  0.00     0.038 A 
HETATM    9  C5  UNL     1     -45.589  -0.684 -35.864  1.00  0.00     0.062 A 
HETATM   10  C4  UNL     1     -45.445   0.644 -36.225  1.00  0.00     0.117 A 
HETATM   11  N3  UNL     1     -46.462  -1.581 -36.545  1.00  0.00    -0.101 NA
HETATM   12  N2  UNL     1     -44.624   1.492 -35.572  1.00  0.00    -0.364 N 
HETATM   13  C20 UNL     1     -43.931   0.991 -34.532  1.00  0.00     0.099 A 
BRANCH  12  14
HETATM   14  C3  UNL     1     -44.465   2.884 -35.953  1.00  0.00     0.129 C 
BRANCH  14  15
HETATM   15  C2  UNL     1     -44.787   3.853 -34.847  1.00  0.00     0.047 C 
BRANCH  15  16
HETATM   16  C1  UNL     1     -43.747   4.952 -34.904  1.00  0.00     0.231 C 
BRANCH  16  17
HETATM   17  N1  UNL     1     -42.474   4.363 -34.549  1.00  0.00    -0.079 N 
ATOM     18  H13 UNL     1     -42.489   3.900 -33.641  1.00  0.00     0.274 HD
ATOM     19  H12 UNL     1     -42.244   3.544 -35.112  1.00  0.00     0.274 HD
ATOM     20  H11 UNL     1     -41.770   5.099 -34.610  1.00  0.00     0.274 HD
ENDBRANCH  16  17
ENDBRANCH  15  16
ENDBRANCH  14  15
ENDBRANCH  12  14
ENDBRANCH   6   7
ENDBRANCH   1   6
BRANCH   5  21
HETATM   21  C13 UNL     1     -40.453   0.493 -32.766  1.00  0.00     0.095 C 
BRANCH  21  22
HETATM   22  N5  UNL     1     -39.288   1.000 -32.218  1.00  0.00    -0.380 N 
ATOM     23  H5  UNL     1     -38.868   0.446 -31.472  1.00  0.00     0.164 HD
BRANCH  22  24
HETATM   24  C14 UNL     1     -38.621   2.166 -32.556  1.00  0.00     0.061 C 
BRANCH  24  25
HETATM   25  C15 UNL     1     -38.218   3.105 -31.458  1.00  0.00     0.063 C 
BRANCH  25  26
HETATM   26  C16 UNL     1     -37.317   4.181 -32.003  1.00  0.00     0.118 C 
BRANCH  26  27
HETATM   27  N6  UNL     1     -36.309   3.618 -32.827  1.00  0.00    -0.421 N 
ATOM     28  H6  UNL     1     -36.427   2.722 -33.299  1.00  0.00     0.153 HD
BRANCH  27  29
HETATM   29  C17 UNL     1     -35.103   4.404 -32.948  1.00  0.00     0.115 C 
BRANCH  29  30
HETATM   30  C18 UNL     1     -33.882   3.575 -32.648  1.00  0.00     0.041 C 
BRANCH  30  31
HETATM   31  C19 UNL     1     -33.312   3.045 -33.931  1.00  0.00     0.148 C 
BRANCH  31  32
HETATM   32  N7  UNL     1     -33.575   1.672 -34.214  1.00  0.00    -0.305 N 
ATOM     33  H7  UNL     1     -34.518   1.314 -34.363  1.00  0.00     0.187 HD
BRANCH  32  34
HETATM   34  O1  UNL     1     -32.479   0.880 -34.269  1.00  0.00    -0.295 OA
ATOM     35  H1  UNL     1     -31.947   0.987 -35.050  1.00  0.00     0.244 HD
ENDBRANCH  32  34
ENDBRANCH  31  32
ENDBRANCH  30  31
ENDBRANCH  29  30
ENDBRANCH  27  29
ENDBRANCH  26  27
ENDBRANCH  25  26
ENDBRANCH  24  25
ENDBRANCH  22  24
ENDBRANCH  21  22
ENDBRANCH   5  21
TORSDOF 17
ENDMDL
MODEL 5
REMARK VINA RESULT: -6.594018881      2.531      4.766
REMARK  17 active torsions:
REMARK  status: ('A' for Active; 'I' for Inactive)
REMARK    1  A    between atoms: N1_1  and  C1_5 
REMARK    2  A    between atoms: C1_5  and  C2_6 
REMARK    3  A    between atoms: C2_6  and  C3_7 
REMARK    4  A    between atoms: C3_7  and  N2_8 
REMARK    5  A    between atoms: C7_13  and  C8_14 
REMARK    6  A    between atoms: C8_14  and  N4_15 
REMARK    7  A    between atoms: C12_19  and  C13_20 
REMARK    8  A    between atoms: C13_20  and  N5_21 
REMARK    9  A    between atoms: N5_21  and  C14_23 
REMARK   10  A    between atoms: C14_23  and  C15_24 
REMARK   11  A    between atoms: C15_24  and  C16_25 
REMARK   12  A    between atoms: C16_25  and  N6_26 
REMARK   13  A    between atoms: N6_26  and  C17_28 
REMARK   14  A    between atoms: C17_28  and  C18_29 
REMARK   15  A    between atoms: C18_29  and  C19_30 
REMARK   16  A    between atoms: C19_30  and  N7_31 
REMARK   17  A    between atoms: N7_31  and  O1_33 
ROOT
HETATM    1  N4  UNL     1     -41.946  -1.403 -33.456  1.00  0.00     0.102 N 
HETATM    2  C9  UNL     1     -41.721  -2.812 -33.613  1.00  0.00     0.273 C 
HETATM    3  C10 UNL     1     -40.215  -2.862 -33.913  1.00  0.00     0.033 C 
HETATM    4  C11 UNL     1     -39.670  -1.818 -32.965  1.00  0.00     0.043 C 
HETATM    5  C12 UNL     1     -40.837  -0.989 -32.603  1.00  0.00     0.261 C 
ENDROOT
BRANCH   1   6
HETATM    6  C8  UNL     1     -43.234  -1.013 -32.991  1.00  0.00     0.313 C 
BRANCH   6   7
HETATM    7  C7  UNL     1     -44.031  -0.447 -34.139  1.00  0.00    -0.013 A 
HETATM    8  C6  UNL     1     -44.887  -1.250 -34.865  1.00  0.00     0.038 A 
HETATM    9  C5  UNL     1     -45.614  -0.728 -35.911  1.00  0.00     0.062 A 
HETATM   10  C4  UNL     1     -45.462   0.613 -36.214  1.00  0.00     0.117 A 
HETATM   11  N3  UNL     1     -46.494  -1.590 -36.628  1.00  0.00    -0.101 NA
HETATM   12  N2  UNL     1     -44.634   1.427 -35.527  1.00  0.00    -0.364 N 
HETATM   13  C20 UNL     1     -43.942   0.876 -34.512  1.00  0.00     0.099 A 
BRANCH  12  14
HETATM   14  C3  UNL     1     -44.467   2.833 -35.847  1.00  0.00     0.129 C 
BRANCH  14  15
HETATM   15  C2  UNL     1     -44.816   3.756 -34.710  1.00  0.00     0.047 C 
BRANCH  15  16
HETATM   16  C1  UNL     1     -45.077   5.121 -35.311  1.00  0.00     0.231 C 
BRANCH  16  17
HETATM   17  N1  UNL     1     -44.035   6.008 -34.841  1.00  0.00    -0.079 N 
ATOM     18  H13 UNL     1     -44.315   6.989 -34.846  1.00  0.00     0.274 HD
ATOM     19  H12 UNL     1     -43.862   5.924 -33.840  1.00  0.00     0.274 HD
ATOM     20  H11 UNL     1     -43.204   5.828 -35.405  1.00  0.00     0.274 HD
ENDBRANCH  16  17
ENDBRANCH  15  16
ENDBRANCH  14  15
ENDBRANCH  12  14
ENDBRANCH   6   7
ENDBRANCH   1   6
BRANCH   5  21
HETATM   21  C13 UNL     1     -40.564   0.460 -32.678  1.00  0.00     0.095 C 
BRANCH  21  22
HETATM   22  N5  UNL     1     -39.495   1.013 -31.997  1.00  0.00    -0.380 N 
ATOM     23  H5  UNL     1     -39.361   0.690 -31.039  1.00  0.00     0.164 HD
BRANCH  22  24
HETATM   24  C14 UNL     1     -38.582   1.949 -32.453  1.00  0.00     0.061 C 
BRANCH  24  25
HETATM   25  C15 UNL     1     -38.428   3.230 -31.688  1.00  0.00     0.063 C 
BRANCH  25  26
HETATM   26  C16 UNL     1     -37.685   4.243 -32.520  1.00  0.00     0.118 C 
BRANCH  26  27
HETATM   27  N6  UNL     1     -36.289   3.993 -32.481  1.00  0.00    -0.421 N 
ATOM     28  H6  UNL     1     -35.906   3.066 -32.301  1.00  0.00     0.153 HD
BRANCH  27  29
HETATM   29  C17 UNL     1     -35.451   5.146 -32.713  1.00  0.00     0.115 C 
BRANCH  29  30
HETATM   30  C18 UNL     1     -34.630   4.979 -33.964  1.00  0.00     0.041 C 
BRANCH  30  31
HETATM   31  C19 UNL     1     -33.188   5.258 -33.656  1.00  0.00     0.148 C 
BRANCH  31  32
HETATM   32  N7  UNL     1     -32.825   6.633 -33.548  1.00  0.00    -0.305 N 
ATOM     33  H7  UNL     1     -33.460   7.341 -33.180  1.00  0.00     0.187 HD
BRANCH  32  34
HETATM   34  O1  UNL     1     -31.573   6.927 -33.972  1.00  0.00    -0.295 OA
ATOM     35  H1  UNL     1     -31.198   6.299 -34.578  1.00  0.00     0.244 HD
ENDBRANCH  32  34
ENDBRANCH  31  32
ENDBRANCH  30  31
ENDBRANCH  29  30
ENDBRANCH  27  29
ENDBRANCH  26  27
ENDBRANCH  25  26
ENDBRANCH  24  25
ENDBRANCH  22  24
ENDBRANCH  21  22
ENDBRANCH   5  21
TORSDOF 17
ENDMDL
