MODEL 1
REMARK VINA RESULT: -6.219963382      0.000      0.000
REMARK  18 active torsions:
REMARK  status: ('A' for Active; 'I' for Inactive)
REMARK    1  A    between atoms: C4_5  and  C5_6 
REMARK    2  A    between atoms: C5_6  and  C6_7 
REMARK    3  A    between atoms: C6_7  and  C7_8 
REMARK    4  A    between atoms: C7_8  and  N2_9 
REMARK    5  A    between atoms: N2_9  and  N3_10 
REMARK    6  A    between atoms: N2_9  and  C8_13 
REMARK    7  A    between atoms: C8_13  and  C9_14 
REMARK    8  A    between atoms: C9_14  and  C10_15 
REMARK    9  A    between atoms: C10_15  and  C11_16 
REMARK   10  A    between atoms: C11_16  and  C12_17 
REMARK   11  A    between atoms: C12_17  and  N4_18 
REMARK   12  A    between atoms: C12_17  and  C13_22 
REMARK   13  A    between atoms: C13_22  and  C14_23 
REMARK   14  A    between atoms: C14_23  and  C15_24 
REMARK   15  A    between atoms: C15_24  and  N5_25 
REMARK   16  A    between atoms: N5_25  and  C16_27 
REMARK   17  A    between atoms: C16_27  and  C17_28 
REMARK   18  A    between atoms: C17_28  and  N6_29 
ROOT
HETATM    1  C10 UNL     1     -35.861   4.108 -32.631  1.00  0.00     0.003 C 
ENDROOT
BRANCH   1   2
HETATM    2  C9  UNL     1     -37.279   4.473 -32.516  1.00  0.00     0.016 C 
BRANCH   2   3
HETATM    3  C8  UNL     1     -38.240   3.330 -32.247  1.00  0.00     0.113 C 
BRANCH   3   4
HETATM    4  N2  UNL     1     -39.430   3.618 -33.018  1.00  0.00    -0.238 NA
BRANCH   4   5
HETATM    5  C7  UNL     1     -40.028   4.883 -32.657  1.00  0.00     0.113 C 
BRANCH   5   6
HETATM    6  C6  UNL     1     -40.730   5.503 -33.849  1.00  0.00     0.022 C 
BRANCH   6   7
HETATM    7  C5  UNL     1     -42.194   5.786 -33.591  1.00  0.00     0.058 C 
BRANCH   7   8
HETATM    8  C4  UNL     1     -42.964   4.694 -34.241  1.00  0.00     0.011 A 
HETATM    9  C3  UNL     1     -44.136   4.915 -34.931  1.00  0.00     0.042 A 
HETATM   10  C2  UNL     1     -44.828   3.875 -35.531  1.00  0.00     0.093 A 
HETATM   11  N1  UNL     1     -44.360   2.612 -35.447  1.00  0.00    -0.357 N 
HETATM   12  C1  UNL     1     -45.094   1.508 -36.086  1.00  0.00     0.156 C 
HETATM   13  C19 UNL     1     -43.216   2.404 -34.773  1.00  0.00     0.182 A 
HETATM   14  N9  UNL     1     -42.531   3.400 -34.184  1.00  0.00    -0.356 N 
ATOM     15  H9  UNL     1     -41.668   3.185 -33.684  1.00  0.00     0.166 HD
ENDBRANCH   7   8
ENDBRANCH   6   7
ENDBRANCH   5   6
ENDBRANCH   4   5
BRANCH   4  16
HETATM   16  N3  UNL     1     -39.232   3.491 -34.388  1.00  0.00    -0.363 NA
ATOM     17  H32 UNL     1     -39.967   2.953 -34.848  1.00  0.00     0.171 HD
ATOM     18  H31 UNL     1     -38.299   3.151 -34.621  1.00  0.00     0.171 HD
ENDBRANCH   4  16
ENDBRANCH   3   4
ENDBRANCH   2   3
ENDBRANCH   1   2
BRANCH   1  19
HETATM   19  C11 UNL     1     -34.968   4.821 -33.544  1.00  0.00     0.033 C 
BRANCH  19  20
HETATM   20  C12 UNL     1     -34.181   5.993 -33.080  1.00  0.00     0.183 C 
BRANCH  20  21
HETATM   21  N4  UNL     1     -32.875   6.040 -33.728  1.00  0.00    -0.075 N 
ATOM     22  H43 UNL     1     -32.896   6.610 -34.574  1.00  0.00     0.274 HD
ATOM     23  H42 UNL     1     -32.208   6.590 -33.187  1.00  0.00     0.274 HD
ATOM     24  H41 UNL     1     -32.522   5.102 -33.915  1.00  0.00     0.274 HD
ENDBRANCH  20  21
BRANCH  20  25
HETATM   25  C13 UNL     1     -34.189   6.211 -31.628  1.00  0.00     0.037 C 
BRANCH  25  26
HETATM   26  C14 UNL     1     -35.157   7.320 -31.207  1.00  0.00     0.046 C 
BRANCH  26  27
HETATM   27  C15 UNL     1     -34.482   8.502 -30.625  1.00  0.00     0.060 C 
BRANCH  27  28
HETATM   28  N5  UNL     1     -33.391   9.075 -31.233  1.00  0.00    -0.381 N 
ATOM     29  H5  UNL     1     -33.422   9.125 -32.251  1.00  0.00     0.164 HD
BRANCH  28  30
HETATM   30  C16 UNL     1     -32.257   9.593 -30.637  1.00  0.00     0.079 C 
BRANCH  30  31
HETATM   31  C17 UNL     1     -30.970   8.983 -31.073  1.00  0.00     0.166 C 
BRANCH  31  32
HETATM   32  N6  UNL     1     -30.932   8.465 -32.392  1.00  0.00    -0.362 N 
HETATM   33  C18 UNL     1     -30.148   8.522 -33.350  1.00  0.00     0.197 C 
HETATM   34  N7  UNL     1     -30.543   7.804 -34.550  1.00  0.00    -0.067 NA
HETATM   35  N8  UNL     1     -28.915   9.231 -33.341  1.00  0.00    -0.067 NA
ATOM     36  H6  UNL     1     -31.757   7.906 -32.607  1.00  0.00     0.162 HD
ENDBRANCH  31  32
ENDBRANCH  30  31
ENDBRANCH  28  30
ENDBRANCH  27  28
ENDBRANCH  26  27
ENDBRANCH  25  26
ENDBRANCH  20  25
ENDBRANCH  19  20
ENDBRANCH   1  19
TORSDOF 18
ENDMDL
MODEL 2
REMARK VINA RESULT: -6.192468431      2.143      2.554
REMARK  18 active torsions:
REMARK  status: ('A' for Active; 'I' for Inactive)
REMARK    1  A    between atoms: C4_5  and  C5_6 
REMARK    2  A    between atoms: C5_6  and  C6_7 
REMARK    3  A    between atoms: C6_7  and  C7_8 
REMARK    4  A    between atoms: C7_8  and  N2_9 
REMARK    5  A    between atoms: N2_9  and  N3_10 
REMARK    6  A    between atoms: N2_9  and  C8_13 
REMARK    7  A    between atoms: C8_13  and  C9_14 
REMARK    8  A    between atoms: C9_14  and  C10_15 
REMARK    9  A    between atoms: C10_15  and  C11_16 
REMARK   10  A    between atoms: C11_16  and  C12_17 
REMARK   11  A    between atoms: C12_17  and  N4_18 
REMARK   12  A    between atoms: C12_17  and  C13_22 
REMARK   13  A    between atoms: C13_22  and  C14_23 
REMARK   14  A    between atoms: C14_23  and  C15_24 
REMARK   15  A    between atoms: C15_24  and  N5_25 
REMARK   16  A    between atoms: N5_25  and  C16_27 
REMARK   17  A    between atoms: C16_27  and  C17_28 
REMARK   18  A    between atoms: C17_28  and  N6_29 
ROOT
HETATM    1  C10 UNL     1     -35.899   4.203 -32.501  1.00  0.00     0.003 C 
ENDROOT
BRANCH   1   2
HETATM    2  C9  UNL     1     -37.339   4.440 -32.335  1.00  0.00     0.016 C 
BRANCH   2   3
HETATM    3  C8  UNL     1     -38.078   3.450 -31.454  1.00  0.00     0.113 C 
BRANCH   3   4
HETATM    4  N2  UNL     1     -39.009   2.760 -32.321  1.00  0.00    -0.238 NA
BRANCH   4   5
HETATM    5  C7  UNL     1     -39.588   3.634 -33.316  1.00  0.00     0.113 C 
BRANCH   5   6
HETATM    6  C6  UNL     1     -40.481   2.855 -34.259  1.00  0.00     0.022 C 
BRANCH   6   7
HETATM    7  C5  UNL     1     -41.862   2.604 -33.691  1.00  0.00     0.058 C 
BRANCH   7   8
HETATM    8  C4  UNL     1     -42.047   1.130 -33.643  1.00  0.00     0.011 A 
HETATM    9  C3  UNL     1     -43.099   0.490 -34.260  1.00  0.00     0.042 A 
HETATM   10  C2  UNL     1     -43.240  -0.888 -34.201  1.00  0.00     0.093 A 
HETATM   11  N1  UNL     1     -42.339  -1.634 -33.529  1.00  0.00    -0.357 N 
HETATM   12  C1  UNL     1     -42.487  -3.096 -33.467  1.00  0.00     0.156 C 
HETATM   13  C19 UNL     1     -41.315  -1.001 -32.930  1.00  0.00     0.182 A 
HETATM   14  N9  UNL     1     -41.161   0.334 -32.976  1.00  0.00    -0.356 N 
ATOM     15  H9  UNL     1     -40.365   0.762 -32.502  1.00  0.00     0.166 HD
ENDBRANCH   7   8
ENDBRANCH   6   7
ENDBRANCH   5   6
ENDBRANCH   4   5
BRANCH   4  16
HETATM   16  N3  UNL     1     -38.478   1.599 -32.872  1.00  0.00    -0.363 NA
ATOM     17  H32 UNL     1     -38.662   0.770 -32.307  1.00  0.00     0.171 HD
ATOM     18  H31 UNL     1     -37.491   1.694 -33.113  1.00  0.00     0.171 HD
ENDBRANCH   4  16
ENDBRANCH   3   4
ENDBRANCH   2   3
ENDBRANCH   1   2
BRANCH   1  19
HETATM   19  C11 UNL     1     -35.098   5.020 -33.412  1.00  0.00     0.033 C 
BRANCH  19  20
HETATM   20  C12 UNL     1     -34.163   6.050 -32.890  1.00  0.00     0.183 C 
BRANCH  20  21
HETATM   21  N4  UNL     1     -32.823   5.872 -33.438  1.00  0.00    -0.075 N 
ATOM     22  H43 UNL     1     -32.850   5.433 -34.359  1.00  0.00     0.274 HD
ATOM     23  H42 UNL     1     -32.404   6.763 -33.703  1.00  0.00     0.274 HD
ATOM     24  H41 UNL     1     -32.226   5.355 -32.793  1.00  0.00     0.274 HD
ENDBRANCH  20  21
BRANCH  20  25
HETATM   25  C13 UNL     1     -34.241   6.284 -31.442  1.00  0.00     0.037 C 
BRANCH  25  26
HETATM   26  C14 UNL     1     -35.138   7.473 -31.088  1.00  0.00     0.046 C 
BRANCH  26  27
HETATM   27  C15 UNL     1     -34.398   8.615 -30.505  1.00  0.00     0.060 C 
BRANCH  27  28
HETATM   28  N5  UNL     1     -33.316   9.170 -31.145  1.00  0.00    -0.381 N 
ATOM     29  H5  UNL     1     -33.391   9.254 -32.158  1.00  0.00     0.164 HD
BRANCH  28  30
HETATM   30  C16 UNL     1     -32.138   9.628 -30.587  1.00  0.00     0.079 C 
BRANCH  30  31
HETATM   31  C17 UNL     1     -30.901   8.943 -31.054  1.00  0.00     0.166 C 
BRANCH  31  32
HETATM   32  N6  UNL     1     -30.916   8.450 -32.383  1.00  0.00    -0.362 N 
HETATM   33  C18 UNL     1     -30.158   8.502 -33.362  1.00  0.00     0.197 C 
HETATM   34  N7  UNL     1     -30.609   7.819 -34.563  1.00  0.00    -0.067 NA
HETATM   35  N8  UNL     1     -28.905   9.174 -33.377  1.00  0.00    -0.067 NA
ATOM     36  H6  UNL     1     -31.763   7.919 -32.583  1.00  0.00     0.162 HD
ENDBRANCH  31  32
ENDBRANCH  30  31
ENDBRANCH  28  30
ENDBRANCH  27  28
ENDBRANCH  26  27
ENDBRANCH  25  26
ENDBRANCH  20  25
ENDBRANCH  19  20
ENDBRANCH   1  19
TORSDOF 18
ENDMDL
MODEL 3
REMARK VINA RESULT: -6.183201614      2.510      5.992
REMARK  18 active torsions:
REMARK  status: ('A' for Active; 'I' for Inactive)
REMARK    1  A    between atoms: C4_5  and  C5_6 
REMARK    2  A    between atoms: C5_6  and  C6_7 
REMARK    3  A    between atoms: C6_7  and  C7_8 
REMARK    4  A    between atoms: C7_8  and  N2_9 
REMARK    5  A    between atoms: N2_9  and  N3_10 
REMARK    6  A    between atoms: N2_9  and  C8_13 
REMARK    7  A    between atoms: C8_13  and  C9_14 
REMARK    8  A    between atoms: C9_14  and  C10_15 
REMARK    9  A    between atoms: C10_15  and  C11_16 
REMARK   10  A    between atoms: C11_16  and  C12_17 
REMARK   11  A    between atoms: C12_17  and  N4_18 
REMARK   12  A    between atoms: C12_17  and  C13_22 
REMARK   13  A    between atoms: C13_22  and  C14_23 
REMARK   14  A    between atoms: C14_23  and  C15_24 
REMARK   15  A    between atoms: C15_24  and  N5_25 
REMARK   16  A    between atoms: N5_25  and  C16_27 
REMARK   17  A    between atoms: C16_27  and  C17_28 
REMARK   18  A    between atoms: C17_28  and  N6_29 
ROOT
HETATM    1  C10 UNL     1     -43.561   5.691 -32.067  1.00  0.00     0.003 C 
ENDROOT
BRANCH   1   2
HETATM    2  C9  UNL     1     -44.880   5.977 -32.648  1.00  0.00     0.016 C 
BRANCH   2   3
HETATM    3  C8  UNL     1     -45.418   4.942 -33.617  1.00  0.00     0.113 C 
BRANCH   3   4
HETATM    4  N2  UNL     1     -44.556   4.995 -34.778  1.00  0.00    -0.238 NA
BRANCH   4   5
HETATM    5  C7  UNL     1     -44.731   3.853 -35.646  1.00  0.00     0.113 C 
BRANCH   5   6
HETATM    6  C6  UNL     1     -44.894   2.583 -34.836  1.00  0.00     0.022 C 
BRANCH   6   7
HETATM    7  C5  UNL     1     -45.123   1.359 -35.696  1.00  0.00     0.058 C 
BRANCH   7   8
HETATM    8  C4  UNL     1     -44.335   0.254 -35.089  1.00  0.00     0.011 A 
HETATM    9  C3  UNL     1     -43.341   0.468 -34.161  1.00  0.00     0.042 A 
HETATM   10  C2  UNL     1     -42.628  -0.585 -33.610  1.00  0.00     0.093 A 
HETATM   11  N1  UNL     1     -42.899  -1.854 -33.979  1.00  0.00    -0.357 N 
HETATM   12  C1  UNL     1     -42.144  -2.973 -33.394  1.00  0.00     0.156 C 
HETATM   13  C19 UNL     1     -43.871  -2.056 -34.886  1.00  0.00     0.182 A 
HETATM   14  N9  UNL     1     -44.574  -1.047 -35.431  1.00  0.00    -0.356 N 
ATOM     15  H9  UNL     1     -45.300  -1.257 -36.116  1.00  0.00     0.166 HD
ENDBRANCH   7   8
ENDBRANCH   6   7
ENDBRANCH   5   6
ENDBRANCH   4   5
BRANCH   4  16
HETATM   16  N3  UNL     1     -44.638   6.204 -35.460  1.00  0.00    -0.363 NA
ATOM     17  H32 UNL     1     -45.562   6.374 -35.859  1.00  0.00     0.171 HD
ATOM     18  H31 UNL     1     -43.891   6.320 -36.145  1.00  0.00     0.171 HD
ENDBRANCH   4  16
ENDBRANCH   3   4
ENDBRANCH   2   3
ENDBRANCH   1   2
BRANCH   1  19
HETATM   19  C11 UNL     1     -42.410   6.549 -32.345  1.00  0.00     0.033 C 
BRANCH  19  20
HETATM   20  C12 UNL     1     -41.224   6.023 -33.068  1.00  0.00     0.183 C 
BRANCH  20  21
HETATM   21  N4  UNL     1     -41.583   5.566 -34.407  1.00  0.00    -0.075 N 
ATOM     22  H43 UNL     1     -42.417   4.979 -34.391  1.00  0.00     0.274 HD
ATOM     23  H42 UNL     1     -41.940   6.329 -34.981  1.00  0.00     0.274 HD
ATOM     24  H41 UNL     1     -40.800   5.093 -34.857  1.00  0.00     0.274 HD
ENDBRANCH  20  21
BRANCH  20  25
HETATM   25  C13 UNL     1     -40.369   5.119 -32.287  1.00  0.00     0.037 C 
BRANCH  25  26
HETATM   26  C14 UNL     1     -39.436   4.286 -33.170  1.00  0.00     0.046 C 
BRANCH  26  27
HETATM   27  C15 UNL     1     -38.259   3.756 -32.447  1.00  0.00     0.060 C 
BRANCH  27  28
HETATM   28  N5  UNL     1     -36.981   4.128 -32.788  1.00  0.00    -0.381 N 
ATOM     29  H5  UNL     1     -36.518   3.545 -33.485  1.00  0.00     0.164 HD
BRANCH  28  30
HETATM   30  C16 UNL     1     -36.244   5.191 -32.305  1.00  0.00     0.079 C 
BRANCH  30  31
HETATM   31  C17 UNL     1     -34.835   4.878 -31.935  1.00  0.00     0.166 C 
BRANCH  31  32
HETATM   32  N6  UNL     1     -33.833   5.693 -32.518  1.00  0.00    -0.362 N 
HETATM   33  C18 UNL     1     -33.376   5.866 -33.657  1.00  0.00     0.197 C 
HETATM   34  N7  UNL     1     -32.311   6.846 -33.781  1.00  0.00    -0.067 NA
HETATM   35  N8  UNL     1     -33.822   5.177 -34.818  1.00  0.00    -0.067 NA
ATOM     36  H6  UNL     1     -33.374   6.287 -31.828  1.00  0.00     0.162 HD
ENDBRANCH  31  32
ENDBRANCH  30  31
ENDBRANCH  28  30
ENDBRANCH  27  28
ENDBRANCH  26  27
ENDBRANCH  25  26
ENDBRANCH  20  25
ENDBRANCH  19  20
ENDBRANCH   1  19
TORSDOF 18
ENDMDL
MODEL 4
REMARK VINA RESULT: -6.090453682      6.677     10.085
REMARK  18 active torsions:
REMARK  status: ('A' for Active; 'I' for Inactive)
REMARK    1  A    between atoms: C4_5  and  C5_6 
REMARK    2  A    between atoms: C5_6  and  C6_7 
REMARK    3  A    between atoms: C6_7  and  C7_8 
REMARK    4  A    between atoms: C7_8  and  N2_9 
REMARK    5  A    between atoms: N2_9  and  N3_10 
REMARK    6  A    between atoms: N2_9  and  C8_13 
REMARK    7  A    between atoms: C8_13  and  C9_14 
REMARK    8  A    between atoms: C9_14  and  C10_15 
REMARK    9  A    between atoms: C10_15  and  C11_16 
REMARK   10  A    between atoms: C11_16  and  C12_17 
REMARK   11  A    between atoms: C12_17  and  N4_18 
REMARK   12  A    between atoms: C12_17  and  C13_22 
REMARK   13  A    between atoms: C13_22  and  C14_23 
REMARK   14  A    between atoms: C14_23  and  C15_24 
REMARK   15  A    between atoms: C15_24  and  N5_25 
REMARK   16  A    between atoms: N5_25  and  C16_27 
REMARK   17  A    between atoms: C16_27  and  C17_28 
REMARK   18  A    between atoms: C17_28  and  N6_29 
ROOT
HETATM    1  C10 UNL     1     -45.437  -0.681 -35.719  1.00  0.00     0.003 C 
ENDROOT
BRANCH   1   2
HETATM    2  C9  UNL     1     -44.227  -1.429 -35.353  1.00  0.00     0.016 C 
BRANCH   2   3
HETATM    3  C8  UNL     1     -44.189  -1.982 -33.941  1.00  0.00     0.113 C 
BRANCH   3   4
HETATM    4  N2  UNL     1     -42.963  -2.744 -33.843  1.00  0.00    -0.238 NA
BRANCH   4   5
HETATM    5  C7  UNL     1     -41.835  -1.927 -33.455  1.00  0.00     0.113 C 
BRANCH   5   6
HETATM    6  C6  UNL     1     -40.649  -2.794 -33.083  1.00  0.00     0.022 C 
BRANCH   6   7
HETATM    7  C5  UNL     1     -39.328  -2.064 -33.194  1.00  0.00     0.058 C 
BRANCH   7   8
HETATM    8  C4  UNL     1     -39.302  -1.052 -32.106  1.00  0.00     0.011 A 
HETATM    9  C3  UNL     1     -39.280   0.304 -32.349  1.00  0.00     0.042 A 
HETATM   10  C2  UNL     1     -39.262   1.223 -31.311  1.00  0.00     0.093 A 
HETATM   11  N1  UNL     1     -39.264   0.799 -30.030  1.00  0.00    -0.357 N 
HETATM   12  C1  UNL     1     -39.247   1.774 -28.928  1.00  0.00     0.156 C 
HETATM   13  C19 UNL     1     -39.287  -0.526 -29.801  1.00  0.00     0.182 A 
HETATM   14  N9  UNL     1     -39.304  -1.432 -30.795  1.00  0.00    -0.356 N 
ATOM     15  H9  UNL     1     -39.319  -2.426 -30.563  1.00  0.00     0.166 HD
ENDBRANCH   7   8
ENDBRANCH   6   7
ENDBRANCH   5   6
ENDBRANCH   4   5
BRANCH   4  16
HETATM   16  N3  UNL     1     -43.094  -3.884 -33.057  1.00  0.00    -0.363 NA
ATOM     17  H32 UNL     1     -42.261  -4.084 -32.503  1.00  0.00     0.171 HD
ATOM     18  H31 UNL     1     -43.411  -4.694 -33.589  1.00  0.00     0.171 HD
ENDBRANCH   4  16
ENDBRANCH   3   4
ENDBRANCH   2   3
ENDBRANCH   1   2
BRANCH   1  19
HETATM   19  C11 UNL     1     -45.385   0.754 -35.996  1.00  0.00     0.033 C 
BRANCH  19  20
HETATM   20  C12 UNL     1     -44.475   1.645 -35.229  1.00  0.00     0.183 C 
BRANCH  20  21
HETATM   21  N4  UNL     1     -44.863   1.710 -33.824  1.00  0.00    -0.075 N 
ATOM     22  H43 UNL     1     -45.540   2.455 -33.655  1.00  0.00     0.274 HD
ATOM     23  H42 UNL     1     -45.439   0.912 -33.556  1.00  0.00     0.274 HD
ATOM     24  H41 UNL     1     -44.046   1.802 -33.220  1.00  0.00     0.274 HD
ENDBRANCH  20  21
BRANCH  20  25
HETATM   25  C13 UNL     1     -44.174   2.929 -35.874  1.00  0.00     0.037 C 
BRANCH  25  26
HETATM   26  C14 UNL     1     -45.144   4.037 -35.455  1.00  0.00     0.046 C 
BRANCH  26  27
HETATM   27  C15 UNL     1     -44.478   5.331 -35.185  1.00  0.00     0.060 C 
BRANCH  27  28
HETATM   28  N5  UNL     1     -44.177   5.729 -33.905  1.00  0.00    -0.381 N 
ATOM     29  H5  UNL     1     -43.847   6.689 -33.802  1.00  0.00     0.164 HD
BRANCH  28  30
HETATM   30  C16 UNL     1     -44.265   4.993 -32.739  1.00  0.00     0.079 C 
BRANCH  30  31
HETATM   31  C17 UNL     1     -42.963   4.587 -32.139  1.00  0.00     0.166 C 
BRANCH  31  32
HETATM   32  N6  UNL     1     -42.096   3.831 -32.966  1.00  0.00    -0.362 N 
HETATM   33  C18 UNL     1     -41.270   4.080 -33.856  1.00  0.00     0.197 C 
HETATM   34  N7  UNL     1     -40.591   2.937 -34.443  1.00  0.00    -0.067 NA
HETATM   35  N8  UNL     1     -40.956   5.386 -34.321  1.00  0.00    -0.067 NA
ATOM     36  H6  UNL     1     -42.170   2.830 -32.783  1.00  0.00     0.162 HD
ENDBRANCH  31  32
ENDBRANCH  30  31
ENDBRANCH  28  30
ENDBRANCH  27  28
ENDBRANCH  26  27
ENDBRANCH  25  26
ENDBRANCH  20  25
ENDBRANCH  19  20
ENDBRANCH   1  19
TORSDOF 18
ENDMDL
MODEL 5
REMARK VINA RESULT: -6.035260058      4.575      7.143
REMARK  18 active torsions:
REMARK  status: ('A' for Active; 'I' for Inactive)
REMARK    1  A    between atoms: C4_5  and  C5_6 
REMARK    2  A    between atoms: C5_6  and  C6_7 
REMARK    3  A    between atoms: C6_7  and  C7_8 
REMARK    4  A    between atoms: C7_8  and  N2_9 
REMARK    5  A    between atoms: N2_9  and  N3_10 
REMARK    6  A    between atoms: N2_9  and  C8_13 
REMARK    7  A    between atoms: C8_13  and  C9_14 
REMARK    8  A    between atoms: C9_14  and  C10_15 
REMARK    9  A    between atoms: C10_15  and  C11_16 
REMARK   10  A    between atoms: C11_16  and  C12_17 
REMARK   11  A    between atoms: C12_17  and  N4_18 
REMARK   12  A    between atoms: C12_17  and  C13_22 
REMARK   13  A    between atoms: C13_22  and  C14_23 
REMARK   14  A    between atoms: C14_23  and  C15_24 
REMARK   15  A    between atoms: C15_24  and  N5_25 
REMARK   16  A    between atoms: N5_25  and  C16_27 
REMARK   17  A    between atoms: C16_27  and  C17_28 
REMARK   18  A    between atoms: C17_28  and  N6_29 
ROOT
HETATM    1  C10 UNL     1     -44.363   6.979 -34.046  1.00  0.00     0.003 C 
ENDROOT
BRANCH   1   2
HETATM    2  C9  UNL     1     -45.135   5.745 -34.244  1.00  0.00     0.016 C 
BRANCH   2   3
HETATM    3  C8  UNL     1     -44.808   4.599 -33.306  1.00  0.00     0.113 C 
BRANCH   3   4
HETATM    4  N2  UNL     1     -44.139   3.601 -34.113  1.00  0.00    -0.238 NA
BRANCH   4   5
HETATM    5  C7  UNL     1     -44.469   3.714 -35.516  1.00  0.00     0.113 C 
BRANCH   5   6
HETATM    6  C6  UNL     1     -44.320   2.375 -36.210  1.00  0.00     0.022 C 
BRANCH   6   7
HETATM    7  C5  UNL     1     -45.269   1.324 -35.675  1.00  0.00     0.058 C 
BRANCH   7   8
HETATM    8  C4  UNL     1     -44.430   0.240 -35.101  1.00  0.00     0.011 A 
HETATM    9  C3  UNL     1     -44.602  -1.088 -35.426  1.00  0.00     0.042 A 
HETATM   10  C2  UNL     1     -43.799  -2.075 -34.877  1.00  0.00     0.093 A 
HETATM   11  N1  UNL     1     -42.825  -1.749 -34.002  1.00  0.00    -0.357 N 
HETATM   12  C1  UNL     1     -41.971  -2.796 -33.420  1.00  0.00     0.156 C 
HETATM   13  C19 UNL     1     -42.664  -0.451 -33.689  1.00  0.00     0.182 A 
HETATM   14  N9  UNL     1     -43.433   0.521 -34.212  1.00  0.00    -0.356 N 
ATOM     15  H9  UNL     1     -43.267   1.490 -33.938  1.00  0.00     0.166 HD
ENDBRANCH   7   8
ENDBRANCH   6   7
ENDBRANCH   5   6
ENDBRANCH   4   5
BRANCH   4  16
HETATM   16  N3  UNL     1     -42.768   3.551 -33.887  1.00  0.00    -0.363 NA
ATOM     17  H32 UNL     1     -42.247   4.222 -34.451  1.00  0.00     0.171 HD
ATOM     18  H31 UNL     1     -42.392   2.606 -33.960  1.00  0.00     0.171 HD
ENDBRANCH   4  16
ENDBRANCH   3   4
ENDBRANCH   2   3
ENDBRANCH   1   2
BRANCH   1  19
HETATM   19  C11 UNL     1     -43.505   7.154 -32.875  1.00  0.00     0.033 C 
BRANCH  19  20
HETATM   20  C12 UNL     1     -42.029   7.256 -33.020  1.00  0.00     0.183 C 
BRANCH  20  21
HETATM   21  N4  UNL     1     -41.529   6.298 -34.001  1.00  0.00    -0.075 N 
ATOM     22  H43 UNL     1     -42.220   5.576 -34.205  1.00  0.00     0.274 HD
ATOM     23  H42 UNL     1     -41.460   6.714 -34.929  1.00  0.00     0.274 HD
ATOM     24  H41 UNL     1     -40.641   5.895 -33.703  1.00  0.00     0.274 HD
ENDBRANCH  20  21
BRANCH  20  25
HETATM   25  C13 UNL     1     -41.284   7.332 -31.757  1.00  0.00     0.037 C 
BRANCH  25  26
HETATM   26  C14 UNL     1     -40.601   6.009 -31.399  1.00  0.00     0.046 C 
BRANCH  26  27
HETATM   27  C15 UNL     1     -39.344   6.183 -30.638  1.00  0.00     0.060 C 
BRANCH  27  28
HETATM   28  N5  UNL     1     -38.360   5.224 -30.651  1.00  0.00    -0.381 N 
ATOM     29  H5  UNL     1     -38.517   4.415 -30.050  1.00  0.00     0.164 HD
BRANCH  28  30
HETATM   30  C16 UNL     1     -37.183   5.218 -31.375  1.00  0.00     0.079 C 
BRANCH  30  31
HETATM   31  C17 UNL     1     -37.176   4.337 -32.575  1.00  0.00     0.166 C 
BRANCH  31  32
HETATM   32  N6  UNL     1     -38.200   3.359 -32.647  1.00  0.00    -0.362 N 
HETATM   33  C18 UNL     1     -39.199   3.165 -33.354  1.00  0.00     0.197 C 
HETATM   34  N7  UNL     1     -39.985   1.982 -33.048  1.00  0.00    -0.067 NA
HETATM   35  N8  UNL     1     -39.608   4.012 -34.421  1.00  0.00    -0.067 NA
ATOM     36  H6  UNL     1     -38.086   2.634 -31.939  1.00  0.00     0.162 HD
ENDBRANCH  31  32
ENDBRANCH  30  31
ENDBRANCH  28  30
ENDBRANCH  27  28
ENDBRANCH  26  27
ENDBRANCH  25  26
ENDBRANCH  20  25
ENDBRANCH  19  20
ENDBRANCH   1  19
TORSDOF 18
ENDMDL
