MODEL 1
REMARK VINA RESULT: -6.783504349      0.000      0.000
REMARK  9 active torsions:
REMARK  status: ('A' for Active; 'I' for Inactive)
REMARK    1  A    between atoms: C2_2  and  C3_3 
REMARK    2  A    between atoms: C3_3  and  N1_4 
REMARK    3  A    between atoms: N1_4  and  C4_6 
REMARK    4  A    between atoms: C5_9  and  N3_10 
REMARK    5  A    between atoms: N3_10  and  C6_11 
REMARK    6  A    between atoms: C6_11  and  C7_12 
REMARK    7  A    between atoms: C15_23  and  C16_24 
REMARK    8  A    between atoms: C16_24  and  C17_25 
REMARK    9  A    between atoms: C20_28  and  C21_29 
ROOT
HETATM    1  C4  UNL     1      -3.151   9.487  -2.726  1.00  0.00     0.681 A 
HETATM    2  N2  UNL     1      -3.557   9.362  -1.480  1.00  0.00    -0.162 N 
ATOM      3  H2  UNL     1      -3.596  10.213  -0.920  1.00  0.00     0.187 HD
HETATM    4  C5  UNL     1      -3.934   8.186  -0.857  1.00  0.00     0.223 A 
HETATM    5  C13 UNL     1      -3.870   7.024  -1.655  1.00  0.00     0.138 A 
HETATM    6  C14 UNL     1      -3.443   7.165  -2.945  1.00  0.00     0.106 A 
HETATM    7  N5  UNL     1      -3.090   8.374  -3.474  1.00  0.00    -0.187 N 
ATOM      8  H5  UNL     1      -2.780   8.432  -4.443  1.00  0.00     0.184 HD
HETATM    9  C15 UNL     1      -3.389   5.876  -3.491  1.00  0.00     0.060 A 
HETATM   10  N7  UNL     1      -3.792   5.082  -2.505  1.00  0.00    -0.300 N 
ATOM     11  H7  UNL     1      -3.863   4.069  -2.601  1.00  0.00     0.187 HD
HETATM   12  N8  UNL     1      -4.091   5.719  -1.394  1.00  0.00    -0.290 N 
HETATM   13  C30 UNL     1      -4.606   5.136  -0.163  1.00  0.00     0.178 C 
ENDROOT
BRANCH   9  14
HETATM   14  C16 UNL     1      -2.973   5.555  -4.864  1.00  0.00     0.100 C 
BRANCH  14  15
HETATM   15  C17 UNL     1      -4.004   4.925  -5.694  1.00  0.00    -0.042 A 
HETATM   16  C18 UNL     1      -4.497   3.689  -5.385  1.00  0.00     0.009 A 
HETATM   17  C19 UNL     1      -5.489   3.096  -6.159  1.00  0.00     0.014 A 
HETATM   18  C20 UNL     1      -5.981   3.770  -7.257  1.00  0.00    -0.014 A 
HETATM   19  C26 UNL     1      -5.470   5.032  -7.565  1.00  0.00    -0.024 A 
HETATM   20  C27 UNL     1      -6.016   5.648  -8.591  1.00  0.00     0.025 C 
HETATM   21  C28 UNL     1      -4.495   5.621  -6.807  1.00  0.00    -0.029 A 
HETATM   22  C29 UNL     1      -4.087   6.844  -7.075  1.00  0.00     0.025 C 
BRANCH  18  23
HETATM   23  C21 UNL     1      -6.981   3.107  -8.073  1.00  0.00    -0.002 A 
HETATM   24  C22 UNL     1      -6.819   2.315  -9.188  1.00  0.00     0.031 A 
HETATM   25  C23 UNL     1      -8.033   1.867  -9.621  1.00  0.00     0.089 A 
HETATM   26  N6  UNL     1      -8.938   2.378  -8.778  1.00  0.00    -0.369 N 
HETATM   27  C24 UNL     1      -8.361   3.121  -7.843  1.00  0.00     0.016 A 
ATOM     28  H6  UNL     1      -9.943   2.218  -8.846  1.00  0.00     0.165 HD
HETATM   29  C25 UNL     1      -9.021   3.866  -6.740  1.00  0.00     0.069 C 
ENDBRANCH  18  23
ENDBRANCH  14  15
ENDBRANCH   9  14
BRANCH   4  30
HETATM   30  N3  UNL     1      -4.203   8.129   0.292  1.00  0.00    -0.396 NA
BRANCH  30  31
HETATM   31  C6  UNL     1      -4.484   8.055   1.575  1.00  0.00     0.196 C 
BRANCH  31  32
HETATM   32  C7  UNL     1      -4.052   9.220   2.453  1.00  0.00    -0.005 A 
HETATM   33  C8  UNL     1      -4.907   9.719   3.386  1.00  0.00     0.014 A 
HETATM   34  C9  UNL     1      -4.568  10.767   4.240  1.00  0.00     0.003 A 
HETATM   35  C10 UNL     1      -3.296  11.294   4.099  1.00  0.00     0.026 A 
HETATM   36  C11 UNL     1      -2.410  10.810   3.162  1.00  0.00     0.047 A 
HETATM   37  N4  UNL     1      -1.126  11.410   3.081  1.00  0.00    -0.102 NA
HETATM   38  C12 UNL     1      -2.792   9.754   2.324  1.00  0.00     0.040 A 
ENDBRANCH  31  32
ENDBRANCH  30  31
ENDBRANCH   4  30
BRANCH   1  39
HETATM   39  N1  UNL     1      -2.735  10.619  -3.236  1.00  0.00    -0.223 N 
ATOM     40  H1  UNL     1      -2.642  10.730  -4.246  1.00  0.00     0.178 HD
BRANCH  39  41
HETATM   41  C3  UNL     1      -2.411  11.701  -2.345  1.00  0.00     0.164 C 
BRANCH  41  42
HETATM   42  C2  UNL     1      -2.830  13.017  -2.927  1.00  0.00    -0.017 C 
HETATM   43  C1  UNL     1      -2.026  14.029  -2.908  1.00  0.00     0.008 C 
ENDBRANCH  41  42
ENDBRANCH  39  41
ENDBRANCH   1  39
TORSDOF 9
ENDMDL
MODEL 2
REMARK VINA RESULT: -6.593203272      1.578      4.333
REMARK  9 active torsions:
REMARK  status: ('A' for Active; 'I' for Inactive)
REMARK    1  A    between atoms: C2_2  and  C3_3 
REMARK    2  A    between atoms: C3_3  and  N1_4 
REMARK    3  A    between atoms: N1_4  and  C4_6 
REMARK    4  A    between atoms: C5_9  and  N3_10 
REMARK    5  A    between atoms: N3_10  and  C6_11 
REMARK    6  A    between atoms: C6_11  and  C7_12 
REMARK    7  A    between atoms: C15_23  and  C16_24 
REMARK    8  A    between atoms: C16_24  and  C17_25 
REMARK    9  A    between atoms: C20_28  and  C21_29 
ROOT
HETATM    1  C4  UNL     1      -3.865   8.251  -1.180  1.00  0.00     0.681 A 
HETATM    2  N2  UNL     1      -3.539   9.507  -1.404  1.00  0.00    -0.162 N 
ATOM      3  H2  UNL     1      -3.851  10.193  -0.717  1.00  0.00     0.187 HD
HETATM    4  C5  UNL     1      -2.816   9.984  -2.482  1.00  0.00     0.223 A 
HETATM    5  C13 UNL     1      -2.397   9.014  -3.415  1.00  0.00     0.138 A 
HETATM    6  C14 UNL     1      -2.745   7.714  -3.175  1.00  0.00     0.106 A 
HETATM    7  N5  UNL     1      -3.464   7.337  -2.077  1.00  0.00    -0.187 N 
ATOM      8  H5  UNL     1      -3.698   6.354  -1.938  1.00  0.00     0.184 HD
HETATM    9  C15 UNL     1      -2.290   6.971  -4.273  1.00  0.00     0.060 A 
HETATM   10  N7  UNL     1      -1.709   7.867  -5.061  1.00  0.00    -0.300 N 
ATOM     11  H7  UNL     1      -1.272   7.624  -5.951  1.00  0.00     0.187 HD
HETATM   12  N8  UNL     1      -1.745   9.095  -4.593  1.00  0.00    -0.290 N 
HETATM   13  C30 UNL     1      -1.152  10.280  -5.199  1.00  0.00     0.178 C 
ENDROOT
BRANCH   9  14
HETATM   14  C16 UNL     1      -2.456   5.519  -4.438  1.00  0.00     0.100 C 
BRANCH  14  15
HETATM   15  C17 UNL     1      -3.571   5.117  -5.301  1.00  0.00    -0.042 A 
HETATM   16  C18 UNL     1      -3.926   5.867  -6.387  1.00  0.00     0.009 A 
HETATM   17  C19 UNL     1      -4.971   5.479  -7.218  1.00  0.00     0.014 A 
HETATM   18  C20 UNL     1      -5.661   4.319  -6.938  1.00  0.00    -0.014 A 
HETATM   19  C26 UNL     1      -5.292   3.561  -5.825  1.00  0.00    -0.024 A 
HETATM   20  C27 UNL     1      -5.952   2.438  -5.641  1.00  0.00     0.025 C 
HETATM   21  C28 UNL     1      -4.264   3.936  -5.004  1.00  0.00    -0.029 A 
HETATM   22  C29 UNL     1      -3.889   3.162  -4.007  1.00  0.00     0.025 C 
BRANCH  18  23
HETATM   23  C21 UNL     1      -6.778   3.965  -7.794  1.00  0.00    -0.002 A 
HETATM   24  C22 UNL     1      -8.101   4.337  -7.710  1.00  0.00     0.031 A 
HETATM   25  C23 UNL     1      -8.803   3.801  -8.750  1.00  0.00     0.089 A 
HETATM   26  N6  UNL     1      -7.918   3.102  -9.472  1.00  0.00    -0.369 N 
HETATM   27  C24 UNL     1      -6.703   3.170  -8.943  1.00  0.00     0.016 A 
ATOM     28  H6  UNL     1      -8.149   2.584 -10.319  1.00  0.00     0.165 HD
HETATM   29  C25 UNL     1      -5.461   2.523  -9.438  1.00  0.00     0.069 C 
ENDBRANCH  18  23
ENDBRANCH  14  15
ENDBRANCH   9  14
BRANCH   4  30
HETATM   30  N3  UNL     1      -2.634  11.138  -2.669  1.00  0.00    -0.396 NA
BRANCH  30  31
HETATM   31  C6  UNL     1      -2.451  12.425  -2.866  1.00  0.00     0.196 C 
BRANCH  31  32
HETATM   32  C7  UNL     1      -1.504  13.149  -1.920  1.00  0.00    -0.005 A 
HETATM   33  C8  UNL     1      -1.093  14.413  -2.209  1.00  0.00     0.014 A 
HETATM   34  C9  UNL     1      -0.248  15.143  -1.374  1.00  0.00     0.003 A 
HETATM   35  C10 UNL     1       0.167  14.516  -0.212  1.00  0.00     0.026 A 
HETATM   36  C11 UNL     1      -0.232  13.237   0.105  1.00  0.00     0.047 A 
HETATM   37  N4  UNL     1       0.243  12.667   1.315  1.00  0.00    -0.102 NA
HETATM   38  C12 UNL     1      -1.083  12.539  -0.761  1.00  0.00     0.040 A 
ENDBRANCH  31  32
ENDBRANCH  30  31
ENDBRANCH   4  30
BRANCH   1  39
HETATM   39  N1  UNL     1      -4.617   7.871  -0.178  1.00  0.00    -0.223 N 
ATOM     40  H1  UNL     1      -5.527   7.442  -0.346  1.00  0.00     0.178 HD
BRANCH  39  41
HETATM   41  C3  UNL     1      -4.135   8.071   1.163  1.00  0.00     0.164 C 
BRANCH  41  42
HETATM   42  C2  UNL     1      -4.997   9.050   1.901  1.00  0.00    -0.017 C 
HETATM   43  C1  UNL     1      -4.650  10.292   1.989  1.00  0.00     0.008 C 
ENDBRANCH  41  42
ENDBRANCH  39  41
ENDBRANCH   1  39
TORSDOF 9
ENDMDL
MODEL 3
REMARK VINA RESULT: -6.480705565      3.901      9.923
REMARK  9 active torsions:
REMARK  status: ('A' for Active; 'I' for Inactive)
REMARK    1  A    between atoms: C2_2  and  C3_3 
REMARK    2  A    between atoms: C3_3  and  N1_4 
REMARK    3  A    between atoms: N1_4  and  C4_6 
REMARK    4  A    between atoms: C5_9  and  N3_10 
REMARK    5  A    between atoms: N3_10  and  C6_11 
REMARK    6  A    between atoms: C6_11  and  C7_12 
REMARK    7  A    between atoms: C15_23  and  C16_24 
REMARK    8  A    between atoms: C16_24  and  C17_25 
REMARK    9  A    between atoms: C20_28  and  C21_29 
ROOT
HETATM    1  C4  UNL     1      -4.384   9.339   1.016  1.00  0.00     0.681 A 
HETATM    2  N2  UNL     1      -4.588   8.303   0.227  1.00  0.00    -0.162 N 
ATOM      3  H2  UNL     1      -5.283   7.622   0.531  1.00  0.00     0.187 HD
HETATM    4  C5  UNL     1      -3.949   8.052  -0.974  1.00  0.00     0.223 A 
HETATM    5  C13 UNL     1      -2.994   9.011  -1.370  1.00  0.00     0.138 A 
HETATM    6  C14 UNL     1      -2.787  10.078  -0.543  1.00  0.00     0.106 A 
HETATM    7  N5  UNL     1      -3.470  10.241   0.629  1.00  0.00    -0.187 N 
ATOM      8  H5  UNL     1      -3.283  11.056   1.214  1.00  0.00     0.184 HD
HETATM    9  C15 UNL     1      -1.748  10.828  -1.110  1.00  0.00     0.060 A 
HETATM   10  N7  UNL     1      -1.430  10.167  -2.217  1.00  0.00    -0.300 N 
ATOM     11  H7  UNL     1      -0.697  10.474  -2.857  1.00  0.00     0.187 HD
HETATM   12  N8  UNL     1      -2.145   9.081  -2.416  1.00  0.00    -0.290 N 
HETATM   13  C30 UNL     1      -2.068   8.181  -3.558  1.00  0.00     0.178 C 
ENDROOT
BRANCH   9  14
HETATM   14  C16 UNL     1      -1.191  12.066  -0.545  1.00  0.00     0.100 C 
BRANCH  14  15
HETATM   15  C17 UNL     1      -1.215  13.223  -1.445  1.00  0.00    -0.042 A 
HETATM   16  C18 UNL     1      -2.004  13.231  -2.560  1.00  0.00     0.009 A 
HETATM   17  C19 UNL     1      -2.043  14.334  -3.406  1.00  0.00     0.014 A 
HETATM   18  C20 UNL     1      -1.269  15.437  -3.113  1.00  0.00    -0.014 A 
HETATM   19  C26 UNL     1      -0.465  15.418  -1.972  1.00  0.00    -0.024 A 
HETATM   20  C27 UNL     1       0.208  16.519  -1.716  1.00  0.00     0.025 C 
HETATM   21  C28 UNL     1      -0.423  14.337  -1.135  1.00  0.00    -0.029 A 
HETATM   22  C29 UNL     1       0.285  14.378  -0.026  1.00  0.00     0.025 C 
BRANCH  18  23
HETATM   23  C21 UNL     1      -1.294  16.554  -4.039  1.00  0.00    -0.002 A 
HETATM   24  C22 UNL     1      -2.102  17.669  -4.048  1.00  0.00     0.031 A 
HETATM   25  C23 UNL     1      -1.756  18.486  -5.084  1.00  0.00     0.089 A 
HETATM   26  N6  UNL     1      -0.740  17.879  -5.711  1.00  0.00    -0.369 N 
HETATM   27  C24 UNL     1      -0.430  16.729  -5.126  1.00  0.00     0.016 A 
ATOM     28  H6  UNL     1      -0.265  18.253  -6.532  1.00  0.00     0.165 HD
HETATM   29  C25 UNL     1       0.623  15.763  -5.527  1.00  0.00     0.069 C 
ENDBRANCH  18  23
ENDBRANCH  14  15
ENDBRANCH   9  14
BRANCH   4  30
HETATM   30  N3  UNL     1      -4.116   7.057  -1.590  1.00  0.00    -0.396 NA
BRANCH  30  31
HETATM   31  C6  UNL     1      -4.313   5.941  -2.258  1.00  0.00     0.196 C 
BRANCH  31  32
HETATM   32  C7  UNL     1      -4.755   4.721  -1.466  1.00  0.00    -0.005 A 
HETATM   33  C8  UNL     1      -5.311   3.659  -2.110  1.00  0.00     0.014 A 
HETATM   34  C9  UNL     1      -5.715   2.500  -1.450  1.00  0.00     0.003 A 
HETATM   35  C10 UNL     1      -5.524   2.470  -0.079  1.00  0.00     0.026 A 
HETATM   36  C11 UNL     1      -4.965   3.530   0.600  1.00  0.00     0.047 A 
HETATM   37  N4  UNL     1      -4.808   3.418   2.006  1.00  0.00    -0.102 NA
HETATM   38  C12 UNL     1      -4.572   4.676  -0.104  1.00  0.00     0.040 A 
ENDBRANCH  31  32
ENDBRANCH  30  31
ENDBRANCH   4  30
BRANCH   1  39
HETATM   39  N1  UNL     1      -4.967   9.482   2.178  1.00  0.00    -0.223 N 
ATOM     40  H1  UNL     1      -5.967   9.675   2.238  1.00  0.00     0.178 HD
BRANCH  39  41
HETATM   41  C3  UNL     1      -4.171   9.363   3.371  1.00  0.00     0.164 C 
BRANCH  41  42
HETATM   42  C2  UNL     1      -4.590  10.371   4.398  1.00  0.00    -0.017 C 
HETATM   43  C1  UNL     1      -4.590  11.632   4.116  1.00  0.00     0.008 C 
ENDBRANCH  41  42
ENDBRANCH  39  41
ENDBRANCH   1  39
TORSDOF 9
ENDMDL
MODEL 4
REMARK VINA RESULT: -6.381889208      2.643     10.520
REMARK  9 active torsions:
REMARK  status: ('A' for Active; 'I' for Inactive)
REMARK    1  A    between atoms: C2_2  and  C3_3 
REMARK    2  A    between atoms: C3_3  and  N1_4 
REMARK    3  A    between atoms: N1_4  and  C4_6 
REMARK    4  A    between atoms: C5_9  and  N3_10 
REMARK    5  A    between atoms: N3_10  and  C6_11 
REMARK    6  A    between atoms: C6_11  and  C7_12 
REMARK    7  A    between atoms: C15_23  and  C16_24 
REMARK    8  A    between atoms: C16_24  and  C17_25 
REMARK    9  A    between atoms: C20_28  and  C21_29 
ROOT
HETATM    1  C4  UNL     1      -4.190   8.241  -0.917  1.00  0.00     0.681 A 
HETATM    2  N2  UNL     1      -3.947   7.375  -1.879  1.00  0.00    -0.162 N 
ATOM      3  H2  UNL     1      -4.405   6.466  -1.807  1.00  0.00     0.187 HD
HETATM    4  C5  UNL     1      -3.130   7.579  -2.975  1.00  0.00     0.223 A 
HETATM    5  C13 UNL     1      -2.510   8.843  -3.050  1.00  0.00     0.138 A 
HETATM    6  C14 UNL     1      -2.766   9.733  -2.044  1.00  0.00     0.106 A 
HETATM    7  N5  UNL     1      -3.591   9.440  -0.997  1.00  0.00    -0.187 N 
ATOM      8  H5  UNL     1      -3.755  10.137  -0.270  1.00  0.00     0.184 HD
HETATM    9  C15 UNL     1      -1.979  10.864  -2.303  1.00  0.00     0.060 A 
HETATM   10  N7  UNL     1      -1.336  10.570  -3.427  1.00  0.00    -0.300 N 
ATOM     11  H7  UNL     1      -0.680  11.209  -3.876  1.00  0.00     0.187 HD
HETATM   12  N8  UNL     1      -1.621   9.380  -3.910  1.00  0.00    -0.290 N 
HETATM   13  C30 UNL     1      -1.120   8.796  -5.147  1.00  0.00     0.178 C 
ENDROOT
BRANCH   9  14
HETATM   14  C16 UNL     1      -1.935  12.073  -1.466  1.00  0.00     0.100 C 
BRANCH  14  15
HETATM   15  C17 UNL     1      -1.837  13.334  -2.206  1.00  0.00    -0.042 A 
HETATM   16  C18 UNL     1      -2.669  13.601  -3.256  1.00  0.00     0.009 A 
HETATM   17  C19 UNL     1      -2.591  14.804  -3.949  1.00  0.00     0.014 A 
HETATM   18  C20 UNL     1      -1.655  15.742  -3.568  1.00  0.00    -0.014 A 
HETATM   19  C26 UNL     1      -0.808  15.460  -2.495  1.00  0.00    -0.024 A 
HETATM   20  C27 UNL     1       0.026  16.415  -2.145  1.00  0.00     0.025 C 
HETATM   21  C28 UNL     1      -0.881  14.279  -1.808  1.00  0.00    -0.029 A 
HETATM   22  C29 UNL     1      -0.122  14.072  -0.753  1.00  0.00     0.025 C 
BRANCH  18  23
HETATM   23  C21 UNL     1      -1.565  16.968  -4.339  1.00  0.00    -0.002 A 
HETATM   24  C22 UNL     1      -2.202  18.174  -4.148  1.00  0.00     0.031 A 
HETATM   25  C23 UNL     1      -1.795  19.070  -5.093  1.00  0.00     0.089 A 
HETATM   26  N6  UNL     1      -0.911  18.422  -5.861  1.00  0.00    -0.369 N 
HETATM   27  C24 UNL     1      -0.742  17.172  -5.452  1.00  0.00     0.016 A 
ATOM     28  H6  UNL     1      -0.429  18.836  -6.659  1.00  0.00     0.165 HD
HETATM   29  C25 UNL     1       0.138  16.134  -6.047  1.00  0.00     0.069 C 
ENDBRANCH  18  23
ENDBRANCH  14  15
ENDBRANCH   9  14
BRANCH   4  30
HETATM   30  N3  UNL     1      -2.884   6.726  -3.757  1.00  0.00    -0.396 NA
BRANCH  30  31
HETATM   31  C6  UNL     1      -2.620   5.762  -4.612  1.00  0.00     0.196 C 
BRANCH  31  32
HETATM   32  C7  UNL     1      -3.644   5.498  -5.706  1.00  0.00    -0.005 A 
HETATM   33  C8  UNL     1      -4.322   4.320  -5.728  1.00  0.00     0.014 A 
HETATM   34  C9  UNL     1      -5.291   4.022  -6.686  1.00  0.00     0.003 A 
HETATM   35  C10 UNL     1      -5.542   4.998  -7.636  1.00  0.00     0.026 A 
HETATM   36  C11 UNL     1      -4.869   6.199  -7.638  1.00  0.00     0.047 A 
HETATM   37  N4  UNL     1      -5.185   7.143  -8.650  1.00  0.00    -0.102 NA
HETATM   38  C12 UNL     1      -3.904   6.457  -6.656  1.00  0.00     0.040 A 
ENDBRANCH  31  32
ENDBRANCH  30  31
ENDBRANCH   4  30
BRANCH   1  39
HETATM   39  N1  UNL     1      -4.915   7.962   0.136  1.00  0.00    -0.223 N 
ATOM     40  H1  UNL     1      -5.876   7.635   0.034  1.00  0.00     0.178 HD
BRANCH  39  41
HETATM   41  C3  UNL     1      -4.331   8.124   1.441  1.00  0.00     0.164 C 
BRANCH  41  42
HETATM   42  C2  UNL     1      -5.076   9.152   2.237  1.00  0.00    -0.017 C 
HETATM   43  C1  UNL     1      -4.679  10.382   2.255  1.00  0.00     0.008 C 
ENDBRANCH  41  42
ENDBRANCH  39  41
ENDBRANCH   1  39
TORSDOF 9
ENDMDL
MODEL 5
REMARK VINA RESULT: -6.360159331      0.906      1.839
REMARK  9 active torsions:
REMARK  status: ('A' for Active; 'I' for Inactive)
REMARK    1  A    between atoms: C2_2  and  C3_3 
REMARK    2  A    between atoms: C3_3  and  N1_4 
REMARK    3  A    between atoms: N1_4  and  C4_6 
REMARK    4  A    between atoms: C5_9  and  N3_10 
REMARK    5  A    between atoms: N3_10  and  C6_11 
REMARK    6  A    between atoms: C6_11  and  C7_12 
REMARK    7  A    between atoms: C15_23  and  C16_24 
REMARK    8  A    between atoms: C16_24  and  C17_25 
REMARK    9  A    between atoms: C20_28  and  C21_29 
ROOT
HETATM    1  C4  UNL     1      -3.389   9.139  -2.392  1.00  0.00     0.681 A 
HETATM    2  N2  UNL     1      -3.853   9.177  -1.160  1.00  0.00    -0.162 N 
ATOM      3  H2  UNL     1      -3.987  10.099  -0.746  1.00  0.00     0.187 HD
HETATM    4  C5  UNL     1      -4.176   8.085  -0.374  1.00  0.00     0.223 A 
HETATM    5  C13 UNL     1      -3.982   6.823  -0.972  1.00  0.00     0.138 A 
HETATM    6  C14 UNL     1      -3.495   6.795  -2.249  1.00  0.00     0.106 A 
HETATM    7  N5  UNL     1      -3.205   7.932  -2.948  1.00  0.00    -0.187 N 
ATOM      8  H5  UNL     1      -2.845   7.862  -3.900  1.00  0.00     0.184 HD
HETATM    9  C15 UNL     1      -3.316   5.445  -2.578  1.00  0.00     0.060 A 
HETATM   10  N7  UNL     1      -3.713   4.785  -1.497  1.00  0.00    -0.300 N 
ATOM     11  H7  UNL     1      -3.703   3.767  -1.432  1.00  0.00     0.187 HD
HETATM   12  N8  UNL     1      -4.120   5.561  -0.516  1.00  0.00    -0.290 N 
HETATM   13  C30 UNL     1      -4.658   5.136   0.769  1.00  0.00     0.178 C 
ENDROOT
BRANCH   9  14
HETATM   14  C16 UNL     1      -2.801   4.949  -3.863  1.00  0.00     0.100 C 
BRANCH  14  15
HETATM   15  C17 UNL     1      -3.827   4.635  -4.862  1.00  0.00    -0.042 A 
HETATM   16  C18 UNL     1      -4.177   5.544  -5.820  1.00  0.00     0.009 A 
HETATM   17  C19 UNL     1      -5.137   5.243  -6.780  1.00  0.00     0.014 A 
HETATM   18  C20 UNL     1      -5.745   4.006  -6.762  1.00  0.00    -0.014 A 
HETATM   19  C26 UNL     1      -5.381   3.084  -5.778  1.00  0.00    -0.024 A 
HETATM   20  C27 UNL     1      -5.956   1.903  -5.845  1.00  0.00     0.025 C 
HETATM   21  C28 UNL     1      -4.437   3.374  -4.831  1.00  0.00    -0.029 A 
HETATM   22  C29 UNL     1      -4.058   2.459  -3.964  1.00  0.00     0.025 C 
BRANCH  18  23
HETATM   23  C21 UNL     1      -6.777   3.737  -7.747  1.00  0.00    -0.002 A 
HETATM   24  C22 UNL     1      -8.121   4.032  -7.711  1.00  0.00     0.031 A 
HETATM   25  C23 UNL     1      -8.717   3.630  -8.871  1.00  0.00     0.089 A 
HETATM   26  N6  UNL     1      -7.746   3.091  -9.618  1.00  0.00    -0.369 N 
HETATM   27  C24 UNL     1      -6.576   3.132  -8.992  1.00  0.00     0.016 A 
ATOM     28  H6  UNL     1      -7.886   2.699 -10.549  1.00  0.00     0.165 HD
HETATM   29  C25 UNL     1      -5.268   2.626  -9.480  1.00  0.00     0.069 C 
ENDBRANCH  18  23
ENDBRANCH  14  15
ENDBRANCH   9  14
BRANCH   4  30
HETATM   30  N3  UNL     1      -4.504   8.187   0.757  1.00  0.00    -0.396 NA
BRANCH  30  31
HETATM   31  C6  UNL     1      -4.858   8.320   2.017  1.00  0.00     0.196 C 
BRANCH  31  32
HETATM   32  C7  UNL     1      -4.220   9.452   2.806  1.00  0.00    -0.005 A 
HETATM   33  C8  UNL     1      -4.902  10.032   3.831  1.00  0.00     0.014 A 
HETATM   34  C9  UNL     1      -4.368  11.057   4.612  1.00  0.00     0.003 A 
HETATM   35  C10 UNL     1      -3.085  11.471   4.296  1.00  0.00     0.026 A 
HETATM   36  C11 UNL     1      -2.372  10.903   3.264  1.00  0.00     0.047 A 
HETATM   37  N4  UNL     1      -1.064  11.389   3.006  1.00  0.00    -0.102 NA
HETATM   38  C12 UNL     1      -2.947   9.875   2.505  1.00  0.00     0.040 A 
ENDBRANCH  31  32
ENDBRANCH  30  31
ENDBRANCH   4  30
BRANCH   1  39
HETATM   39  N1  UNL     1      -3.031  10.207  -3.058  1.00  0.00    -0.223 N 
ATOM     40  H1  UNL     1      -3.259  10.303  -4.047  1.00  0.00     0.178 HD
BRANCH  39  41
HETATM   41  C3  UNL     1      -2.308  11.243  -2.368  1.00  0.00     0.164 C 
BRANCH  41  42
HETATM   42  C2  UNL     1      -2.738  12.600  -2.838  1.00  0.00    -0.017 C 
HETATM   43  C1  UNL     1      -1.987  13.632  -2.635  1.00  0.00     0.008 C 
ENDBRANCH  41  42
ENDBRANCH  39  41
ENDBRANCH   1  39
TORSDOF 9
ENDMDL
