MODEL 1
REMARK VINA RESULT: -5.593922746      0.000      0.000
REMARK  8 active torsions:
REMARK  status: ('A' for Active; 'I' for Inactive)
REMARK    1  A    between atoms: C2_5  and  N3_6 
REMARK       I    between atoms: N3_6  and  C3_8 
REMARK    2  A    between atoms: C3_8  and  C4_10 
REMARK    3  A    between atoms: C4_10  and  S1_11 
REMARK    4  A    between atoms: S1_11  and  C5_12 
REMARK    5  A    between atoms: C8_15  and  N4_16 
REMARK       I    between atoms: N4_16  and  C9_18 
REMARK    6  A    between atoms: C9_18  and  C10_20 
REMARK    7  A    between atoms: C13_23  and  C14_24 
REMARK    8  A    between atoms: C20_34  and  C21_35 
ROOT
HETATM    1  C5  UNL     1      -1.545   5.341  -0.574  1.00  0.00     0.001 A 
HETATM    2  C6  UNL     1      -1.054   5.968   0.550  1.00  0.00     0.021 A 
HETATM    3  C7  UNL     1      -0.754   7.313   0.512  1.00  0.00     0.031 A 
HETATM    4  C8  UNL     1      -0.933   8.085  -0.648  1.00  0.00     0.035 A 
HETATM    5  C17 UNL     1      -1.415   7.477  -1.756  1.00  0.00     0.031 A 
HETATM    6  C18 UNL     1      -1.716   6.108  -1.704  1.00  0.00     0.021 A 
ENDROOT
BRANCH   1   7
HETATM    7  S1  UNL     1      -1.947   3.600  -0.598  1.00  0.00    -0.121 SA
BRANCH   7   8
HETATM    8  C4  UNL     1      -3.024   3.248   0.811  1.00  0.00     0.182 C 
BRANCH   8   9
HETATM    9  C3  UNL     1      -4.379   3.848   0.664  1.00  0.00     0.232 C 
HETATM   10  N3  UNL     1      -4.712   4.898   1.560  1.00  0.00    -0.311 N 
ATOM     11  H3  UNL     1      -5.043   4.666   2.496  1.00  0.00     0.170 HD
HETATM   12  O1  UNL     1      -5.216   3.481  -0.187  1.00  0.00    -0.272 OA
BRANCH  10  13
HETATM   13  C2  UNL     1      -4.607   6.140   1.218  1.00  0.00     0.125 A 
HETATM   14  N2  UNL     1      -4.882   6.453  -0.079  1.00  0.00    -0.269 N 
HETATM   15  N1  UNL     1      -4.795   7.688  -0.490  1.00  0.00    -0.237 N 
ATOM     16  H2  UNL     1      -5.157   5.719  -0.732  1.00  0.00     0.190 HD
HETATM   17  C1  UNL     1      -5.096   7.998  -1.891  1.00  0.00     0.200 C 
HETATM   18  N7  UNL     1      -4.437   8.635   0.358  1.00  0.00    -0.284 N 
HETATM   19  C20 UNL     1      -4.143   8.421   1.665  1.00  0.00     0.063 A 
ATOM     20  H7  UNL     1      -4.376   9.591   0.007  1.00  0.00     0.188 HD
HETATM   21  C19 UNL     1      -4.235   7.122   2.102  1.00  0.00     0.081 A 
BRANCH  19  22
HETATM   22  C21 UNL     1      -3.754   9.512   2.553  1.00  0.00    -0.008 A 
HETATM   23  C22 UNL     1      -2.449   9.901   2.730  1.00  0.00     0.014 A 
HETATM   24  C23 UNL     1      -2.120  10.955   3.593  1.00  0.00     0.001 A 
HETATM   25  C24 UNL     1      -3.071  11.645   4.299  1.00  0.00     0.000 A 
HETATM   26  C25 UNL     1      -4.379  11.264   4.128  1.00  0.00     0.001 A 
HETATM   27  C26 UNL     1      -4.706  10.208   3.263  1.00  0.00     0.014 A 
ENDBRANCH  19  22
ENDBRANCH  10  13
ENDBRANCH   8   9
ENDBRANCH   7   8
ENDBRANCH   1   7
BRANCH   4  28
HETATM   28  N4  UNL     1      -0.606   9.437  -0.543  1.00  0.00    -0.323 N 
HETATM   29  C9  UNL     1      -1.456  10.532  -0.738  1.00  0.00     0.256 C 
HETATM   30  O2  UNL     1      -2.659  10.364  -1.045  1.00  0.00    -0.267 OA
ATOM     31  H4  UNL     1       0.360   9.652  -0.297  1.00  0.00     0.169 HD
BRANCH  29  32
HETATM   32  C10 UNL     1      -0.952  11.915  -0.585  1.00  0.00     0.032 A 
HETATM   33  C11 UNL     1      -1.194  12.854  -1.568  1.00  0.00     0.018 A 
HETATM   34  C12 UNL     1      -0.738  14.129  -1.463  1.00  0.00     0.016 A 
HETATM   35  C13 UNL     1      -0.002  14.543  -0.353  1.00  0.00     0.004 A 
HETATM   36  C15 UNL     1       0.229  13.592   0.618  1.00  0.00     0.016 A 
HETATM   37  C16 UNL     1      -0.237  12.280   0.516  1.00  0.00     0.018 A 
BRANCH  35  38
HETATM   38  C14 UNL     1       0.482  15.905  -0.249  1.00  0.00     0.120 C 
HETATM   39  N5  UNL     1       1.269  16.265   0.673  1.00  0.00    -0.387 N 
ATOM     40  H52 UNL     1       1.568  15.578   1.364  1.00  0.00     0.157 HD
ATOM     41  H51 UNL     1       1.610  17.224   0.746  1.00  0.00     0.157 HD
HETATM   42  N6  UNL     1       0.065  16.862  -1.211  1.00  0.00    -0.082 NA
ENDBRANCH  35  38
ENDBRANCH  29  32
ENDBRANCH   4  28
TORSDOF 8
ENDMDL
MODEL 2
REMARK VINA RESULT: -5.442635909      2.159      2.853
REMARK  8 active torsions:
REMARK  status: ('A' for Active; 'I' for Inactive)
REMARK    1  A    between atoms: C2_5  and  N3_6 
REMARK       I    between atoms: N3_6  and  C3_8 
REMARK    2  A    between atoms: C3_8  and  C4_10 
REMARK    3  A    between atoms: C4_10  and  S1_11 
REMARK    4  A    between atoms: S1_11  and  C5_12 
REMARK    5  A    between atoms: C8_15  and  N4_16 
REMARK       I    between atoms: N4_16  and  C9_18 
REMARK    6  A    between atoms: C9_18  and  C10_20 
REMARK    7  A    between atoms: C13_23  and  C14_24 
REMARK    8  A    between atoms: C20_34  and  C21_35 
ROOT
HETATM    1  C5  UNL     1      -1.062   5.493  -0.741  1.00  0.00     0.001 A 
HETATM    2  C6  UNL     1      -1.558   5.597  -2.023  1.00  0.00     0.021 A 
HETATM    3  C7  UNL     1      -1.791   6.839  -2.572  1.00  0.00     0.031 A 
HETATM    4  C8  UNL     1      -1.538   8.027  -1.866  1.00  0.00     0.035 A 
HETATM    5  C17 UNL     1      -1.052   7.935  -0.607  1.00  0.00     0.031 A 
HETATM    6  C18 UNL     1      -0.819   6.665  -0.060  1.00  0.00     0.021 A 
ENDROOT
BRANCH   1   7
HETATM    7  S1  UNL     1      -0.744   3.916   0.037  1.00  0.00    -0.121 SA
BRANCH   7   8
HETATM    8  C4  UNL     1      -2.062   3.599   1.233  1.00  0.00     0.182 C 
BRANCH   8   9
HETATM    9  C3  UNL     1      -3.416   3.904   0.692  1.00  0.00     0.232 C 
HETATM   10  N3  UNL     1      -4.218   4.798   1.450  1.00  0.00    -0.311 N 
ATOM     11  H3  UNL     1      -4.743   4.440   2.248  1.00  0.00     0.170 HD
HETATM   12  O1  UNL     1      -3.869   3.424  -0.366  1.00  0.00    -0.272 OA
BRANCH  10  13
HETATM   13  C2  UNL     1      -4.298   6.054   1.154  1.00  0.00     0.125 A 
HETATM   14  N2  UNL     1      -4.689   6.370  -0.112  1.00  0.00    -0.269 N 
HETATM   15  N1  UNL     1      -4.790   7.619  -0.476  1.00  0.00    -0.237 N 
ATOM     16  H2  UNL     1      -4.902   5.627  -0.778  1.00  0.00     0.190 HD
HETATM   17  C1  UNL     1      -5.212   7.931  -1.845  1.00  0.00     0.200 C 
HETATM   18  N7  UNL     1      -4.512   8.576   0.389  1.00  0.00    -0.284 N 
HETATM   19  C20 UNL     1      -4.116   8.361   1.668  1.00  0.00     0.063 A 
ATOM     20  H7  UNL     1      -4.599   9.543   0.075  1.00  0.00     0.188 HD
HETATM   21  C19 UNL     1      -4.009   7.047   2.056  1.00  0.00     0.081 A 
BRANCH  19  22
HETATM   22  C21 UNL     1      -3.823   9.464   2.577  1.00  0.00    -0.008 A 
HETATM   23  C22 UNL     1      -2.566   9.996   2.725  1.00  0.00     0.014 A 
HETATM   24  C23 UNL     1      -2.329  11.057   3.610  1.00  0.00     0.001 A 
HETATM   25  C24 UNL     1      -3.327  11.612   4.368  1.00  0.00     0.000 A 
HETATM   26  C25 UNL     1      -4.589  11.086   4.228  1.00  0.00     0.001 A 
HETATM   27  C26 UNL     1      -4.823  10.025   3.340  1.00  0.00     0.014 A 
ENDBRANCH  19  22
ENDBRANCH  10  13
ENDBRANCH   8   9
ENDBRANCH   7   8
ENDBRANCH   1   7
BRANCH   4  28
HETATM   28  N4  UNL     1      -1.804   9.215  -2.548  1.00  0.00    -0.323 N 
HETATM   29  C9  UNL     1      -2.322  10.400  -2.013  1.00  0.00     0.256 C 
HETATM   30  O2  UNL     1      -2.606  10.485  -0.796  1.00  0.00    -0.267 OA
ATOM     31  H4  UNL     1      -1.597   9.221  -3.546  1.00  0.00     0.169 HD
BRANCH  29  32
HETATM   32  C10 UNL     1      -2.543  11.583  -2.874  1.00  0.00     0.032 A 
HETATM   33  C11 UNL     1      -2.600  12.845  -2.318  1.00  0.00     0.018 A 
HETATM   34  C12 UNL     1      -2.812  13.950  -3.078  1.00  0.00     0.016 A 
HETATM   35  C13 UNL     1      -2.980  13.855  -4.459  1.00  0.00     0.004 A 
HETATM   36  C15 UNL     1      -2.920  12.587  -4.997  1.00  0.00     0.016 A 
HETATM   37  C16 UNL     1      -2.703  11.447  -4.221  1.00  0.00     0.018 A 
BRANCH  35  38
HETATM   38  C14 UNL     1      -3.207  15.039  -5.264  1.00  0.00     0.120 C 
HETATM   39  N5  UNL     1      -4.219  15.153  -6.013  1.00  0.00    -0.387 N 
ATOM     40  H52 UNL     1      -4.894  14.389  -6.053  1.00  0.00     0.157 HD
ATOM     41  H51 UNL     1      -4.379  15.986  -6.580  1.00  0.00     0.157 HD
HETATM   42  N6  UNL     1      -2.268  16.102  -5.209  1.00  0.00    -0.082 NA
ENDBRANCH  35  38
ENDBRANCH  29  32
ENDBRANCH   4  28
TORSDOF 8
ENDMDL
MODEL 3
REMARK VINA RESULT: -5.414557476      2.910      4.119
REMARK  8 active torsions:
REMARK  status: ('A' for Active; 'I' for Inactive)
REMARK    1  A    between atoms: C2_5  and  N3_6 
REMARK       I    between atoms: N3_6  and  C3_8 
REMARK    2  A    between atoms: C3_8  and  C4_10 
REMARK    3  A    between atoms: C4_10  and  S1_11 
REMARK    4  A    between atoms: S1_11  and  C5_12 
REMARK    5  A    between atoms: C8_15  and  N4_16 
REMARK       I    between atoms: N4_16  and  C9_18 
REMARK    6  A    between atoms: C9_18  and  C10_20 
REMARK    7  A    between atoms: C13_23  and  C14_24 
REMARK    8  A    between atoms: C20_34  and  C21_35 
ROOT
HETATM    1  C5  UNL     1      -3.267   6.399   0.249  1.00  0.00     0.001 A 
HETATM    2  C6  UNL     1      -4.406   7.116  -0.052  1.00  0.00     0.021 A 
HETATM    3  C7  UNL     1      -4.304   8.328  -0.701  1.00  0.00     0.031 A 
HETATM    4  C8  UNL     1      -3.065   8.873  -1.075  1.00  0.00     0.035 A 
HETATM    5  C17 UNL     1      -1.942   8.176  -0.783  1.00  0.00     0.031 A 
HETATM    6  C18 UNL     1      -2.059   6.944  -0.123  1.00  0.00     0.021 A 
ENDROOT
BRANCH   1   7
HETATM    7  S1  UNL     1      -3.324   4.826   1.095  1.00  0.00    -0.121 SA
BRANCH   7   8
HETATM    8  C4  UNL     1      -2.019   4.809   2.346  1.00  0.00     0.182 C 
BRANCH   8   9
HETATM    9  C3  UNL     1      -2.324   5.688   3.509  1.00  0.00     0.232 C 
HETATM   10  N3  UNL     1      -1.569   6.885   3.618  1.00  0.00    -0.311 N 
ATOM     11  H3  UNL     1      -0.639   6.850   4.035  1.00  0.00     0.170 HD
HETATM   12  O1  UNL     1      -3.188   5.429   4.371  1.00  0.00    -0.272 OA
BRANCH  10  13
HETATM   13  C2  UNL     1      -2.031   8.019   3.202  1.00  0.00     0.125 A 
HETATM   14  N2  UNL     1      -3.384   8.173   3.195  1.00  0.00    -0.269 N 
HETATM   15  N1  UNL     1      -3.916   9.292   2.787  1.00  0.00    -0.237 N 
ATOM     16  H2  UNL     1      -3.985   7.411   3.511  1.00  0.00     0.190 HD
HETATM   17  C1  UNL     1      -5.376   9.432   2.790  1.00  0.00     0.200 C 
HETATM   18  N7  UNL     1      -3.136  10.276   2.378  1.00  0.00    -0.284 N 
HETATM   19  C20 UNL     1      -1.781  10.216   2.348  1.00  0.00     0.063 A 
ATOM     20  H7  UNL     1      -3.581  11.138   2.064  1.00  0.00     0.188 HD
HETATM   21  C19 UNL     1      -1.217   9.039   2.778  1.00  0.00     0.081 A 
BRANCH  19  22
HETATM   22  C21 UNL     1      -0.973  11.339   1.885  1.00  0.00    -0.008 A 
HETATM   23  C22 UNL     1      -0.141  12.051   2.713  1.00  0.00     0.014 A 
HETATM   24  C23 UNL     1       0.618  13.125   2.226  1.00  0.00     0.001 A 
HETATM   25  C24 UNL     1       0.570  13.516   0.913  1.00  0.00     0.000 A 
HETATM   26  C25 UNL     1      -0.260  12.810   0.077  1.00  0.00     0.001 A 
HETATM   27  C26 UNL     1      -1.018  11.735   0.568  1.00  0.00     0.014 A 
ENDBRANCH  19  22
ENDBRANCH  10  13
ENDBRANCH   8   9
ENDBRANCH   7   8
ENDBRANCH   1   7
BRANCH   4  28
HETATM   28  N4  UNL     1      -3.108  10.098  -1.740  1.00  0.00    -0.323 N 
HETATM   29  C9  UNL     1      -2.610  10.387  -3.016  1.00  0.00     0.256 C 
HETATM   30  O2  UNL     1      -2.049   9.502  -3.702  1.00  0.00    -0.267 OA
ATOM     31  H4  UNL     1      -3.551  10.870  -1.242  1.00  0.00     0.169 HD
BRANCH  29  32
HETATM   32  C10 UNL     1      -2.738  11.747  -3.585  1.00  0.00     0.032 A 
HETATM   33  C11 UNL     1      -2.840  11.920  -4.952  1.00  0.00     0.018 A 
HETATM   34  C12 UNL     1      -2.949  13.154  -5.507  1.00  0.00     0.016 A 
HETATM   35  C13 UNL     1      -2.963  14.303  -4.717  1.00  0.00     0.004 A 
HETATM   36  C15 UNL     1      -2.861  14.111  -3.356  1.00  0.00     0.016 A 
HETATM   37  C16 UNL     1      -2.749  12.845  -2.778  1.00  0.00     0.018 A 
BRANCH  35  38
HETATM   38  C14 UNL     1      -3.079  15.617  -5.318  1.00  0.00     0.120 C 
HETATM   39  N5  UNL     1      -3.145  16.668  -4.617  1.00  0.00    -0.387 N 
ATOM     40  H52 UNL     1      -3.117  16.588  -3.601  1.00  0.00     0.157 HD
ATOM     41  H51 UNL     1      -3.226  17.592  -5.040  1.00  0.00     0.157 HD
HETATM   42  N6  UNL     1      -3.118  15.729  -6.732  1.00  0.00    -0.082 NA
ENDBRANCH  35  38
ENDBRANCH  29  32
ENDBRANCH   4  28
TORSDOF 8
ENDMDL
MODEL 4
REMARK VINA RESULT: -5.378696572      4.616      9.712
REMARK  8 active torsions:
REMARK  status: ('A' for Active; 'I' for Inactive)
REMARK    1  A    between atoms: C2_5  and  N3_6 
REMARK       I    between atoms: N3_6  and  C3_8 
REMARK    2  A    between atoms: C3_8  and  C4_10 
REMARK    3  A    between atoms: C4_10  and  S1_11 
REMARK    4  A    between atoms: S1_11  and  C5_12 
REMARK    5  A    between atoms: C8_15  and  N4_16 
REMARK       I    between atoms: N4_16  and  C9_18 
REMARK    6  A    between atoms: C9_18  and  C10_20 
REMARK    7  A    between atoms: C13_23  and  C14_24 
REMARK    8  A    between atoms: C20_34  and  C21_35 
ROOT
HETATM    1  C5  UNL     1      -1.889  12.989  -7.322  1.00  0.00     0.001 A 
HETATM    2  C6  UNL     1      -3.196  12.740  -6.961  1.00  0.00     0.021 A 
HETATM    3  C7  UNL     1      -3.471  12.125  -5.758  1.00  0.00     0.031 A 
HETATM    4  C8  UNL     1      -2.456  11.735  -4.869  1.00  0.00     0.035 A 
HETATM    5  C17 UNL     1      -1.171  11.976  -5.216  1.00  0.00     0.031 A 
HETATM    6  C18 UNL     1      -0.904  12.602  -6.442  1.00  0.00     0.021 A 
ENDROOT
BRANCH   1   7
HETATM    7  S1  UNL     1      -1.459  13.775  -8.868  1.00  0.00    -0.121 SA
BRANCH   7   8
HETATM    8  C4  UNL     1      -0.530  15.281  -8.498  1.00  0.00     0.182 C 
BRANCH   8   9
HETATM    9  C3  UNL     1      -1.408  16.416  -8.101  1.00  0.00     0.232 C 
HETATM   10  N3  UNL     1      -2.244  16.209  -6.971  1.00  0.00    -0.311 N 
ATOM     11  H3  UNL     1      -3.128  15.717  -7.091  1.00  0.00     0.170 HD
HETATM   12  O1  UNL     1      -1.445  17.511  -8.697  1.00  0.00    -0.272 OA
BRANCH  10  13
HETATM   13  C2  UNL     1      -1.910  16.630  -5.795  1.00  0.00     0.125 A 
HETATM   14  N2  UNL     1      -1.902  17.978  -5.597  1.00  0.00    -0.269 N 
HETATM   15  N1  UNL     1      -1.575  18.470  -4.434  1.00  0.00    -0.237 N 
ATOM     16  H2  UNL     1      -2.153  18.606  -6.361  1.00  0.00     0.190 HD
HETATM   17  C1  UNL     1      -1.574  19.924  -4.247  1.00  0.00     0.200 C 
HETATM   18  N7  UNL     1      -1.250  17.653  -3.448  1.00  0.00    -0.284 N 
HETATM   19  C20 UNL     1      -1.229  16.301  -3.549  1.00  0.00     0.063 A 
ATOM     20  H7  UNL     1      -0.998  18.067  -2.550  1.00  0.00     0.188 HD
HETATM   21  C19 UNL     1      -1.574  15.779  -4.772  1.00  0.00     0.081 A 
BRANCH  19  22
HETATM   22  C21 UNL     1      -0.861  15.452  -2.421  1.00  0.00    -0.008 A 
HETATM   23  C22 UNL     1      -0.042  15.876  -1.403  1.00  0.00     0.014 A 
HETATM   24  C23 UNL     1       0.286  15.027  -0.337  1.00  0.00     0.001 A 
HETATM   25  C24 UNL     1      -0.187  13.743  -0.255  1.00  0.00     0.000 A 
HETATM   26  C25 UNL     1      -1.007  13.310  -1.268  1.00  0.00     0.001 A 
HETATM   27  C26 UNL     1      -1.334  14.162  -2.334  1.00  0.00     0.014 A 
ENDBRANCH  19  22
ENDBRANCH  10  13
ENDBRANCH   8   9
ENDBRANCH   7   8
ENDBRANCH   1   7
BRANCH   4  28
HETATM   28  N4  UNL     1      -2.876  11.138  -3.680  1.00  0.00    -0.323 N 
HETATM   29  C9  UNL     1      -2.646   9.821  -3.267  1.00  0.00     0.256 C 
HETATM   30  O2  UNL     1      -2.000   9.025  -3.988  1.00  0.00    -0.267 OA
ATOM     31  H4  UNL     1      -3.410  11.726  -3.041  1.00  0.00     0.169 HD
BRANCH  29  32
HETATM   32  C10 UNL     1      -3.159   9.338  -1.966  1.00  0.00     0.032 A 
HETATM   33  C11 UNL     1      -4.147   8.375  -1.925  1.00  0.00     0.018 A 
HETATM   34  C12 UNL     1      -4.648   7.917  -0.748  1.00  0.00     0.016 A 
HETATM   35  C13 UNL     1      -4.181   8.403   0.473  1.00  0.00     0.004 A 
HETATM   36  C15 UNL     1      -3.194   9.364   0.412  1.00  0.00     0.016 A 
HETATM   37  C16 UNL     1      -2.676   9.839  -0.794  1.00  0.00     0.018 A 
BRANCH  35  38
HETATM   38  C14 UNL     1      -4.721   7.911   1.725  1.00  0.00     0.120 C 
HETATM   39  N5  UNL     1      -4.531   6.722   2.111  1.00  0.00    -0.387 N 
ATOM     40  H52 UNL     1      -3.984   6.092   1.525  1.00  0.00     0.157 HD
ATOM     41  H51 UNL     1      -4.911   6.375   2.992  1.00  0.00     0.157 HD
HETATM   42  N6  UNL     1      -5.483   8.787   2.541  1.00  0.00    -0.082 NA
ENDBRANCH  35  38
ENDBRANCH  29  32
ENDBRANCH   4  28
TORSDOF 8
ENDMDL
MODEL 5
REMARK VINA RESULT: -5.338284287      2.803      4.085
REMARK  8 active torsions:
REMARK  status: ('A' for Active; 'I' for Inactive)
REMARK    1  A    between atoms: C2_5  and  N3_6 
REMARK       I    between atoms: N3_6  and  C3_8 
REMARK    2  A    between atoms: C3_8  and  C4_10 
REMARK    3  A    between atoms: C4_10  and  S1_11 
REMARK    4  A    between atoms: S1_11  and  C5_12 
REMARK    5  A    between atoms: C8_15  and  N4_16 
REMARK       I    between atoms: N4_16  and  C9_18 
REMARK    6  A    between atoms: C9_18  and  C10_20 
REMARK    7  A    between atoms: C13_23  and  C14_24 
REMARK    8  A    between atoms: C20_34  and  C21_35 
ROOT
HETATM    1  C5  UNL     1      -2.954   6.283   0.391  1.00  0.00     0.001 A 
HETATM    2  C6  UNL     1      -1.817   6.973   0.030  1.00  0.00     0.021 A 
HETATM    3  C7  UNL     1      -1.923   8.176  -0.634  1.00  0.00     0.031 A 
HETATM    4  C8  UNL     1      -3.166   8.740  -0.963  1.00  0.00     0.035 A 
HETATM    5  C17 UNL     1      -4.289   8.070  -0.612  1.00  0.00     0.031 A 
HETATM    6  C18 UNL     1      -4.167   6.847   0.063  1.00  0.00     0.021 A 
ENDROOT
BRANCH   1   7
HETATM    7  S1  UNL     1      -2.891   4.715   1.245  1.00  0.00    -0.121 SA
BRANCH   7   8
HETATM    8  C4  UNL     1      -1.730   4.868   2.623  1.00  0.00     0.182 C 
BRANCH   8   9
HETATM    9  C3  UNL     1      -2.238   5.749   3.710  1.00  0.00     0.232 C 
HETATM   10  N3  UNL     1      -1.570   6.989   3.889  1.00  0.00    -0.311 N 
ATOM     11  H3  UNL     1      -0.706   7.014   4.430  1.00  0.00     0.170 HD
HETATM   12  O1  UNL     1      -3.198   5.458   4.452  1.00  0.00    -0.272 OA
BRANCH  10  13
HETATM   13  C2  UNL     1      -2.031   8.087   3.384  1.00  0.00     0.125 A 
HETATM   14  N2  UNL     1      -3.384   8.208   3.291  1.00  0.00    -0.269 N 
HETATM   15  N1  UNL     1      -3.915   9.290   2.791  1.00  0.00    -0.237 N 
ATOM     16  H2  UNL     1      -3.986   7.450   3.614  1.00  0.00     0.190 HD
HETATM   17  C1  UNL     1      -5.375   9.395   2.702  1.00  0.00     0.200 C 
HETATM   18  N7  UNL     1      -3.133  10.268   2.374  1.00  0.00    -0.284 N 
HETATM   19  C20 UNL     1      -1.777  10.240   2.425  1.00  0.00     0.063 A 
ATOM     20  H7  UNL     1      -3.576  11.101   1.987  1.00  0.00     0.188 HD
HETATM   21  C19 UNL     1      -1.215   9.102   2.952  1.00  0.00     0.081 A 
BRANCH  19  22
HETATM   22  C21 UNL     1      -0.967  11.355   1.947  1.00  0.00    -0.008 A 
HETATM   23  C22 UNL     1      -0.167  12.104   2.774  1.00  0.00     0.014 A 
HETATM   24  C23 UNL     1       0.596  13.169   2.272  1.00  0.00     0.001 A 
HETATM   25  C24 UNL     1       0.582  13.514   0.946  1.00  0.00     0.000 A 
HETATM   26  C25 UNL     1      -0.216  12.771   0.111  1.00  0.00     0.001 A 
HETATM   27  C26 UNL     1      -0.978  11.706   0.616  1.00  0.00     0.014 A 
ENDBRANCH  19  22
ENDBRANCH  10  13
ENDBRANCH   8   9
ENDBRANCH   7   8
ENDBRANCH   1   7
BRANCH   4  28
HETATM   28  N4  UNL     1      -3.129   9.970  -1.620  1.00  0.00    -0.323 N 
HETATM   29  C9  UNL     1      -2.680  10.221  -2.921  1.00  0.00     0.256 C 
HETATM   30  O2  UNL     1      -2.247   9.293  -3.642  1.00  0.00    -0.267 OA
ATOM     31  H4  UNL     1      -3.466  10.776  -1.093  1.00  0.00     0.169 HD
BRANCH  29  32
HETATM   32  C10 UNL     1      -2.709  11.593  -3.477  1.00  0.00     0.032 A 
HETATM   33  C11 UNL     1      -2.721  12.684  -2.631  1.00  0.00     0.018 A 
HETATM   34  C12 UNL     1      -2.758  13.955  -3.108  1.00  0.00     0.016 A 
HETATM   35  C13 UNL     1      -2.785  14.211  -4.479  1.00  0.00     0.004 A 
HETATM   36  C15 UNL     1      -2.772  13.110  -5.308  1.00  0.00     0.016 A 
HETATM   37  C16 UNL     1      -2.734  11.801  -4.824  1.00  0.00     0.018 A 
BRANCH  35  38
HETATM   38  C14 UNL     1      -2.825  15.571  -4.980  1.00  0.00     0.120 C 
HETATM   39  N5  UNL     1      -3.459  15.876  -6.030  1.00  0.00    -0.387 N 
ATOM     40  H52 UNL     1      -3.955  15.145  -6.539  1.00  0.00     0.157 HD
ATOM     41  H51 UNL     1      -3.488  16.833  -6.382  1.00  0.00     0.157 HD
HETATM   42  N6  UNL     1      -2.135  16.589  -4.271  1.00  0.00    -0.082 NA
ENDBRANCH  35  38
ENDBRANCH  29  32
ENDBRANCH   4  28
TORSDOF 8
ENDMDL
