MODEL 1
REMARK VINA RESULT: -8.252986115      0.000      0.000
REMARK  2 active torsions:
REMARK  status: ('A' for Active; 'I' for Inactive)
REMARK    1  A    between atoms: O1_2  and  C2_3 
REMARK    2  A    between atoms: C2_3  and  C3_4 
ROOT
HETATM    1  C3  UNL     1      12.608   5.575 -37.263  1.00  0.00     0.146 C 
HETATM    2  C4  UNL     1      13.893   5.557 -36.517  1.00  0.00     0.047 C 
HETATM    3  C5  UNL     1      14.369   4.244 -35.973  1.00  0.00     0.006 C 
HETATM    4  C6  UNL     1      15.634   4.567 -35.196  1.00  0.00     0.013 C 
HETATM    5  C7  UNL     1      16.873   4.075 -35.832  1.00  0.00     0.010 C 
HETATM    6  C8  UNL     1      17.443   2.777 -35.467  1.00  0.00     0.042 C 
HETATM    7  C9  UNL     1      17.642   1.999 -36.760  1.00  0.00     0.011 C 
HETATM    8  C10 UNL     1      16.330   1.519 -37.186  1.00  0.00     0.029 C 
HETATM    9  C11 UNL     1      15.090   1.895 -36.482  1.00  0.00     0.128 C 
HETATM   10  N1  UNL     1      15.188   2.042 -34.992  1.00  0.00    -0.312 N 
HETATM   11  C12 UNL     1      13.936   2.397 -34.431  1.00  0.00     0.223 C 
HETATM   12  O2  UNL     1      13.144   1.896 -33.592  1.00  0.00    -0.273 OA
HETATM   13  C13 UNL     1      13.351   3.727 -34.944  1.00  0.00     0.115 C 
HETATM   14  C14 UNL     1      16.584   1.841 -34.629  1.00  0.00     0.142 C 
HETATM   15  C15 UNL     1      17.050   1.970 -33.259  1.00  0.00     0.064 C 
HETATM   16  C16 UNL     1      18.197   0.985 -33.122  1.00  0.00     0.031 C 
HETATM   17  C17 UNL     1      17.872   0.021 -34.228  1.00  0.00     0.171 C 
HETATM   18  O3  UNL     1      16.846   0.515 -34.955  1.00  0.00    -0.360 OA
HETATM   19  C18 UNL     1      14.474   3.199 -37.010  1.00  0.00     0.118 A 
HETATM   20  O4  UNL     1      13.046   2.950 -37.442  1.00  0.00    -0.364 OA
HETATM   21  C19 UNL     1      14.090   3.314 -38.301  1.00  0.00     0.184 A 
HETATM   22  C20 UNL     1      13.856   4.620 -38.987  1.00  0.00     0.203 C 
HETATM   23  O5  UNL     1      12.682   5.236 -38.571  1.00  0.00    -0.381 OA
ENDROOT
BRANCH   1  24
HETATM   24  C2  UNL     1      12.062   6.977 -37.146  1.00  0.00     0.199 C 
BRANCH  24  25
HETATM   25  O1  UNL     1      11.644   7.604 -38.253  1.00  0.00    -0.393 OA
HETATM   26  C1  UNL     1      10.588   8.448 -38.092  1.00  0.00     0.201 C 
ENDBRANCH  24  25
ENDBRANCH   1  24
TORSDOF 2
ENDMDL
MODEL 2
REMARK VINA RESULT: -8.157839415      1.629      6.347
REMARK  2 active torsions:
REMARK  status: ('A' for Active; 'I' for Inactive)
REMARK    1  A    between atoms: O1_2  and  C2_3 
REMARK    2  A    between atoms: C2_3  and  C3_4 
ROOT
HETATM    1  C3  UNL     1      17.683   1.359 -34.772  1.00  0.00     0.146 C 
HETATM    2  C4  UNL     1      17.293   2.764 -35.058  1.00  0.00     0.047 C 
HETATM    3  C5  UNL     1      15.998   3.000 -35.775  1.00  0.00     0.006 C 
HETATM    4  C6  UNL     1      15.931   4.501 -35.998  1.00  0.00     0.013 C 
HETATM    5  C7  UNL     1      14.914   5.186 -35.176  1.00  0.00     0.010 C 
HETATM    6  C8  UNL     1      13.569   5.439 -35.697  1.00  0.00     0.042 C 
HETATM    7  C9  UNL     1      12.584   4.877 -34.681  1.00  0.00     0.011 C 
HETATM    8  C10 UNL     1      12.581   3.425 -34.835  1.00  0.00     0.029 C 
HETATM    9  C11 UNL     1      13.504   2.730 -35.751  1.00  0.00     0.128 C 
HETATM   10  N1  UNL     1      13.829   3.438 -37.033  1.00  0.00    -0.312 N 
HETATM   11  C12 UNL     1      14.715   2.672 -37.829  1.00  0.00     0.223 C 
HETATM   12  O2  UNL     1      14.688   2.158 -38.977  1.00  0.00    -0.273 OA
HETATM   13  C13 UNL     1      16.072   2.358 -37.169  1.00  0.00     0.115 C 
HETATM   14  C14 UNL     1      13.170   4.737 -36.988  1.00  0.00     0.142 C 
HETATM   15  C15 UNL     1      13.321   5.714 -38.052  1.00  0.00     0.064 C 
HETATM   16  C16 UNL     1      12.008   6.474 -38.100  1.00  0.00     0.031 C 
HETATM   17  C17 UNL     1      11.082   5.473 -37.467  1.00  0.00     0.171 C 
HETATM   18  O3  UNL     1      11.812   4.443 -36.984  1.00  0.00    -0.360 OA
HETATM   19  C18 UNL     1      14.846   2.376 -35.094  1.00  0.00     0.118 A 
HETATM   20  O4  UNL     1      15.096   0.889 -35.213  1.00  0.00    -0.364 OA
HETATM   21  C19 UNL     1      14.898   1.574 -34.007  1.00  0.00     0.184 A 
HETATM   22  C20 UNL     1      16.073   1.492 -33.089  1.00  0.00     0.203 C 
HETATM   23  O5  UNL     1      17.145   0.814 -33.656  1.00  0.00    -0.381 OA
ENDROOT
BRANCH   1  24
HETATM   24  C2  UNL     1      19.188   1.346 -34.651  1.00  0.00     0.199 C 
BRANCH  24  25
HETATM   25  O1  UNL     1      19.906   0.690 -35.571  1.00  0.00    -0.393 OA
HETATM   26  C1  UNL     1      20.336   1.432 -36.627  1.00  0.00     0.201 C 
ENDBRANCH  24  25
ENDBRANCH   1  24
TORSDOF 2
ENDMDL
MODEL 3
REMARK VINA RESULT: -8.080883418      3.953      6.576
REMARK  2 active torsions:
REMARK  status: ('A' for Active; 'I' for Inactive)
REMARK    1  A    between atoms: O1_2  and  C2_3 
REMARK    2  A    between atoms: C2_3  and  C3_4 
ROOT
HETATM    1  C3  UNL     1      16.310   0.383 -31.329  1.00  0.00     0.146 C 
HETATM    2  C4  UNL     1      17.376   1.181 -31.989  1.00  0.00     0.047 C 
HETATM    3  C5  UNL     1      17.631   0.941 -33.446  1.00  0.00     0.006 C 
HETATM    4  C6  UNL     1      18.818   1.823 -33.795  1.00  0.00     0.013 C 
HETATM    5  C7  UNL     1      18.480   2.974 -34.655  1.00  0.00     0.010 C 
HETATM    6  C8  UNL     1      18.606   2.891 -36.111  1.00  0.00     0.042 C 
HETATM    7  C9  UNL     1      17.268   3.319 -36.699  1.00  0.00     0.011 C 
HETATM    8  C10 UNL     1      16.339   2.207 -36.523  1.00  0.00     0.029 C 
HETATM    9  C11 UNL     1      16.704   0.989 -35.777  1.00  0.00     0.128 C 
HETATM   10  N1  UNL     1      18.126   0.528 -35.908  1.00  0.00    -0.312 N 
HETATM   11  C12 UNL     1      18.353  -0.650 -35.155  1.00  0.00     0.223 C 
HETATM   12  O2  UNL     1      18.722  -1.827 -35.402  1.00  0.00    -0.273 OA
HETATM   13  C13 UNL     1      18.097  -0.510 -33.642  1.00  0.00     0.115 C 
HETATM   14  C14 UNL     1      18.826   1.514 -36.721  1.00  0.00     0.142 C 
HETATM   15  C15 UNL     1      20.248   1.410 -37.003  1.00  0.00     0.064 C 
HETATM   16  C16 UNL     1      20.436   2.015 -38.383  1.00  0.00     0.031 C 
HETATM   17  C17 UNL     1      19.053   1.860 -38.948  1.00  0.00     0.171 C 
HETATM   18  O3  UNL     1      18.224   1.432 -37.971  1.00  0.00    -0.360 OA
HETATM   19  C18 UNL     1      16.418   1.100 -34.272  1.00  0.00     0.118 A 
HETATM   20  O4  UNL     1      15.514  -0.033 -33.839  1.00  0.00    -0.364 OA
HETATM   21  C19 UNL     1      15.165   1.323 -33.817  1.00  0.00     0.184 A 
HETATM   22  C20 UNL     1      14.854   1.824 -32.445  1.00  0.00     0.203 C 
HETATM   23  O5  UNL     1      15.050   0.856 -31.468  1.00  0.00    -0.381 OA
ENDROOT
BRANCH   1  24
HETATM   24  C2  UNL     1      16.658   0.330 -29.861  1.00  0.00     0.199 C 
BRANCH  24  25
HETATM   25  O1  UNL     1      16.630  -0.851 -29.230  1.00  0.00    -0.393 OA
HETATM   26  C1  UNL     1      15.436  -1.198 -28.677  1.00  0.00     0.201 C 
ENDBRANCH  24  25
ENDBRANCH   1  24
TORSDOF 2
ENDMDL
MODEL 4
REMARK VINA RESULT: -7.979676628      2.718      6.718
REMARK  2 active torsions:
REMARK  status: ('A' for Active; 'I' for Inactive)
REMARK    1  A    between atoms: O1_2  and  C2_3 
REMARK    2  A    between atoms: C2_3  and  C3_4 
ROOT
HETATM    1  C3  UNL     1      19.218  -0.497 -35.691  1.00  0.00     0.146 C 
HETATM    2  C4  UNL     1      17.771  -0.323 -35.982  1.00  0.00     0.047 C 
HETATM    3  C5  UNL     1      17.020   0.718 -35.209  1.00  0.00     0.006 C 
HETATM    4  C6  UNL     1      15.575   0.587 -35.659  1.00  0.00     0.013 C 
HETATM    5  C7  UNL     1      15.099   1.713 -36.487  1.00  0.00     0.010 C 
HETATM    6  C8  UNL     1      14.403   2.851 -35.883  1.00  0.00     0.042 C 
HETATM    7  C9  UNL     1      15.127   4.109 -36.341  1.00  0.00     0.011 C 
HETATM    8  C10 UNL     1      16.361   4.207 -35.568  1.00  0.00     0.029 C 
HETATM    9  C11 UNL     1      16.790   3.150 -34.635  1.00  0.00     0.128 C 
HETATM   10  N1  UNL     1      15.701   2.444 -33.882  1.00  0.00    -0.312 N 
HETATM   11  C12 UNL     1      16.234   1.458 -33.016  1.00  0.00     0.223 C 
HETATM   12  O2  UNL     1      16.224   1.239 -31.777  1.00  0.00    -0.273 OA
HETATM   13  C13 UNL     1      17.044   0.350 -33.717  1.00  0.00     0.115 C 
HETATM   14  C14 UNL     1      14.431   2.970 -34.366  1.00  0.00     0.142 C 
HETATM   15  C15 UNL     1      13.156   2.463 -33.889  1.00  0.00     0.064 C 
HETATM   16  C16 UNL     1      12.204   3.644 -33.930  1.00  0.00     0.031 C 
HETATM   17  C17 UNL     1      13.176   4.789 -33.870  1.00  0.00     0.171 C 
HETATM   18  O3  UNL     1      14.433   4.305 -33.981  1.00  0.00    -0.360 OA
HETATM   19  C18 UNL     1      17.631   2.058 -35.313  1.00  0.00     0.118 A 
HETATM   20  O4  UNL     1      18.960   1.924 -34.604  1.00  0.00    -0.364 OA
HETATM   21  C19 UNL     1      18.798   2.359 -35.925  1.00  0.00     0.184 A 
HETATM   22  C20 UNL     1      19.470   1.470 -36.919  1.00  0.00     0.203 C 
HETATM   23  O5  UNL     1      20.053   0.356 -36.329  1.00  0.00    -0.381 OA
ENDROOT
BRANCH   1  24
HETATM   24  C2  UNL     1      19.569  -1.913 -36.078  1.00  0.00     0.199 C 
BRANCH  24  25
HETATM   25  O1  UNL     1      19.713  -2.832 -35.115  1.00  0.00    -0.393 OA
HETATM   26  C1  UNL     1      19.281  -4.085 -35.424  1.00  0.00     0.201 C 
ENDBRANCH  24  25
ENDBRANCH   1  24
TORSDOF 2
ENDMDL
MODEL 5
REMARK VINA RESULT: -7.742594431      4.127      6.541
REMARK  2 active torsions:
REMARK  status: ('A' for Active; 'I' for Inactive)
REMARK    1  A    between atoms: O1_2  and  C2_3 
REMARK    2  A    between atoms: C2_3  and  C3_4 
ROOT
HETATM    1  C3  UNL     1      16.899   0.811 -32.909  1.00  0.00     0.146 C 
HETATM    2  C4  UNL     1      18.067   1.223 -33.729  1.00  0.00     0.047 C 
HETATM    3  C5  UNL     1      18.215   0.618 -35.093  1.00  0.00     0.006 C 
HETATM    4  C6  UNL     1      19.531   1.156 -35.629  1.00  0.00     0.013 C 
HETATM    5  C7  UNL     1      19.379   2.128 -36.730  1.00  0.00     0.010 C 
HETATM    6  C8  UNL     1      19.429   1.697 -38.128  1.00  0.00     0.042 C 
HETATM    7  C9  UNL     1      18.173   2.228 -38.804  1.00  0.00     0.011 C 
HETATM    8  C10 UNL     1      17.061   1.381 -38.382  1.00  0.00     0.029 C 
HETATM    9  C11 UNL     1      17.222   0.315 -37.376  1.00  0.00     0.128 C 
HETATM   10  N1  UNL     1      18.527  -0.425 -37.394  1.00  0.00    -0.312 N 
HETATM   11  C12 UNL     1      18.561  -1.424 -36.391  1.00  0.00     0.223 C 
HETATM   12  O2  UNL     1      18.694  -2.675 -36.361  1.00  0.00    -0.273 OA
HETATM   13  C13 UNL     1      18.396  -0.902 -34.950  1.00  0.00     0.115 C 
HETATM   14  C14 UNL     1      19.365   0.202 -38.408  1.00  0.00     0.142 C 
HETATM   15  C15 UNL     1      20.731  -0.231 -38.653  1.00  0.00     0.064 C 
HETATM   16  C16 UNL     1      20.974   0.001 -40.133  1.00  0.00     0.031 C 
HETATM   17  C17 UNL     1      19.564  -0.012 -40.654  1.00  0.00     0.171 C 
HETATM   18  O3  UNL     1      18.709  -0.043 -39.608  1.00  0.00    -0.360 OA
HETATM   19  C18 UNL     1      17.021   0.814 -35.938  1.00  0.00     0.118 A 
HETATM   20  O4  UNL     1      15.941   0.000 -35.262  1.00  0.00    -0.364 OA
HETATM   21  C19 UNL     1      15.850   1.368 -35.551  1.00  0.00     0.184 A 
HETATM   22  C20 UNL     1      15.693   2.214 -34.331  1.00  0.00     0.203 C 
HETATM   23  O5  UNL     1      15.744   1.471 -33.157  1.00  0.00    -0.381 OA
ENDROOT
BRANCH   1  24
HETATM   24  C2  UNL     1      17.288   1.024 -31.466  1.00  0.00     0.199 C 
BRANCH  24  25
HETATM   25  O1  UNL     1      17.151   0.012 -30.601  1.00  0.00    -0.393 OA
HETATM   26  C1  UNL     1      16.235   0.198 -29.612  1.00  0.00     0.201 C 
ENDBRANCH  24  25
ENDBRANCH   1  24
TORSDOF 2
ENDMDL
