MODEL 1
REMARK VINA RESULT: -7.498733886      0.000      0.000
REMARK  3 active torsions:
REMARK  status: ('A' for Active; 'I' for Inactive)
REMARK    1  A    between atoms: O1_2  and  C2_3 
REMARK    2  A    between atoms: C2_3  and  C3_5 
REMARK    3  A    between atoms: C3_5  and  C4_6 
ROOT
HETATM    1  C4  UNL     1      14.860   3.485 -35.755  1.00  0.00    -0.027 C 
HETATM    2  C5  UNL     1      14.066   3.715 -34.462  1.00  0.00     0.016 C 
HETATM    3  C6  UNL     1      13.799   2.980 -36.720  1.00  0.00    -0.009 C 
HETATM    4  C7  UNL     1      12.641   3.946 -36.821  1.00  0.00     0.011 C 
HETATM    5  C8  UNL     1      14.420   2.851 -38.060  1.00  0.00     0.010 C 
HETATM    6  C9  UNL     1      15.594   1.947 -38.092  1.00  0.00    -0.008 C 
HETATM    7  C10 UNL     1      16.509   2.464 -39.212  1.00  0.00     0.011 C 
HETATM    8  C11 UNL     1      16.312   1.718 -36.828  1.00  0.00    -0.019 C 
HETATM    9  C12 UNL     1      15.781   0.489 -36.118  1.00  0.00     0.017 C 
HETATM   10  C13 UNL     1      15.634   1.309 -34.829  1.00  0.00     0.004 C 
HETATM   11  C14 UNL     1      16.603   0.760 -33.862  1.00  0.00     0.072 C 
HETATM   12  C15 UNL     1      16.757   1.496 -32.569  1.00  0.00     0.019 C 
HETATM   13  C16 UNL     1      17.962   0.517 -34.399  1.00  0.00     0.246 C 
HETATM   14  O3  UNL     1      18.753   0.180 -33.520  1.00  0.00    -0.280 OA
HETATM   15  S1  UNL     1      18.667   0.601 -35.967  1.00  0.00     0.210 S 
HETATM   16  O4  UNL     1      20.071   1.171 -35.806  1.00  0.00    -0.220 OA
HETATM   17  O5  UNL     1      18.882  -0.820 -36.465  1.00  0.00    -0.220 OA
HETATM   18  C17 UNL     1      17.814   1.598 -37.105  1.00  0.00     0.159 C 
HETATM   19  C18 UNL     1      15.963   2.522 -35.634  1.00  0.00     0.009 C 
ENDROOT
BRANCH   1  20
HETATM   20  C3  UNL     1      15.352   4.845 -36.191  1.00  0.00     0.120 C 
BRANCH  20  21
HETATM   21  C2  UNL     1      16.362   5.442 -35.296  1.00  0.00     0.259 C 
HETATM   22  O2  UNL     1      17.504   4.984 -35.071  1.00  0.00    -0.265 OA
BRANCH  21  23
HETATM   23  O1  UNL     1      16.035   6.620 -34.632  1.00  0.00    -0.326 OA
HETATM   24  C1  UNL     1      16.956   7.721 -34.602  1.00  0.00     0.213 C 
ENDBRANCH  21  23
ENDBRANCH  20  21
ENDBRANCH   1  20
TORSDOF 3
ENDMDL
MODEL 2
REMARK VINA RESULT: -7.442703119      1.335      1.815
REMARK  3 active torsions:
REMARK  status: ('A' for Active; 'I' for Inactive)
REMARK    1  A    between atoms: O1_2  and  C2_3 
REMARK    2  A    between atoms: C2_3  and  C3_5 
REMARK    3  A    between atoms: C3_5  and  C4_6 
ROOT
HETATM    1  C4  UNL     1      14.604   3.317 -36.215  1.00  0.00    -0.027 C 
HETATM    2  C5  UNL     1      13.173   3.514 -35.695  1.00  0.00     0.016 C 
HETATM    3  C6  UNL     1      14.390   2.580 -37.527  1.00  0.00    -0.009 C 
HETATM    4  C7  UNL     1      13.455   3.339 -38.440  1.00  0.00     0.011 C 
HETATM    5  C8  UNL     1      15.702   2.451 -38.203  1.00  0.00     0.010 C 
HETATM    6  C9  UNL     1      16.726   1.747 -37.395  1.00  0.00    -0.008 C 
HETATM    7  C10 UNL     1      18.086   2.317 -37.824  1.00  0.00     0.011 C 
HETATM    8  C11 UNL     1      16.548   1.729 -35.934  1.00  0.00    -0.019 C 
HETATM    9  C12 UNL     1      15.800   0.487 -35.494  1.00  0.00     0.017 C 
HETATM   10  C13 UNL     1      14.836   1.367 -34.687  1.00  0.00     0.004 C 
HETATM   11  C14 UNL     1      15.062   1.053 -33.264  1.00  0.00     0.072 C 
HETATM   12  C15 UNL     1      14.340   1.898 -32.263  1.00  0.00     0.019 C 
HETATM   13  C16 UNL     1      16.483   0.990 -32.850  1.00  0.00     0.246 C 
HETATM   14  O3  UNL     1      16.605   0.849 -31.635  1.00  0.00    -0.280 OA
HETATM   15  S1  UNL     1      17.984   1.069 -33.690  1.00  0.00     0.210 S 
HETATM   16  O4  UNL     1      18.951   1.865 -32.823  1.00  0.00    -0.220 OA
HETATM   17  O5  UNL     1      18.572  -0.333 -33.737  1.00  0.00    -0.220 OA
HETATM   18  C17 UNL     1      17.915   1.830 -35.249  1.00  0.00     0.159 C 
HETATM   19  C18 UNL     1      15.483   2.554 -35.319  1.00  0.00     0.009 C 
ENDROOT
BRANCH   1  20
HETATM   20  C3  UNL     1      15.145   4.702 -36.481  1.00  0.00     0.120 C 
BRANCH  20  21
HETATM   21  C2  UNL     1      15.441   5.483 -35.265  1.00  0.00     0.259 C 
HETATM   22  O2  UNL     1      14.676   5.636 -34.288  1.00  0.00    -0.265 OA
BRANCH  21  23
HETATM   23  O1  UNL     1      16.677   6.116 -35.178  1.00  0.00    -0.326 OA
HETATM   24  C1  UNL     1      16.785   7.437 -34.625  1.00  0.00     0.213 C 
ENDBRANCH  21  23
ENDBRANCH  20  21
ENDBRANCH   1  20
TORSDOF 3
ENDMDL
MODEL 3
REMARK VINA RESULT: -7.146665548      2.717      5.819
REMARK  3 active torsions:
REMARK  status: ('A' for Active; 'I' for Inactive)
REMARK    1  A    between atoms: O1_2  and  C2_3 
REMARK    2  A    between atoms: C2_3  and  C3_5 
REMARK    3  A    between atoms: C3_5  and  C4_6 
ROOT
HETATM    1  C4  UNL     1      17.237   1.348 -38.079  1.00  0.00    -0.027 C 
HETATM    2  C5  UNL     1      16.652   0.841 -39.404  1.00  0.00     0.016 C 
HETATM    3  C6  UNL     1      17.301   0.088 -37.231  1.00  0.00    -0.009 C 
HETATM    4  C7  UNL     1      18.085  -1.003 -37.923  1.00  0.00     0.011 C 
HETATM    5  C8  UNL     1      17.985   0.423 -35.960  1.00  0.00     0.010 C 
HETATM    6  C9  UNL     1      17.328   1.507 -35.193  1.00  0.00    -0.008 C 
HETATM    7  C10 UNL     1      18.439   2.215 -34.402  1.00  0.00     0.011 C 
HETATM    8  C11 UNL     1      16.471   2.445 -35.936  1.00  0.00    -0.019 C 
HETATM    9  C12 UNL     1      15.026   1.987 -35.920  1.00  0.00     0.017 C 
HETATM   10  C13 UNL     1      14.968   2.150 -37.445  1.00  0.00     0.004 C 
HETATM   11  C14 UNL     1      14.030   3.253 -37.721  1.00  0.00     0.072 C 
HETATM   12  C15 UNL     1      13.918   3.705 -39.142  1.00  0.00     0.019 C 
HETATM   13  C16 UNL     1      14.213   4.462 -36.883  1.00  0.00     0.246 C 
HETATM   14  O3  UNL     1      13.487   5.387 -37.242  1.00  0.00    -0.280 OA
HETATM   15  S1  UNL     1      15.207   4.847 -35.531  1.00  0.00     0.210 S 
HETATM   16  O4  UNL     1      15.669   6.288 -35.703  1.00  0.00    -0.220 OA
HETATM   17  O5  UNL     1      14.328   4.869 -34.291  1.00  0.00    -0.220 OA
HETATM   18  C17 UNL     1      16.618   3.852 -35.348  1.00  0.00     0.159 C 
HETATM   19  C18 UNL     1      16.441   2.390 -37.416  1.00  0.00     0.009 C 
ENDROOT
BRANCH   1  20
HETATM   20  C3  UNL     1      18.633   1.831 -38.396  1.00  0.00     0.120 C 
BRANCH  20  21
HETATM   21  C2  UNL     1      18.898   2.023 -39.834  1.00  0.00     0.259 C 
HETATM   22  O2  UNL     1      18.564   3.019 -40.514  1.00  0.00    -0.265 OA
BRANCH  21  23
HETATM   23  O1  UNL     1      19.579   1.019 -40.515  1.00  0.00    -0.326 OA
HETATM   24  C1  UNL     1      20.849   0.546 -40.040  1.00  0.00     0.213 C 
ENDBRANCH  21  23
ENDBRANCH  20  21
ENDBRANCH   1  20
TORSDOF 3
ENDMDL
MODEL 4
REMARK VINA RESULT: -7.018800812      2.293      5.489
REMARK  3 active torsions:
REMARK  status: ('A' for Active; 'I' for Inactive)
REMARK    1  A    between atoms: O1_2  and  C2_3 
REMARK    2  A    between atoms: C2_3  and  C3_5 
REMARK    3  A    between atoms: C3_5  and  C4_6 
ROOT
HETATM    1  C4  UNL     1      18.278   0.357 -37.020  1.00  0.00    -0.027 C 
HETATM    2  C5  UNL     1      18.068  -0.242 -38.418  1.00  0.00     0.016 C 
HETATM    3  C6  UNL     1      18.137  -0.850 -36.108  1.00  0.00    -0.009 C 
HETATM    4  C7  UNL     1      19.092  -1.953 -36.502  1.00  0.00     0.011 C 
HETATM    5  C8  UNL     1      18.459  -0.423 -34.726  1.00  0.00     0.010 C 
HETATM    6  C9  UNL     1      17.607   0.681 -34.226  1.00  0.00    -0.008 C 
HETATM    7  C10 UNL     1      18.461   1.467 -33.219  1.00  0.00     0.011 C 
HETATM    8  C11 UNL     1      16.959   1.548 -35.224  1.00  0.00    -0.019 C 
HETATM    9  C12 UNL     1      15.568   1.046 -35.556  1.00  0.00     0.017 C 
HETATM   10  C13 UNL     1      15.909   1.121 -37.050  1.00  0.00     0.004 C 
HETATM   11  C14 UNL     1      15.058   2.176 -37.630  1.00  0.00     0.072 C 
HETATM   12  C15 UNL     1      15.315   2.544 -39.056  1.00  0.00     0.019 C 
HETATM   13  C16 UNL     1      14.996   3.435 -36.850  1.00  0.00     0.246 C 
HETATM   14  O3  UNL     1      14.375   4.315 -37.443  1.00  0.00    -0.280 OA
HETATM   15  S1  UNL     1      15.595   3.927 -35.313  1.00  0.00     0.210 S 
HETATM   16  O4  UNL     1      16.063   5.371 -35.448  1.00  0.00    -0.220 OA
HETATM   17  O5  UNL     1      14.422   3.991 -34.348  1.00  0.00    -0.220 OA
HETATM   18  C17 UNL     1      16.924   2.990 -34.707  1.00  0.00     0.159 C 
HETATM   19  C18 UNL     1      17.319   1.409 -36.654  1.00  0.00     0.009 C 
ENDROOT
BRANCH   1  20
HETATM   20  C3  UNL     1      19.700   0.866 -36.992  1.00  0.00     0.120 C 
BRANCH  20  21
HETATM   21  C2  UNL     1      19.838   2.304 -37.289  1.00  0.00     0.259 C 
HETATM   22  O2  UNL     1      19.916   3.223 -36.443  1.00  0.00    -0.265 OA
BRANCH  21  23
HETATM   23  O1  UNL     1      19.888   2.696 -38.623  1.00  0.00    -0.326 OA
HETATM   24  C1  UNL     1      21.149   2.943 -39.265  1.00  0.00     0.213 C 
ENDBRANCH  21  23
ENDBRANCH  20  21
ENDBRANCH   1  20
TORSDOF 3
ENDMDL
MODEL 5
REMARK VINA RESULT: -7.001451383      2.929      5.949
REMARK  3 active torsions:
REMARK  status: ('A' for Active; 'I' for Inactive)
REMARK    1  A    between atoms: O1_2  and  C2_3 
REMARK    2  A    between atoms: C2_3  and  C3_5 
REMARK    3  A    between atoms: C3_5  and  C4_6 
ROOT
HETATM    1  C4  UNL     1      18.737   1.597 -38.114  1.00  0.00    -0.027 C 
HETATM    2  C5  UNL     1      18.554   1.064 -39.541  1.00  0.00     0.016 C 
HETATM    3  C6  UNL     1      19.077   0.343 -37.324  1.00  0.00    -0.009 C 
HETATM    4  C7  UNL     1      20.265  -0.377 -37.917  1.00  0.00     0.011 C 
HETATM    5  C8  UNL     1      19.417   0.749 -35.940  1.00  0.00     0.010 C 
HETATM    6  C9  UNL     1      18.338   1.495 -35.252  1.00  0.00    -0.008 C 
HETATM    7  C10 UNL     1      19.029   2.433 -34.250  1.00  0.00     0.011 C 
HETATM    8  C11 UNL     1      17.345   2.187 -36.090  1.00  0.00    -0.019 C 
HETATM    9  C12 UNL     1      16.141   1.303 -36.344  1.00  0.00     0.017 C 
HETATM   10  C13 UNL     1      16.263   1.587 -37.848  1.00  0.00     0.004 C 
HETATM   11  C14 UNL     1      15.071   2.365 -38.233  1.00  0.00     0.072 C 
HETATM   12  C15 UNL     1      15.034   2.896 -39.631  1.00  0.00     0.019 C 
HETATM   13  C16 UNL     1      14.726   3.483 -37.324  1.00  0.00     0.246 C 
HETATM   14  O3  UNL     1      13.803   4.166 -37.762  1.00  0.00    -0.280 OA
HETATM   15  S1  UNL     1      15.328   4.025 -35.805  1.00  0.00     0.210 S 
HETATM   16  O4  UNL     1      15.320   5.548 -35.830  1.00  0.00    -0.220 OA
HETATM   17  O5  UNL     1      14.313   3.652 -34.736  1.00  0.00    -0.220 OA
HETATM   18  C17 UNL     1      16.940   3.506 -35.424  1.00  0.00     0.159 C 
HETATM   19  C18 UNL     1      17.557   2.269 -37.554  1.00  0.00     0.009 C 
ENDROOT
BRANCH   1  20
HETATM   20  C3  UNL     1      19.934   2.518 -38.163  1.00  0.00     0.120 C 
BRANCH  20  21
HETATM   21  C2  UNL     1      20.389   2.852 -39.526  1.00  0.00     0.259 C 
HETATM   22  O2  UNL     1      19.919   3.753 -40.255  1.00  0.00    -0.265 OA
BRANCH  21  23
HETATM   23  O1  UNL     1      21.434   2.111 -40.068  1.00  0.00    -0.326 OA
HETATM   24  C1  UNL     1      22.381   2.724 -40.956  1.00  0.00     0.213 C 
ENDBRANCH  21  23
ENDBRANCH  20  21
ENDBRANCH   1  20
TORSDOF 3
ENDMDL
