MODEL 1
REMARK VINA RESULT: -9.017679602      0.000      0.000
REMARK  2 active torsions:
REMARK  status: ('A' for Active; 'I' for Inactive)
REMARK    1  A    between atoms: C14_17  and  O3_18 
REMARK    2  A    between atoms: C17_21  and  O4_22 
ROOT
HETATM    1  C1  UNL     1      19.786   2.558 -37.646  1.00  0.00     0.023 C 
HETATM    2  C2  UNL     1      19.281   2.442 -36.452  1.00  0.00    -0.016 C 
HETATM    3  C3  UNL     1      19.530   3.076 -35.174  1.00  0.00     0.160 C 
HETATM    4  O1  UNL     1      19.939   4.202 -34.813  1.00  0.00    -0.292 OA
HETATM    5  C4  UNL     1      19.081   1.791 -34.530  1.00  0.00     0.070 C 
HETATM    6  C5  UNL     1      18.221   1.972 -33.324  1.00  0.00     0.033 C 
HETATM    7  C6  UNL     1      16.971   1.103 -33.418  1.00  0.00     0.104 C 
HETATM    8  C7  UNL     1      16.233   1.110 -32.168  1.00  0.00     0.065 C 
HETATM    9  N1  UNL     1      15.651   1.105 -31.167  1.00  0.00    -0.197 NA
HETATM   10  C8  UNL     1      16.122   1.456 -34.590  1.00  0.00    -0.002 C 
HETATM   11  C9  UNL     1      15.636   0.226 -35.292  1.00  0.00     0.019 C 
HETATM   12  C10 UNL     1      14.905   2.292 -34.212  1.00  0.00     0.179 C 
HETATM   13  O2  UNL     1      14.160   2.462 -35.349  1.00  0.00    -0.377 OA
HETATM   14  C11 UNL     1      14.793   3.183 -36.360  1.00  0.00     0.087 C 
HETATM   15  C12 UNL     1      14.957   4.596 -35.852  1.00  0.00     0.043 C 
HETATM   16  C13 UNL     1      13.645   4.998 -35.268  1.00  0.00     0.035 C 
HETATM   17  C14 UNL     1      12.639   5.111 -36.385  1.00  0.00     0.123 C 
HETATM   18  C16 UNL     1      12.562   3.911 -37.261  1.00  0.00     0.067 C 
HETATM   19  C17 UNL     1      13.873   3.227 -37.530  1.00  0.00     0.157 C 
HETATM   20  C19 UNL     1      16.116   2.599 -36.749  1.00  0.00     0.047 C 
HETATM   21  C20 UNL     1      16.944   2.351 -35.513  1.00  0.00     0.009 C 
HETATM   22  C21 UNL     1      18.230   1.633 -35.799  1.00  0.00     0.038 C 
ENDROOT
BRANCH  19  23
HETATM   23  O4  UNL     1      14.501   3.844 -38.604  1.00  0.00    -0.388 OA
HETATM   24  C18 UNL     1      13.699   3.766 -39.729  1.00  0.00     0.202 C 
ENDBRANCH  19  23
BRANCH  17  25
HETATM   25  O3  UNL     1      12.963   6.255 -37.110  1.00  0.00    -0.391 OA
HETATM   26  C15 UNL     1      11.900   6.665 -37.921  1.00  0.00     0.202 C 
ENDBRANCH  17  25
TORSDOF 2
ENDMDL
MODEL 2
REMARK VINA RESULT: -6.928151724      3.399      6.179
REMARK  2 active torsions:
REMARK  status: ('A' for Active; 'I' for Inactive)
REMARK    1  A    between atoms: C14_17  and  O3_18 
REMARK    2  A    between atoms: C17_21  and  O4_22 
ROOT
HETATM    1  C1  UNL     1      15.062   1.468 -35.279  1.00  0.00     0.023 C 
HETATM    2  C2  UNL     1      14.815   2.667 -35.725  1.00  0.00    -0.016 C 
HETATM    3  C3  UNL     1      15.485   3.947 -35.627  1.00  0.00     0.160 C 
HETATM    4  O1  UNL     1      16.675   4.313 -35.509  1.00  0.00    -0.292 OA
HETATM    5  C4  UNL     1      14.125   4.585 -35.733  1.00  0.00     0.070 C 
HETATM    6  C5  UNL     1      14.078   5.800 -36.596  1.00  0.00     0.033 C 
HETATM    7  C6  UNL     1      12.924   5.712 -37.590  1.00  0.00     0.104 C 
HETATM    8  C7  UNL     1      12.738   6.969 -38.291  1.00  0.00     0.065 C 
HETATM    9  N1  UNL     1      12.583   7.976 -38.842  1.00  0.00    -0.197 NA
HETATM   10  C8  UNL     1      13.060   4.551 -38.514  1.00  0.00    -0.002 C 
HETATM   11  C9  UNL     1      11.751   3.844 -38.684  1.00  0.00     0.019 C 
HETATM   12  C10 UNL     1      13.562   4.948 -39.897  1.00  0.00     0.179 C 
HETATM   13  O2  UNL     1      13.545   3.820 -40.674  1.00  0.00    -0.377 OA
HETATM   14  C11 UNL     1      14.407   2.809 -40.254  1.00  0.00     0.087 C 
HETATM   15  C12 UNL     1      15.814   3.327 -40.443  1.00  0.00     0.043 C 
HETATM   16  C13 UNL     1      15.871   3.927 -41.807  1.00  0.00     0.035 C 
HETATM   17  C14 UNL     1      15.734   2.822 -42.822  1.00  0.00     0.123 C 
HETATM   18  C16 UNL     1      14.558   1.936 -42.607  1.00  0.00     0.067 C 
HETATM   19  C17 UNL     1      14.226   1.649 -41.169  1.00  0.00     0.157 C 
HETATM   20  C19 UNL     1      14.176   2.402 -38.831  1.00  0.00     0.047 C 
HETATM   21  C20 UNL     1      14.137   3.627 -37.953  1.00  0.00     0.009 C 
HETATM   22  C21 UNL     1      13.765   3.323 -36.531  1.00  0.00     0.038 C 
ENDROOT
BRANCH  19  23
HETATM   23  O4  UNL     1      14.986   0.573 -40.728  1.00  0.00    -0.388 OA
HETATM   24  C18 UNL     1      14.683  -0.556 -41.469  1.00  0.00     0.202 C 
ENDBRANCH  19  23
BRANCH  17  25
HETATM   25  O3  UNL     1      16.927   2.102 -42.804  1.00  0.00    -0.391 OA
HETATM   26  C15 UNL     1      16.997   1.201 -43.871  1.00  0.00     0.202 C 
ENDBRANCH  17  25
TORSDOF 2
ENDMDL
MODEL 3
REMARK VINA RESULT: -6.847876206      3.417      5.539
REMARK  2 active torsions:
REMARK  status: ('A' for Active; 'I' for Inactive)
REMARK    1  A    between atoms: C14_17  and  O3_18 
REMARK    2  A    between atoms: C17_21  and  O4_22 
ROOT
HETATM    1  C1  UNL     1      16.203   4.455 -35.520  1.00  0.00     0.023 C 
HETATM    2  C2  UNL     1      16.517   3.207 -35.318  1.00  0.00    -0.016 C 
HETATM    3  C3  UNL     1      15.791   2.030 -34.889  1.00  0.00     0.160 C 
HETATM    4  O1  UNL     1      14.605   1.642 -34.987  1.00  0.00    -0.292 OA
HETATM    5  C4  UNL     1      17.085   1.532 -34.304  1.00  0.00     0.070 C 
HETATM    6  C5  UNL     1      17.338   0.077 -34.512  1.00  0.00     0.033 C 
HETATM    7  C6  UNL     1      18.744  -0.154 -35.055  1.00  0.00     0.104 C 
HETATM    8  C7  UNL     1      19.077  -1.567 -35.065  1.00  0.00     0.065 C 
HETATM    9  N1  UNL     1      19.346  -2.693 -35.062  1.00  0.00    -0.197 NA
HETATM   10  C8  UNL     1      18.954   0.496 -36.379  1.00  0.00    -0.002 C 
HETATM   11  C9  UNL     1      20.284   1.182 -36.436  1.00  0.00     0.019 C 
HETATM   12  C10 UNL     1      18.883  -0.486 -37.542  1.00  0.00     0.179 C 
HETATM   13  O2  UNL     1      19.191   0.210 -38.681  1.00  0.00    -0.377 OA
HETATM   14  C11 UNL     1      18.290   1.222 -39.008  1.00  0.00     0.087 C 
HETATM   15  C12 UNL     1      16.986   0.548 -39.368  1.00  0.00     0.043 C 
HETATM   16  C13 UNL     1      17.323  -0.570 -40.296  1.00  0.00     0.035 C 
HETATM   17  C14 UNL     1      17.817   0.017 -41.593  1.00  0.00     0.123 C 
HETATM   18  C16 UNL     1      18.911   1.014 -41.435  1.00  0.00     0.067 C 
HETATM   19  C17 UNL     1      18.798   1.905 -40.230  1.00  0.00     0.157 C 
HETATM   20  C19 UNL     1      18.092   2.205 -37.896  1.00  0.00     0.047 C 
HETATM   21  C20 UNL     1      17.802   1.469 -36.613  1.00  0.00     0.009 C 
HETATM   22  C21 UNL     1      17.732   2.371 -35.416  1.00  0.00     0.038 C 
ENDROOT
BRANCH  19  23
HETATM   23  O4  UNL     1      17.991   2.993 -40.536  1.00  0.00    -0.388 OA
HETATM   24  C18 UNL     1      18.489   3.654 -41.645  1.00  0.00     0.202 C 
ENDBRANCH  19  23
BRANCH  17  25
HETATM   25  O3  UNL     1      16.712   0.568 -42.238  1.00  0.00    -0.391 OA
HETATM   26  C15 UNL     1      15.928  -0.420 -42.843  1.00  0.00     0.202 C 
ENDBRANCH  17  25
TORSDOF 2
ENDMDL
MODEL 4
REMARK VINA RESULT: -6.752917009      3.862      6.206
REMARK  2 active torsions:
REMARK  status: ('A' for Active; 'I' for Inactive)
REMARK    1  A    between atoms: C14_17  and  O3_18 
REMARK    2  A    between atoms: C17_21  and  O4_22 
ROOT
HETATM    1  C1  UNL     1      20.129  -3.745 -36.438  1.00  0.00     0.023 C 
HETATM    2  C2  UNL     1      19.915  -2.831 -37.341  1.00  0.00    -0.016 C 
HETATM    3  C3  UNL     1      19.223  -2.798 -38.613  1.00  0.00     0.160 C 
HETATM    4  O1  UNL     1      18.246  -3.408 -39.101  1.00  0.00    -0.292 OA
HETATM    5  C4  UNL     1      20.200  -1.732 -39.035  1.00  0.00     0.070 C 
HETATM    6  C5  UNL     1      19.594  -0.610 -39.808  1.00  0.00     0.033 C 
HETATM    7  C6  UNL     1      20.028   0.735 -39.236  1.00  0.00     0.104 C 
HETATM    8  C7  UNL     1      19.618   1.828 -40.099  1.00  0.00     0.065 C 
HETATM    9  N1  UNL     1      19.301   2.700 -40.793  1.00  0.00    -0.197 NA
HETATM   10  C8  UNL     1      19.589   0.920 -37.825  1.00  0.00    -0.002 C 
HETATM   11  C9  UNL     1      20.687   1.507 -36.993  1.00  0.00     0.019 C 
HETATM   12  C10 UNL     1      18.368   1.823 -37.695  1.00  0.00     0.179 C 
HETATM   13  O2  UNL     1      18.130   1.994 -36.356  1.00  0.00    -0.377 OA
HETATM   14  C11 UNL     1      17.791   0.829 -35.671  1.00  0.00     0.087 C 
HETATM   15  C12 UNL     1      16.446   0.386 -36.198  1.00  0.00     0.043 C 
HETATM   16  C13 UNL     1      15.575   1.597 -36.222  1.00  0.00     0.035 C 
HETATM   17  C14 UNL     1      15.304   2.019 -34.801  1.00  0.00     0.123 C 
HETATM   18  C16 UNL     1      16.527   2.179 -33.968  1.00  0.00     0.067 C 
HETATM   19  C17 UNL     1      17.620   1.181 -34.235  1.00  0.00     0.157 C 
HETATM   20  C19 UNL     1      18.810  -0.257 -35.831  1.00  0.00     0.047 C 
HETATM   21  C20 UNL     1      19.135  -0.436 -37.293  1.00  0.00     0.009 C 
HETATM   22  C21 UNL     1      20.254  -1.406 -37.534  1.00  0.00     0.038 C 
ENDROOT
BRANCH  19  23
HETATM   23  O4  UNL     1      17.386   0.033 -33.489  1.00  0.00    -0.388 OA
HETATM   24  C18 UNL     1      17.310   0.350 -32.144  1.00  0.00     0.202 C 
ENDBRANCH  19  23
BRANCH  17  25
HETATM   25  O3  UNL     1      14.432   1.081 -34.256  1.00  0.00    -0.391 OA
HETATM   26  C15 UNL     1      13.907   1.518 -33.036  1.00  0.00     0.202 C 
ENDBRANCH  17  25
TORSDOF 2
ENDMDL
MODEL 5
REMARK VINA RESULT: -6.737631678      4.133      6.531
REMARK  2 active torsions:
REMARK  status: ('A' for Active; 'I' for Inactive)
REMARK    1  A    between atoms: C14_17  and  O3_18 
REMARK    2  A    between atoms: C17_21  and  O4_22 
ROOT
HETATM    1  C1  UNL     1      20.791  -3.419 -37.172  1.00  0.00     0.023 C 
HETATM    2  C2  UNL     1      20.313  -2.650 -38.109  1.00  0.00    -0.016 C 
HETATM    3  C3  UNL     1      19.388  -2.837 -39.207  1.00  0.00     0.160 C 
HETATM    4  O1  UNL     1      18.403  -3.580 -39.413  1.00  0.00    -0.292 OA
HETATM    5  C4  UNL     1      20.149  -1.762 -39.937  1.00  0.00     0.070 C 
HETATM    6  C5  UNL     1      19.292  -0.801 -40.690  1.00  0.00     0.033 C 
HETATM    7  C6  UNL     1      19.687   0.637 -40.374  1.00  0.00     0.104 C 
HETATM    8  C7  UNL     1      19.007   1.573 -41.250  1.00  0.00     0.065 C 
HETATM    9  N1  UNL     1      18.473   2.318 -41.958  1.00  0.00    -0.197 NA
HETATM   10  C8  UNL     1      19.513   0.969 -38.932  1.00  0.00    -0.002 C 
HETATM   11  C9  UNL     1      20.685   1.744 -38.413  1.00  0.00     0.019 C 
HETATM   12  C10 UNL     1      18.254   1.783 -38.656  1.00  0.00     0.179 C 
HETATM   13  O2  UNL     1      18.264   2.107 -37.325  1.00  0.00    -0.377 OA
HETATM   14  C11 UNL     1      18.186   1.018 -36.459  1.00  0.00     0.087 C 
HETATM   15  C12 UNL     1      16.818   0.405 -36.646  1.00  0.00     0.043 C 
HETATM   16  C13 UNL     1      15.838   1.530 -36.626  1.00  0.00     0.035 C 
HETATM   17  C14 UNL     1      15.806   2.112 -35.236  1.00  0.00     0.123 C 
HETATM   18  C16 UNL     1      17.144   2.474 -34.694  1.00  0.00     0.067 C 
HETATM   19  C17 UNL     1      18.262   1.540 -35.066  1.00  0.00     0.157 C 
HETATM   20  C19 UNL     1      19.261   0.004 -36.702  1.00  0.00     0.047 C 
HETATM   21  C20 UNL     1      19.314  -0.338 -38.170  1.00  0.00     0.009 C 
HETATM   22  C21 UNL     1      20.459  -1.240 -38.526  1.00  0.00     0.038 C 
ENDROOT
BRANCH  19  23
HETATM   23  O4  UNL     1      18.296   0.484 -34.165  1.00  0.00    -0.388 OA
HETATM   24  C18 UNL     1      18.515   0.962 -32.885  1.00  0.00     0.202 C 
ENDBRANCH  19  23
BRANCH  17  25
HETATM   25  O3  UNL     1      15.158   1.186 -34.422  1.00  0.00    -0.391 OA
HETATM   26  C15 UNL     1      14.845   1.733 -33.174  1.00  0.00     0.202 C 
ENDBRANCH  17  25
TORSDOF 2
ENDMDL
