MODEL 1
REMARK VINA RESULT: -8.789016689      0.000      0.000
REMARK  3 active torsions:
REMARK  status: ('A' for Active; 'I' for Inactive)
REMARK    1  A    between atoms: C2_3  and  C4_5 
REMARK    2  A    between atoms: C4_5  and  N2_7 
REMARK    3  A    between atoms: N2_7  and  C7_9 
ROOT
HETATM    1  C1  UNL     1       9.675   4.819 -38.486  1.00  0.00     0.221 C 
HETATM    2  N1  UNL     1      10.833   4.725 -38.453  1.00  0.00    -0.465 NA
HETATM    3  C2  UNL     1      12.244   4.602 -38.436  1.00  0.00     0.180 C 
HETATM    4  C3  UNL     1      12.626   3.770 -39.637  1.00  0.00     0.049 C 
ENDROOT
BRANCH   3   5
HETATM    5  C4  UNL     1      12.639   3.954 -37.154  1.00  0.00     0.133 C 
HETATM    6  C5  UNL     1      11.707   4.377 -36.015  1.00  0.00     0.036 C 
BRANCH   5   7
HETATM    7  N2  UNL     1      13.980   4.198 -36.724  1.00  0.00    -0.215 N 
HETATM    8  C6  UNL     1      14.435   5.502 -36.340  1.00  0.00     0.169 C 
BRANCH   7   9
HETATM    9  C7  UNL     1      14.891   3.100 -36.656  1.00  0.00     0.680 A 
HETATM   10  N3  UNL     1      15.578   2.745 -37.727  1.00  0.00    -0.195 N 
HETATM   11  C8  UNL     1      16.456   1.728 -37.733  1.00  0.00     0.032 A 
ATOM     12  H3  UNL     1      15.435   3.268 -38.591  1.00  0.00     0.184 HD
HETATM   13  C9  UNL     1      17.193   1.388 -38.972  1.00  0.00     0.069 C 
HETATM   14  C10 UNL     1      16.634   1.033 -36.552  1.00  0.00     0.002 A 
HETATM   15  C11 UNL     1      15.943   1.366 -35.410  1.00  0.00     0.041 A 
HETATM   16  C18 UNL     1      17.610  -0.094 -36.591  1.00  0.00     0.183 C 
HETATM   17  N4  UNL     1      15.088   2.405 -35.521  1.00  0.00    -0.194 N 
HETATM   18  C12 UNL     1      16.039   0.728 -34.102  1.00  0.00     0.055 C 
ATOM     19  H4  UNL     1      14.558   2.680 -34.694  1.00  0.00     0.184 HD
HETATM   20  C13 UNL     1      15.941   1.858 -33.060  1.00  0.00     0.012 C 
HETATM   21  C17 UNL     1      17.260  -0.033 -33.785  1.00  0.00     0.118 C 
HETATM   22  C14 UNL     1      15.763   1.260 -31.696  1.00  0.00     0.001 C 
HETATM   23  C15 UNL     1      16.955   0.445 -31.322  1.00  0.00     0.001 C 
HETATM   24  C16 UNL     1      17.914   0.352 -32.480  1.00  0.00     0.021 C 
HETATM   25  S1  UNL     1      18.513   0.026 -35.040  1.00  0.00     0.153 S 
HETATM   26  O1  UNL     1      19.134   1.393 -34.991  1.00  0.00    -0.227 OA
HETATM   27  O2  UNL     1      19.503  -1.064 -34.931  1.00  0.00    -0.227 OA
ENDBRANCH   7   9
ENDBRANCH   5   7
ENDBRANCH   3   5
TORSDOF 3
ENDMDL
MODEL 2
REMARK VINA RESULT: -8.778534401      1.001      1.657
REMARK  3 active torsions:
REMARK  status: ('A' for Active; 'I' for Inactive)
REMARK    1  A    between atoms: C2_3  and  C4_5 
REMARK    2  A    between atoms: C4_5  and  N2_7 
REMARK    3  A    between atoms: N2_7  and  C7_9 
ROOT
HETATM    1  C1  UNL     1      10.186   5.083 -38.083  1.00  0.00     0.221 C 
HETATM    2  N1  UNL     1      11.087   4.649 -37.493  1.00  0.00    -0.465 NA
HETATM    3  C2  UNL     1      12.176   4.128 -36.751  1.00  0.00     0.180 C 
HETATM    4  C3  UNL     1      12.071   4.699 -35.357  1.00  0.00     0.049 C 
ENDROOT
BRANCH   3   5
HETATM    5  C4  UNL     1      13.438   4.532 -37.432  1.00  0.00     0.133 C 
HETATM    6  C5  UNL     1      13.261   5.858 -38.176  1.00  0.00     0.036 C 
BRANCH   5   7
HETATM    7  N2  UNL     1      13.971   3.587 -38.362  1.00  0.00    -0.215 N 
HETATM    8  C6  UNL     1      13.573   3.561 -39.739  1.00  0.00     0.169 C 
BRANCH   7   9
HETATM    9  C7  UNL     1      14.947   2.648 -37.907  1.00  0.00     0.680 A 
HETATM   10  N3  UNL     1      15.900   2.237 -38.725  1.00  0.00    -0.195 N 
HETATM   11  C8  UNL     1      16.853   1.362 -38.362  1.00  0.00     0.032 A 
ATOM     12  H3  UNL     1      15.913   2.602 -39.677  1.00  0.00     0.184 HD
HETATM   13  C9  UNL     1      17.892   0.949 -39.333  1.00  0.00     0.069 C 
HETATM   14  C10 UNL     1      16.816   0.881 -37.067  1.00  0.00     0.002 A 
HETATM   15  C11 UNL     1      15.845   1.280 -36.178  1.00  0.00     0.041 A 
HETATM   16  C18 UNL     1      17.883  -0.093 -36.695  1.00  0.00     0.183 C 
HETATM   17  N4  UNL     1      14.939   2.162 -36.653  1.00  0.00    -0.194 N 
HETATM   18  C12 UNL     1      15.693   0.862 -34.789  1.00  0.00     0.055 C 
ATOM     19  H4  UNL     1      14.204   2.480 -36.021  1.00  0.00     0.184 HD
HETATM   20  C13 UNL     1      15.237   2.108 -34.009  1.00  0.00     0.012 C 
HETATM   21  C17 UNL     1      16.875   0.332 -34.087  1.00  0.00     0.118 C 
HETATM   22  C14 UNL     1      14.804   1.700 -32.631  1.00  0.00     0.001 C 
HETATM   23  C15 UNL     1      15.950   1.122 -31.871  1.00  0.00     0.001 C 
HETATM   24  C16 UNL     1      17.160   0.993 -32.760  1.00  0.00     0.021 C 
HETATM   25  S1  UNL     1      18.377   0.379 -35.031  1.00  0.00     0.153 S 
HETATM   26  O1  UNL     1      18.827   1.811 -35.090  1.00  0.00    -0.227 OA
HETATM   27  O2  UNL     1      19.418  -0.535 -34.521  1.00  0.00    -0.227 OA
ENDBRANCH   7   9
ENDBRANCH   5   7
ENDBRANCH   3   5
TORSDOF 3
ENDMDL
MODEL 3
REMARK VINA RESULT: -8.610757254      0.881      1.290
REMARK  3 active torsions:
REMARK  status: ('A' for Active; 'I' for Inactive)
REMARK    1  A    between atoms: C2_3  and  C4_5 
REMARK    2  A    between atoms: C4_5  and  N2_7 
REMARK    3  A    between atoms: N2_7  and  C7_9 
ROOT
HETATM    1  C1  UNL     1       9.620   4.849 -38.453  1.00  0.00     0.221 C 
HETATM    2  N1  UNL     1      10.584   5.286 -37.975  1.00  0.00    -0.465 NA
HETATM    3  C2  UNL     1      11.756   5.841 -37.405  1.00  0.00     0.180 C 
HETATM    4  C3  UNL     1      12.055   7.112 -38.164  1.00  0.00     0.049 C 
ENDROOT
BRANCH   3   5
HETATM    5  C4  UNL     1      12.852   4.840 -37.529  1.00  0.00     0.133 C 
HETATM    6  C5  UNL     1      12.620   3.916 -38.727  1.00  0.00     0.036 C 
BRANCH   5   7
HETATM    7  N2  UNL     1      13.068   4.012 -36.384  1.00  0.00    -0.215 N 
HETATM    8  C6  UNL     1      12.213   4.058 -35.235  1.00  0.00     0.169 C 
BRANCH   7   9
HETATM    9  C7  UNL     1      14.163   3.094 -36.395  1.00  0.00     0.680 A 
HETATM   10  N3  UNL     1      14.880   2.935 -37.494  1.00  0.00    -0.195 N 
HETATM   11  C8  UNL     1      15.925   2.095 -37.574  1.00  0.00     0.032 A 
ATOM     12  H3  UNL     1      14.627   3.475 -38.321  1.00  0.00     0.184 HD
HETATM   13  C9  UNL     1      16.685   1.970 -38.839  1.00  0.00     0.069 C 
HETATM   14  C10 UNL     1      16.250   1.373 -36.441  1.00  0.00     0.002 A 
HETATM   15  C11 UNL     1      15.535   1.505 -35.273  1.00  0.00     0.041 A 
HETATM   16  C18 UNL     1      17.412   0.445 -36.561  1.00  0.00     0.183 C 
HETATM   17  N4  UNL     1      14.505   2.379 -35.310  1.00  0.00    -0.194 N 
HETATM   18  C12 UNL     1      15.771   0.817 -34.009  1.00  0.00     0.055 C 
ATOM     19  H4  UNL     1      13.952   2.502 -34.462  1.00  0.00     0.184 HD
HETATM   20  C13 UNL     1      15.494   1.845 -32.897  1.00  0.00     0.012 C 
HETATM   21  C17 UNL     1      17.116   0.270 -33.753  1.00  0.00     0.118 C 
HETATM   22  C14 UNL     1      15.455   1.143 -31.571  1.00  0.00     0.001 C 
HETATM   23  C15 UNL     1      16.782   0.535 -31.262  1.00  0.00     0.001 C 
HETATM   24  C16 UNL     1      17.717   0.687 -32.434  1.00  0.00     0.021 C 
HETATM   25  S1  UNL     1      18.311   0.631 -35.014  1.00  0.00     0.153 S 
HETATM   26  O1  UNL     1      18.677   2.082 -34.884  1.00  0.00    -0.227 OA
HETATM   27  O2  UNL     1      19.482  -0.267 -34.985  1.00  0.00    -0.227 OA
ENDBRANCH   7   9
ENDBRANCH   5   7
ENDBRANCH   3   5
TORSDOF 3
ENDMDL
MODEL 4
REMARK VINA RESULT: -8.539415103      3.289      6.647
REMARK  3 active torsions:
REMARK  status: ('A' for Active; 'I' for Inactive)
REMARK    1  A    between atoms: C2_3  and  C4_5 
REMARK    2  A    between atoms: C4_5  and  N2_7 
REMARK    3  A    between atoms: N2_7  and  C7_9 
ROOT
HETATM    1  C1  UNL     1      18.811  -0.986 -35.092  1.00  0.00     0.221 C 
HETATM    2  N1  UNL     1      18.560  -0.209 -35.918  1.00  0.00    -0.465 NA
HETATM    3  C2  UNL     1      18.256   0.720 -36.944  1.00  0.00     0.180 C 
HETATM    4  C3  UNL     1      18.636   0.069 -38.253  1.00  0.00     0.049 C 
ENDROOT
BRANCH   3   5
HETATM    5  C4  UNL     1      19.032   1.965 -36.688  1.00  0.00     0.133 C 
HETATM    6  C5  UNL     1      20.535   1.675 -36.633  1.00  0.00     0.036 C 
BRANCH   5   7
HETATM    7  N2  UNL     1      18.689   2.675 -35.496  1.00  0.00    -0.215 N 
HETATM    8  C6  UNL     1      19.580   3.616 -34.883  1.00  0.00     0.169 C 
BRANCH   7   9
HETATM    9  C7  UNL     1      17.406   2.453 -34.908  1.00  0.00     0.680 A 
HETATM   10  N3  UNL     1      17.315   1.880 -33.720  1.00  0.00    -0.195 N 
HETATM   11  C8  UNL     1      16.143   1.647 -33.105  1.00  0.00     0.032 A 
ATOM     12  H3  UNL     1      18.175   1.602 -33.248  1.00  0.00     0.184 HD
HETATM   13  C9  UNL     1      16.118   1.002 -31.772  1.00  0.00     0.069 C 
HETATM   14  C10 UNL     1      14.990   2.032 -33.763  1.00  0.00     0.002 A 
HETATM   15  C11 UNL     1      15.034   2.634 -35.000  1.00  0.00     0.041 A 
HETATM   16  C18 UNL     1      13.705   1.756 -33.059  1.00  0.00     0.183 C 
HETATM   17  N4  UNL     1      16.267   2.818 -35.521  1.00  0.00    -0.194 N 
HETATM   18  C12 UNL     1      13.905   3.096 -35.798  1.00  0.00     0.055 C 
ATOM     19  H4  UNL     1      16.338   3.261 -36.437  1.00  0.00     0.184 HD
HETATM   20  C13 UNL     1      14.353   4.409 -36.465  1.00  0.00     0.012 C 
HETATM   21  C17 UNL     1      12.635   3.385 -35.108  1.00  0.00     0.118 C 
HETATM   22  C14 UNL     1      13.349   4.805 -37.507  1.00  0.00     0.001 C 
HETATM   23  C15 UNL     1      12.024   5.082 -36.879  1.00  0.00     0.001 C 
HETATM   24  C16 UNL     1      12.057   4.745 -35.411  1.00  0.00     0.021 C 
HETATM   25  S1  UNL     1      12.701   3.220 -33.343  1.00  0.00     0.153 S 
HETATM   26  O1  UNL     1      13.468   4.397 -32.810  1.00  0.00    -0.227 OA
HETATM   27  O2  UNL     1      11.371   3.065 -32.719  1.00  0.00    -0.227 OA
ENDBRANCH   7   9
ENDBRANCH   5   7
ENDBRANCH   3   5
TORSDOF 3
ENDMDL
MODEL 5
REMARK VINA RESULT: -8.506970630      3.649      7.171
REMARK  3 active torsions:
REMARK  status: ('A' for Active; 'I' for Inactive)
REMARK    1  A    between atoms: C2_3  and  C4_5 
REMARK    2  A    between atoms: C4_5  and  N2_7 
REMARK    3  A    between atoms: N2_7  and  C7_9 
ROOT
HETATM    1  C1  UNL     1      18.575   1.877 -37.367  1.00  0.00     0.221 C 
HETATM    2  N1  UNL     1      18.401   2.504 -36.405  1.00  0.00    -0.465 NA
HETATM    3  C2  UNL     1      18.212   3.279 -35.234  1.00  0.00     0.180 C 
HETATM    4  C3  UNL     1      19.558   3.860 -34.870  1.00  0.00     0.049 C 
ENDROOT
BRANCH   3   5
HETATM    5  C4  UNL     1      17.676   2.387 -34.168  1.00  0.00     0.133 C 
HETATM    6  C5  UNL     1      18.742   1.396 -33.692  1.00  0.00     0.036 C 
BRANCH   5   7
HETATM    7  N2  UNL     1      16.515   1.631 -34.518  1.00  0.00    -0.215 N 
HETATM    8  C6  UNL     1      16.483   0.200 -34.443  1.00  0.00     0.169 C 
BRANCH   7   9
HETATM    9  C7  UNL     1      15.341   2.328 -34.939  1.00  0.00     0.680 A 
HETATM   10  N3  UNL     1      14.581   2.940 -34.049  1.00  0.00    -0.195 N 
HETATM   11  C8  UNL     1      13.468   3.618 -34.374  1.00  0.00     0.032 A 
ATOM     12  H3  UNL     1      14.853   2.895 -33.066  1.00  0.00     0.184 HD
HETATM   13  C9  UNL     1      12.666   4.283 -33.321  1.00  0.00     0.069 C 
HETATM   14  C10 UNL     1      13.119   3.666 -35.711  1.00  0.00     0.002 A 
HETATM   15  C11 UNL     1      13.879   3.045 -36.676  1.00  0.00     0.041 A 
HETATM   16  C18 UNL     1      11.876   4.421 -36.041  1.00  0.00     0.183 C 
HETATM   17  N4  UNL     1      14.976   2.393 -36.232  1.00  0.00    -0.194 N 
HETATM   18  C12 UNL     1      13.635   3.022 -38.113  1.00  0.00     0.055 C 
ATOM     19  H4  UNL     1      15.562   1.921 -36.919  1.00  0.00     0.184 HD
HETATM   20  C13 UNL     1      15.013   3.129 -38.789  1.00  0.00     0.012 C 
HETATM   21  C17 UNL     1      12.795   4.084 -38.695  1.00  0.00     0.118 C 
HETATM   22  C14 UNL     1      14.871   2.844 -40.255  1.00  0.00     0.001 C 
HETATM   23  C15 UNL     1      14.002   3.868 -40.905  1.00  0.00     0.001 C 
HETATM   24  C16 UNL     1      13.417   4.795 -39.872  1.00  0.00     0.021 C 
HETATM   25  S1  UNL     1      12.275   5.329 -37.542  1.00  0.00     0.153 S 
HETATM   26  O1  UNL     1      13.470   6.188 -37.238  1.00  0.00    -0.227 OA
HETATM   27  O2  UNL     1      11.107   6.104 -38.004  1.00  0.00    -0.227 OA
ENDBRANCH   7   9
ENDBRANCH   5   7
ENDBRANCH   3   5
TORSDOF 3
ENDMDL
