MODEL 1
REMARK VINA RESULT: -4.381176520      0.000      0.000
REMARK  3 active torsions:
REMARK  status: ('A' for Active; 'I' for Inactive)
REMARK    1  A    between atoms: C1_2  and  N1_4 
REMARK    2  A    between atoms: N1_4  and  C2_6 
REMARK    3  A    between atoms: C2_6  and  C3_7 
ROOT
HETATM    1  C2  UNL     1       0.243   5.644   3.513  1.00  0.00     0.059 C 
HETATM    2  C7  UNL     1      -1.241   5.448   3.759  1.00  0.00     0.046 C 
HETATM    3  C8  UNL     1      -1.716   5.822   5.114  1.00  0.00     0.076 C 
HETATM    4  S2  UNL     1      -0.979   7.411   5.559  1.00  0.00    -0.169 SA
HETATM    5  C9  UNL     1      -0.043   8.059   4.206  1.00  0.00     0.076 C 
HETATM    6  C10 UNL     1       0.610   7.066   3.286  1.00  0.00     0.046 C 
ENDROOT
BRANCH   1   7
HETATM    7  N1  UNL     1       0.628   4.746   2.496  1.00  0.00    -0.355 N 
ATOM      8  H1  UNL     1       1.626   4.627   2.325  1.00  0.00     0.159 HD
BRANCH   7   9
HETATM    9  C1  UNL     1      -0.239   4.020   1.716  1.00  0.00     0.455 C 
HETATM   10  F1  UNL     1      -0.129   2.647   1.919  1.00  0.00    -0.191 F 
HETATM   11  F2  UNL     1      -0.209   4.266   0.352  1.00  0.00    -0.191 F 
ENDBRANCH   7   9
ENDBRANCH   1   7
BRANCH   1  12
HETATM   12  C3  UNL     1       0.964   5.126   4.759  1.00  0.00    -0.023 A 
HETATM   13  C4  UNL     1       2.037   5.674   5.329  1.00  0.00     0.017 A 
HETATM   14  C5  UNL     1       2.558   5.089   6.446  1.00  0.00     0.050 A 
HETATM   15  S1  UNL     1       1.529   3.753   6.695  1.00  0.00    -0.113 SA
HETATM   16  C6  UNL     1       0.470   3.983   5.369  1.00  0.00     0.059 A 
ENDBRANCH   1  12
TORSDOF 3
ENDMDL
MODEL 2
REMARK VINA RESULT: -4.197731231      2.943      4.299
REMARK  3 active torsions:
REMARK  status: ('A' for Active; 'I' for Inactive)
REMARK    1  A    between atoms: C1_2  and  N1_4 
REMARK    2  A    between atoms: N1_4  and  C2_6 
REMARK    3  A    between atoms: C2_6  and  C3_7 
ROOT
HETATM    1  C2  UNL     1       0.477   5.433   4.926  1.00  0.00     0.059 C 
HETATM    2  C7  UNL     1       0.049   6.864   5.193  1.00  0.00     0.046 C 
HETATM    3  C8  UNL     1      -1.168   7.308   4.471  1.00  0.00     0.076 C 
HETATM    4  S2  UNL     1      -2.415   6.006   4.599  1.00  0.00    -0.169 SA
HETATM    5  C9  UNL     1      -1.835   4.695   5.633  1.00  0.00     0.076 C 
HETATM    6  C10 UNL     1      -0.355   4.436   5.647  1.00  0.00     0.046 C 
ENDROOT
BRANCH   1   7
HETATM    7  N1  UNL     1       1.865   5.353   5.163  1.00  0.00    -0.355 N 
ATOM      8  H1  UNL     1       2.488   5.506   4.370  1.00  0.00     0.159 HD
BRANCH   7   9
HETATM    9  C1  UNL     1       2.443   5.086   6.380  1.00  0.00     0.455 C 
HETATM   10  F1  UNL     1       3.699   5.671   6.523  1.00  0.00    -0.191 F 
HETATM   11  F2  UNL     1       2.536   3.753   6.749  1.00  0.00    -0.191 F 
ENDBRANCH   7   9
ENDBRANCH   1   7
BRANCH   1  12
HETATM   12  C3  UNL     1       0.344   5.211   3.418  1.00  0.00    -0.023 A 
HETATM   13  C4  UNL     1      -0.060   4.089   2.823  1.00  0.00     0.017 A 
HETATM   14  C5  UNL     1      -0.130   4.057   1.461  1.00  0.00     0.050 A 
HETATM   15  S1  UNL     1       0.379   5.621   1.014  1.00  0.00    -0.113 SA
HETATM   16  C6  UNL     1       0.665   6.264   2.574  1.00  0.00     0.059 A 
ENDBRANCH   1  12
TORSDOF 3
ENDMDL
MODEL 3
REMARK VINA RESULT: -4.149116257      2.987      4.187
REMARK  3 active torsions:
REMARK  status: ('A' for Active; 'I' for Inactive)
REMARK    1  A    between atoms: C1_2  and  N1_4 
REMARK    2  A    between atoms: N1_4  and  C2_6 
REMARK    3  A    between atoms: C2_6  and  C3_7 
ROOT
HETATM    1  C2  UNL     1       0.518   5.514   4.897  1.00  0.00     0.059 C 
HETATM    2  C7  UNL     1       0.124   6.941   5.231  1.00  0.00     0.046 C 
HETATM    3  C8  UNL     1      -1.069   7.454   4.513  1.00  0.00     0.076 C 
HETATM    4  S2  UNL     1      -2.351   6.182   4.554  1.00  0.00    -0.169 SA
HETATM    5  C9  UNL     1      -1.825   4.804   5.528  1.00  0.00     0.076 C 
HETATM    6  C10 UNL     1      -0.353   4.504   5.553  1.00  0.00     0.046 C 
ENDROOT
BRANCH   1   7
HETATM    7  N1  UNL     1       1.900   5.384   5.153  1.00  0.00    -0.355 N 
ATOM      8  H1  UNL     1       2.537   5.501   4.365  1.00  0.00     0.159 HD
BRANCH   7   9
HETATM    9  C1  UNL     1       2.453   5.113   6.381  1.00  0.00     0.455 C 
HETATM   10  F1  UNL     1       3.721   5.666   6.537  1.00  0.00    -0.191 F 
HETATM   11  F2  UNL     1       2.503   3.782   6.763  1.00  0.00    -0.191 F 
ENDBRANCH   7   9
ENDBRANCH   1   7
BRANCH   1  12
HETATM   12  C3  UNL     1       0.407   5.374   3.378  1.00  0.00    -0.023 A 
HETATM   13  C4  UNL     1       0.646   6.332   2.483  1.00  0.00     0.017 A 
HETATM   14  C5  UNL     1       0.506   6.041   1.158  1.00  0.00     0.050 A 
HETATM   15  S1  UNL     1       0.032   4.404   1.171  1.00  0.00    -0.113 SA
HETATM   16  C6  UNL     1       0.027   4.143   2.864  1.00  0.00     0.059 A 
ENDBRANCH   1  12
TORSDOF 3
ENDMDL
MODEL 4
REMARK VINA RESULT: -4.127095055      3.105      3.808
REMARK  3 active torsions:
REMARK  status: ('A' for Active; 'I' for Inactive)
REMARK    1  A    between atoms: C1_2  and  N1_4 
REMARK    2  A    between atoms: N1_4  and  C2_6 
REMARK    3  A    between atoms: C2_6  and  C3_7 
ROOT
HETATM    1  C2  UNL     1      -0.578   4.928   4.673  1.00  0.00     0.059 C 
HETATM    2  C7  UNL     1      -1.965   4.841   4.061  1.00  0.00     0.046 C 
HETATM    3  C8  UNL     1      -2.322   5.948   3.140  1.00  0.00     0.076 C 
HETATM    4  S2  UNL     1      -0.921   6.251   2.041  1.00  0.00    -0.169 SA
HETATM    5  C9  UNL     1       0.359   5.067   2.329  1.00  0.00     0.076 C 
HETATM    6  C10 UNL     1       0.498   4.534   3.727  1.00  0.00     0.046 C 
ENDROOT
BRANCH   1   7
HETATM    7  N1  UNL     1      -0.607   4.220   5.892  1.00  0.00    -0.355 N 
ATOM      8  H1  UNL     1      -1.464   4.266   6.443  1.00  0.00     0.159 HD
BRANCH   7   9
HETATM    9  C1  UNL     1       0.429   3.472   6.395  1.00  0.00     0.455 C 
HETATM   10  F1  UNL     1       0.023   2.580   7.384  1.00  0.00    -0.191 F 
HETATM   11  F2  UNL     1       1.535   4.168   6.859  1.00  0.00    -0.191 F 
ENDBRANCH   7   9
ENDBRANCH   1   7
BRANCH   1  12
HETATM   12  C3  UNL     1      -0.377   6.385   5.094  1.00  0.00    -0.023 A 
HETATM   13  C4  UNL     1       0.753   7.083   4.987  1.00  0.00     0.017 A 
HETATM   14  C5  UNL     1       0.765   8.382   5.405  1.00  0.00     0.050 A 
HETATM   15  S1  UNL     1      -0.830   8.622   5.955  1.00  0.00    -0.113 SA
HETATM   16  C6  UNL     1      -1.459   7.062   5.636  1.00  0.00     0.059 A 
ENDBRANCH   1  12
TORSDOF 3
ENDMDL
MODEL 5
REMARK VINA RESULT: -3.993998793      2.925      4.077
REMARK  3 active torsions:
REMARK  status: ('A' for Active; 'I' for Inactive)
REMARK    1  A    between atoms: C1_2  and  N1_4 
REMARK    2  A    between atoms: N1_4  and  C2_6 
REMARK    3  A    between atoms: C2_6  and  C3_7 
ROOT
HETATM    1  C2  UNL     1       0.323   4.970   4.694  1.00  0.00     0.059 C 
HETATM    2  C7  UNL     1      -0.796   4.556   5.631  1.00  0.00     0.046 C 
HETATM    3  C8  UNL     1      -2.117   5.173   5.353  1.00  0.00     0.076 C 
HETATM    4  S2  UNL     1      -2.420   5.095   3.573  1.00  0.00    -0.169 SA
HETATM    5  C9  UNL     1      -1.121   4.212   2.762  1.00  0.00     0.076 C 
HETATM    6  C10 UNL     1       0.250   4.297   3.371  1.00  0.00     0.046 C 
ENDROOT
BRANCH   1   7
HETATM    7  N1  UNL     1       1.540   4.813   5.390  1.00  0.00    -0.355 N 
ATOM      8  H1  UNL     1       2.376   5.222   4.975  1.00  0.00     0.159 HD
BRANCH   7   9
HETATM    9  C1  UNL     1       1.685   4.151   6.585  1.00  0.00     0.455 C 
HETATM   10  F1  UNL     1       2.755   4.624   7.340  1.00  0.00    -0.191 F 
HETATM   11  F2  UNL     1       1.766   2.768   6.527  1.00  0.00    -0.191 F 
ENDBRANCH   7   9
ENDBRANCH   1   7
BRANCH   1  12
HETATM   12  C3  UNL     1       0.197   6.483   4.503  1.00  0.00    -0.023 A 
HETATM   13  C4  UNL     1      -0.121   7.368   5.448  1.00  0.00     0.017 A 
HETATM   14  C5  UNL     1      -0.185   8.689   5.114  1.00  0.00     0.050 A 
HETATM   15  S1  UNL     1       0.202   8.685   3.454  1.00  0.00    -0.113 SA
HETATM   16  C6  UNL     1       0.434   7.002   3.240  1.00  0.00     0.059 A 
ENDBRANCH   1  12
TORSDOF 3
ENDMDL
