MODEL 1
REMARK VINA RESULT: -4.253789032      0.000      0.000
REMARK  4 active torsions:
REMARK  status: ('A' for Active; 'I' for Inactive)
REMARK    1  A    between atoms: N1_2  and  C2_4 
REMARK    2  A    between atoms: C2_4  and  C8_12 
REMARK    3  A    between atoms: N2_5  and  C3_7 
REMARK    4  A    between atoms: C3_7  and  C4_8 
ROOT
HETATM    1  C2  UNL     1       0.644   6.364   4.885  1.00  0.00     0.111 C 
HETATM    2  N2  UNL     1       0.839   6.377   3.636  1.00  0.00    -0.375 N 
ATOM      3  H2  UNL     1       0.779   7.266   3.140  1.00  0.00     0.161 HD
ENDROOT
BRANCH   1   4
HETATM    4  N1  UNL     1       0.345   7.565   5.574  1.00  0.00    -0.380 N 
HETATM    5  C1  UNL     1      -0.975   8.171   5.572  1.00  0.00     0.147 C 
ATOM      6  H1  UNL     1       1.091   8.026   6.096  1.00  0.00     0.160 HD
ENDBRANCH   1   4
BRANCH   1   7
HETATM    7  C8  UNL     1       0.731   5.136   5.645  1.00  0.00     0.063 A 
HETATM    8  C9  UNL     1       1.807   4.557   6.292  1.00  0.00     0.045 A 
HETATM    9  C10 UNL     1       3.175   5.135   6.345  1.00  0.00     0.071 C 
HETATM   10  N3  UNL     1       1.369   3.417   6.842  1.00  0.00    -0.265 N 
HETATM   11  O1  UNL     1       0.107   3.246   6.586  1.00  0.00    -0.242 OA
ATOM     12  H3  UNL     1       1.944   2.773   7.385  1.00  0.00     0.194 HD
HETATM   13  C11 UNL     1      -0.336   4.249   5.868  1.00  0.00     0.088 A 
HETATM   14  C12 UNL     1      -1.717   4.463   5.351  1.00  0.00     0.080 C 
ENDBRANCH   1   7
BRANCH   2  15
HETATM   15  C3  UNL     1       1.142   5.198   2.896  1.00  0.00     0.129 C 
BRANCH  15  16
HETATM   16  C4  UNL     1       0.116   4.921   1.809  1.00  0.00    -0.035 C 
HETATM   17  C5  UNL     1      -1.018   5.893   1.830  1.00  0.00     0.016 C 
HETATM   18  C6  UNL     1      -0.426   3.515   2.060  1.00  0.00     0.016 C 
HETATM   19  C7  UNL     1       0.831   5.010   0.482  1.00  0.00     0.016 C 
ENDBRANCH  15  16
ENDBRANCH   2  15
TORSDOF 4
ENDMDL
MODEL 2
REMARK VINA RESULT: -4.236162489      0.507      1.210
REMARK  4 active torsions:
REMARK  status: ('A' for Active; 'I' for Inactive)
REMARK    1  A    between atoms: N1_2  and  C2_4 
REMARK    2  A    between atoms: C2_4  and  C8_12 
REMARK    3  A    between atoms: N2_5  and  C3_7 
REMARK    4  A    between atoms: C3_7  and  C4_8 
ROOT
HETATM    1  C2  UNL     1       0.522   6.299   4.888  1.00  0.00     0.111 C 
HETATM    2  N2  UNL     1       0.747   6.320   3.644  1.00  0.00    -0.375 N 
ATOM      3  H2  UNL     1       0.636   7.201   3.141  1.00  0.00     0.161 HD
ENDROOT
BRANCH   1   4
HETATM    4  N1  UNL     1       0.123   7.478   5.563  1.00  0.00    -0.380 N 
HETATM    5  C1  UNL     1       0.915   8.695   5.564  1.00  0.00     0.147 C 
ATOM      6  H1  UNL     1      -0.761   7.473   6.072  1.00  0.00     0.160 HD
ENDBRANCH   1   4
BRANCH   1   7
HETATM    7  C8  UNL     1       0.678   5.083   5.657  1.00  0.00     0.063 A 
HETATM    8  C9  UNL     1       1.796   4.545   6.268  1.00  0.00     0.045 A 
HETATM    9  C10 UNL     1       3.145   5.167   6.262  1.00  0.00     0.071 C 
HETATM   10  N3  UNL     1       1.416   3.398   6.845  1.00  0.00    -0.265 N 
HETATM   11  O1  UNL     1       0.152   3.185   6.640  1.00  0.00    -0.242 OA
ATOM     12  H3  UNL     1       2.032   2.779   7.372  1.00  0.00     0.194 HD
HETATM   13  C11 UNL     1      -0.351   4.165   5.929  1.00  0.00     0.088 A 
HETATM   14  C12 UNL     1      -1.757   4.329   5.463  1.00  0.00     0.080 C 
ENDBRANCH   1   7
BRANCH   2  15
HETATM   15  C3  UNL     1       1.150   5.163   2.918  1.00  0.00     0.129 C 
BRANCH  15  16
HETATM   16  C4  UNL     1       0.192   4.830   1.786  1.00  0.00    -0.035 C 
HETATM   17  C5  UNL     1       0.873   4.766   0.458  1.00  0.00     0.016 C 
HETATM   18  C6  UNL     1      -0.860   5.937   1.756  1.00  0.00     0.016 C 
HETATM   19  C7  UNL     1      -0.426   3.488   2.099  1.00  0.00     0.016 C 
ENDBRANCH  15  16
ENDBRANCH   2  15
TORSDOF 4
ENDMDL
MODEL 3
REMARK VINA RESULT: -4.205424088      1.646      4.087
REMARK  4 active torsions:
REMARK  status: ('A' for Active; 'I' for Inactive)
REMARK    1  A    between atoms: N1_2  and  C2_4 
REMARK    2  A    between atoms: C2_4  and  C8_12 
REMARK    3  A    between atoms: N2_5  and  C3_7 
REMARK    4  A    between atoms: C3_7  and  C4_8 
ROOT
HETATM    1  C2  UNL     1       0.334   4.937   4.247  1.00  0.00     0.111 C 
HETATM    2  N2  UNL     1       0.969   6.027   4.322  1.00  0.00    -0.375 N 
ATOM      3  H2  UNL     1       1.556   6.307   3.536  1.00  0.00     0.161 HD
ENDROOT
BRANCH   1   4
HETATM    4  N1  UNL     1       0.442   4.125   3.091  1.00  0.00    -0.380 N 
HETATM    5  C1  UNL     1      -0.312   4.376   1.875  1.00  0.00     0.147 C 
ATOM      6  H1  UNL     1       1.077   3.327   3.114  1.00  0.00     0.160 HD
ENDBRANCH   1   4
BRANCH   1   7
HETATM    7  C8  UNL     1      -0.527   4.496   5.323  1.00  0.00     0.063 A 
HETATM    8  C9  UNL     1      -1.881   4.689   5.525  1.00  0.00     0.045 A 
HETATM    9  C10 UNL     1      -2.777   5.430   4.602  1.00  0.00     0.071 C 
HETATM   10  N3  UNL     1      -2.196   4.086   6.679  1.00  0.00    -0.265 N 
HETATM   11  O1  UNL     1      -1.145   3.535   7.205  1.00  0.00    -0.242 OA
ATOM     12  H3  UNL     1      -3.131   4.063   7.087  1.00  0.00     0.194 HD
HETATM   13  C11 UNL     1      -0.105   3.746   6.435  1.00  0.00     0.088 A 
HETATM   14  C12 UNL     1       1.299   3.296   6.651  1.00  0.00     0.080 C 
ENDBRANCH   1   7
BRANCH   2  15
HETATM   15  C3  UNL     1       0.896   6.881   5.460  1.00  0.00     0.129 C 
BRANCH  15  16
HETATM   16  C4  UNL     1       0.286   8.233   5.129  1.00  0.00    -0.035 C 
HETATM   17  C5  UNL     1       0.004   8.393   3.671  1.00  0.00     0.016 C 
HETATM   18  C6  UNL     1       1.296   9.293   5.563  1.00  0.00     0.016 C 
HETATM   19  C7  UNL     1      -1.004   8.347   5.906  1.00  0.00     0.016 C 
ENDBRANCH  15  16
ENDBRANCH   2  15
TORSDOF 4
ENDMDL
MODEL 4
REMARK VINA RESULT: -4.195642446      2.175      4.871
REMARK  4 active torsions:
REMARK  status: ('A' for Active; 'I' for Inactive)
REMARK    1  A    between atoms: N1_2  and  C2_4 
REMARK    2  A    between atoms: C2_4  and  C8_12 
REMARK    3  A    between atoms: N2_5  and  C3_7 
REMARK    4  A    between atoms: C3_7  and  C4_8 
ROOT
HETATM    1  C2  UNL     1       0.125   4.430   5.326  1.00  0.00     0.111 C 
HETATM    2  N2  UNL     1      -1.007   4.282   5.868  1.00  0.00    -0.375 N 
ATOM      3  H2  UNL     1      -1.074   3.719   6.715  1.00  0.00     0.161 HD
ENDROOT
BRANCH   1   4
HETATM    4  N1  UNL     1       1.273   3.820   5.889  1.00  0.00    -0.380 N 
HETATM    5  C1  UNL     1       1.234   3.043   7.115  1.00  0.00     0.147 C 
ATOM      6  H1  UNL     1       2.168   3.931   5.411  1.00  0.00     0.160 HD
ENDBRANCH   1   4
BRANCH   1   7
HETATM    7  C8  UNL     1       0.285   5.231   4.131  1.00  0.00     0.063 A 
HETATM    8  C9  UNL     1       0.156   4.889   2.798  1.00  0.00     0.045 A 
HETATM    9  C10 UNL     1      -0.212   3.537   2.303  1.00  0.00     0.071 C 
HETATM   10  N3  UNL     1       0.416   5.990   2.081  1.00  0.00    -0.265 N 
HETATM   11  O1  UNL     1       0.696   6.985   2.867  1.00  0.00    -0.242 OA
ATOM     12  H3  UNL     1       0.398   6.040   1.063  1.00  0.00     0.194 HD
HETATM   13  C11 UNL     1       0.634   6.592   4.115  1.00  0.00     0.088 A 
HETATM   14  C12 UNL     1       0.879   7.403   5.342  1.00  0.00     0.080 C 
ENDBRANCH   1   7
BRANCH   2  15
HETATM   15  C3  UNL     1      -2.192   4.873   5.342  1.00  0.00     0.129 C 
BRANCH  15  16
HETATM   16  C4  UNL     1      -3.369   4.749   6.295  1.00  0.00    -0.035 C 
HETATM   17  C5  UNL     1      -4.623   4.320   5.605  1.00  0.00     0.016 C 
HETATM   18  C6  UNL     1      -3.586   6.129   6.913  1.00  0.00     0.016 C 
HETATM   19  C7  UNL     1      -2.996   3.726   7.342  1.00  0.00     0.016 C 
ENDBRANCH  15  16
ENDBRANCH   2  15
TORSDOF 4
ENDMDL
MODEL 5
REMARK VINA RESULT: -4.185152331      2.175      4.805
REMARK  4 active torsions:
REMARK  status: ('A' for Active; 'I' for Inactive)
REMARK    1  A    between atoms: N1_2  and  C2_4 
REMARK    2  A    between atoms: C2_4  and  C8_12 
REMARK    3  A    between atoms: N2_5  and  C3_7 
REMARK    4  A    between atoms: C3_7  and  C4_8 
ROOT
HETATM    1  C2  UNL     1       0.123   4.430   5.324  1.00  0.00     0.111 C 
HETATM    2  N2  UNL     1      -1.009   4.279   5.865  1.00  0.00    -0.375 N 
ATOM      3  H2  UNL     1      -1.076   3.714   6.712  1.00  0.00     0.161 HD
ENDROOT
BRANCH   1   4
HETATM    4  N1  UNL     1       1.273   3.824   5.889  1.00  0.00    -0.380 N 
HETATM    5  C1  UNL     1       1.234   3.047   7.115  1.00  0.00     0.147 C 
ATOM      6  H1  UNL     1       2.167   3.939   5.413  1.00  0.00     0.160 HD
ENDBRANCH   1   4
BRANCH   1   7
HETATM    7  C8  UNL     1       0.283   5.232   4.130  1.00  0.00     0.063 A 
HETATM    8  C9  UNL     1       0.150   4.892   2.797  1.00  0.00     0.045 A 
HETATM    9  C10 UNL     1      -0.220   3.541   2.301  1.00  0.00     0.071 C 
HETATM   10  N3  UNL     1       0.411   5.994   2.081  1.00  0.00    -0.265 N 
HETATM   11  O1  UNL     1       0.693   6.988   2.867  1.00  0.00    -0.242 OA
ATOM     12  H3  UNL     1       0.391   6.044   1.062  1.00  0.00     0.194 HD
HETATM   13  C11 UNL     1       0.633   6.593   4.115  1.00  0.00     0.088 A 
HETATM   14  C12 UNL     1       0.881   7.402   5.343  1.00  0.00     0.080 C 
ENDBRANCH   1   7
BRANCH   2  15
HETATM   15  C3  UNL     1      -2.195   4.866   5.338  1.00  0.00     0.129 C 
BRANCH  15  16
HETATM   16  C4  UNL     1      -3.364   4.769   6.303  1.00  0.00    -0.035 C 
HETATM   17  C5  UNL     1      -3.648   6.064   6.991  1.00  0.00     0.016 C 
HETATM   18  C6  UNL     1      -2.991   3.720   7.348  1.00  0.00     0.016 C 
HETATM   19  C7  UNL     1      -4.575   4.349   5.504  1.00  0.00     0.016 C 
ENDBRANCH  15  16
ENDBRANCH   2  15
TORSDOF 4
ENDMDL
