MODEL 1
REMARK VINA RESULT: -6.642259737      0.000      0.000
REMARK  3 active torsions:
REMARK  status: ('A' for Active; 'I' for Inactive)
REMARK    1  A    between atoms: C6_7  and  C7_8 
REMARK    2  A    between atoms: N2_9  and  N3_11 
REMARK    3  A    between atoms: N3_11  and  C8_13 
ROOT
HETATM    1  N1  UNL     1      -5.247   6.565   8.039  1.00  0.00    -0.197 NA
HETATM    2  C1  UNL     1      -4.842   5.591   7.560  1.00  0.00     0.064 C 
HETATM    3  C2  UNL     1      -4.325   4.333   6.972  1.00  0.00     0.097 C 
HETATM    4  C3  UNL     1      -5.289   3.243   7.311  1.00  0.00     0.046 C 
HETATM    5  C4  UNL     1      -5.014   2.673   8.674  1.00  0.00    -0.029 C 
HETATM    6  C5  UNL     1      -3.743   2.365   8.917  1.00  0.00    -0.021 C 
HETATM    7  C6  UNL     1      -2.789   2.629   7.804  1.00  0.00     0.049 C 
HETATM    8  C14 UNL     1      -2.910   4.069   7.431  1.00  0.00     0.033 C 
ENDROOT
BRANCH   7   9
HETATM    9  C7  UNL     1      -1.406   2.228   8.147  1.00  0.00     0.088 C 
HETATM   10  N2  UNL     1      -0.406   2.598   7.452  1.00  0.00    -0.315 N 
ATOM     11  H2  UNL     1      -0.548   3.188   6.632  1.00  0.00     0.185 HD
BRANCH  10  12
HETATM   12  N3  UNL     1       0.881   2.199   7.808  1.00  0.00    -0.301 N 
ATOM     13  H3  UNL     1       1.026   1.253   8.159  1.00  0.00     0.187 HD
BRANCH  12  14
HETATM   14  C8  UNL     1       1.999   3.071   7.695  1.00  0.00     0.048 A 
HETATM   15  C9  UNL     1       2.049   4.086   6.764  1.00  0.00     0.034 A 
HETATM   16  C10 UNL     1       3.143   4.921   6.674  1.00  0.00     0.044 A 
HETATM   17  C11 UNL     1       4.223   4.773   7.506  1.00  0.00     0.116 A 
HETATM   18  F1  UNL     1       5.325   5.579   7.448  1.00  0.00    -0.206 F 
HETATM   19  C12 UNL     1       4.178   3.752   8.446  1.00  0.00     0.044 A 
HETATM   20  C13 UNL     1       3.085   2.924   8.531  1.00  0.00     0.034 A 
ENDBRANCH  12  14
ENDBRANCH  10  12
ENDBRANCH   7   9
TORSDOF 3
ENDMDL
MODEL 2
REMARK VINA RESULT: -6.626486713      0.079      1.114
REMARK  3 active torsions:
REMARK  status: ('A' for Active; 'I' for Inactive)
REMARK    1  A    between atoms: C6_7  and  C7_8 
REMARK    2  A    between atoms: N2_9  and  N3_11 
REMARK    3  A    between atoms: N3_11  and  C8_13 
ROOT
HETATM    1  N1  UNL     1      -5.103   6.657   7.987  1.00  0.00    -0.197 NA
HETATM    2  C1  UNL     1      -4.740   5.658   7.527  1.00  0.00     0.064 C 
HETATM    3  C2  UNL     1      -4.276   4.369   6.963  1.00  0.00     0.097 C 
HETATM    4  C3  UNL     1      -5.269   3.320   7.349  1.00  0.00     0.046 C 
HETATM    5  C4  UNL     1      -4.986   2.778   8.722  1.00  0.00    -0.029 C 
HETATM    6  C5  UNL     1      -3.721   2.433   8.948  1.00  0.00    -0.021 C 
HETATM    7  C6  UNL     1      -2.781   2.636   7.811  1.00  0.00     0.049 C 
HETATM    8  C14 UNL     1      -2.863   4.069   7.402  1.00  0.00     0.033 C 
ENDROOT
BRANCH   7   9
HETATM    9  C7  UNL     1      -1.406   2.197   8.138  1.00  0.00     0.088 C 
HETATM   10  N2  UNL     1      -0.396   2.603   7.479  1.00  0.00    -0.315 N 
ATOM     11  H2  UNL     1      -0.523   3.250   6.700  1.00  0.00     0.185 HD
BRANCH  10  12
HETATM   12  N3  UNL     1       0.884   2.167   7.818  1.00  0.00    -0.301 N 
ATOM     13  H3  UNL     1       1.012   1.205   8.130  1.00  0.00     0.187 HD
BRANCH  12  14
HETATM   14  C8  UNL     1       2.017   3.024   7.743  1.00  0.00     0.048 A 
HETATM   15  C9  UNL     1       3.110   2.872   8.568  1.00  0.00     0.034 A 
HETATM   16  C10 UNL     1       4.198   3.715   8.477  1.00  0.00     0.044 A 
HETATM   17  C11 UNL     1       4.233   4.737   7.562  1.00  0.00     0.116 A 
HETATM   18  F1  UNL     1       5.292   5.592   7.441  1.00  0.00    -0.206 F 
HETATM   19  C12 UNL     1       3.134   4.894   6.729  1.00  0.00     0.044 A 
HETATM   20  C13 UNL     1       2.053   4.052   6.824  1.00  0.00     0.034 A 
ENDBRANCH  12  14
ENDBRANCH  10  12
ENDBRANCH   7   9
TORSDOF 3
ENDMDL
MODEL 3
REMARK VINA RESULT: -6.518274129      4.153      6.580
REMARK  3 active torsions:
REMARK  status: ('A' for Active; 'I' for Inactive)
REMARK    1  A    between atoms: C6_7  and  C7_8 
REMARK    2  A    between atoms: N2_9  and  N3_11 
REMARK    3  A    between atoms: N3_11  and  C8_13 
ROOT
HETATM    1  N1  UNL     1      -0.304   1.438   9.447  1.00  0.00    -0.197 NA
HETATM    2  C1  UNL     1       0.394   1.673   8.554  1.00  0.00     0.064 C 
HETATM    3  C2  UNL     1       1.301   1.992   7.426  1.00  0.00     0.097 C 
HETATM    4  C3  UNL     1       2.704   1.788   7.899  1.00  0.00     0.046 C 
HETATM    5  C4  UNL     1       3.224   3.005   8.611  1.00  0.00    -0.029 C 
HETATM    6  C5  UNL     1       3.030   4.160   7.982  1.00  0.00    -0.021 C 
HETATM    7  C6  UNL     1       2.330   4.073   6.670  1.00  0.00     0.049 C 
HETATM    8  C14 UNL     1       1.027   3.379   6.894  1.00  0.00     0.033 C 
ENDROOT
BRANCH   7   9
HETATM    9  C7  UNL     1       2.184   5.397   6.025  1.00  0.00     0.088 C 
HETATM   10  N2  UNL     1       1.167   5.694   5.322  1.00  0.00    -0.315 N 
ATOM     11  H2  UNL     1       0.422   5.010   5.189  1.00  0.00     0.185 HD
BRANCH  10  12
HETATM   12  N3  UNL     1       1.067   6.953   4.730  1.00  0.00    -0.301 N 
ATOM     13  H3  UNL     1       1.424   7.085   3.784  1.00  0.00     0.187 HD
BRANCH  12  14
HETATM   14  C8  UNL     1       0.482   8.059   5.407  1.00  0.00     0.048 A 
HETATM   15  C9  UNL     1       1.199   9.195   5.715  1.00  0.00     0.034 A 
HETATM   16  C10 UNL     1       0.611  10.256   6.372  1.00  0.00     0.044 A 
HETATM   17  C11 UNL     1      -0.709  10.221   6.743  1.00  0.00     0.116 A 
HETATM   18  F1  UNL     1      -1.328  11.251   7.394  1.00  0.00    -0.206 F 
HETATM   19  C12 UNL     1      -1.435   9.079   6.435  1.00  0.00     0.044 A 
HETATM   20  C13 UNL     1      -0.844   8.025   5.781  1.00  0.00     0.034 A 
ENDBRANCH  12  14
ENDBRANCH  10  12
ENDBRANCH   7   9
TORSDOF 3
ENDMDL
MODEL 4
REMARK VINA RESULT: -6.500557767      1.413      1.916
REMARK  3 active torsions:
REMARK  status: ('A' for Active; 'I' for Inactive)
REMARK    1  A    between atoms: C6_7  and  C7_8 
REMARK    2  A    between atoms: N2_9  and  N3_11 
REMARK    3  A    between atoms: N3_11  and  C8_13 
ROOT
HETATM    1  N1  UNL     1      -5.347   5.502  10.947  1.00  0.00    -0.197 NA
HETATM    2  C1  UNL     1      -5.228   5.091   9.871  1.00  0.00     0.064 C 
HETATM    3  C2  UNL     1      -5.057   4.546   8.503  1.00  0.00     0.097 C 
HETATM    4  C3  UNL     1      -5.372   3.086   8.553  1.00  0.00     0.046 C 
HETATM    5  C4  UNL     1      -4.176   2.283   8.981  1.00  0.00    -0.029 C 
HETATM    6  C5  UNL     1      -3.041   2.569   8.348  1.00  0.00    -0.021 C 
HETATM    7  C6  UNL     1      -3.127   3.638   7.315  1.00  0.00     0.049 C 
HETATM    8  C14 UNL     1      -3.679   4.862   7.969  1.00  0.00     0.033 C 
ENDROOT
BRANCH   7   9
HETATM    9  C7  UNL     1      -1.830   3.870   6.641  1.00  0.00     0.088 C 
HETATM   10  N2  UNL     1      -0.761   3.295   7.023  1.00  0.00    -0.315 N 
ATOM     11  H2  UNL     1      -0.784   2.654   7.817  1.00  0.00     0.185 HD
BRANCH  10  12
HETATM   12  N3  UNL     1       0.441   3.539   6.361  1.00  0.00    -0.301 N 
ATOM     13  H3  UNL     1       0.419   3.799   5.375  1.00  0.00     0.187 HD
BRANCH  12  14
HETATM   14  C8  UNL     1       1.698   3.438   7.020  1.00  0.00     0.048 A 
HETATM   15  C9  UNL     1       2.092   2.294   7.679  1.00  0.00     0.034 A 
HETATM   16  C10 UNL     1       3.316   2.218   8.311  1.00  0.00     0.044 A 
HETATM   17  C11 UNL     1       4.187   3.278   8.307  1.00  0.00     0.116 A 
HETATM   18  F1  UNL     1       5.408   3.242   8.920  1.00  0.00    -0.206 F 
HETATM   19  C12 UNL     1       3.795   4.432   7.643  1.00  0.00     0.044 A 
HETATM   20  C13 UNL     1       2.574   4.502   7.016  1.00  0.00     0.034 A 
ENDBRANCH  12  14
ENDBRANCH  10  12
ENDBRANCH   7   9
TORSDOF 3
ENDMDL
MODEL 5
REMARK VINA RESULT: -6.432175541      4.172      6.601
REMARK  3 active torsions:
REMARK  status: ('A' for Active; 'I' for Inactive)
REMARK    1  A    between atoms: C6_7  and  C7_8 
REMARK    2  A    between atoms: N2_9  and  N3_11 
REMARK    3  A    between atoms: N3_11  and  C8_13 
ROOT
HETATM    1  N1  UNL     1      -0.272   1.498   9.471  1.00  0.00    -0.197 NA
HETATM    2  C1  UNL     1       0.414   1.722   8.565  1.00  0.00     0.064 C 
HETATM    3  C2  UNL     1       1.305   2.026   7.420  1.00  0.00     0.097 C 
HETATM    4  C3  UNL     1       2.713   1.794   7.866  1.00  0.00     0.046 C 
HETATM    5  C4  UNL     1       3.269   2.999   8.571  1.00  0.00    -0.029 C 
HETATM    6  C5  UNL     1       3.085   4.159   7.947  1.00  0.00    -0.021 C 
HETATM    7  C6  UNL     1       2.358   4.089   6.649  1.00  0.00     0.049 C 
HETATM    8  C14 UNL     1       1.047   3.419   6.896  1.00  0.00     0.033 C 
ENDROOT
BRANCH   7   9
HETATM    9  C7  UNL     1       2.226   5.417   6.010  1.00  0.00     0.088 C 
HETATM   10  N2  UNL     1       1.259   5.695   5.231  1.00  0.00    -0.315 N 
ATOM     11  H2  UNL     1       0.547   4.991   5.032  1.00  0.00     0.185 HD
BRANCH  10  12
HETATM   12  N3  UNL     1       1.170   6.958   4.648  1.00  0.00    -0.301 N 
ATOM     13  H3  UNL     1       1.602   7.115   3.737  1.00  0.00     0.187 HD
BRANCH  12  14
HETATM   14  C8  UNL     1       0.495   8.036   5.284  1.00  0.00     0.048 A 
HETATM   15  C9  UNL     1      -0.844   7.978   5.605  1.00  0.00     0.034 A 
HETATM   16  C10 UNL     1      -1.478   9.036   6.223  1.00  0.00     0.044 A 
HETATM   17  C11 UNL     1      -0.800  10.186   6.542  1.00  0.00     0.116 A 
HETATM   18  F1  UNL     1      -1.392  11.254   7.154  1.00  0.00    -0.206 F 
HETATM   19  C12 UNL     1       0.549  10.248   6.221  1.00  0.00     0.044 A 
HETATM   20  C13 UNL     1       1.175   9.192   5.606  1.00  0.00     0.034 A 
ENDBRANCH  12  14
ENDBRANCH  10  12
ENDBRANCH   7   9
TORSDOF 3
ENDMDL
