MODEL 1
REMARK VINA RESULT: -4.794162123      0.000      0.000
REMARK  4 active torsions:
REMARK  status: ('A' for Active; 'I' for Inactive)
REMARK    1  A    between atoms: C2_2  and  C4_4 
REMARK    2  A    between atoms: C2_2  and  N2_12 
REMARK    3  A    between atoms: C4_4  and  O1_5 
REMARK    4  A    between atoms: N1_7  and  C5_9 
ROOT
HETATM    1  C1  UNL     1      -2.010   4.724   4.615  1.00  0.00     0.058 C 
HETATM    2  C2  UNL     1      -0.586   4.824   5.171  1.00  0.00     0.216 C 
HETATM    3  C3  UNL     1       0.395   4.425   4.110  1.00  0.00     0.058 C 
ENDROOT
BRANCH   2   4
HETATM    4  C4  UNL     1      -0.496   3.942   6.339  1.00  0.00     0.152 C 
HETATM    5  N1  UNL     1       0.427   3.307   6.854  1.00  0.00    -0.343 N 
ATOM      6  H1  UNL     1       0.059   2.814   7.666  1.00  0.00     0.164 HD
BRANCH   4   7
HETATM    7  O1  UNL     1      -1.759   3.792   7.027  1.00  0.00    -0.348 OA
ATOM      8  H1  UNL     1      -1.822   2.975   7.507  1.00  0.00     0.219 HD
ENDBRANCH   4   7
BRANCH   5   9
HETATM    9  C5  UNL     1       1.771   3.013   6.745  1.00  0.00     0.278 C 
HETATM   10 CL1  UNL     1       2.757   4.446   7.218  1.00  0.00    -0.085 Cl
HETATM   11 CL2  UNL     1       2.299   1.722   7.895  1.00  0.00    -0.085 Cl
ENDBRANCH   5   9
ENDBRANCH   2   4
BRANCH   2  12
HETATM   12  N2  UNL     1      -0.396   6.210   5.553  1.00  0.00     0.105 N 
HETATM   13  C6  UNL     1      -1.446   7.090   5.148  1.00  0.00     0.274 C 
HETATM   14  C7  UNL     1      -1.433   8.242   6.164  1.00  0.00     0.030 C 
HETATM   15  C8  UNL     1      -0.087   8.892   6.074  1.00  0.00     0.003 C 
HETATM   16  C9  UNL     1       0.851   8.267   5.095  1.00  0.00     0.030 C 
HETATM   17  C10 UNL     1       0.862   6.763   5.132  1.00  0.00     0.274 C 
ENDBRANCH   2  12
TORSDOF 4
ENDMDL
MODEL 2
REMARK VINA RESULT: -4.733943728      1.226      2.417
REMARK  4 active torsions:
REMARK  status: ('A' for Active; 'I' for Inactive)
REMARK    1  A    between atoms: C2_2  and  C4_4 
REMARK    2  A    between atoms: C2_2  and  N2_12 
REMARK    3  A    between atoms: C4_4  and  O1_5 
REMARK    4  A    between atoms: N1_7  and  C5_9 
ROOT
HETATM    1  C1  UNL     1       0.225   3.996   3.964  1.00  0.00     0.058 C 
HETATM    2  C2  UNL     1      -0.170   4.807   5.202  1.00  0.00     0.216 C 
HETATM    3  C3  UNL     1       0.798   5.935   5.391  1.00  0.00     0.058 C 
ENDROOT
BRANCH   2   4
HETATM    4  C4  UNL     1      -0.164   3.901   6.355  1.00  0.00     0.152 C 
HETATM    5  N1  UNL     1       0.721   3.259   6.925  1.00  0.00    -0.343 N 
ATOM      6  H1  UNL     1       0.295   2.746   7.697  1.00  0.00     0.164 HD
BRANCH   4   7
HETATM    7  O1  UNL     1      -1.475   3.729   6.940  1.00  0.00    -0.348 OA
ATOM      8  H1  UNL     1      -1.440   3.526   7.868  1.00  0.00     0.219 HD
ENDBRANCH   4   7
BRANCH   5   9
HETATM    9  C5  UNL     1       2.071   2.974   6.913  1.00  0.00     0.278 C 
HETATM   10 CL1  UNL     1       2.981   4.258   7.791  1.00  0.00    -0.085 Cl
HETATM   11 CL2  UNL     1       2.473   1.460   7.816  1.00  0.00    -0.085 Cl
ENDBRANCH   5   9
ENDBRANCH   2   4
BRANCH   2  12
HETATM   12  N2  UNL     1      -1.506   5.311   4.947  1.00  0.00     0.105 N 
HETATM   13  C6  UNL     1      -2.057   4.929   3.686  1.00  0.00     0.274 C 
HETATM   14  C7  UNL     1      -3.581   4.935   3.884  1.00  0.00     0.030 C 
HETATM   15  C8  UNL     1      -3.969   6.329   4.269  1.00  0.00     0.003 C 
HETATM   16  C9  UNL     1      -2.832   7.291   4.385  1.00  0.00     0.030 C 
HETATM   17  C10 UNL     1      -1.629   6.736   5.097  1.00  0.00     0.274 C 
ENDBRANCH   2  12
TORSDOF 4
ENDMDL
MODEL 3
REMARK VINA RESULT: -4.476272179      1.627      2.255
REMARK  4 active torsions:
REMARK  status: ('A' for Active; 'I' for Inactive)
REMARK    1  A    between atoms: C2_2  and  C4_4 
REMARK    2  A    between atoms: C2_2  and  N2_12 
REMARK    3  A    between atoms: C4_4  and  O1_5 
REMARK    4  A    between atoms: N1_7  and  C5_9 
ROOT
HETATM    1  C1  UNL     1       0.817   6.182   3.445  1.00  0.00     0.058 C 
HETATM    2  C2  UNL     1       0.805   5.738   4.911  1.00  0.00     0.216 C 
HETATM    3  C3  UNL     1       2.150   5.994   5.521  1.00  0.00     0.058 C 
ENDROOT
BRANCH   2   4
HETATM    4  C4  UNL     1       0.468   4.311   4.946  1.00  0.00     0.152 C 
HETATM    5  N1  UNL     1       0.448   3.465   5.844  1.00  0.00    -0.343 N 
ATOM      6  H1  UNL     1       0.150   2.579   5.438  1.00  0.00     0.164 HD
BRANCH   4   7
HETATM    7  O1  UNL     1       0.075   3.796   3.653  1.00  0.00    -0.348 OA
ATOM      8  H1  UNL     1      -0.475   3.023   3.717  1.00  0.00     0.219 HD
ENDBRANCH   4   7
BRANCH   5   9
HETATM    9  C5  UNL     1       0.678   3.267   7.189  1.00  0.00     0.278 C 
HETATM   10 CL1  UNL     1      -0.665   2.303   7.909  1.00  0.00    -0.085 Cl
HETATM   11 CL2  UNL     1       2.150   2.267   7.507  1.00  0.00    -0.085 Cl
ENDBRANCH   5   9
ENDBRANCH   2   4
BRANCH   2  12
HETATM   12  N2  UNL     1      -0.218   6.528   5.566  1.00  0.00     0.105 N 
HETATM   13  C6  UNL     1      -1.539   6.336   5.056  1.00  0.00     0.274 C 
HETATM   14  C7  UNL     1      -2.482   6.658   6.225  1.00  0.00     0.030 C 
HETATM   15  C8  UNL     1      -2.230   8.082   6.614  1.00  0.00     0.003 C 
HETATM   16  C9  UNL     1      -1.164   8.772   5.827  1.00  0.00     0.030 C 
HETATM   17  C10 UNL     1       0.067   7.937   5.601  1.00  0.00     0.274 C 
ENDBRANCH   2  12
TORSDOF 4
ENDMDL
MODEL 4
REMARK VINA RESULT: -4.432655115      2.353      3.791
REMARK  4 active torsions:
REMARK  status: ('A' for Active; 'I' for Inactive)
REMARK    1  A    between atoms: C2_2  and  C4_4 
REMARK    2  A    between atoms: C2_2  and  N2_12 
REMARK    3  A    between atoms: C4_4  and  O1_5 
REMARK    4  A    between atoms: N1_7  and  C5_9 
ROOT
HETATM    1  C1  UNL     1       0.484   7.231   4.752  1.00  0.00     0.058 C 
HETATM    2  C2  UNL     1       0.428   5.703   4.847  1.00  0.00     0.216 C 
HETATM    3  C3  UNL     1      -0.897   5.285   5.409  1.00  0.00     0.058 C 
ENDROOT
BRANCH   2   4
HETATM    4  C4  UNL     1       1.534   5.264   5.704  1.00  0.00     0.152 C 
HETATM    5  N1  UNL     1       1.779   4.214   6.302  1.00  0.00    -0.343 N 
ATOM      6  H1  UNL     1       2.666   4.327   6.792  1.00  0.00     0.164 HD
BRANCH   4   7
HETATM    7  O1  UNL     1       2.545   6.283   5.880  1.00  0.00    -0.348 OA
ATOM      8  H1  UNL     1       3.328   6.116   5.368  1.00  0.00     0.219 HD
ENDBRANCH   4   7
BRANCH   5   9
HETATM    9  C5  UNL     1       1.305   2.943   6.558  1.00  0.00     0.278 C 
HETATM   10 CL1  UNL     1       2.434   2.075   7.663  1.00  0.00    -0.085 Cl
HETATM   11 CL2  UNL     1      -0.264   2.950   7.456  1.00  0.00    -0.085 Cl
ENDBRANCH   5   9
ENDBRANCH   2   4
BRANCH   2  12
HETATM   12  N2  UNL     1       0.594   5.207   3.494  1.00  0.00     0.105 N 
HETATM   13  C6  UNL     1       0.145   6.098   2.473  1.00  0.00     0.274 C 
HETATM   14  C7  UNL     1       0.983   5.757   1.231  1.00  0.00     0.030 C 
HETATM   15  C8  UNL     1       0.704   4.325   0.892  1.00  0.00     0.003 C 
HETATM   16  C9  UNL     1      -0.241   3.631   1.817  1.00  0.00     0.030 C 
HETATM   17  C10 UNL     1       0.009   3.912   3.273  1.00  0.00     0.274 C 
ENDBRANCH   2  12
TORSDOF 4
ENDMDL
MODEL 5
REMARK VINA RESULT: -4.429271377      2.508      3.974
REMARK  4 active torsions:
REMARK  status: ('A' for Active; 'I' for Inactive)
REMARK    1  A    between atoms: C2_2  and  C4_4 
REMARK    2  A    between atoms: C2_2  and  N2_12 
REMARK    3  A    between atoms: C4_4  and  O1_5 
REMARK    4  A    between atoms: N1_7  and  C5_9 
ROOT
HETATM    1  C1  UNL     1      -1.222   7.507   3.702  1.00  0.00     0.058 C 
HETATM    2  C2  UNL     1      -0.463   6.289   4.240  1.00  0.00     0.216 C 
HETATM    3  C3  UNL     1      -1.404   5.415   5.012  1.00  0.00     0.058 C 
ENDROOT
BRANCH   2   4
HETATM    4  C4  UNL     1       0.628   6.778   5.089  1.00  0.00     0.152 C 
HETATM    5  N1  UNL     1       1.626   6.245   5.579  1.00  0.00    -0.343 N 
ATOM      6  H1  UNL     1       2.132   6.950   6.114  1.00  0.00     0.164 HD
BRANCH   4   7
HETATM    7  O1  UNL     1       0.499   8.181   5.415  1.00  0.00    -0.348 OA
ATOM      8  H1  UNL     1       0.973   8.421   6.203  1.00  0.00     0.219 HD
ENDBRANCH   4   7
BRANCH   5   9
HETATM    9  C5  UNL     1       2.316   5.054   5.677  1.00  0.00     0.278 C 
HETATM   10 CL1  UNL     1       3.713   5.240   6.801  1.00  0.00    -0.085 Cl
HETATM   11 CL2  UNL     1       1.330   3.734   6.422  1.00  0.00    -0.085 Cl
ENDBRANCH   5   9
ENDBRANCH   2   4
BRANCH   2  12
HETATM   12  N2  UNL     1       0.057   5.590   3.081  1.00  0.00     0.105 N 
HETATM   13  C6  UNL     1      -0.373   6.117   1.824  1.00  0.00     0.274 C 
HETATM   14  C7  UNL     1       0.737   5.756   0.826  1.00  0.00     0.030 C 
HETATM   15  C8  UNL     1       0.841   4.262   0.805  1.00  0.00     0.003 C 
HETATM   16  C9  UNL     1      -0.089   3.552   1.732  1.00  0.00     0.030 C 
HETATM   17  C10 UNL     1      -0.184   4.173   3.099  1.00  0.00     0.274 C 
ENDBRANCH   2  12
TORSDOF 4
ENDMDL
