MODEL 1
REMARK VINA RESULT: -6.155870964      0.000      0.000
REMARK  3 active torsions:
REMARK  status: ('A' for Active; 'I' for Inactive)
REMARK    1  A    between atoms: C2_3  and  C3_4 
REMARK    2  A    between atoms: C3_4  and  C4_5 
REMARK    3  A    between atoms: C4_5  and  C5_6 
ROOT
HETATM    1  C1  UNL     1      -3.347   2.269   8.603  1.00  0.00     0.160 C 
HETATM    2  N1  UNL     1      -3.115   3.371   7.669  1.00  0.00    -0.316 N 
HETATM    3  C2  UNL     1      -1.954   3.704   7.070  1.00  0.00     0.100 A 
HETATM    4  N2  UNL     1      -2.229   4.771   6.311  1.00  0.00    -0.287 N 
ATOM      5  H2  UNL     1      -1.551   5.262   5.727  1.00  0.00     0.188 HD
HETATM    6  N3  UNL     1      -3.510   5.102   6.423  1.00  0.00    -0.275 N 
ATOM      7  H3  UNL     1      -3.978   5.875   5.951  1.00  0.00     0.189 HD
HETATM    8  C11 UNL     1      -4.075   4.229   7.273  1.00  0.00     0.194 A 
HETATM    9  S1  UNL     1      -5.630   4.188   7.758  1.00  0.00    -0.039 SA
ENDROOT
BRANCH   3  10
HETATM   10  C3  UNL     1      -0.653   3.007   7.240  1.00  0.00     0.078 C 
BRANCH  10  11
HETATM   11  C4  UNL     1       0.361   3.713   6.399  1.00  0.00     0.015 C 
BRANCH  11  12
HETATM   12  C5  UNL     1       1.775   3.276   6.657  1.00  0.00     0.020 C 
HETATM   13  C6  UNL     1       1.683   2.117   7.658  1.00  0.00     0.007 C 
HETATM   14  C7  UNL     1       3.079   1.596   7.875  1.00  0.00     0.001 C 
HETATM   15  C8  UNL     1       3.890   2.690   8.513  1.00  0.00     0.003 C 
HETATM   16  C9  UNL     1       3.155   4.006   8.581  1.00  0.00     0.037 C 
HETATM   17  C10 UNL     1       2.631   4.391   7.218  1.00  0.00     0.174 C 
HETATM   18  F1  UNL     1       3.757   4.614   6.415  1.00  0.00    -0.249 F 
ENDBRANCH  11  12
ENDBRANCH  10  11
ENDBRANCH   3  10
TORSDOF 3
ENDMDL
MODEL 2
REMARK VINA RESULT: -5.923321112      1.699      2.237
REMARK  3 active torsions:
REMARK  status: ('A' for Active; 'I' for Inactive)
REMARK    1  A    between atoms: C2_3  and  C3_4 
REMARK    2  A    between atoms: C3_4  and  C4_5 
REMARK    3  A    between atoms: C4_5  and  C5_6 
ROOT
HETATM    1  C1  UNL     1      -2.028   5.242   3.323  1.00  0.00     0.160 C 
HETATM    2  N1  UNL     1      -2.511   4.889   4.658  1.00  0.00    -0.316 N 
HETATM    3  C2  UNL     1      -1.772   4.520   5.724  1.00  0.00     0.100 A 
HETATM    4  N2  UNL     1      -2.646   4.298   6.713  1.00  0.00    -0.287 N 
ATOM      5  H2  UNL     1      -2.395   4.004   7.657  1.00  0.00     0.188 HD
HETATM    6  N3  UNL     1      -3.886   4.516   6.293  1.00  0.00    -0.275 N 
ATOM      7  H3  UNL     1      -4.737   4.420   6.846  1.00  0.00     0.189 HD
HETATM    8  C11 UNL     1      -3.812   4.887   5.005  1.00  0.00     0.194 A 
HETATM    9  S1  UNL     1      -5.049   5.271   4.015  1.00  0.00    -0.039 SA
ENDROOT
BRANCH   3  10
HETATM   10  C3  UNL     1      -0.292   4.397   5.759  1.00  0.00     0.078 C 
BRANCH  10  11
HETATM   11  C4  UNL     1       0.063   3.412   6.826  1.00  0.00     0.015 C 
BRANCH  11  12
HETATM   12  C5  UNL     1       1.525   3.069   6.875  1.00  0.00     0.020 C 
HETATM   13  C6  UNL     1       1.651   1.906   7.868  1.00  0.00     0.007 C 
HETATM   14  C7  UNL     1       3.095   1.477   7.879  1.00  0.00     0.001 C 
HETATM   15  C8  UNL     1       3.916   2.621   8.405  1.00  0.00     0.003 C 
HETATM   16  C9  UNL     1       3.116   3.886   8.590  1.00  0.00     0.037 C 
HETATM   17  C10 UNL     1       2.378   4.236   7.319  1.00  0.00     0.174 C 
HETATM   18  F1  UNL     1       3.361   4.533   6.366  1.00  0.00    -0.249 F 
ENDBRANCH  11  12
ENDBRANCH  10  11
ENDBRANCH   3  10
TORSDOF 3
ENDMDL
MODEL 3
REMARK VINA RESULT: -5.905711056      3.694      4.579
REMARK  3 active torsions:
REMARK  status: ('A' for Active; 'I' for Inactive)
REMARK    1  A    between atoms: C2_3  and  C3_4 
REMARK    2  A    between atoms: C3_4  and  C4_5 
REMARK    3  A    between atoms: C4_5  and  C5_6 
ROOT
HETATM    1  C1  UNL     1       0.475   7.315   2.691  1.00  0.00     0.160 C 
HETATM    2  N1  UNL     1       0.229   5.873   2.678  1.00  0.00    -0.316 N 
HETATM    3  C2  UNL     1       0.287   5.023   3.723  1.00  0.00     0.100 A 
HETATM    4  N2  UNL     1      -0.012   3.816   3.228  1.00  0.00    -0.287 N 
ATOM      5  H2  UNL     1      -0.052   2.956   3.775  1.00  0.00     0.188 HD
HETATM    6  N3  UNL     1      -0.250   3.896   1.925  1.00  0.00    -0.275 N 
ATOM      7  H3  UNL     1      -0.499   3.124   1.308  1.00  0.00     0.189 HD
HETATM    8  C11 UNL     1      -0.101   5.182   1.569  1.00  0.00     0.194 A 
HETATM    9  S1  UNL     1      -0.280   5.823   0.082  1.00  0.00    -0.039 SA
ENDROOT
BRANCH   3  10
HETATM   10  C3  UNL     1       0.619   5.386   5.124  1.00  0.00     0.078 C 
BRANCH  10  11
HETATM   11  C4  UNL     1       0.464   4.161   5.967  1.00  0.00     0.015 C 
BRANCH  11  12
HETATM   12  C5  UNL     1       1.767   3.550   6.397  1.00  0.00     0.020 C 
HETATM   13  C6  UNL     1       1.403   2.436   7.387  1.00  0.00     0.007 C 
HETATM   14  C7  UNL     1       2.682   1.742   7.775  1.00  0.00     0.001 C 
HETATM   15  C8  UNL     1       3.549   2.734   8.499  1.00  0.00     0.003 C 
HETATM   16  C9  UNL     1       2.993   4.136   8.468  1.00  0.00     0.037 C 
HETATM   17  C10 UNL     1       2.690   4.555   7.050  1.00  0.00     0.174 C 
HETATM   18  F1  UNL     1       3.923   4.611   6.387  1.00  0.00    -0.249 F 
ENDBRANCH  11  12
ENDBRANCH  10  11
ENDBRANCH   3  10
TORSDOF 3
ENDMDL
MODEL 4
REMARK VINA RESULT: -5.866551872      3.909      4.889
REMARK  3 active torsions:
REMARK  status: ('A' for Active; 'I' for Inactive)
REMARK    1  A    between atoms: C2_3  and  C3_4 
REMARK    2  A    between atoms: C3_4  and  C4_5 
REMARK    3  A    between atoms: C4_5  and  C5_6 
ROOT
HETATM    1  C1  UNL     1       0.478   7.314   2.944  1.00  0.00     0.160 C 
HETATM    2  N1  UNL     1       0.248   5.885   2.732  1.00  0.00    -0.316 N 
HETATM    3  C2  UNL     1       0.367   4.894   3.638  1.00  0.00     0.100 A 
HETATM    4  N2  UNL     1       0.059   3.766   2.987  1.00  0.00    -0.287 N 
ATOM      5  H2  UNL     1       0.055   2.835   3.404  1.00  0.00     0.188 HD
HETATM    6  N3  UNL     1      -0.242   4.029   1.721  1.00  0.00    -0.275 N 
ATOM      7  H3  UNL     1      -0.511   3.350   1.010  1.00  0.00     0.189 HD
HETATM    8  C11 UNL     1      -0.126   5.356   1.551  1.00  0.00     0.194 A 
HETATM    9  S1  UNL     1      -0.383   6.203   0.182  1.00  0.00    -0.039 SA
ENDROOT
BRANCH   3  10
HETATM   10  C3  UNL     1       0.761   5.056   5.061  1.00  0.00     0.078 C 
BRANCH  10  11
HETATM   11  C4  UNL     1       0.421   3.791   5.781  1.00  0.00     0.015 C 
BRANCH  11  12
HETATM   12  C5  UNL     1       1.129   3.629   7.095  1.00  0.00     0.020 C 
HETATM   13  C6  UNL     1       2.541   4.193   6.885  1.00  0.00     0.007 C 
HETATM   14  C7  UNL     1       3.255   4.126   8.210  1.00  0.00     0.001 C 
HETATM   15  C8  UNL     1       3.391   2.679   8.593  1.00  0.00     0.003 C 
HETATM   16  C9  UNL     1       2.640   1.751   7.670  1.00  0.00     0.037 C 
HETATM   17  C10 UNL     1       1.200   2.185   7.541  1.00  0.00     0.174 C 
HETATM   18  F1  UNL     1       0.626   2.021   8.808  1.00  0.00    -0.249 F 
ENDBRANCH  11  12
ENDBRANCH  10  11
ENDBRANCH   3  10
TORSDOF 3
ENDMDL
MODEL 5
REMARK VINA RESULT: -5.789467518      2.469      3.161
REMARK  3 active torsions:
REMARK  status: ('A' for Active; 'I' for Inactive)
REMARK    1  A    between atoms: C2_3  and  C3_4 
REMARK    2  A    between atoms: C3_4  and  C4_5 
REMARK    3  A    between atoms: C4_5  and  C5_6 
ROOT
HETATM    1  C1  UNL     1       0.860   7.055   5.149  1.00  0.00     0.160 C 
HETATM    2  N1  UNL     1      -0.525   6.659   5.405  1.00  0.00    -0.316 N 
HETATM    3  C2  UNL     1      -1.021   5.406   5.460  1.00  0.00     0.100 A 
HETATM    4  N2  UNL     1      -2.327   5.543   5.717  1.00  0.00    -0.287 N 
ATOM      5  H2  UNL     1      -2.984   4.769   5.819  1.00  0.00     0.188 HD
HETATM    6  N3  UNL     1      -2.647   6.827   5.820  1.00  0.00    -0.275 N 
ATOM      7  H3  UNL     1      -3.574   7.205   6.012  1.00  0.00     0.189 HD
HETATM    8  C11 UNL     1      -1.524   7.536   5.626  1.00  0.00     0.194 A 
HETATM    9  S1  UNL     1      -1.362   9.157   5.647  1.00  0.00    -0.039 SA
ENDROOT
BRANCH   3  10
HETATM   10  C3  UNL     1      -0.247   4.153   5.269  1.00  0.00     0.078 C 
BRANCH  10  11
HETATM   11  C4  UNL     1       0.100   3.616   6.620  1.00  0.00     0.015 C 
BRANCH  11  12
HETATM   12  C5  UNL     1       1.537   3.198   6.758  1.00  0.00     0.020 C 
HETATM   13  C6  UNL     1       1.542   2.033   7.758  1.00  0.00     0.007 C 
HETATM   14  C7  UNL     1       2.958   1.530   7.856  1.00  0.00     0.001 C 
HETATM   15  C8  UNL     1       3.805   2.632   8.430  1.00  0.00     0.003 C 
HETATM   16  C9  UNL     1       3.061   3.938   8.565  1.00  0.00     0.037 C 
HETATM   17  C10 UNL     1       2.422   4.321   7.252  1.00  0.00     0.174 C 
HETATM   18  F1  UNL     1       3.474   4.562   6.360  1.00  0.00    -0.249 F 
ENDBRANCH  11  12
ENDBRANCH  10  11
ENDBRANCH   3  10
TORSDOF 3
ENDMDL
