MODEL 1
REMARK VINA RESULT: -8.406937381      0.000      0.000
REMARK  11 active torsions:
REMARK  status: ('A' for Active; 'I' for Inactive)
REMARK    1  A    between atoms: C2_2  and  C3_3 
REMARK    2  A    between atoms: C3_3  and  O1_4 
REMARK    3  A    between atoms: C3_3  and  N1_6 
REMARK    4  A    between atoms: N1_6  and  N2_8 
REMARK    5  A    between atoms: C5_10  and  C6_11 
REMARK    6  A    between atoms: C8_15  and  S1_16 
REMARK    7  A    between atoms: S1_16  and  C9_17 
REMARK    8  A    between atoms: C9_17  and  C10_19 
REMARK    9  A    between atoms: C13_22  and  N4_23 
REMARK   10  A    between atoms: N4_23  and  C14_25 
REMARK   11  A    between atoms: C14_25  and  C16_27 
REMARK       I    between atoms: C16_27  and  N5_29 
ROOT
HETATM    1  C6  UNL     1      63.438  52.213 128.096  1.00  0.00     0.023 A 
HETATM    2  C7  UNL     1      63.186  53.418 127.413  1.00  0.00     0.104 A 
HETATM    3  N3  UNL     1      63.450  54.587 128.017  1.00  0.00    -0.359 N 
ATOM      4  H3  UNL     1      63.265  55.457 127.517  1.00  0.00     0.166 HD
HETATM    5  C8  UNL     1      63.950  54.639 129.258  1.00  0.00     0.079 A 
HETATM    6  C12 UNL     1      64.197  53.477 129.924  1.00  0.00     0.067 A 
HETATM    7  C13 UNL     1      63.950  52.188 129.369  1.00  0.00     0.044 A 
ENDROOT
BRANCH   7   8
HETATM    8  N4  UNL     1      64.218  51.204 130.031  1.00  0.00    -0.376 N 
ATOM      9  H4  UNL     1      64.486  50.507 129.336  1.00  0.00     0.160 HD
BRANCH   8  10
HETATM   10  C14 UNL     1      64.345  50.546 131.214  1.00  0.00     0.170 C 
HETATM   11  C15 UNL     1      65.546  49.532 131.126  1.00  0.00     0.042 C 
BRANCH  10  12
HETATM   12  C16 UNL     1      63.238  49.670 131.664  1.00  0.00     0.242 C 
HETATM   13  O3  UNL     1      62.574  49.141 130.680  1.00  0.00    -0.271 OA
HETATM   14  N5  UNL     1      62.810  49.339 132.945  1.00  0.00    -0.349 N 
HETATM   15  C17 UNL     1      63.414  49.887 134.108  1.00  0.00     0.140 C 
HETATM   16  C20 UNL     1      61.692  48.383 133.056  1.00  0.00     0.140 C 
HETATM   17  C18 UNL     1      62.584  49.769 135.357  1.00  0.00     0.160 C 
HETATM   18  S2  UNL     1      60.851  49.874 135.062  1.00  0.00     0.147 S 
HETATM   19  O4  UNL     1      60.298  51.255 135.224  1.00  0.00    -0.228 OA
HETATM   20  O5  UNL     1      60.154  48.986 136.053  1.00  0.00    -0.228 OA
HETATM   21  C19 UNL     1      60.487  49.219 133.436  1.00  0.00     0.160 C 
ENDBRANCH  10  12
ENDBRANCH   8  10
ENDBRANCH   7   8
BRANCH   1  22
HETATM   22  C5  UNL     1      63.106  51.013 127.362  1.00  0.00     0.122 C 
HETATM   23  N2  UNL     1      62.836  51.118 126.082  1.00  0.00    -0.307 N 
ATOM     24  H2  UNL     1      62.856  52.013 125.594  1.00  0.00     0.186 HD
BRANCH  23  25
HETATM   25  N1  UNL     1      62.513  49.890 125.413  1.00  0.00    -0.276 N 
HETATM   26  C4  UNL     1      63.429  48.829 125.669  1.00  0.00     0.180 C 
BRANCH  25  27
HETATM   27  C3  UNL     1      61.370  49.879 124.617  1.00  0.00     0.155 C 
BRANCH  27  28
HETATM   28  C2  UNL     1      60.376  50.891 124.502  1.00  0.00     0.047 C 
HETATM   29  C1  UNL     1      59.786  51.367 123.459  1.00  0.00     0.015 C 
ENDBRANCH  27  28
BRANCH  27  30
HETATM   30  O1  UNL     1      61.192  48.783 123.873  1.00  0.00    -0.345 OA
ATOM     31  H1  UNL     1      61.676  48.743 123.056  1.00  0.00     0.219 HD
ENDBRANCH  27  30
ENDBRANCH  25  27
ENDBRANCH  23  25
ENDBRANCH   1  22
BRANCH   5  32
HETATM   32  S1  UNL     1      64.280  56.229 129.992  1.00  0.00    -0.035 SA
BRANCH  32  33
HETATM   33  C9  UNL     1      65.368  57.163 128.917  1.00  0.00     0.191 C 
HETATM   34  O2  UNL     1      65.110  57.247 127.730  1.00  0.00    -0.285 OA
BRANCH  33  35
HETATM   35  C10 UNL     1      66.577  57.830 129.472  1.00  0.00     0.086 C 
HETATM   36  C11 UNL     1      67.653  57.945 128.382  1.00  0.00     0.013 C 
ENDBRANCH  33  35
ENDBRANCH  32  33
ENDBRANCH   5  32
TORSDOF 11
ENDMDL
MODEL 2
REMARK VINA RESULT: -8.079868840      7.725     13.470
REMARK  11 active torsions:
REMARK  status: ('A' for Active; 'I' for Inactive)
REMARK    1  A    between atoms: C2_2  and  C3_3 
REMARK    2  A    between atoms: C3_3  and  O1_4 
REMARK    3  A    between atoms: C3_3  and  N1_6 
REMARK    4  A    between atoms: N1_6  and  N2_8 
REMARK    5  A    between atoms: C5_10  and  C6_11 
REMARK    6  A    between atoms: C8_15  and  S1_16 
REMARK    7  A    between atoms: S1_16  and  C9_17 
REMARK    8  A    between atoms: C9_17  and  C10_19 
REMARK    9  A    between atoms: C13_22  and  N4_23 
REMARK   10  A    between atoms: N4_23  and  C14_25 
REMARK   11  A    between atoms: C14_25  and  C16_27 
REMARK       I    between atoms: C16_27  and  N5_29 
ROOT
HETATM    1  C6  UNL     1      60.600  51.879 141.802  1.00  0.00     0.023 A 
HETATM    2  C7  UNL     1      60.453  53.017 142.617  1.00  0.00     0.104 A 
HETATM    3  N3  UNL     1      59.771  54.076 142.157  1.00  0.00    -0.359 N 
ATOM      4  H3  UNL     1      59.668  54.899 142.752  1.00  0.00     0.166 HD
HETATM    5  C8  UNL     1      59.222  54.081 140.935  1.00  0.00     0.079 A 
HETATM    6  C12 UNL     1      59.359  52.982 140.141  1.00  0.00     0.067 A 
HETATM    7  C13 UNL     1      60.064  51.810 140.540  1.00  0.00     0.044 A 
ENDROOT
BRANCH   7   8
HETATM    8  N4  UNL     1      60.121  50.870 139.771  1.00  0.00    -0.376 N 
ATOM      9  H4  UNL     1      61.007  51.006 139.284  1.00  0.00     0.160 HD
BRANCH   8  10
HETATM   10  C14 UNL     1      59.620  49.732 139.220  1.00  0.00     0.170 C 
HETATM   11  C15 UNL     1      60.601  48.534 139.504  1.00  0.00     0.042 C 
BRANCH  10  12
HETATM   12  C16 UNL     1      59.470  49.662 137.748  1.00  0.00     0.242 C 
HETATM   13  O3  UNL     1      58.509  48.873 137.370  1.00  0.00    -0.271 OA
HETATM   14  N5  UNL     1      60.185  50.291 136.735  1.00  0.00    -0.349 N 
HETATM   15  C17 UNL     1      61.293  51.138 137.007  1.00  0.00     0.140 C 
HETATM   16  C20 UNL     1      59.746  50.047 135.348  1.00  0.00     0.140 C 
HETATM   17  C18 UNL     1      62.193  51.386 135.827  1.00  0.00     0.160 C 
HETATM   18  S2  UNL     1      62.310  50.013 134.730  1.00  0.00     0.147 S 
HETATM   19  O4  UNL     1      63.476  49.119 135.011  1.00  0.00    -0.228 OA
HETATM   20  O5  UNL     1      62.467  50.542 133.334  1.00  0.00    -0.228 OA
HETATM   21  C19 UNL     1      60.771  49.097 134.764  1.00  0.00     0.160 C 
ENDBRANCH  10  12
ENDBRANCH   8  10
ENDBRANCH   7   8
BRANCH   1  22
HETATM   22  C5  UNL     1      61.363  50.801 142.388  1.00  0.00     0.122 C 
HETATM   23  N2  UNL     1      62.413  51.101 143.115  1.00  0.00    -0.307 N 
ATOM     24  H2  UNL     1      62.703  52.066 143.278  1.00  0.00     0.186 HD
BRANCH  23  25
HETATM   25  N1  UNL     1      63.128  49.985 143.665  1.00  0.00    -0.276 N 
HETATM   26  C4  UNL     1      62.988  48.780 142.918  1.00  0.00     0.180 C 
BRANCH  25  27
HETATM   27  C3  UNL     1      63.855  50.206 144.832  1.00  0.00     0.155 C 
BRANCH  27  28
HETATM   28  C2  UNL     1      64.618  51.355 145.181  1.00  0.00     0.047 C 
HETATM   29  C1  UNL     1      64.856  51.881 146.334  1.00  0.00     0.015 C 
ENDBRANCH  27  28
BRANCH  27  30
HETATM   30  O1  UNL     1      63.830  49.214 145.728  1.00  0.00    -0.345 OA
ATOM     31  H1  UNL     1      64.587  48.641 145.746  1.00  0.00     0.219 HD
ENDBRANCH  27  30
ENDBRANCH  25  27
ENDBRANCH  23  25
ENDBRANCH   1  22
BRANCH   5  32
HETATM   32  S1  UNL     1      58.325  55.523 140.394  1.00  0.00    -0.035 SA
BRANCH  32  33
HETATM   33  C9  UNL     1      57.422  56.212 141.779  1.00  0.00     0.191 C 
HETATM   34  O2  UNL     1      57.748  55.916 142.914  1.00  0.00    -0.285 OA
BRANCH  33  35
HETATM   35  C10 UNL     1      56.281  57.139 141.542  1.00  0.00     0.086 C 
HETATM   36  C11 UNL     1      56.812  58.521 141.132  1.00  0.00     0.013 C 
ENDBRANCH  33  35
ENDBRANCH  32  33
ENDBRANCH   5  32
TORSDOF 11
ENDMDL
MODEL 3
REMARK VINA RESULT: -8.008540962      7.406     11.987
REMARK  11 active torsions:
REMARK  status: ('A' for Active; 'I' for Inactive)
REMARK    1  A    between atoms: C2_2  and  C3_3 
REMARK    2  A    between atoms: C3_3  and  O1_4 
REMARK    3  A    between atoms: C3_3  and  N1_6 
REMARK    4  A    between atoms: N1_6  and  N2_8 
REMARK    5  A    between atoms: C5_10  and  C6_11 
REMARK    6  A    between atoms: C8_15  and  S1_16 
REMARK    7  A    between atoms: S1_16  and  C9_17 
REMARK    8  A    between atoms: C9_17  and  C10_19 
REMARK    9  A    between atoms: C13_22  and  N4_23 
REMARK   10  A    between atoms: N4_23  and  C14_25 
REMARK   11  A    between atoms: C14_25  and  C16_27 
REMARK       I    between atoms: C16_27  and  N5_29 
ROOT
HETATM    1  C6  UNL     1      59.690  49.628 140.717  1.00  0.00     0.023 A 
HETATM    2  C7  UNL     1      60.155  48.968 141.870  1.00  0.00     0.104 A 
HETATM    3  N3  UNL     1      61.238  49.436 142.507  1.00  0.00    -0.359 N 
ATOM      4  H3  UNL     1      61.571  48.953 143.342  1.00  0.00     0.166 HD
HETATM    5  C8  UNL     1      61.893  50.521 142.075  1.00  0.00     0.079 A 
HETATM    6  C12 UNL     1      61.448  51.165 140.960  1.00  0.00     0.067 A 
HETATM    7  C13 UNL     1      60.308  50.745 140.215  1.00  0.00     0.044 A 
ENDROOT
BRANCH   7   8
HETATM    8  N4  UNL     1      59.973  51.393 139.242  1.00  0.00    -0.376 N 
ATOM      9  H4  UNL     1      58.968  51.231 139.175  1.00  0.00     0.160 HD
BRANCH   8  10
HETATM   10  C14 UNL     1      60.238  52.219 138.195  1.00  0.00     0.170 C 
HETATM   11  C15 UNL     1      59.283  53.469 138.256  1.00  0.00     0.042 C 
BRANCH  10  12
HETATM   12  C16 UNL     1      60.004  51.722 136.820  1.00  0.00     0.242 C 
HETATM   13  O3  UNL     1      58.749  51.726 136.483  1.00  0.00    -0.271 OA
HETATM   14  N5  UNL     1      60.898  51.261 135.860  1.00  0.00    -0.349 N 
HETATM   15  C17 UNL     1      62.291  51.156 136.115  1.00  0.00     0.140 C 
HETATM   16  C20 UNL     1      60.342  50.880 134.548  1.00  0.00     0.140 C 
HETATM   17  C18 UNL     1      63.036  50.264 135.159  1.00  0.00     0.160 C 
HETATM   18  S2  UNL     1      62.083  48.899 134.584  1.00  0.00     0.147 S 
HETATM   19  O4  UNL     1      62.281  47.650 135.382  1.00  0.00    -0.228 OA
HETATM   20  O5  UNL     1      62.495  48.605 133.169  1.00  0.00    -0.228 OA
HETATM   21  C19 UNL     1      60.355  49.365 134.531  1.00  0.00     0.160 C 
ENDBRANCH  10  12
ENDBRANCH   8  10
ENDBRANCH   7   8
BRANCH   1  22
HETATM   22  C5  UNL     1      58.525  49.034 140.100  1.00  0.00     0.122 C 
HETATM   23  N2  UNL     1      58.699  48.253 139.060  1.00  0.00    -0.307 N 
ATOM     24  H2  UNL     1      59.624  48.052 138.680  1.00  0.00     0.186 HD
BRANCH  23  25
HETATM   25  N1  UNL     1      57.503  47.698 138.494  1.00  0.00    -0.276 N 
HETATM   26  C4  UNL     1      57.117  46.448 139.060  1.00  0.00     0.180 C 
BRANCH  25  27
HETATM   27  C3  UNL     1      56.876  48.428 137.487  1.00  0.00     0.155 C 
BRANCH  27  28
HETATM   28  C2  UNL     1      55.480  48.540 137.229  1.00  0.00     0.047 C 
HETATM   29  C1  UNL     1      54.850  48.772 136.129  1.00  0.00     0.015 C 
ENDBRANCH  27  28
BRANCH  27  30
HETATM   30  O1  UNL     1      57.688  49.102 136.668  1.00  0.00    -0.345 OA
ATOM     31  H1  UNL     1      58.529  48.701 136.482  1.00  0.00     0.219 HD
ENDBRANCH  27  30
ENDBRANCH  25  27
ENDBRANCH  23  25
ENDBRANCH   1  22
BRANCH   5  32
HETATM   32  S1  UNL     1      63.322  51.088 142.977  1.00  0.00    -0.035 SA
BRANCH  32  33
HETATM   33  C9  UNL     1      63.696  49.922 144.285  1.00  0.00     0.191 C 
HETATM   34  O2  UNL     1      63.377  48.754 144.157  1.00  0.00    -0.285 OA
BRANCH  33  35
HETATM   35  C10 UNL     1      64.393  50.379 145.519  1.00  0.00     0.086 C 
HETATM   36  C11 UNL     1      64.499  51.911 145.517  1.00  0.00     0.013 C 
ENDBRANCH  33  35
ENDBRANCH  32  33
ENDBRANCH   5  32
TORSDOF 11
ENDMDL
MODEL 4
REMARK VINA RESULT: -7.929646527      7.555     13.095
REMARK  11 active torsions:
REMARK  status: ('A' for Active; 'I' for Inactive)
REMARK    1  A    between atoms: C2_2  and  C3_3 
REMARK    2  A    between atoms: C3_3  and  O1_4 
REMARK    3  A    between atoms: C3_3  and  N1_6 
REMARK    4  A    between atoms: N1_6  and  N2_8 
REMARK    5  A    between atoms: C5_10  and  C6_11 
REMARK    6  A    between atoms: C8_15  and  S1_16 
REMARK    7  A    between atoms: S1_16  and  C9_17 
REMARK    8  A    between atoms: C9_17  and  C10_19 
REMARK    9  A    between atoms: C13_22  and  N4_23 
REMARK   10  A    between atoms: N4_23  and  C14_25 
REMARK   11  A    between atoms: C14_25  and  C16_27 
REMARK       I    between atoms: C16_27  and  N5_29 
ROOT
HETATM    1  C6  UNL     1      60.753  48.996 141.889  1.00  0.00     0.023 A 
HETATM    2  C7  UNL     1      61.436  48.419 142.976  1.00  0.00     0.104 A 
HETATM    3  N3  UNL     1      62.482  49.063 143.516  1.00  0.00    -0.359 N 
ATOM      4  H3  UNL     1      62.974  48.640 144.304  1.00  0.00     0.166 HD
HETATM    5  C8  UNL     1      62.896  50.247 143.047  1.00  0.00     0.079 A 
HETATM    6  C12 UNL     1      62.238  50.811 141.995  1.00  0.00     0.067 A 
HETATM    7  C13 UNL     1      61.118  50.206 141.355  1.00  0.00     0.044 A 
ENDROOT
BRANCH   7   8
HETATM    8  N4  UNL     1      60.583  50.791 140.434  1.00  0.00    -0.376 N 
ATOM      9  H4  UNL     1      59.595  50.797 140.690  1.00  0.00     0.160 HD
BRANCH   8  10
HETATM   10  C14 UNL     1      60.612  51.442 139.241  1.00  0.00     0.170 C 
HETATM   11  C15 UNL     1      59.651  52.688 139.296  1.00  0.00     0.042 C 
BRANCH  10  12
HETATM   12  C16 UNL     1      60.125  50.735 138.033  1.00  0.00     0.242 C 
HETATM   13  O3  UNL     1      59.144  49.920 138.280  1.00  0.00    -0.271 OA
HETATM   14  N5  UNL     1      60.550  50.806 136.711  1.00  0.00    -0.349 N 
HETATM   15  C17 UNL     1      61.646  51.617 136.312  1.00  0.00     0.140 C 
HETATM   16  C20 UNL     1      59.811  49.999 135.721  1.00  0.00     0.140 C 
HETATM   17  C18 UNL     1      62.232  51.261 134.973  1.00  0.00     0.160 C 
HETATM   18  S2  UNL     1      62.158  49.539 134.608  1.00  0.00     0.147 S 
HETATM   19  O4  UNL     1      63.401  48.795 134.978  1.00  0.00    -0.228 OA
HETATM   20  O5  UNL     1      61.957  49.384 133.127  1.00  0.00    -0.228 OA
HETATM   21  C19 UNL     1      60.718  48.828 135.401  1.00  0.00     0.160 C 
ENDBRANCH  10  12
ENDBRANCH   8  10
ENDBRANCH   7   8
BRANCH   1  22
HETATM   22  C5  UNL     1      59.651  48.214 141.375  1.00  0.00     0.122 C 
HETATM   23  N2  UNL     1      59.869  47.429 140.347  1.00  0.00    -0.307 N 
ATOM     24  H2  UNL     1      60.785  47.353 139.905  1.00  0.00     0.186 HD
BRANCH  23  25
HETATM   25  N1  UNL     1      58.733  46.683 139.884  1.00  0.00    -0.276 N 
HETATM   26  C4  UNL     1      57.628  47.490 139.488  1.00  0.00     0.180 C 
BRANCH  25  27
HETATM   27  C3  UNL     1      58.843  45.294 139.875  1.00  0.00     0.155 C 
BRANCH  27  28
HETATM   28  C2  UNL     1      57.850  44.337 140.228  1.00  0.00     0.047 C 
HETATM   29  C1  UNL     1      57.924  43.298 140.988  1.00  0.00     0.015 C 
ENDBRANCH  27  28
BRANCH  27  30
HETATM   30  O1  UNL     1      60.026  44.809 139.488  1.00  0.00    -0.345 OA
ATOM     31  H1  UNL     1      60.564  45.381 138.954  1.00  0.00     0.219 HD
ENDBRANCH  27  30
ENDBRANCH  25  27
ENDBRANCH  23  25
ENDBRANCH   1  22
BRANCH   5  32
HETATM   32  S1  UNL     1      64.290  51.046 143.818  1.00  0.00    -0.035 SA
BRANCH  32  33
HETATM   33  C9  UNL     1      64.291  50.670 145.570  1.00  0.00     0.191 C 
HETATM   34  O2  UNL     1      64.101  49.525 145.938  1.00  0.00    -0.285 OA
BRANCH  33  35
HETATM   35  C10 UNL     1      64.524  51.750 146.567  1.00  0.00     0.086 C 
HETATM   36  C11 UNL     1      64.526  53.115 145.863  1.00  0.00     0.013 C 
ENDBRANCH  33  35
ENDBRANCH  32  33
ENDBRANCH   5  32
TORSDOF 11
ENDMDL
MODEL 5
REMARK VINA RESULT: -7.886952104      1.390      1.828
REMARK  11 active torsions:
REMARK  status: ('A' for Active; 'I' for Inactive)
REMARK    1  A    between atoms: C2_2  and  C3_3 
REMARK    2  A    between atoms: C3_3  and  O1_4 
REMARK    3  A    between atoms: C3_3  and  N1_6 
REMARK    4  A    between atoms: N1_6  and  N2_8 
REMARK    5  A    between atoms: C5_10  and  C6_11 
REMARK    6  A    between atoms: C8_15  and  S1_16 
REMARK    7  A    between atoms: S1_16  and  C9_17 
REMARK    8  A    between atoms: C9_17  and  C10_19 
REMARK    9  A    between atoms: C13_22  and  N4_23 
REMARK   10  A    between atoms: N4_23  and  C14_25 
REMARK   11  A    between atoms: C14_25  and  C16_27 
REMARK       I    between atoms: C16_27  and  N5_29 
ROOT
HETATM    1  C6  UNL     1      63.154  52.565 127.139  1.00  0.00     0.023 A 
HETATM    2  C7  UNL     1      63.214  53.860 126.591  1.00  0.00     0.104 A 
HETATM    3  N3  UNL     1      63.530  54.898 127.379  1.00  0.00    -0.359 N 
ATOM      4  H3  UNL     1      63.571  55.834 126.976  1.00  0.00     0.166 HD
HETATM    5  C8  UNL     1      63.793  54.735 128.682  1.00  0.00     0.079 A 
HETATM    6  C12 UNL     1      63.738  53.484 129.220  1.00  0.00     0.067 A 
HETATM    7  C13 UNL     1      63.412  52.321 128.465  1.00  0.00     0.044 A 
ENDROOT
BRANCH   7   8
HETATM    8  N4  UNL     1      63.404  51.242 129.025  1.00  0.00    -0.376 N 
ATOM      9  H4  UNL     1      62.411  51.031 129.134  1.00  0.00     0.160 HD
BRANCH   8  10
HETATM   10  C14 UNL     1      64.026  50.169 129.584  1.00  0.00     0.170 C 
HETATM   11  C15 UNL     1      63.241  48.855 129.217  1.00  0.00     0.042 C 
BRANCH  10  12
HETATM   12  C16 UNL     1      64.099  50.080 131.060  1.00  0.00     0.242 C 
HETATM   13  O3  UNL     1      65.139  49.425 131.482  1.00  0.00    -0.271 OA
HETATM   14  N5  UNL     1      63.244  50.573 132.040  1.00  0.00    -0.349 N 
HETATM   15  C17 UNL     1      62.044  51.262 131.717  1.00  0.00     0.140 C 
HETATM   16  C20 UNL     1      63.632  50.356 133.447  1.00  0.00     0.140 C 
HETATM   17  C18 UNL     1      61.050  51.347 132.844  1.00  0.00     0.160 C 
HETATM   18  S2  UNL     1      61.068  49.941 133.905  1.00  0.00     0.147 S 
HETATM   19  O4  UNL     1      60.060  48.900 133.536  1.00  0.00    -0.228 OA
HETATM   20  O5  UNL     1      60.756  50.404 135.299  1.00  0.00    -0.228 OA
HETATM   21  C19 UNL     1      62.721  49.254 133.948  1.00  0.00     0.160 C 
ENDBRANCH  10  12
ENDBRANCH   8  10
ENDBRANCH   7   8
BRANCH   1  22
HETATM   22  C5  UNL     1      62.792  51.521 126.207  1.00  0.00     0.122 C 
HETATM   23  N2  UNL     1      61.717  51.686 125.472  1.00  0.00    -0.307 N 
ATOM     24  H2  UNL     1      61.137  52.522 125.537  1.00  0.00     0.186 HD
BRANCH  23  25
HETATM   25  N1  UNL     1      61.413  50.612 124.569  1.00  0.00    -0.276 N 
HETATM   26  C4  UNL     1      62.130  49.409 124.833  1.00  0.00     0.180 C 
BRANCH  25  27
HETATM   27  C3  UNL     1      60.475  50.865 123.571  1.00  0.00     0.155 C 
BRANCH  27  28
HETATM   28  C2  UNL     1      59.574  51.962 123.476  1.00  0.00     0.047 C 
HETATM   29  C1  UNL     1      59.122  52.585 122.442  1.00  0.00     0.015 C 
ENDBRANCH  27  28
BRANCH  27  30
HETATM   30  O1  UNL     1      60.420  49.964 122.586  1.00  0.00    -0.345 OA
ATOM     31  H1  UNL     1      61.056  49.258 122.621  1.00  0.00     0.219 HD
ENDBRANCH  27  30
ENDBRANCH  25  27
ENDBRANCH  23  25
ENDBRANCH   1  22
BRANCH   5  32
HETATM   32  S1  UNL     1      64.211  56.161 129.666  1.00  0.00    -0.035 SA
BRANCH  32  33
HETATM   33  C9  UNL     1      65.362  57.189 128.758  1.00  0.00     0.191 C 
HETATM   34  O2  UNL     1      65.265  57.274 127.547  1.00  0.00    -0.285 OA
BRANCH  33  35
HETATM   35  C10 UNL     1      66.430  57.935 129.479  1.00  0.00     0.086 C 
HETATM   36  C11 UNL     1      65.878  58.477 130.806  1.00  0.00     0.013 C 
ENDBRANCH  33  35
ENDBRANCH  32  33
ENDBRANCH   5  32
TORSDOF 11
ENDMDL
