MODEL 1
REMARK VINA RESULT: -7.857908002      0.000      0.000
REMARK  12 active torsions:
REMARK  status: ('A' for Active; 'I' for Inactive)
REMARK    1  A    between atoms: C2_2  and  O1_3 
REMARK    2  A    between atoms: O1_3  and  C3_4 
REMARK       I    between atoms: C3_4  and  N1_6 
REMARK    3  A    between atoms: N1_6  and  C4_7 
REMARK    4  A    between atoms: N1_6  and  C15_30 
REMARK    5  A    between atoms: C4_7  and  C5_8 
REMARK    6  A    between atoms: C5_8  and  C6_9 
REMARK    7  A    between atoms: C6_9  and  C7_10 
REMARK       I    between atoms: C7_10  and  N2_12 
REMARK    8  A    between atoms: N2_12  and  C8_14 
REMARK    9  A    between atoms: C9_19  and  S1_20 
REMARK   10  A    between atoms: S1_20  and  N5_23 
REMARK   11  A    between atoms: C15_30  and  O6_31 
REMARK   12  A    between atoms: C15_30  and  N6_33 
ROOT
HETATM    1  C7  UNL     1      63.439  52.192 128.394  1.00  0.00     0.223 C 
HETATM    2  O3  UNL     1      64.285  51.325 128.071  1.00  0.00    -0.273 OA
HETATM    3  N2  UNL     1      63.274  52.469 129.774  1.00  0.00    -0.306 N 
ATOM      4  H2  UNL     1      63.365  53.433 130.095  1.00  0.00     0.171 HD
ENDROOT
BRANCH   3   5
HETATM    5  C8  UNL     1      63.008  51.531 130.655  1.00  0.00     0.168 A 
HETATM    6  N3  UNL     1      62.948  50.206 130.488  1.00  0.00    -0.278 N 
HETATM    7  N4  UNL     1      62.673  49.476 131.487  1.00  0.00    -0.281 N 
ATOM      8  H3  UNL     1      63.122  49.790 129.573  1.00  0.00     0.189 HD
HETATM    9  C9  UNL     1      62.449  50.012 132.675  1.00  0.00     0.204 A 
ATOM     10  H4  UNL     1      62.625  48.464 131.373  1.00  0.00     0.188 HD
HETATM   11  S2  UNL     1      62.649  51.688 132.320  1.00  0.00    -0.020 SA
BRANCH   9  12
HETATM   12  S1  UNL     1      62.056  49.240 134.206  1.00  0.00     0.267 S 
HETATM   13  O4  UNL     1      63.388  49.066 134.925  1.00  0.00    -0.204 OA
HETATM   14  O5  UNL     1      61.537  47.885 133.916  1.00  0.00    -0.204 OA
BRANCH  12  15
HETATM   15  N5  UNL     1      61.057  50.173 135.206  1.00  0.00    -0.205 NA
HETATM   16  C10 UNL     1      61.677  50.691 136.384  1.00  0.00     0.107 C 
HETATM   17  C11 UNL     1      60.880  51.778 137.051  1.00  0.00     0.015 C 
HETATM   18  C12 UNL     1      59.409  51.677 136.717  1.00  0.00     0.002 C 
HETATM   19  C13 UNL     1      59.032  50.215 136.589  1.00  0.00     0.015 C 
HETATM   20  C14 UNL     1      59.797  49.527 135.497  1.00  0.00     0.107 C 
ENDBRANCH  12  15
ENDBRANCH   9  12
ENDBRANCH   3   5
BRANCH   1  21
HETATM   21  C6  UNL     1      62.624  52.921 127.430  1.00  0.00     0.105 C 
BRANCH  21  22
HETATM   22  C5  UNL     1      62.328  52.236 126.147  1.00  0.00     0.030 C 
BRANCH  22  23
HETATM   23  C4  UNL     1      60.969  51.646 126.035  1.00  0.00     0.138 C 
BRANCH  23  24
HETATM   24  N1  UNL     1      61.008  50.697 124.830  1.00  0.00    -0.259 N 
HETATM   25  C3  UNL     1      60.276  51.179 123.750  1.00  0.00     0.369 C 
HETATM   26  O2  UNL     1      60.100  50.660 122.636  1.00  0.00    -0.238 OA
BRANCH  25  27
HETATM   27  O1  UNL     1      59.609  52.440 123.873  1.00  0.00    -0.304 OA
BRANCH  27  28
HETATM   28  C2  UNL     1      59.743  53.352 122.803  1.00  0.00     0.176 C 
HETATM   29  C1  UNL     1      59.907  54.766 123.299  1.00  0.00     0.034 C 
ENDBRANCH  27  28
ENDBRANCH  25  27
BRANCH  24  30
HETATM   30  C15 UNL     1      61.743  49.533 124.993  1.00  0.00     0.225 C 
BRANCH  30  31
HETATM   31  O6  UNL     1      61.409  48.596 124.062  1.00  0.00    -0.332 OA
ATOM     32  H6  UNL     1      60.466  48.520 123.966  1.00  0.00     0.221 HD
ENDBRANCH  30  31
BRANCH  30  33
HETATM   33  N6  UNL     1      62.722  49.114 125.872  1.00  0.00    -0.356 N 
HETATM   34  C16 UNL     1      64.156  49.121 125.355  1.00  0.00     0.152 C 
HETATM   35  C17 UNL     1      62.647  48.653 127.213  1.00  0.00     0.152 C 
ENDBRANCH  30  33
ENDBRANCH  24  30
ENDBRANCH  23  24
ENDBRANCH  22  23
ENDBRANCH  21  22
ENDBRANCH   1  21
TORSDOF 12
ENDMDL
MODEL 2
REMARK VINA RESULT: -7.750532814      1.605      1.962
REMARK  12 active torsions:
REMARK  status: ('A' for Active; 'I' for Inactive)
REMARK    1  A    between atoms: C2_2  and  O1_3 
REMARK    2  A    between atoms: O1_3  and  C3_4 
REMARK       I    between atoms: C3_4  and  N1_6 
REMARK    3  A    between atoms: N1_6  and  C4_7 
REMARK    4  A    between atoms: N1_6  and  C15_30 
REMARK    5  A    between atoms: C4_7  and  C5_8 
REMARK    6  A    between atoms: C5_8  and  C6_9 
REMARK    7  A    between atoms: C6_9  and  C7_10 
REMARK       I    between atoms: C7_10  and  N2_12 
REMARK    8  A    between atoms: N2_12  and  C8_14 
REMARK    9  A    between atoms: C9_19  and  S1_20 
REMARK   10  A    between atoms: S1_20  and  N5_23 
REMARK   11  A    between atoms: C15_30  and  O6_31 
REMARK   12  A    between atoms: C15_30  and  N6_33 
ROOT
HETATM    1  C7  UNL     1      64.029  52.807 129.550  1.00  0.00     0.223 C 
HETATM    2  O3  UNL     1      65.137  52.224 129.624  1.00  0.00    -0.273 OA
HETATM    3  N2  UNL     1      63.349  53.085 130.762  1.00  0.00    -0.306 N 
ATOM      4  H2  UNL     1      63.062  54.045 130.955  1.00  0.00     0.171 HD
ENDROOT
BRANCH   3   5
HETATM    5  C8  UNL     1      63.072  52.153 131.645  1.00  0.00     0.168 A 
HETATM    6  N3  UNL     1      63.906  51.409 132.379  1.00  0.00    -0.278 N 
HETATM    7  N4  UNL     1      63.420  50.558 133.182  1.00  0.00    -0.281 N 
ATOM      8  H3  UNL     1      64.916  51.524 132.294  1.00  0.00     0.189 HD
HETATM    9  C9  UNL     1      62.111  50.407 133.296  1.00  0.00     0.204 A 
ATOM     10  H4  UNL     1      64.045  49.984 133.747  1.00  0.00     0.188 HD
HETATM   11  S2  UNL     1      61.547  51.576 132.161  1.00  0.00    -0.020 SA
BRANCH   9  12
HETATM   12  S1  UNL     1      61.185  49.318 134.322  1.00  0.00     0.267 S 
HETATM   13  O4  UNL     1      62.113  48.143 134.606  1.00  0.00    -0.204 OA
HETATM   14  O5  UNL     1      60.051  48.794 133.528  1.00  0.00    -0.204 OA
BRANCH  12  15
HETATM   15  N5  UNL     1      60.745  49.989 135.812  1.00  0.00    -0.205 NA
HETATM   16  C10 UNL     1      61.353  51.242 136.127  1.00  0.00     0.107 C 
HETATM   17  C11 UNL     1      60.687  51.961 137.267  1.00  0.00     0.015 C 
HETATM   18  C12 UNL     1      59.957  51.004 138.181  1.00  0.00     0.002 C 
HETATM   19  C13 UNL     1      60.728  49.702 138.248  1.00  0.00     0.015 C 
HETATM   20  C14 UNL     1      60.851  49.047 136.904  1.00  0.00     0.107 C 
ENDBRANCH  12  15
ENDBRANCH   9  12
ENDBRANCH   3   5
BRANCH   1  21
HETATM   21  C6  UNL     1      63.413  53.209 128.292  1.00  0.00     0.105 C 
BRANCH  21  22
HETATM   22  C5  UNL     1      63.231  52.152 127.266  1.00  0.00     0.030 C 
BRANCH  22  23
HETATM   23  C4  UNL     1      61.935  51.427 127.317  1.00  0.00     0.138 C 
BRANCH  23  24
HETATM   24  N1  UNL     1      62.149  50.105 126.570  1.00  0.00    -0.259 N 
HETATM   25  C3  UNL     1      61.496  50.076 125.342  1.00  0.00     0.369 C 
HETATM   26  O2  UNL     1      61.462  49.164 124.501  1.00  0.00    -0.238 OA
BRANCH  25  27
HETATM   27  O1  UNL     1      60.742  51.221 124.932  1.00  0.00    -0.304 OA
BRANCH  27  28
HETATM   28  C2  UNL     1      60.050  51.137 123.703  1.00  0.00     0.176 C 
HETATM   29  C1  UNL     1      59.572  52.491 123.244  1.00  0.00     0.034 C 
ENDBRANCH  27  28
ENDBRANCH  25  27
BRANCH  24  30
HETATM   30  C15 UNL     1      62.937  49.162 127.211  1.00  0.00     0.225 C 
BRANCH  30  31
HETATM   31  O6  UNL     1      63.120  48.054 126.439  1.00  0.00    -0.332 OA
ATOM     32  H6  UNL     1      63.292  47.284 126.969  1.00  0.00     0.221 HD
ENDBRANCH  30  31
BRANCH  30  33
HETATM   33  N6  UNL     1      63.570  49.092 128.437  1.00  0.00    -0.356 N 
HETATM   34  C16 UNL     1      65.093  49.082 128.422  1.00  0.00     0.152 C 
HETATM   35  C17 UNL     1      63.054  49.016 129.758  1.00  0.00     0.152 C 
ENDBRANCH  30  33
ENDBRANCH  24  30
ENDBRANCH  23  24
ENDBRANCH  22  23
ENDBRANCH  21  22
ENDBRANCH   1  21
TORSDOF 12
ENDMDL
MODEL 3
REMARK VINA RESULT: -7.712503096      0.800      3.093
REMARK  12 active torsions:
REMARK  status: ('A' for Active; 'I' for Inactive)
REMARK    1  A    between atoms: C2_2  and  O1_3 
REMARK    2  A    between atoms: O1_3  and  C3_4 
REMARK       I    between atoms: C3_4  and  N1_6 
REMARK    3  A    between atoms: N1_6  and  C4_7 
REMARK    4  A    between atoms: N1_6  and  C15_30 
REMARK    5  A    between atoms: C4_7  and  C5_8 
REMARK    6  A    between atoms: C5_8  and  C6_9 
REMARK    7  A    between atoms: C6_9  and  C7_10 
REMARK       I    between atoms: C7_10  and  N2_12 
REMARK    8  A    between atoms: N2_12  and  C8_14 
REMARK    9  A    between atoms: C9_19  and  S1_20 
REMARK   10  A    between atoms: S1_20  and  N5_23 
REMARK   11  A    between atoms: C15_30  and  O6_31 
REMARK   12  A    between atoms: C15_30  and  N6_33 
ROOT
HETATM    1  C7  UNL     1      63.487  52.146 128.382  1.00  0.00     0.223 C 
HETATM    2  O3  UNL     1      64.383  51.318 128.097  1.00  0.00    -0.273 OA
HETATM    3  N2  UNL     1      63.272  52.440 129.752  1.00  0.00    -0.306 N 
ATOM      4  H2  UNL     1      63.307  53.412 130.057  1.00  0.00     0.171 HD
ENDROOT
BRANCH   3   5
HETATM    5  C8  UNL     1      63.031  51.506 130.644  1.00  0.00     0.168 A 
HETATM    6  N3  UNL     1      63.082  50.176 130.512  1.00  0.00    -0.278 N 
HETATM    7  N4  UNL     1      62.809  49.452 131.515  1.00  0.00    -0.281 N 
ATOM      8  H3  UNL     1      63.336  49.753 129.619  1.00  0.00     0.189 HD
HETATM    9  C9  UNL     1      62.480  49.997 132.674  1.00  0.00     0.204 A 
ATOM     10  H4  UNL     1      62.844  48.436 131.427  1.00  0.00     0.188 HD
HETATM   11  S2  UNL     1      62.572  51.674 132.283  1.00  0.00    -0.020 SA
BRANCH   9  12
HETATM   12  S1  UNL     1      62.064  49.234 134.203  1.00  0.00     0.267 S 
HETATM   13  O4  UNL     1      63.387  49.050 134.937  1.00  0.00    -0.204 OA
HETATM   14  O5  UNL     1      61.535  47.883 133.913  1.00  0.00    -0.204 OA
BRANCH  12  15
HETATM   15  N5  UNL     1      61.064  50.179 135.191  1.00  0.00    -0.205 NA
HETATM   16  C10 UNL     1      61.678  50.697 136.372  1.00  0.00     0.107 C 
HETATM   17  C11 UNL     1      60.884  51.793 137.027  1.00  0.00     0.015 C 
HETATM   18  C12 UNL     1      59.416  51.704 136.680  1.00  0.00     0.002 C 
HETATM   19  C13 UNL     1      59.027  50.245 136.554  1.00  0.00     0.015 C 
HETATM   20  C14 UNL     1      59.795  49.546 135.472  1.00  0.00     0.107 C 
ENDBRANCH  12  15
ENDBRANCH   9  12
ENDBRANCH   3   5
BRANCH   1  21
HETATM   21  C6  UNL     1      62.663  52.816 127.384  1.00  0.00     0.105 C 
BRANCH  21  22
HETATM   22  C5  UNL     1      62.370  52.062 126.140  1.00  0.00     0.030 C 
BRANCH  22  23
HETATM   23  C4  UNL     1      61.030  51.423 126.079  1.00  0.00     0.138 C 
BRANCH  23  24
HETATM   24  N1  UNL     1      61.005  50.594 124.789  1.00  0.00    -0.259 N 
HETATM   25  C3  UNL     1      61.633  49.362 124.936  1.00  0.00     0.369 C 
HETATM   26  O2  UNL     1      61.789  48.463 124.094  1.00  0.00    -0.238 OA
BRANCH  25  27
HETATM   27  O1  UNL     1      62.197  49.019 126.206  1.00  0.00    -0.304 OA
BRANCH  27  28
HETATM   28  C2  UNL     1      63.526  48.540 126.219  1.00  0.00     0.176 C 
HETATM   29  C1  UNL     1      63.923  48.052 127.588  1.00  0.00     0.034 C 
ENDBRANCH  27  28
ENDBRANCH  25  27
BRANCH  24  30
HETATM   30  C15 UNL     1      60.381  51.180 123.699  1.00  0.00     0.225 C 
BRANCH  30  31
HETATM   31  O6  UNL     1      60.209  50.289 122.682  1.00  0.00    -0.332 OA
ATOM     32  H6  UNL     1      61.024  49.858 122.454  1.00  0.00     0.221 HD
ENDBRANCH  30  31
BRANCH  30  33
HETATM   33  N6  UNL     1      59.900  52.443 123.414  1.00  0.00    -0.356 N 
HETATM   34  C16 UNL     1      59.093  52.596 122.130  1.00  0.00     0.152 C 
HETATM   35  C17 UNL     1      60.026  53.676 124.108  1.00  0.00     0.152 C 
ENDBRANCH  30  33
ENDBRANCH  24  30
ENDBRANCH  23  24
ENDBRANCH  22  23
ENDBRANCH  21  22
ENDBRANCH   1  21
TORSDOF 12
ENDMDL
MODEL 4
REMARK VINA RESULT: -7.673463073      3.464     11.232
REMARK  12 active torsions:
REMARK  status: ('A' for Active; 'I' for Inactive)
REMARK    1  A    between atoms: C2_2  and  O1_3 
REMARK    2  A    between atoms: O1_3  and  C3_4 
REMARK       I    between atoms: C3_4  and  N1_6 
REMARK    3  A    between atoms: N1_6  and  C4_7 
REMARK    4  A    between atoms: N1_6  and  C15_30 
REMARK    5  A    between atoms: C4_7  and  C5_8 
REMARK    6  A    between atoms: C5_8  and  C6_9 
REMARK    7  A    between atoms: C6_9  and  C7_10 
REMARK       I    between atoms: C7_10  and  N2_12 
REMARK    8  A    between atoms: N2_12  and  C8_14 
REMARK    9  A    between atoms: C9_19  and  S1_20 
REMARK   10  A    between atoms: S1_20  and  N5_23 
REMARK   11  A    between atoms: C15_30  and  O6_31 
REMARK   12  A    between atoms: C15_30  and  N6_33 
ROOT
HETATM    1  C7  UNL     1      60.966  50.197 134.768  1.00  0.00     0.223 C 
HETATM    2  O3  UNL     1      61.345  49.079 135.191  1.00  0.00    -0.273 OA
HETATM    3  N2  UNL     1      60.756  50.337 133.373  1.00  0.00    -0.306 N 
ATOM      4  H2  UNL     1      59.853  50.677 133.045  1.00  0.00     0.171 HD
ENDROOT
BRANCH   3   5
HETATM    5  C8  UNL     1      61.682  50.045 132.489  1.00  0.00     0.168 A 
HETATM    6  N3  UNL     1      62.113  48.848 132.077  1.00  0.00    -0.278 N 
HETATM    7  N4  UNL     1      63.026  48.794 131.201  1.00  0.00    -0.281 N 
ATOM      8  H3  UNL     1      61.712  47.992 132.462  1.00  0.00     0.189 HD
HETATM    9  C9  UNL     1      63.547  49.901 130.699  1.00  0.00     0.204 A 
ATOM     10  H4  UNL     1      63.363  47.887 130.879  1.00  0.00     0.188 HD
HETATM   11  S2  UNL     1      62.652  51.101 131.556  1.00  0.00    -0.020 SA
BRANCH   9  12
HETATM   12  S1  UNL     1      64.805  50.109 129.487  1.00  0.00     0.267 S 
HETATM   13  O4  UNL     1      65.708  48.890 129.628  1.00  0.00    -0.204 OA
HETATM   14  O5  UNL     1      65.610  51.293 129.861  1.00  0.00    -0.204 OA
BRANCH  12  15
HETATM   15  N5  UNL     1      64.226  50.131 127.895  1.00  0.00    -0.205 NA
HETATM   16  C10 UNL     1      63.028  50.878 127.686  1.00  0.00     0.107 C 
HETATM   17  C11 UNL     1      62.745  51.162 126.237  1.00  0.00     0.015 C 
HETATM   18  C12 UNL     1      63.401  50.146 125.330  1.00  0.00     0.002 C 
HETATM   19  C13 UNL     1      63.392  48.794 126.016  1.00  0.00     0.015 C 
HETATM   20  C14 UNL     1      64.151  48.811 127.309  1.00  0.00     0.107 C 
ENDBRANCH  12  15
ENDBRANCH   9  12
ENDBRANCH   3   5
BRANCH   1  21
HETATM   21  C6  UNL     1      60.732  51.348 135.631  1.00  0.00     0.105 C 
BRANCH  21  22
HETATM   22  C5  UNL     1      61.260  51.267 137.016  1.00  0.00     0.030 C 
BRANCH  22  23
HETATM   23  C4  UNL     1      60.257  51.450 138.096  1.00  0.00     0.138 C 
BRANCH  23  24
HETATM   24  N1  UNL     1      60.196  50.121 138.860  1.00  0.00    -0.259 N 
HETATM   25  C3  UNL     1      60.752  50.212 140.131  1.00  0.00     0.369 C 
HETATM   26  O2  UNL     1      60.865  49.329 140.996  1.00  0.00    -0.238 OA
BRANCH  25  27
HETATM   27  O1  UNL     1      61.286  51.467 140.565  1.00  0.00    -0.304 OA
BRANCH  27  28
HETATM   28  C2  UNL     1      61.012  51.866 141.892  1.00  0.00     0.176 C 
HETATM   29  C1  UNL     1      59.650  52.501 142.009  1.00  0.00     0.034 C 
ENDBRANCH  27  28
ENDBRANCH  25  27
BRANCH  24  30
HETATM   30  C15 UNL     1      59.614  49.057 138.188  1.00  0.00     0.225 C 
BRANCH  30  31
HETATM   31  O6  UNL     1      60.504  48.044 137.988  1.00  0.00    -0.332 OA
ATOM     32  H6  UNL     1      60.064  47.228 137.783  1.00  0.00     0.221 HD
ENDBRANCH  30  31
BRANCH  30  33
HETATM   33  N6  UNL     1      58.356  48.795 137.682  1.00  0.00    -0.356 N 
HETATM   34  C16 UNL     1      57.460  47.884 138.513  1.00  0.00     0.152 C 
HETATM   35  C17 UNL     1      57.715  49.219 136.488  1.00  0.00     0.152 C 
ENDBRANCH  30  33
ENDBRANCH  24  30
ENDBRANCH  23  24
ENDBRANCH  22  23
ENDBRANCH  21  22
ENDBRANCH   1  21
TORSDOF 12
ENDMDL
MODEL 5
REMARK VINA RESULT: -7.618118527      3.436     11.263
REMARK  12 active torsions:
REMARK  status: ('A' for Active; 'I' for Inactive)
REMARK    1  A    between atoms: C2_2  and  O1_3 
REMARK    2  A    between atoms: O1_3  and  C3_4 
REMARK       I    between atoms: C3_4  and  N1_6 
REMARK    3  A    between atoms: N1_6  and  C4_7 
REMARK    4  A    between atoms: N1_6  and  C15_30 
REMARK    5  A    between atoms: C4_7  and  C5_8 
REMARK    6  A    between atoms: C5_8  and  C6_9 
REMARK    7  A    between atoms: C6_9  and  C7_10 
REMARK       I    between atoms: C7_10  and  N2_12 
REMARK    8  A    between atoms: N2_12  and  C8_14 
REMARK    9  A    between atoms: C9_19  and  S1_20 
REMARK   10  A    between atoms: S1_20  and  N5_23 
REMARK   11  A    between atoms: C15_30  and  O6_31 
REMARK   12  A    between atoms: C15_30  and  N6_33 
ROOT
HETATM    1  C7  UNL     1      61.579  48.710 135.283  1.00  0.00     0.223 C 
HETATM    2  O3  UNL     1      62.322  47.701 135.252  1.00  0.00    -0.273 OA
HETATM    3  N2  UNL     1      60.950  49.102 134.074  1.00  0.00    -0.306 N 
ATOM      4  H2  UNL     1      59.936  49.210 134.062  1.00  0.00     0.171 HD
ENDROOT
BRANCH   3   5
HETATM    5  C8  UNL     1      61.624  49.331 132.971  1.00  0.00     0.168 A 
HETATM    6  N3  UNL     1      62.223  48.463 132.149  1.00  0.00    -0.278 N 
HETATM    7  N4  UNL     1      62.824  48.905 131.125  1.00  0.00    -0.281 N 
ATOM      8  H3  UNL     1      62.196  47.462 132.343  1.00  0.00     0.189 HD
HETATM    9  C9  UNL     1      62.860  50.202 130.870  1.00  0.00     0.204 A 
ATOM     10  H4  UNL     1      63.285  48.253 130.491  1.00  0.00     0.188 HD
HETATM   11  S2  UNL     1      61.963  50.822 132.205  1.00  0.00    -0.020 SA
BRANCH   9  12
HETATM   12  S1  UNL     1      63.611  51.070 129.537  1.00  0.00     0.267 S 
HETATM   13  O4  UNL     1      65.097  51.119 129.872  1.00  0.00    -0.204 OA
HETATM   14  O5  UNL     1      63.113  52.464 129.559  1.00  0.00    -0.204 OA
BRANCH  12  15
HETATM   15  N5  UNL     1      63.454  50.295 128.039  1.00  0.00    -0.205 NA
HETATM   16  C10 UNL     1      64.356  49.212 127.810  1.00  0.00     0.107 C 
HETATM   17  C11 UNL     1      63.964  48.343 126.647  1.00  0.00     0.015 C 
HETATM   18  C12 UNL     1      63.108  49.094 125.652  1.00  0.00     0.002 C 
HETATM   19  C13 UNL     1      63.563  50.538 125.601  1.00  0.00     0.015 C 
HETATM   20  C14 UNL     1      63.426  51.222 126.930  1.00  0.00     0.107 C 
ENDBRANCH  12  15
ENDBRANCH   9  12
ENDBRANCH   3   5
BRANCH   1  21
HETATM   21  C6  UNL     1      61.332  49.493 136.487  1.00  0.00     0.105 C 
BRANCH  21  22
HETATM   22  C5  UNL     1      60.552  48.837 137.566  1.00  0.00     0.030 C 
BRANCH  22  23
HETATM   23  C4  UNL     1      59.245  49.467 137.885  1.00  0.00     0.138 C 
BRANCH  23  24
HETATM   24  N1  UNL     1      58.513  48.495 138.820  1.00  0.00    -0.259 N 
HETATM   25  C3  UNL     1      57.344  47.996 138.257  1.00  0.00     0.369 C 
HETATM   26  O2  UNL     1      56.525  47.200 138.744  1.00  0.00    -0.238 OA
BRANCH  25  27
HETATM   27  O1  UNL     1      56.975  48.415 136.939  1.00  0.00    -0.304 OA
BRANCH  27  28
HETATM   28  C2  UNL     1      55.865  47.778 136.341  1.00  0.00     0.176 C 
HETATM   29  C1  UNL     1      54.740  48.749 136.090  1.00  0.00     0.034 C 
ENDBRANCH  27  28
ENDBRANCH  25  27
BRANCH  24  30
HETATM   30  C15 UNL     1      59.108  48.268 140.051  1.00  0.00     0.225 C 
BRANCH  30  31
HETATM   31  O6  UNL     1      59.014  46.959 140.418  1.00  0.00    -0.332 OA
ATOM     32  H6  UNL     1      59.366  46.815 141.289  1.00  0.00     0.221 HD
ENDBRANCH  30  31
BRANCH  30  33
HETATM   33  N6  UNL     1      59.763  49.056 140.977  1.00  0.00    -0.356 N 
HETATM   34  C16 UNL     1      61.082  48.521 141.521  1.00  0.00     0.152 C 
HETATM   35  C17 UNL     1      59.429  50.313 141.547  1.00  0.00     0.152 C 
ENDBRANCH  30  33
ENDBRANCH  24  30
ENDBRANCH  23  24
ENDBRANCH  22  23
ENDBRANCH  21  22
ENDBRANCH   1  21
TORSDOF 12
ENDMDL
