MODEL 1
REMARK VINA RESULT: -7.775177627      0.000      0.000
REMARK  9 active torsions:
REMARK  status: ('A' for Active; 'I' for Inactive)
REMARK    1  A    between atoms: C2_2  and  O1_3 
REMARK    2  A    between atoms: O1_3  and  C3_4 
REMARK    3  A    between atoms: C3_4  and  C4_6 
REMARK    4  A    between atoms: C4_6  and  C5_7 
REMARK    5  A    between atoms: C5_7  and  C6_8 
REMARK    6  A    between atoms: C6_8  and  O4_10 
REMARK    7  A    between atoms: O4_10  and  C7_11 
REMARK    8  A    between atoms: C15_22  and  N2_23 
REMARK    9  A    between atoms: C21_30  and  N3_31 
REMARK       I    between atoms: N3_31  and  C23_33 
ROOT
HETATM    1  C7  UNL     1      63.333  52.631 128.397  1.00  0.00     0.165 C 
HETATM    2  C8  UNL     1      63.296  54.030 128.677  1.00  0.00     0.066 C 
HETATM    3  C9  UNL     1      64.266  54.854 127.791  1.00  0.00     0.177 C 
HETATM    4  O5  UNL     1      63.791  56.139 128.147  1.00  0.00    -0.384 OA
HETATM    5  C10 UNL     1      63.887  56.105 129.520  1.00  0.00     0.140 C 
HETATM    6  C11 UNL     1      65.298  56.461 129.896  1.00  0.00     0.041 C 
HETATM    7  C12 UNL     1      63.513  54.676 129.960  1.00  0.00     0.114 C 
HETATM    8  N1  UNL     1      64.570  54.249 130.789  1.00  0.00    -0.408 N 
ATOM      9  H1  UNL     1      65.335  54.871 131.048  1.00  0.00     0.154 HD
HETATM   10  C13 UNL     1      64.510  52.907 131.243  1.00  0.00     0.098 C 
HETATM   11  C14 UNL     1      63.116  52.545 131.646  1.00  0.00     0.034 C 
HETATM   12  C15 UNL     1      65.070  52.054 130.132  1.00  0.00     0.135 C 
HETATM   13  C21 UNL     1      63.987  51.601 129.245  1.00  0.00     0.141 C 
ENDROOT
BRANCH   1  14
HETATM   14  O4  UNL     1      62.006  52.134 128.142  1.00  0.00    -0.313 OA
BRANCH  14  15
HETATM   15  C6  UNL     1      61.461  51.971 126.903  1.00  0.00     0.259 C 
HETATM   16  O3  UNL     1      60.330  52.441 126.674  1.00  0.00    -0.265 OA
BRANCH  15  17
HETATM   17  C5  UNL     1      62.244  51.236 125.877  1.00  0.00     0.121 C 
BRANCH  17  18
HETATM   18  C4  UNL     1      61.531  49.913 125.625  1.00  0.00     0.121 C 
BRANCH  18  19
HETATM   19  C3  UNL     1      61.229  49.733 124.195  1.00  0.00     0.259 C 
HETATM   20  O2  UNL     1      61.279  48.571 123.728  1.00  0.00    -0.265 OA
BRANCH  19  21
HETATM   21  O1  UNL     1      60.894  50.756 123.331  1.00  0.00    -0.322 OA
BRANCH  21  22
HETATM   22  C2  UNL     1      59.612  51.331 123.244  1.00  0.00     0.174 C 
HETATM   23  C1  UNL     1      59.638  52.822 123.098  1.00  0.00     0.034 C 
ENDBRANCH  21  22
ENDBRANCH  19  21
ENDBRANCH  18  19
ENDBRANCH  17  18
ENDBRANCH  15  17
ENDBRANCH  14  15
ENDBRANCH   1  14
BRANCH  13  24
HETATM   24  N3  UNL     1      64.488  50.536 128.399  1.00  0.00    -0.347 N 
HETATM   25  C22 UNL     1      65.585  50.825 127.508  1.00  0.00     0.153 C 
HETATM   26  C23 UNL     1      63.984  49.213 128.408  1.00  0.00     0.215 C 
HETATM   27  C24 UNL     1      64.575  48.205 127.496  1.00  0.00     0.117 C 
HETATM   28  O7  UNL     1      63.049  48.795 129.138  1.00  0.00    -0.274 OA
ENDBRANCH  13  24
BRANCH  12  29
HETATM   29  N2  UNL     1      65.833  51.003 130.739  1.00  0.00    -0.339 N 
HETATM   30  C16 UNL     1      65.289  49.995 131.622  1.00  0.00     0.220 C 
HETATM   31  O6  UNL     1      64.075  49.727 131.802  1.00  0.00    -0.273 OA
HETATM   32  C17 UNL     1      66.378  49.278 132.326  1.00  0.00     0.105 C 
HETATM   33  C18 UNL     1      67.646  50.007 131.938  1.00  0.00     0.034 C 
HETATM   34  C19 UNL     1      67.231  50.657 130.635  1.00  0.00     0.084 C 
HETATM   35  C20 UNL     1      67.464  49.576 129.584  1.00  0.00     0.032 C 
ENDBRANCH  12  29
TORSDOF 9
ENDMDL
MODEL 2
REMARK VINA RESULT: -7.378495464     10.715     14.631
REMARK  9 active torsions:
REMARK  status: ('A' for Active; 'I' for Inactive)
REMARK    1  A    between atoms: C2_2  and  O1_3 
REMARK    2  A    between atoms: O1_3  and  C3_4 
REMARK    3  A    between atoms: C3_4  and  C4_6 
REMARK    4  A    between atoms: C4_6  and  C5_7 
REMARK    5  A    between atoms: C5_7  and  C6_8 
REMARK    6  A    between atoms: C6_8  and  O4_10 
REMARK    7  A    between atoms: O4_10  and  C7_11 
REMARK    8  A    between atoms: C15_22  and  N2_23 
REMARK    9  A    between atoms: C21_30  and  N3_31 
REMARK       I    between atoms: N3_31  and  C23_33 
ROOT
HETATM    1  C7  UNL     1      59.478  50.506 141.904  1.00  0.00     0.165 C 
HETATM    2  C8  UNL     1      59.403  51.871 142.314  1.00  0.00     0.066 C 
HETATM    3  C9  UNL     1      57.949  52.405 142.389  1.00  0.00     0.177 C 
HETATM    4  O5  UNL     1      58.238  53.628 143.040  1.00  0.00    -0.384 OA
HETATM    5  C10 UNL     1      59.187  54.175 142.206  1.00  0.00     0.140 C 
HETATM    6  C11 UNL     1      58.472  54.876 141.084  1.00  0.00     0.041 C 
HETATM    7  C12 UNL     1      60.060  53.011 141.699  1.00  0.00     0.114 C 
HETATM    8  N1  UNL     1      60.075  53.137 140.294  1.00  0.00    -0.408 N 
ATOM      9  H1  UNL     1      59.634  53.925 139.820  1.00  0.00     0.154 HD
HETATM   10  C13 UNL     1      60.737  52.108 139.578  1.00  0.00     0.098 C 
HETATM   11  C14 UNL     1      62.012  51.723 140.259  1.00  0.00     0.034 C 
HETATM   12  C15 UNL     1      59.747  50.977 139.441  1.00  0.00     0.135 C 
HETATM   13  C21 UNL     1      59.898  50.034 140.560  1.00  0.00     0.141 C 
ENDROOT
BRANCH   1  14
HETATM   14  O4  UNL     1      60.258  49.742 142.843  1.00  0.00    -0.313 OA
BRANCH  14  15
HETATM   15  C6  UNL     1      61.616  49.626 142.813  1.00  0.00     0.259 C 
HETATM   16  O3  UNL     1      62.121  48.567 142.392  1.00  0.00    -0.265 OA
BRANCH  15  17
HETATM   17  C5  UNL     1      62.435  50.771 143.286  1.00  0.00     0.121 C 
BRANCH  17  18
HETATM   18  C4  UNL     1      63.787  50.213 143.713  1.00  0.00     0.121 C 
BRANCH  18  19
HETATM   19  C3  UNL     1      63.851  50.027 145.172  1.00  0.00     0.259 C 
HETATM   20  O2  UNL     1      63.714  48.864 145.621  1.00  0.00    -0.265 OA
BRANCH  19  21
HETATM   21  O1  UNL     1      64.051  51.045 146.083  1.00  0.00    -0.322 OA
BRANCH  21  22
HETATM   22  C2  UNL     1      64.986  52.084 145.917  1.00  0.00     0.174 C 
HETATM   23  C1  UNL     1      64.358  53.399 145.570  1.00  0.00     0.034 C 
ENDBRANCH  21  22
ENDBRANCH  19  21
ENDBRANCH  18  19
ENDBRANCH  17  18
ENDBRANCH  15  17
ENDBRANCH  14  15
ENDBRANCH   1  14
BRANCH  13  24
HETATM   24  N3  UNL     1      59.185  48.811 140.242  1.00  0.00    -0.347 N 
HETATM   25  C22 UNL     1      57.743  48.835 140.249  1.00  0.00     0.153 C 
HETATM   26  C23 UNL     1      59.818  47.593 139.896  1.00  0.00     0.215 C 
HETATM   27  C24 UNL     1      58.987  46.405 139.590  1.00  0.00     0.117 C 
HETATM   28  O7  UNL     1      61.061  47.412 139.823  1.00  0.00    -0.274 OA
ENDBRANCH  13  24
BRANCH  12  29
HETATM   29  N2  UNL     1      59.925  50.404 138.139  1.00  0.00    -0.339 N 
HETATM   30  C16 UNL     1      58.859  50.171 137.190  1.00  0.00     0.220 C 
HETATM   31  O6  UNL     1      57.692  50.637 137.237  1.00  0.00    -0.273 OA
HETATM   32  C17 UNL     1      59.318  49.278 136.100  1.00  0.00     0.105 C 
HETATM   33  C18 UNL     1      60.707  48.839 136.509  1.00  0.00     0.034 C 
HETATM   34  C19 UNL     1      61.110  49.958 137.447  1.00  0.00     0.084 C 
HETATM   35  C20 UNL     1      61.662  51.042 136.526  1.00  0.00     0.032 C 
ENDBRANCH  12  29
TORSDOF 9
ENDMDL
MODEL 3
REMARK VINA RESULT: -7.365430076      0.903      1.263
REMARK  9 active torsions:
REMARK  status: ('A' for Active; 'I' for Inactive)
REMARK    1  A    between atoms: C2_2  and  O1_3 
REMARK    2  A    between atoms: O1_3  and  C3_4 
REMARK    3  A    between atoms: C3_4  and  C4_6 
REMARK    4  A    between atoms: C4_6  and  C5_7 
REMARK    5  A    between atoms: C5_7  and  C6_8 
REMARK    6  A    between atoms: C6_8  and  O4_10 
REMARK    7  A    between atoms: O4_10  and  C7_11 
REMARK    8  A    between atoms: C15_22  and  N2_23 
REMARK    9  A    between atoms: C21_30  and  N3_31 
REMARK       I    between atoms: N3_31  and  C23_33 
ROOT
HETATM    1  C7  UNL     1      63.263  52.597 128.292  1.00  0.00     0.165 C 
HETATM    2  C8  UNL     1      63.240  53.979 128.646  1.00  0.00     0.066 C 
HETATM    3  C9  UNL     1      64.212  54.841 127.800  1.00  0.00     0.177 C 
HETATM    4  O5  UNL     1      63.750  56.109 128.227  1.00  0.00    -0.384 OA
HETATM    5  C10 UNL     1      63.853  56.001 129.596  1.00  0.00     0.140 C 
HETATM    6  C11 UNL     1      65.269  56.324 129.983  1.00  0.00     0.041 C 
HETATM    7  C12 UNL     1      63.469  54.554 129.960  1.00  0.00     0.114 C 
HETATM    8  N1  UNL     1      64.526  54.074 130.760  1.00  0.00    -0.408 N 
ATOM      9  H1  UNL     1      65.298  54.675 131.047  1.00  0.00     0.154 HD
HETATM   10  C13 UNL     1      64.458  52.710 131.142  1.00  0.00     0.098 C 
HETATM   11  C14 UNL     1      63.063  52.338 131.532  1.00  0.00     0.034 C 
HETATM   12  C15 UNL     1      65.005  51.913 129.983  1.00  0.00     0.135 C 
HETATM   13  C21 UNL     1      63.913  51.518 129.080  1.00  0.00     0.141 C 
ENDROOT
BRANCH   1  14
HETATM   14  O4  UNL     1      61.931  52.125 128.018  1.00  0.00    -0.313 OA
BRANCH  14  15
HETATM   15  C6  UNL     1      61.386  52.013 126.773  1.00  0.00     0.259 C 
HETATM   16  O3  UNL     1      60.270  52.525 126.555  1.00  0.00    -0.265 OA
BRANCH  15  17
HETATM   17  C5  UNL     1      62.149  51.283 125.729  1.00  0.00     0.121 C 
BRANCH  17  18
HETATM   18  C4  UNL     1      61.431  49.962 125.484  1.00  0.00     0.121 C 
BRANCH  18  19
HETATM   19  C3  UNL     1      61.116  49.782 124.057  1.00  0.00     0.259 C 
HETATM   20  O2  UNL     1      61.172  48.620 123.587  1.00  0.00    -0.265 OA
BRANCH  19  21
HETATM   21  O1  UNL     1      60.763  50.803 123.198  1.00  0.00    -0.322 OA
BRANCH  21  22
HETATM   22  C2  UNL     1      59.486  51.394 123.153  1.00  0.00     0.174 C 
HETATM   23  C1  UNL     1      59.525  52.880 122.965  1.00  0.00     0.034 C 
ENDBRANCH  21  22
ENDBRANCH  19  21
ENDBRANCH  18  19
ENDBRANCH  17  18
ENDBRANCH  15  17
ENDBRANCH  14  15
ENDBRANCH   1  14
BRANCH  13  24
HETATM   24  N3  UNL     1      64.401  50.496 128.174  1.00  0.00    -0.347 N 
HETATM   25  C22 UNL     1      65.515  50.813 127.314  1.00  0.00     0.153 C 
HETATM   26  C23 UNL     1      63.868  49.186 128.096  1.00  0.00     0.215 C 
HETATM   27  C24 UNL     1      64.447  48.223 127.130  1.00  0.00     0.117 C 
HETATM   28  O7  UNL     1      62.915  48.745 128.790  1.00  0.00    -0.274 OA
ENDBRANCH  13  24
BRANCH  12  29
HETATM   29  N2  UNL     1      65.762  50.825 130.528  1.00  0.00    -0.339 N 
HETATM   30  C16 UNL     1      67.195  50.838 130.729  1.00  0.00     0.220 C 
HETATM   31  O6  UNL     1      67.951  51.841 130.699  1.00  0.00    -0.273 OA
HETATM   32  C17 UNL     1      67.696  49.468 130.987  1.00  0.00     0.105 C 
HETATM   33  C18 UNL     1      66.499  48.565 130.786  1.00  0.00     0.034 C 
HETATM   34  C19 UNL     1      65.354  49.529 131.016  1.00  0.00     0.084 C 
HETATM   35  C20 UNL     1      65.165  49.535 132.530  1.00  0.00     0.032 C 
ENDBRANCH  12  29
TORSDOF 9
ENDMDL
MODEL 4
REMARK VINA RESULT: -7.172098528      1.155      1.598
REMARK  9 active torsions:
REMARK  status: ('A' for Active; 'I' for Inactive)
REMARK    1  A    between atoms: C2_2  and  O1_3 
REMARK    2  A    between atoms: O1_3  and  C3_4 
REMARK    3  A    between atoms: C3_4  and  C4_6 
REMARK    4  A    between atoms: C4_6  and  C5_7 
REMARK    5  A    between atoms: C5_7  and  C6_8 
REMARK    6  A    between atoms: C6_8  and  O4_10 
REMARK    7  A    between atoms: O4_10  and  C7_11 
REMARK    8  A    between atoms: C15_22  and  N2_23 
REMARK    9  A    between atoms: C21_30  and  N3_31 
REMARK       I    between atoms: N3_31  and  C23_33 
ROOT
HETATM    1  C7  UNL     1      63.413  52.936 128.364  1.00  0.00     0.165 C 
HETATM    2  C8  UNL     1      63.397  54.314 128.734  1.00  0.00     0.066 C 
HETATM    3  C9  UNL     1      64.530  55.137 128.068  1.00  0.00     0.177 C 
HETATM    4  O5  UNL     1      64.064  56.421 128.438  1.00  0.00    -0.384 OA
HETATM    5  C10 UNL     1      63.944  56.295 129.803  1.00  0.00     0.140 C 
HETATM    6  C11 UNL     1      65.294  56.546 130.415  1.00  0.00     0.041 C 
HETATM    7  C12 UNL     1      63.440  54.864 130.078  1.00  0.00     0.114 C 
HETATM    8  N1  UNL     1      64.334  54.327 131.026  1.00  0.00    -0.408 N 
ATOM      9  H1  UNL     1      65.077  54.887 131.442  1.00  0.00     0.154 HD
HETATM   10  C13 UNL     1      64.143  52.964 131.369  1.00  0.00     0.098 C 
HETATM   11  C14 UNL     1      62.688  52.656 131.527  1.00  0.00     0.034 C 
HETATM   12  C15 UNL     1      64.831  52.153 130.298  1.00  0.00     0.135 C 
HETATM   13  C21 UNL     1      63.879  51.819 129.226  1.00  0.00     0.141 C 
ENDROOT
BRANCH   1  14
HETATM   14  O4  UNL     1      62.121  52.532 127.875  1.00  0.00    -0.313 OA
BRANCH  14  15
HETATM   15  C6  UNL     1      61.845  52.215 126.578  1.00  0.00     0.259 C 
HETATM   16  O3  UNL     1      62.791  52.034 125.786  1.00  0.00    -0.265 OA
BRANCH  15  17
HETATM   17  C5  UNL     1      60.423  52.098 126.164  1.00  0.00     0.121 C 
BRANCH  17  18
HETATM   18  C4  UNL     1      60.296  50.827 125.333  1.00  0.00     0.121 C 
BRANCH  18  19
HETATM   19  C3  UNL     1      60.065  51.139 123.913  1.00  0.00     0.259 C 
HETATM   20  O2  UNL     1      60.660  50.443 123.056  1.00  0.00    -0.265 OA
BRANCH  19  21
HETATM   21  O1  UNL     1      59.237  52.146 123.457  1.00  0.00    -0.322 OA
BRANCH  21  22
HETATM   22  C2  UNL     1      59.661  53.205 122.632  1.00  0.00     0.174 C 
HETATM   23  C1  UNL     1      59.746  54.519 123.348  1.00  0.00     0.034 C 
ENDBRANCH  21  22
ENDBRANCH  19  21
ENDBRANCH  18  19
ENDBRANCH  17  18
ENDBRANCH  15  17
ENDBRANCH  14  15
ENDBRANCH   1  14
BRANCH  13  24
HETATM   24  N3  UNL     1      64.458  50.784 128.392  1.00  0.00    -0.347 N 
HETATM   25  C22 UNL     1      65.783  50.989 127.861  1.00  0.00     0.153 C 
HETATM   26  C23 UNL     1      63.811  49.562 128.083  1.00  0.00     0.215 C 
HETATM   27  C24 UNL     1      64.500  48.576 127.218  1.00  0.00     0.117 C 
HETATM   28  O7  UNL     1      62.669  49.221 128.484  1.00  0.00    -0.274 OA
ENDBRANCH  13  24
BRANCH  12  29
HETATM   29  N2  UNL     1      65.441  51.025 130.937  1.00  0.00    -0.339 N 
HETATM   30  C16 UNL     1      66.741  51.041 131.571  1.00  0.00     0.220 C 
HETATM   31  O6  UNL     1      67.417  52.055 131.877  1.00  0.00    -0.273 OA
HETATM   32  C17 UNL     1      67.210  49.659 131.831  1.00  0.00     0.105 C 
HETATM   33  C18 UNL     1      66.180  48.763 131.180  1.00  0.00     0.034 C 
HETATM   34  C19 UNL     1      64.971  49.675 131.142  1.00  0.00     0.084 C 
HETATM   35  C20 UNL     1      64.330  49.508 132.516  1.00  0.00     0.032 C 
ENDBRANCH  12  29
TORSDOF 9
ENDMDL
MODEL 5
REMARK VINA RESULT: -7.020246405     10.762     14.510
REMARK  9 active torsions:
REMARK  status: ('A' for Active; 'I' for Inactive)
REMARK    1  A    between atoms: C2_2  and  O1_3 
REMARK    2  A    between atoms: O1_3  and  C3_4 
REMARK    3  A    between atoms: C3_4  and  C4_6 
REMARK    4  A    between atoms: C4_6  and  C5_7 
REMARK    5  A    between atoms: C5_7  and  C6_8 
REMARK    6  A    between atoms: C6_8  and  O4_10 
REMARK    7  A    between atoms: O4_10  and  C7_11 
REMARK    8  A    between atoms: C15_22  and  N2_23 
REMARK    9  A    between atoms: C21_30  and  N3_31 
REMARK       I    between atoms: N3_31  and  C23_33 
ROOT
HETATM    1  C7  UNL     1      60.620  51.687 140.551  1.00  0.00     0.165 C 
HETATM    2  C8  UNL     1      60.337  52.761 139.655  1.00  0.00     0.066 C 
HETATM    3  C9  UNL     1      59.099  53.595 140.074  1.00  0.00     0.177 C 
HETATM    4  O5  UNL     1      59.276  54.657 139.156  1.00  0.00    -0.384 OA
HETATM    5  C10 UNL     1      59.345  53.985 137.956  1.00  0.00     0.140 C 
HETATM    6  C11 UNL     1      57.941  53.733 137.482  1.00  0.00     0.041 C 
HETATM    7  C12 UNL     1      60.111  52.674 138.222  1.00  0.00     0.114 C 
HETATM    8  N1  UNL     1      59.294  51.649 137.703  1.00  0.00    -0.408 N 
ATOM      9  H1  UNL     1      58.431  51.853 137.199  1.00  0.00     0.154 HD
HETATM   10  C13 UNL     1      59.737  50.320 137.922  1.00  0.00     0.098 C 
HETATM   11  C14 UNL     1      61.213  50.212 137.709  1.00  0.00     0.034 C 
HETATM   12  C15 UNL     1      59.286  49.941 139.312  1.00  0.00     0.135 C 
HETATM   13  C21 UNL     1      60.342  50.252 140.288  1.00  0.00     0.141 C 
ENDROOT
BRANCH   1  14
HETATM   14  O4  UNL     1      61.991  51.742 140.985  1.00  0.00    -0.313 OA
BRANCH  14  15
HETATM   15  C6  UNL     1      62.395  51.762 142.287  1.00  0.00     0.259 C 
HETATM   16  O3  UNL     1      61.648  52.274 143.142  1.00  0.00    -0.265 OA
BRANCH  15  17
HETATM   17  C5  UNL     1      63.714  51.169 142.628  1.00  0.00     0.121 C 
BRANCH  17  18
HETATM   18  C4  UNL     1      63.488  50.194 143.777  1.00  0.00     0.121 C 
BRANCH  18  19
HETATM   19  C3  UNL     1      64.218  50.614 144.985  1.00  0.00     0.259 C 
HETATM   20  O2  UNL     1      64.270  49.811 145.946  1.00  0.00    -0.265 OA
BRANCH  19  21
HETATM   21  O1  UNL     1      64.851  51.832 145.134  1.00  0.00    -0.322 OA
BRANCH  21  22
HETATM   22  C2  UNL     1      64.398  52.861 145.981  1.00  0.00     0.174 C 
HETATM   23  C1  UNL     1      63.963  54.090 145.243  1.00  0.00     0.034 C 
ENDBRANCH  21  22
ENDBRANCH  19  21
ENDBRANCH  18  19
ENDBRANCH  17  18
ENDBRANCH  15  17
ENDBRANCH  14  15
ENDBRANCH   1  14
BRANCH  13  24
HETATM   24  N3  UNL     1      60.031  49.590 141.540  1.00  0.00    -0.347 N 
HETATM   25  C22 UNL     1      58.803  49.935 142.213  1.00  0.00     0.153 C 
HETATM   26  C23 UNL     1      60.848  48.600 142.138  1.00  0.00     0.215 C 
HETATM   27  C24 UNL     1      60.429  47.992 143.423  1.00  0.00     0.117 C 
HETATM   28  O7  UNL     1      61.935  48.173 141.670  1.00  0.00    -0.274 OA
ENDBRANCH  13  24
BRANCH  12  29
HETATM   29  N2  UNL     1      58.882  48.567 139.274  1.00  0.00    -0.339 N 
HETATM   30  C16 UNL     1      57.732  48.066 138.554  1.00  0.00     0.220 C 
HETATM   31  O6  UNL     1      57.068  48.674 137.677  1.00  0.00    -0.273 OA
HETATM   32  C17 UNL     1      57.408  46.686 138.986  1.00  0.00     0.105 C 
HETATM   33  C18 UNL     1      58.344  46.404 140.141  1.00  0.00     0.034 C 
HETATM   34  C19 UNL     1      59.465  47.385 139.864  1.00  0.00     0.084 C 
HETATM   35  C20 UNL     1      60.371  46.654 138.878  1.00  0.00     0.032 C 
ENDBRANCH  12  29
TORSDOF 9
ENDMDL
