MODEL 1
REMARK VINA RESULT: -8.378566880      0.000      0.000
REMARK  10 active torsions:
REMARK  status: ('A' for Active; 'I' for Inactive)
REMARK    1  A    between atoms: N1_4  and  C4_5 
REMARK    2  A    between atoms: C4_5  and  C5_6 
REMARK    3  A    between atoms: C7_8  and  N2_9 
REMARK    4  A    between atoms: N2_9  and  C8_11 
REMARK    5  A    between atoms: C12_15  and  O1_16 
REMARK    6  A    between atoms: O1_16  and  C13_17 
REMARK    7  A    between atoms: N3_24  and  C19_25 
REMARK    8  A    between atoms: C19_25  and  C20_26 
REMARK    9  A    between atoms: C20_26  and  N4_27 
REMARK   10  A    between atoms: N8_37  and  O3_38 
ROOT
HETATM    1  C1  UNL     1      63.566  49.686 125.008  1.00  0.00     0.021 C 
HETATM    2  C2  UNL     1      63.484  49.454 126.192  1.00  0.00    -0.036 C 
HETATM    3  C3  UNL     1      63.366  49.182 127.609  1.00  0.00     0.223 A 
HETATM    4  N1  UNL     1      62.892  49.976 128.562  1.00  0.00    -0.155 N 
HETATM    5  C7  UNL     1      62.957  49.330 129.771  1.00  0.00     0.700 A 
HETATM    6  N7  UNL     1      63.482  48.137 129.497  1.00  0.00    -0.103 N 
ATOM      7  H7  UNL     1      63.664  47.408 130.187  1.00  0.00     0.208 HD
HETATM    8  N8  UNL     1      63.736  48.031 128.190  1.00  0.00    -0.122 N 
ENDROOT
BRANCH   4   9
HETATM    9  C4  UNL     1      62.392  51.313 128.334  1.00  0.00     0.150 C 
BRANCH   9  10
HETATM   10  C5  UNL     1      63.593  52.212 128.157  1.00  0.00     0.016 C 
HETATM   11  C6  UNL     1      63.366  53.117 126.985  1.00  0.00     0.006 C 
ENDBRANCH   9  10
ENDBRANCH   4   9
BRANCH   8  12
HETATM   12  O3  UNL     1      64.279  46.948 127.526  1.00  0.00    -0.265 OA
ATOM     13  H3  UNL     1      64.250  46.050 127.835  1.00  0.00     0.247 HD
ENDBRANCH   8  12
BRANCH   5  14
HETATM   14  N2  UNL     1      62.584  49.845 130.822  1.00  0.00    -0.208 N 
ATOM     15  H2  UNL     1      61.596  50.089 130.751  1.00  0.00     0.179 HD
BRANCH  14  16
HETATM   16  C8  UNL     1      63.063  50.204 132.071  1.00  0.00     0.112 C 
HETATM   17  C9  UNL     1      63.158  49.004 133.005  1.00  0.00     0.045 C 
HETATM   18  C10 UNL     1      61.872  48.410 133.394  1.00  0.00    -0.006 C 
HETATM   19  C11 UNL     1      60.648  49.251 133.220  1.00  0.00     0.043 C 
HETATM   20  C15 UNL     1      61.711  48.670 134.904  1.00  0.00     0.043 C 
HETATM   21  C12 UNL     1      61.054  49.986 134.459  1.00  0.00     0.072 C 
HETATM   22  C16 UNL     1      62.081  51.030 134.247  1.00  0.00     0.048 C 
HETATM   23  C17 UNL     1      62.411  51.331 132.797  1.00  0.00     0.043 C 
HETATM   24  C18 UNL     1      63.416  52.481 132.856  1.00  0.00     0.132 C 
HETATM   25  N3  UNL     1      64.511  52.058 131.999  1.00  0.00    -0.366 N 
HETATM   26  C23 UNL     1      64.510  50.656 131.930  1.00  0.00     0.118 C 
HETATM   27  N5  UNL     1      65.478  49.833 131.779  1.00  0.00    -0.281 N 
HETATM   28  C24 UNL     1      66.811  50.160 131.646  1.00  0.00     0.183 C 
ATOM     29  H5  UNL     1      65.241  48.841 131.755  1.00  0.00     0.179 HD
HETATM   30  N6  UNL     1      67.947  50.413 131.541  1.00  0.00    -0.172 NA
BRANCH  21  31
HETATM   31  O1  UNL     1      59.922  50.334 135.220  1.00  0.00    -0.310 OA
BRANCH  31  32
HETATM   32  C13 UNL     1      59.882  51.212 136.264  1.00  0.00     0.255 C 
HETATM   33  C14 UNL     1      60.722  50.950 137.461  1.00  0.00     0.126 C 
HETATM   34  O2  UNL     1      59.130  52.216 136.169  1.00  0.00    -0.266 OA
ENDBRANCH  31  32
ENDBRANCH  21  31
BRANCH  25  35
HETATM   35  C19 UNL     1      65.388  52.984 131.365  1.00  0.00     0.143 C 
BRANCH  35  36
HETATM   36  C20 UNL     1      65.245  54.391 131.902  1.00  0.00     0.135 C 
BRANCH  36  37
HETATM   37  N4  UNL     1      64.976  55.372 130.902  1.00  0.00    -0.419 N 
HETATM   38  C21 UNL     1      65.221  56.728 131.268  1.00  0.00     0.142 C 
HETATM   39  C22 UNL     1      63.806  55.174 130.114  1.00  0.00     0.142 C 
ENDBRANCH  36  37
ENDBRANCH  35  36
ENDBRANCH  25  35
ENDBRANCH  14  16
ENDBRANCH   5  14
TORSDOF 10
ENDMDL
MODEL 2
REMARK VINA RESULT: -8.361486289      5.497      9.197
REMARK  10 active torsions:
REMARK  status: ('A' for Active; 'I' for Inactive)
REMARK    1  A    between atoms: N1_4  and  C4_5 
REMARK    2  A    between atoms: C4_5  and  C5_6 
REMARK    3  A    between atoms: C7_8  and  N2_9 
REMARK    4  A    between atoms: N2_9  and  C8_11 
REMARK    5  A    between atoms: C12_15  and  O1_16 
REMARK    6  A    between atoms: O1_16  and  C13_17 
REMARK    7  A    between atoms: N3_24  and  C19_25 
REMARK    8  A    between atoms: C19_25  and  C20_26 
REMARK    9  A    between atoms: C20_26  and  N4_27 
REMARK   10  A    between atoms: N8_37  and  O3_38 
ROOT
HETATM    1  C1  UNL     1      53.861  45.363 138.200  1.00  0.00     0.021 C 
HETATM    2  C2  UNL     1      54.940  45.890 138.348  1.00  0.00    -0.036 C 
HETATM    3  C3  UNL     1      56.221  46.536 138.536  1.00  0.00     0.223 A 
HETATM    4  N1  UNL     1      56.567  47.781 138.230  1.00  0.00    -0.155 N 
HETATM    5  C7  UNL     1      57.879  47.990 138.574  1.00  0.00     0.700 A 
HETATM    6  N7  UNL     1      58.289  46.832 139.089  1.00  0.00    -0.103 N 
ATOM      7  H7  UNL     1      59.228  46.653 139.445  1.00  0.00     0.208 HD
HETATM    8  N8  UNL     1      57.296  45.939 139.073  1.00  0.00    -0.122 N 
ENDROOT
BRANCH   4   9
HETATM    9  C4  UNL     1      55.679  48.748 137.625  1.00  0.00     0.150 C 
BRANCH   9  10
HETATM   10  C5  UNL     1      55.733  48.528 136.131  1.00  0.00     0.016 C 
HETATM   11  C6  UNL     1      54.340  48.362 135.603  1.00  0.00     0.006 C 
ENDBRANCH   9  10
ENDBRANCH   4   9
BRANCH   8  12
HETATM   12  O3  UNL     1      57.334  44.633 139.521  1.00  0.00    -0.265 OA
ATOM     13  H3  UNL     1      56.669  44.224 140.062  1.00  0.00     0.247 HD
ENDBRANCH   8  12
BRANCH   5  14
HETATM   14  N2  UNL     1      58.452  49.061 138.393  1.00  0.00    -0.208 N 
ATOM     15  H2  UNL     1      57.792  49.742 138.019  1.00  0.00     0.179 HD
BRANCH  14  16
HETATM   16  C8  UNL     1      59.700  49.647 138.530  1.00  0.00     0.112 C 
HETATM   17  C9  UNL     1      60.514  48.988 139.636  1.00  0.00     0.045 C 
HETATM   18  C10 UNL     1      59.998  49.185 140.996  1.00  0.00    -0.006 C 
HETATM   19  C11 UNL     1      59.041  50.313 141.210  1.00  0.00     0.043 C 
HETATM   20  C15 UNL     1      61.032  50.057 141.734  1.00  0.00     0.043 C 
HETATM   21  C12 UNL     1      60.219  51.235 141.175  1.00  0.00     0.072 C 
HETATM   22  C16 UNL     1      60.686  51.585 139.815  1.00  0.00     0.048 C 
HETATM   23  C17 UNL     1      59.787  51.128 138.682  1.00  0.00     0.043 C 
HETATM   24  C18 UNL     1      60.442  51.680 137.416  1.00  0.00     0.132 C 
HETATM   25  N3  UNL     1      60.517  50.544 136.513  1.00  0.00    -0.366 N 
HETATM   26  C23 UNL     1      60.515  49.365 137.275  1.00  0.00     0.118 C 
HETATM   27  N5  UNL     1      61.058  48.230 137.047  1.00  0.00    -0.281 N 
HETATM   28  C24 UNL     1      61.809  47.895 135.940  1.00  0.00     0.183 C 
ATOM     29  H5  UNL     1      60.922  47.503 137.750  1.00  0.00     0.179 HD
HETATM   30  N6  UNL     1      62.457  47.593 135.016  1.00  0.00    -0.172 NA
BRANCH  21  31
HETATM   31  O1  UNL     1      60.051  52.288 142.094  1.00  0.00    -0.310 OA
BRANCH  31  32
HETATM   32  C13 UNL     1      59.156  53.314 142.004  1.00  0.00     0.255 C 
HETATM   33  C14 UNL     1      59.399  54.399 141.018  1.00  0.00     0.126 C 
HETATM   34  O2  UNL     1      58.153  53.298 142.763  1.00  0.00    -0.266 OA
ENDBRANCH  31  32
ENDBRANCH  21  31
BRANCH  25  35
HETATM   35  C19 UNL     1      60.570  50.694 135.098  1.00  0.00     0.143 C 
BRANCH  35  36
HETATM   36  C20 UNL     1      61.901  51.227 134.613  1.00  0.00     0.135 C 
BRANCH  36  37
HETATM   37  N4  UNL     1      62.300  50.726 133.338  1.00  0.00    -0.419 N 
HETATM   38  C21 UNL     1      63.163  51.565 132.574  1.00  0.00     0.142 C 
HETATM   39  C22 UNL     1      61.301  50.054 132.577  1.00  0.00     0.142 C 
ENDBRANCH  36  37
ENDBRANCH  35  36
ENDBRANCH  25  35
ENDBRANCH  14  16
ENDBRANCH   5  14
TORSDOF 10
ENDMDL
MODEL 3
REMARK VINA RESULT: -8.225358080      1.380      2.044
REMARK  10 active torsions:
REMARK  status: ('A' for Active; 'I' for Inactive)
REMARK    1  A    between atoms: N1_4  and  C4_5 
REMARK    2  A    between atoms: C4_5  and  C5_6 
REMARK    3  A    between atoms: C7_8  and  N2_9 
REMARK    4  A    between atoms: N2_9  and  C8_11 
REMARK    5  A    between atoms: C12_15  and  O1_16 
REMARK    6  A    between atoms: O1_16  and  C13_17 
REMARK    7  A    between atoms: N3_24  and  C19_25 
REMARK    8  A    between atoms: C19_25  and  C20_26 
REMARK    9  A    between atoms: C20_26  and  N4_27 
REMARK   10  A    between atoms: N8_37  and  O3_38 
ROOT
HETATM    1  C1  UNL     1      63.542  49.920 124.850  1.00  0.00     0.021 C 
HETATM    2  C2  UNL     1      63.300  50.247 125.990  1.00  0.00    -0.036 C 
HETATM    3  C3  UNL     1      63.028  50.629 127.359  1.00  0.00     0.223 A 
HETATM    4  N1  UNL     1      63.002  49.856 128.438  1.00  0.00    -0.155 N 
HETATM    5  C7  UNL     1      62.705  50.619 129.541  1.00  0.00     0.700 A 
HETATM    6  N7  UNL     1      62.559  51.858 129.074  1.00  0.00    -0.103 N 
ATOM      7  H7  UNL     1      62.333  52.672 129.645  1.00  0.00     0.208 HD
HETATM    8  N8  UNL     1      62.752  51.882 127.752  1.00  0.00    -0.122 N 
ENDROOT
BRANCH   4   9
HETATM    9  C4  UNL     1      63.248  48.432 128.427  1.00  0.00     0.150 C 
BRANCH   9  10
HETATM   10  C5  UNL     1      64.739  48.238 128.568  1.00  0.00     0.016 C 
HETATM   11  C6  UNL     1      65.097  46.838 128.170  1.00  0.00     0.006 C 
ENDBRANCH   9  10
ENDBRANCH   4   9
BRANCH   8  12
HETATM   12  O3  UNL     1      62.687  52.978 126.915  1.00  0.00    -0.265 OA
ATOM     13  H3  UNL     1      61.889  53.438 126.680  1.00  0.00     0.247 HD
ENDBRANCH   8  12
BRANCH   5  14
HETATM   14  N2  UNL     1      62.614  50.147 130.671  1.00  0.00    -0.208 N 
ATOM     15  H2  UNL     1      61.958  49.367 130.664  1.00  0.00     0.179 HD
BRANCH  14  16
HETATM   16  C8  UNL     1      63.110  50.327 131.952  1.00  0.00     0.112 C 
HETATM   17  C9  UNL     1      63.133  49.021 132.736  1.00  0.00     0.045 C 
HETATM   18  C10 UNL     1      61.815  48.461 133.057  1.00  0.00    -0.006 C 
HETATM   19  C11 UNL     1      60.642  49.385 132.990  1.00  0.00     0.043 C 
HETATM   20  C15 UNL     1      61.665  48.548 134.589  1.00  0.00     0.043 C 
HETATM   21  C12 UNL     1      61.085  49.943 134.306  1.00  0.00     0.072 C 
HETATM   22  C16 UNL     1      62.171  50.944 134.214  1.00  0.00     0.048 C 
HETATM   23  C17 UNL     1      62.521  51.396 132.809  1.00  0.00     0.043 C 
HETATM   24  C18 UNL     1      63.591  52.471 132.999  1.00  0.00     0.132 C 
HETATM   25  N3  UNL     1      64.662  52.091 132.094  1.00  0.00    -0.366 N 
HETATM   26  C23 UNL     1      64.581  50.709 131.859  1.00  0.00     0.118 C 
HETATM   27  N5  UNL     1      65.500  49.856 131.607  1.00  0.00    -0.281 N 
HETATM   28  C24 UNL     1      66.850  50.119 131.508  1.00  0.00     0.183 C 
ATOM     29  H5  UNL     1      65.207  48.889 131.467  1.00  0.00     0.179 HD
HETATM   30  N6  UNL     1      67.999  50.317 131.429  1.00  0.00    -0.172 NA
BRANCH  21  31
HETATM   31  O1  UNL     1      59.974  50.263 135.108  1.00  0.00    -0.310 OA
BRANCH  31  32
HETATM   32  C13 UNL     1      59.954  51.124 136.167  1.00  0.00     0.255 C 
HETATM   33  C14 UNL     1      60.770  50.808 137.368  1.00  0.00     0.126 C 
HETATM   34  O2  UNL     1      59.242  52.157 136.082  1.00  0.00    -0.266 OA
ENDBRANCH  31  32
ENDBRANCH  21  31
BRANCH  25  35
HETATM   35  C19 UNL     1      65.593  53.034 131.570  1.00  0.00     0.143 C 
BRANCH  35  36
HETATM   36  C20 UNL     1      65.267  54.459 131.959  1.00  0.00     0.135 C 
BRANCH  36  37
HETATM   37  N4  UNL     1      65.015  55.322 130.852  1.00  0.00    -0.419 N 
HETATM   38  C21 UNL     1      65.241  56.713 131.073  1.00  0.00     0.142 C 
HETATM   39  C22 UNL     1      63.867  55.027 130.063  1.00  0.00     0.142 C 
ENDBRANCH  36  37
ENDBRANCH  35  36
ENDBRANCH  25  35
ENDBRANCH  14  16
ENDBRANCH   5  14
TORSDOF 10
ENDMDL
MODEL 4
REMARK VINA RESULT: -8.223047842      3.143      7.239
REMARK  10 active torsions:
REMARK  status: ('A' for Active; 'I' for Inactive)
REMARK    1  A    between atoms: N1_4  and  C4_5 
REMARK    2  A    between atoms: C4_5  and  C5_6 
REMARK    3  A    between atoms: C7_8  and  N2_9 
REMARK    4  A    between atoms: N2_9  and  C8_11 
REMARK    5  A    between atoms: C12_15  and  O1_16 
REMARK    6  A    between atoms: O1_16  and  C13_17 
REMARK    7  A    between atoms: N3_24  and  C19_25 
REMARK    8  A    between atoms: C19_25  and  C20_26 
REMARK    9  A    between atoms: C20_26  and  N4_27 
REMARK   10  A    between atoms: N8_37  and  O3_38 
ROOT
HETATM    1  C1  UNL     1      64.849  57.854 130.691  1.00  0.00     0.021 C 
HETATM    2  C2  UNL     1      64.540  56.873 130.053  1.00  0.00    -0.036 C 
HETATM    3  C3  UNL     1      64.153  55.698 129.302  1.00  0.00     0.223 A 
HETATM    4  N1  UNL     1      63.863  54.487 129.763  1.00  0.00    -0.155 N 
HETATM    5  C7  UNL     1      63.545  53.662 128.712  1.00  0.00     0.700 A 
HETATM    6  N7  UNL     1      63.657  54.426 127.627  1.00  0.00    -0.103 N 
ATOM      7  H7  UNL     1      63.486  54.110 126.672  1.00  0.00     0.208 HD
HETATM    8  N8  UNL     1      64.026  55.664 127.966  1.00  0.00    -0.122 N 
ENDROOT
BRANCH   4   9
HETATM    9  C4  UNL     1      63.889  54.119 131.160  1.00  0.00     0.150 C 
BRANCH   9  10
HETATM   10  C5  UNL     1      65.320  53.782 131.505  1.00  0.00     0.016 C 
HETATM   11  C6  UNL     1      65.827  54.756 132.525  1.00  0.00     0.006 C 
ENDBRANCH   9  10
ENDBRANCH   4   9
BRANCH   8  12
HETATM   12  O3  UNL     1      64.243  56.736 127.124  1.00  0.00    -0.265 OA
ATOM     13  H3  UNL     1      64.502  57.606 127.405  1.00  0.00     0.247 HD
ENDBRANCH   8  12
BRANCH   5  14
HETATM   14  N2  UNL     1      63.240  52.482 128.862  1.00  0.00    -0.208 N 
ATOM     15  H2  UNL     1      62.398  52.417 129.434  1.00  0.00     0.179 HD
BRANCH  14  16
HETATM   16  C8  UNL     1      63.663  51.211 128.509  1.00  0.00     0.112 C 
HETATM   17  C9  UNL     1      64.384  51.209 127.167  1.00  0.00     0.045 C 
HETATM   18  C10 UNL     1      63.544  51.522 126.005  1.00  0.00    -0.006 C 
HETATM   19  C11 UNL     1      62.064  51.379 126.169  1.00  0.00     0.043 C 
HETATM   20  C15 UNL     1      63.470  50.235 125.160  1.00  0.00     0.043 C 
HETATM   21  C12 UNL     1      62.256  49.901 126.041  1.00  0.00     0.072 C 
HETATM   22  C16 UNL     1      62.690  49.227 127.284  1.00  0.00     0.048 C 
HETATM   23  C17 UNL     1      62.677  50.092 128.530  1.00  0.00     0.043 C 
HETATM   24  C18 UNL     1      63.079  49.149 129.665  1.00  0.00     0.132 C 
HETATM   25  N3  UNL     1      64.136  49.853 130.372  1.00  0.00    -0.366 N 
HETATM   26  C23 UNL     1      64.739  50.762 129.489  1.00  0.00     0.118 C 
HETATM   27  N5  UNL     1      65.941  51.193 129.436  1.00  0.00    -0.281 N 
HETATM   28  C24 UNL     1      66.971  50.836 130.281  1.00  0.00     0.183 C 
ATOM     29  H5  UNL     1      66.160  51.863 128.698  1.00  0.00     0.179 HD
HETATM   30  N6  UNL     1      67.861  50.542 130.979  1.00  0.00    -0.172 NA
BRANCH  21  31
HETATM   31  O1  UNL     1      61.188  49.324 125.329  1.00  0.00    -0.310 OA
BRANCH  31  32
HETATM   32  C13 UNL     1      60.982  49.380 123.980  1.00  0.00     0.255 C 
HETATM   33  C14 UNL     1      60.393  50.611 123.392  1.00  0.00     0.126 C 
HETATM   34  O2  UNL     1      61.303  48.382 123.286  1.00  0.00    -0.266 OA
ENDBRANCH  31  32
ENDBRANCH  21  31
BRANCH  25  35
HETATM   35  C19 UNL     1      64.437  49.603 131.742  1.00  0.00     0.143 C 
BRANCH  35  36
HETATM   36  C20 UNL     1      63.203  49.334 132.575  1.00  0.00     0.135 C 
BRANCH  36  37
HETATM   37  N4  UNL     1      63.129  50.105 133.773  1.00  0.00    -0.419 N 
HETATM   38  C21 UNL     1      62.690  49.414 134.941  1.00  0.00     0.142 C 
HETATM   39  C22 UNL     1      62.625  51.431 133.646  1.00  0.00     0.142 C 
ENDBRANCH  36  37
ENDBRANCH  35  36
ENDBRANCH  25  35
ENDBRANCH  14  16
ENDBRANCH   5  14
TORSDOF 10
ENDMDL
MODEL 5
REMARK VINA RESULT: -8.142858745      2.690      7.205
REMARK  10 active torsions:
REMARK  status: ('A' for Active; 'I' for Inactive)
REMARK    1  A    between atoms: N1_4  and  C4_5 
REMARK    2  A    between atoms: C4_5  and  C5_6 
REMARK    3  A    between atoms: C7_8  and  N2_9 
REMARK    4  A    between atoms: N2_9  and  C8_11 
REMARK    5  A    between atoms: C12_15  and  O1_16 
REMARK    6  A    between atoms: O1_16  and  C13_17 
REMARK    7  A    between atoms: N3_24  and  C19_25 
REMARK    8  A    between atoms: C19_25  and  C20_26 
REMARK    9  A    between atoms: C20_26  and  N4_27 
REMARK   10  A    between atoms: N8_37  and  O3_38 
ROOT
HETATM    1  C1  UNL     1      65.273  58.441 131.022  1.00  0.00     0.021 C 
HETATM    2  C2  UNL     1      65.081  57.251 130.915  1.00  0.00    -0.036 C 
HETATM    3  C3  UNL     1      64.859  55.828 130.770  1.00  0.00     0.223 A 
HETATM    4  N1  UNL     1      64.281  55.185 129.762  1.00  0.00    -0.155 N 
HETATM    5  C7  UNL     1      64.275  53.837 130.023  1.00  0.00     0.700 A 
HETATM    6  N7  UNL     1      64.865  53.712 131.211  1.00  0.00    -0.103 N 
ATOM      7  H7  UNL     1      65.020  52.828 131.694  1.00  0.00     0.208 HD
HETATM    8  N8  UNL     1      65.225  54.910 131.679  1.00  0.00    -0.122 N 
ENDROOT
BRANCH   4   9
HETATM    9  C4  UNL     1      63.747  55.829 128.584  1.00  0.00     0.150 C 
BRANCH   9  10
HETATM   10  C5  UNL     1      64.923  56.279 127.751  1.00  0.00     0.016 C 
HETATM   11  C6  UNL     1      64.534  56.282 126.304  1.00  0.00     0.006 C 
ENDBRANCH   9  10
ENDBRANCH   4   9
BRANCH   8  12
HETATM   12  O3  UNL     1      65.861  55.189 132.873  1.00  0.00    -0.265 OA
ATOM     13  H3  UNL     1      66.754  55.503 132.953  1.00  0.00     0.247 HD
ENDBRANCH   8  12
BRANCH   5  14
HETATM   14  N2  UNL     1      63.794  53.013 129.251  1.00  0.00    -0.208 N 
ATOM     15  H2  UNL     1      63.045  53.445 128.712  1.00  0.00     0.179 HD
BRANCH  14  16
HETATM   16  C8  UNL     1      63.935  51.687 128.871  1.00  0.00     0.112 C 
HETATM   17  C9  UNL     1      64.593  51.560 127.504  1.00  0.00     0.045 C 
HETATM   18  C10 UNL     1      63.796  52.057 126.376  1.00  0.00    -0.006 C 
HETATM   19  C11 UNL     1      62.325  52.218 126.594  1.00  0.00     0.043 C 
HETATM   20  C15 UNL     1      63.431  50.826 125.523  1.00  0.00     0.043 C 
HETATM   21  C12 UNL     1      62.205  50.733 126.445  1.00  0.00     0.072 C 
HETATM   22  C16 UNL     1      62.535  49.965 127.666  1.00  0.00     0.048 C 
HETATM   23  C17 UNL     1      62.742  50.794 128.919  1.00  0.00     0.043 C 
HETATM   24  C18 UNL     1      62.982  49.770 130.029  1.00  0.00     0.132 C 
HETATM   25  N3  UNL     1      64.184  50.231 130.703  1.00  0.00    -0.366 N 
HETATM   26  C23 UNL     1      64.929  51.012 129.806  1.00  0.00     0.118 C 
HETATM   27  N5  UNL     1      66.192  51.188 129.712  1.00  0.00    -0.281 N 
HETATM   28  C24 UNL     1      67.156  50.615 130.515  1.00  0.00     0.183 C 
ATOM     29  H5  UNL     1      66.518  51.812 128.973  1.00  0.00     0.179 HD
HETATM   30  N6  UNL     1      67.990  50.133 131.177  1.00  0.00    -0.172 NA
BRANCH  21  31
HETATM   31  O1  UNL     1      61.017  50.398 125.769  1.00  0.00    -0.310 OA
BRANCH  31  32
HETATM   32  C13 UNL     1      60.911  49.944 124.486  1.00  0.00     0.255 C 
HETATM   33  C14 UNL     1      60.349  50.844 123.446  1.00  0.00     0.126 C 
HETATM   34  O2  UNL     1      61.296  48.773 124.234  1.00  0.00    -0.266 OA
ENDBRANCH  31  32
ENDBRANCH  21  31
BRANCH  25  35
HETATM   35  C19 UNL     1      64.474  49.903 132.059  1.00  0.00     0.143 C 
BRANCH  35  36
HETATM   36  C20 UNL     1      63.365  50.296 133.010  1.00  0.00     0.135 C 
BRANCH  36  37
HETATM   37  N4  UNL     1      62.803  49.203 133.733  1.00  0.00    -0.419 N 
HETATM   38  C21 UNL     1      61.616  48.630 133.186  1.00  0.00     0.142 C 
HETATM   39  C22 UNL     1      62.809  49.308 135.153  1.00  0.00     0.142 C 
ENDBRANCH  36  37
ENDBRANCH  35  36
ENDBRANCH  25  35
ENDBRANCH  14  16
ENDBRANCH   5  14
TORSDOF 10
ENDMDL
