MODEL 1
REMARK VINA RESULT: -8.474173736      0.000      0.000
REMARK  7 active torsions:
REMARK  status: ('A' for Active; 'I' for Inactive)
REMARK    1  A    between atoms: C2_2  and  C3_3 
REMARK       I    between atoms: C3_3  and  N1_5 
REMARK       I    between atoms: N1_5  and  C4_6 
REMARK    2  A    between atoms: N1_5  and  C18_27 
REMARK    3  A    between atoms: C4_6  and  C5_8 
REMARK    4  A    between atoms: C5_8  and  C6_9 
REMARK    5  A    between atoms: C5_8  and  N3_18 
REMARK       I    between atoms: C6_9  and  N2_11 
REMARK    6  A    between atoms: N2_11  and  C7_13 
REMARK       I    between atoms: N3_18  and  C13_20 
REMARK    7  A    between atoms: C13_20  and  C14_22 
ROOT
HETATM    1  C5  UNL     1      60.108  50.298 137.923  1.00  0.00     0.272 C 
ENDROOT
BRANCH   1   2
HETATM    2  C4  UNL     1      59.893  51.255 139.016  1.00  0.00     0.259 C 
HETATM    3  N1  UNL     1      60.308  51.165 140.371  1.00  0.00    -0.277 N 
HETATM    4  C3  UNL     1      60.919  50.021 140.892  1.00  0.00     0.249 C 
HETATM    5  O1  UNL     1      61.129  49.031 140.098  1.00  0.00    -0.268 OA
HETATM    6  O2  UNL     1      59.239  52.346 138.763  1.00  0.00    -0.270 OA
BRANCH   3   7
HETATM    7  C18 UNL     1      60.036  52.316 141.267  1.00  0.00     0.111 C 
HETATM    8  C19 UNL     1      58.897  52.061 142.142  1.00  0.00     0.041 C 
HETATM    9  C20 UNL     1      58.265  53.346 142.584  1.00  0.00     0.142 C 
HETATM   10  S2  UNL     1      58.946  54.587 141.544  1.00  0.00     0.146 S 
HETATM   11  O5  UNL     1      57.909  55.327 140.763  1.00  0.00    -0.228 OA
HETATM   12  O6  UNL     1      59.811  55.508 142.348  1.00  0.00    -0.228 OA
HETATM   13  C21 UNL     1      59.971  53.575 140.513  1.00  0.00     0.166 C 
ENDBRANCH   3   7
BRANCH   4  14
HETATM   14  C2  UNL     1      61.361  49.806 142.271  1.00  0.00     0.064 C 
HETATM   15  C1  UNL     1      60.707  48.931 143.022  1.00  0.00     0.017 C 
ENDBRANCH   4  14
ENDBRANCH   1   2
BRANCH   1  16
HETATM   16  C6  UNL     1      60.985  50.701 136.835  1.00  0.00     0.250 C 
HETATM   17  O3  UNL     1      61.560  51.849 136.999  1.00  0.00    -0.271 OA
HETATM   18  N2  UNL     1      61.279  49.997 135.651  1.00  0.00    -0.354 N 
ATOM     19  H2  UNL     1      60.849  49.087 135.485  1.00  0.00     0.162 HD
BRANCH  18  20
HETATM   20  C7  UNL     1      62.198  50.558 134.657  1.00  0.00     0.084 C 
HETATM   21  C8  UNL     1      63.049  49.456 134.054  1.00  0.00     0.025 C 
HETATM   22  C9  UNL     1      63.123  49.763 132.573  1.00  0.00     0.002 C 
HETATM   23  C10 UNL     1      61.810  50.466 132.264  1.00  0.00     0.002 C 
HETATM   24  C11 UNL     1      61.440  51.194 133.534  1.00  0.00     0.025 C 
ENDBRANCH  18  20
ENDBRANCH   1  16
BRANCH   1  25
HETATM   25  N3  UNL     1      58.750  50.003 137.333  1.00  0.00    -0.330 N 
HETATM   26  C12 UNL     1      58.225  51.010 136.472  1.00  0.00     0.154 C 
HETATM   27  C13 UNL     1      58.116  48.799 137.661  1.00  0.00     0.261 C 
HETATM   28  O4  UNL     1      58.702  47.987 138.482  1.00  0.00    -0.267 OA
BRANCH  27  29
HETATM   29  C14 UNL     1      56.836  48.299 137.191  1.00  0.00     0.072 A 
HETATM   30  C15 UNL     1      56.106  48.491 136.067  1.00  0.00     0.025 A 
HETATM   31  C16 UNL     1      54.925  47.858 135.950  1.00  0.00     0.009 A 
HETATM   32  C17 UNL     1      54.528  47.055 136.978  1.00  0.00     0.050 A 
HETATM   33  S1  UNL     1      55.816  47.205 138.081  1.00  0.00    -0.097 SA
ENDBRANCH  27  29
ENDBRANCH   1  25
TORSDOF 7
ENDMDL
MODEL 2
REMARK VINA RESULT: -8.416160237      6.966     11.612
REMARK  7 active torsions:
REMARK  status: ('A' for Active; 'I' for Inactive)
REMARK    1  A    between atoms: C2_2  and  C3_3 
REMARK       I    between atoms: C3_3  and  N1_5 
REMARK       I    between atoms: N1_5  and  C4_6 
REMARK    2  A    between atoms: N1_5  and  C18_27 
REMARK    3  A    between atoms: C4_6  and  C5_8 
REMARK    4  A    between atoms: C5_8  and  C6_9 
REMARK    5  A    between atoms: C5_8  and  N3_18 
REMARK       I    between atoms: C6_9  and  N2_11 
REMARK    6  A    between atoms: N2_11  and  C7_13 
REMARK       I    between atoms: N3_18  and  C13_20 
REMARK    7  A    between atoms: C13_20  and  C14_22 
ROOT
HETATM    1  C5  UNL     1      64.011  51.291 129.839  1.00  0.00     0.272 C 
ENDROOT
BRANCH   1   2
HETATM    2  C4  UNL     1      63.235  51.325 128.593  1.00  0.00     0.259 C 
HETATM    3  N1  UNL     1      63.060  52.401 127.683  1.00  0.00    -0.277 N 
HETATM    4  C3  UNL     1      63.550  53.684 127.940  1.00  0.00     0.249 C 
HETATM    5  O1  UNL     1      64.202  53.878 129.032  1.00  0.00    -0.268 OA
HETATM    6  O2  UNL     1      62.603  50.253 128.229  1.00  0.00    -0.270 OA
BRANCH   3   7
HETATM    7  C18 UNL     1      62.289  52.152 126.441  1.00  0.00     0.111 C 
HETATM    8  C19 UNL     1      60.853  52.106 126.698  1.00  0.00     0.041 C 
HETATM    9  C20 UNL     1      60.149  51.298 125.649  1.00  0.00     0.142 C 
HETATM   10  S2  UNL     1      61.417  50.446 124.781  1.00  0.00     0.146 S 
HETATM   11  O5  UNL     1      61.258  48.961 124.829  1.00  0.00    -0.228 OA
HETATM   12  O6  UNL     1      61.508  50.960 123.378  1.00  0.00    -0.228 OA
HETATM   13  C21 UNL     1      62.825  51.002 125.700  1.00  0.00     0.166 C 
ENDBRANCH   3   7
BRANCH   4  14
HETATM   14  C2  UNL     1      63.407  54.870 127.093  1.00  0.00     0.064 C 
HETATM   15  C1  UNL     1      64.183  55.920 127.328  1.00  0.00     0.017 C 
ENDBRANCH   4  14
ENDBRANCH   1   2
BRANCH   1  16
HETATM   16  C6  UNL     1      65.356  50.740 129.784  1.00  0.00     0.250 C 
HETATM   17  O3  UNL     1      65.875  50.696 128.599  1.00  0.00    -0.271 OA
HETATM   18  N2  UNL     1      66.144  50.265 130.849  1.00  0.00    -0.354 N 
ATOM     19  H2  UNL     1      65.772  50.284 131.799  1.00  0.00     0.162 HD
BRANCH  18  20
HETATM   20  C7  UNL     1      67.492  49.743 130.608  1.00  0.00     0.084 C 
HETATM   21  C8  UNL     1      68.392  50.058 131.788  1.00  0.00     0.025 C 
HETATM   22  C9  UNL     1      69.220  48.810 132.012  1.00  0.00     0.002 C 
HETATM   23  C10 UNL     1      68.323  47.670 131.555  1.00  0.00     0.002 C 
HETATM   24  C11 UNL     1      67.466  48.255 130.458  1.00  0.00     0.025 C 
ENDBRANCH  18  20
ENDBRANCH   1  16
BRANCH   1  25
HETATM   25  N3  UNL     1      63.216  50.464 130.821  1.00  0.00    -0.330 N 
HETATM   26  C12 UNL     1      63.222  49.059 130.583  1.00  0.00     0.154 C 
HETATM   27  C13 UNL     1      62.547  51.111 131.866  1.00  0.00     0.261 C 
HETATM   28  O4  UNL     1      62.607  52.403 131.943  1.00  0.00    -0.267 OA
BRANCH  27  29
HETATM   29  C14 UNL     1      61.757  50.519 132.932  1.00  0.00     0.072 A 
HETATM   30  C15 UNL     1      60.802  49.560 132.974  1.00  0.00     0.025 A 
HETATM   31  C16 UNL     1      60.258  49.245 134.163  1.00  0.00     0.009 A 
HETATM   32  C17 UNL     1      60.702  49.915 135.265  1.00  0.00     0.050 A 
HETATM   33  S1  UNL     1      61.869  50.968 134.610  1.00  0.00    -0.097 SA
ENDBRANCH  27  29
ENDBRANCH   1  25
TORSDOF 7
ENDMDL
MODEL 3
REMARK VINA RESULT: -8.272175141      2.393      5.746
REMARK  7 active torsions:
REMARK  status: ('A' for Active; 'I' for Inactive)
REMARK    1  A    between atoms: C2_2  and  C3_3 
REMARK       I    between atoms: C3_3  and  N1_5 
REMARK       I    between atoms: N1_5  and  C4_6 
REMARK    2  A    between atoms: N1_5  and  C18_27 
REMARK    3  A    between atoms: C4_6  and  C5_8 
REMARK    4  A    between atoms: C5_8  and  C6_9 
REMARK    5  A    between atoms: C5_8  and  N3_18 
REMARK       I    between atoms: C6_9  and  N2_11 
REMARK    6  A    between atoms: N2_11  and  C7_13 
REMARK       I    between atoms: N3_18  and  C13_20 
REMARK    7  A    between atoms: C13_20  and  C14_22 
ROOT
HETATM    1  C5  UNL     1      59.236  49.506 138.150  1.00  0.00     0.272 C 
ENDROOT
BRANCH   1   2
HETATM    2  C4  UNL     1      60.016  49.192 139.355  1.00  0.00     0.259 C 
HETATM    3  N1  UNL     1      60.358  50.042 140.439  1.00  0.00    -0.277 N 
HETATM    4  C3  UNL     1      60.068  51.409 140.438  1.00  0.00     0.249 C 
HETATM    5  O1  UNL     1      59.447  51.897 139.423  1.00  0.00    -0.268 OA
HETATM    6  O2  UNL     1      60.479  47.989 139.495  1.00  0.00    -0.270 OA
BRANCH   3   7
HETATM    7  C18 UNL     1      61.090  49.455 141.588  1.00  0.00     0.111 C 
HETATM    8  C19 UNL     1      60.257  49.397 142.785  1.00  0.00     0.041 C 
HETATM    9  C20 UNL     1      61.103  49.387 144.023  1.00  0.00     0.142 C 
HETATM   10  S2  UNL     1      62.718  49.834 143.494  1.00  0.00     0.146 S 
HETATM   11  O5  UNL     1      63.233  51.062 144.171  1.00  0.00    -0.228 OA
HETATM   12  O6  UNL     1      63.646  48.670 143.653  1.00  0.00    -0.228 OA
HETATM   13  C21 UNL     1      62.399  50.096 141.772  1.00  0.00     0.166 C 
ENDBRANCH   3   7
BRANCH   4  14
HETATM   14  C2  UNL     1      60.395  52.381 141.483  1.00  0.00     0.064 C 
HETATM   15  C1  UNL     1      59.405  52.976 142.134  1.00  0.00     0.017 C 
ENDBRANCH   4  14
ENDBRANCH   1   2
BRANCH   1  16
HETATM   16  C6  UNL     1      58.079  48.675 137.858  1.00  0.00     0.250 C 
HETATM   17  O3  UNL     1      57.988  47.601 138.575  1.00  0.00    -0.271 OA
HETATM   18  N2  UNL     1      57.064  48.904 136.910  1.00  0.00    -0.354 N 
ATOM     19  H2  UNL     1      57.098  49.741 136.327  1.00  0.00     0.162 HD
BRANCH  18  20
HETATM   20  C7  UNL     1      55.960  47.953 136.752  1.00  0.00     0.084 C 
HETATM   21  C8  UNL     1      54.792  48.360 137.632  1.00  0.00     0.025 C 
HETATM   22  C9  UNL     1      53.553  48.137 136.792  1.00  0.00     0.002 C 
HETATM   23  C10 UNL     1      54.016  48.366 135.361  1.00  0.00     0.002 C 
HETATM   24  C11 UNL     1      55.466  47.944 135.340  1.00  0.00     0.025 C 
ENDBRANCH  18  20
ENDBRANCH   1  16
BRANCH   1  25
HETATM   25  N3  UNL     1      60.186  49.399 136.981  1.00  0.00    -0.330 N 
HETATM   26  C12 UNL     1      61.102  48.308 137.035  1.00  0.00     0.154 C 
HETATM   27  C13 UNL     1      60.106  50.347 135.955  1.00  0.00     0.261 C 
HETATM   28  O4  UNL     1      59.239  51.304 136.053  1.00  0.00    -0.267 OA
BRANCH  27  29
HETATM   29  C14 UNL     1      60.890  50.419 134.734  1.00  0.00     0.072 A 
HETATM   30  C15 UNL     1      61.885  51.229 134.301  1.00  0.00     0.025 A 
HETATM   31  C16 UNL     1      62.404  51.014 133.078  1.00  0.00     0.009 A 
HETATM   32  C17 UNL     1      61.895  49.986 132.341  1.00  0.00     0.050 A 
HETATM   33  S1  UNL     1      60.703  49.346 133.376  1.00  0.00    -0.097 SA
ENDBRANCH  27  29
ENDBRANCH   1  25
TORSDOF 7
ENDMDL
MODEL 4
REMARK VINA RESULT: -8.231392506      6.760     11.644
REMARK  7 active torsions:
REMARK  status: ('A' for Active; 'I' for Inactive)
REMARK    1  A    between atoms: C2_2  and  C3_3 
REMARK       I    between atoms: C3_3  and  N1_5 
REMARK       I    between atoms: N1_5  and  C4_6 
REMARK    2  A    between atoms: N1_5  and  C18_27 
REMARK    3  A    between atoms: C4_6  and  C5_8 
REMARK    4  A    between atoms: C5_8  and  C6_9 
REMARK    5  A    between atoms: C5_8  and  N3_18 
REMARK       I    between atoms: C6_9  and  N2_11 
REMARK    6  A    between atoms: N2_11  and  C7_13 
REMARK       I    between atoms: N3_18  and  C13_20 
REMARK    7  A    between atoms: C13_20  and  C14_22 
ROOT
HETATM    1  C5  UNL     1      64.456  51.107 130.456  1.00  0.00     0.272 C 
ENDROOT
BRANCH   1   2
HETATM    2  C4  UNL     1      63.856  50.561 129.231  1.00  0.00     0.259 C 
HETATM    3  N1  UNL     1      63.402  51.254 128.078  1.00  0.00    -0.277 N 
HETATM    4  C3  UNL     1      63.365  52.649 128.010  1.00  0.00     0.249 C 
HETATM    5  O1  UNL     1      63.784  53.317 129.027  1.00  0.00    -0.268 OA
HETATM    6  O2  UNL     1      63.696  49.278 129.139  1.00  0.00    -0.270 OA
BRANCH   3   7
HETATM    7  C18 UNL     1      62.908  50.457 126.928  1.00  0.00     0.111 C 
HETATM    8  C19 UNL     1      63.845  50.488 125.809  1.00  0.00     0.041 C 
HETATM    9  C20 UNL     1      63.137  50.227 124.514  1.00  0.00     0.142 C 
HETATM   10  S2  UNL     1      61.423  50.376 124.876  1.00  0.00     0.146 S 
HETATM   11  O5  UNL     1      60.745  51.429 124.060  1.00  0.00    -0.228 OA
HETATM   12  O6  UNL     1      60.757  49.042 124.742  1.00  0.00    -0.228 OA
HETATM   13  C21 UNL     1      61.523  50.810 126.589  1.00  0.00     0.166 C 
ENDBRANCH   3   7
BRANCH   4  14
HETATM   14  C2  UNL     1      62.895  53.467 126.891  1.00  0.00     0.064 C 
HETATM   15  C1  UNL     1      63.713  54.374 126.374  1.00  0.00     0.017 C 
ENDBRANCH   4  14
ENDBRANCH   1   2
BRANCH   1  16
HETATM   16  C6  UNL     1      65.817  50.709 130.777  1.00  0.00     0.250 C 
HETATM   17  O3  UNL     1      66.537  51.636 131.322  1.00  0.00    -0.271 OA
HETATM   18  N2  UNL     1      66.426  49.456 130.574  1.00  0.00    -0.354 N 
ATOM     19  H2  UNL     1      65.891  48.698 130.149  1.00  0.00     0.162 HD
BRANCH  18  20
HETATM   20  C7  UNL     1      67.820  49.230 130.966  1.00  0.00     0.084 C 
HETATM   21  C8  UNL     1      67.883  48.722 132.395  1.00  0.00     0.025 C 
HETATM   22  C9  UNL     1      68.936  47.635 132.393  1.00  0.00     0.002 C 
HETATM   23  C10 UNL     1      68.874  47.045 130.992  1.00  0.00     0.002 C 
HETATM   24  C11 UNL     1      68.453  48.188 130.099  1.00  0.00     0.025 C 
ENDBRANCH  18  20
ENDBRANCH   1  16
BRANCH   1  25
HETATM   25  N3  UNL     1      63.568  50.676 131.599  1.00  0.00    -0.330 N 
HETATM   26  C12 UNL     1      63.064  49.346 131.515  1.00  0.00     0.154 C 
HETATM   27  C13 UNL     1      63.309  51.583 132.633  1.00  0.00     0.261 C 
HETATM   28  O4  UNL     1      63.814  52.774 132.563  1.00  0.00    -0.267 OA
BRANCH  27  29
HETATM   29  C14 UNL     1      62.518  51.376 133.834  1.00  0.00     0.072 A 
HETATM   30  C15 UNL     1      62.808  51.326 135.155  1.00  0.00     0.025 A 
HETATM   31  C16 UNL     1      61.807  51.107 136.027  1.00  0.00     0.009 A 
HETATM   32  C17 UNL     1      60.549  50.946 135.526  1.00  0.00     0.050 A 
HETATM   33  S1  UNL     1      60.798  51.106 133.849  1.00  0.00    -0.097 SA
ENDBRANCH  27  29
ENDBRANCH   1  25
TORSDOF 7
ENDMDL
MODEL 5
REMARK VINA RESULT: -8.224352997      1.148      1.225
REMARK  7 active torsions:
REMARK  status: ('A' for Active; 'I' for Inactive)
REMARK    1  A    between atoms: C2_2  and  C3_3 
REMARK       I    between atoms: C3_3  and  N1_5 
REMARK       I    between atoms: N1_5  and  C4_6 
REMARK    2  A    between atoms: N1_5  and  C18_27 
REMARK    3  A    between atoms: C4_6  and  C5_8 
REMARK    4  A    between atoms: C5_8  and  C6_9 
REMARK    5  A    between atoms: C5_8  and  N3_18 
REMARK       I    between atoms: C6_9  and  N2_11 
REMARK    6  A    between atoms: N2_11  and  C7_13 
REMARK       I    between atoms: N3_18  and  C13_20 
REMARK    7  A    between atoms: C13_20  and  C14_22 
ROOT
HETATM    1  C5  UNL     1      59.886  49.324 137.919  1.00  0.00     0.272 C 
ENDROOT
BRANCH   1   2
HETATM    2  C4  UNL     1      59.793  50.569 138.693  1.00  0.00     0.259 C 
HETATM    3  N1  UNL     1      60.263  50.837 140.006  1.00  0.00    -0.277 N 
HETATM    4  C3  UNL     1      60.813  49.843 140.820  1.00  0.00     0.249 C 
HETATM    5  O1  UNL     1      60.912  48.653 140.343  1.00  0.00    -0.268 OA
HETATM    6  O2  UNL     1      59.209  51.592 138.151  1.00  0.00    -0.270 OA
BRANCH   3   7
HETATM    7  C18 UNL     1      60.119  52.215 140.536  1.00  0.00     0.111 C 
HETATM    8  C19 UNL     1      59.218  52.260 141.683  1.00  0.00     0.041 C 
HETATM    9  C20 UNL     1      58.615  53.624 141.834  1.00  0.00     0.142 C 
HETATM   10  S2  UNL     1      58.971  54.465 140.333  1.00  0.00     0.146 S 
HETATM   11  O5  UNL     1      57.742  54.926 139.619  1.00  0.00    -0.228 OA
HETATM   12  O6  UNL     1      59.928  55.587 140.592  1.00  0.00    -0.228 OA
HETATM   13  C21 UNL     1      59.809  53.170 139.464  1.00  0.00     0.166 C 
ENDBRANCH   3   7
BRANCH   4  14
HETATM   14  C2  UNL     1      61.303  49.997 142.192  1.00  0.00     0.064 C 
HETATM   15  C1  UNL     1      60.858  49.167 143.126  1.00  0.00     0.017 C 
ENDBRANCH   4  14
ENDBRANCH   1   2
BRANCH   1  16
HETATM   16  C6  UNL     1      60.814  49.292 136.800  1.00  0.00     0.250 C 
HETATM   17  O3  UNL     1      61.476  48.186 136.678  1.00  0.00    -0.271 OA
HETATM   18  N2  UNL     1      61.065  50.301 135.851  1.00  0.00    -0.354 N 
ATOM     19  H2  UNL     1      60.562  51.186 135.911  1.00  0.00     0.162 HD
BRANCH  18  20
HETATM   20  C7  UNL     1      62.042  50.092 134.779  1.00  0.00     0.084 C 
HETATM   21  C8  UNL     1      61.403  49.326 133.635  1.00  0.00     0.025 C 
HETATM   22  C9  UNL     1      61.910  49.987 132.370  1.00  0.00     0.002 C 
HETATM   23  C10 UNL     1      62.137  51.439 132.763  1.00  0.00     0.002 C 
HETATM   24  C11 UNL     1      62.511  51.401 134.226  1.00  0.00     0.025 C 
ENDBRANCH  18  20
ENDBRANCH   1  16
BRANCH   1  25
HETATM   25  N3  UNL     1      58.503  49.048 137.377  1.00  0.00    -0.330 N 
HETATM   26  C12 UNL     1      58.253  49.537 136.062  1.00  0.00     0.154 C 
HETATM   27  C13 UNL     1      57.589  48.354 138.178  1.00  0.00     0.261 C 
HETATM   28  O4  UNL     1      57.946  47.994 139.369  1.00  0.00    -0.267 OA
BRANCH  27  29
HETATM   29  C14 UNL     1      56.230  47.956 137.852  1.00  0.00     0.072 A 
HETATM   30  C15 UNL     1      55.181  48.581 137.267  1.00  0.00     0.025 A 
HETATM   31  C16 UNL     1      54.029  47.901 137.117  1.00  0.00     0.009 A 
HETATM   32  C17 UNL     1      53.985  46.615 137.566  1.00  0.00     0.050 A 
HETATM   33  S1  UNL     1      55.554  46.387 138.186  1.00  0.00    -0.097 SA
ENDBRANCH  27  29
ENDBRANCH   1  25
TORSDOF 7
ENDMDL
