MODEL 1
REMARK VINA RESULT: -7.981271443      0.000      0.000
REMARK  15 active torsions:
REMARK  status: ('A' for Active; 'I' for Inactive)
REMARK    1  A    between atoms: C3_4  and  O1_5 
REMARK    2  A    between atoms: O1_5  and  C4_6 
REMARK    3  A    between atoms: C4_6  and  C5_7 
REMARK    4  A    between atoms: N2_8  and  C6_10 
REMARK    5  A    between atoms: C7_13  and  N4_14 
REMARK    6  A    between atoms: C10_28  and  N9_29 
REMARK    7  A    between atoms: C13_32  and  N10_33 
REMARK       I    between atoms: N10_33  and  C14_35 
REMARK       I    between atoms: C14_35  and  N11_37 
REMARK    8  A    between atoms: N11_37  and  C15_39 
REMARK    9  A    between atoms: C15_39  and  C16_40 
REMARK   10  A    between atoms: C16_40  and  N12_41 
REMARK   11  A    between atoms: N12_41  and  C17_43 
REMARK   12  A    between atoms: C20_48  and  N14_49 
REMARK   13  A    between atoms: N14_49  and  N15_51 
REMARK   14  A    between atoms: N15_51  and  C21_53 
REMARK   15  A    between atoms: C21_53  and  C22_54 
ROOT
HETATM    1  N1  UNL     1     -28.092  13.441 -14.583  1.00  0.00    -0.191 NA
HETATM    2  C1  UNL     1     -28.931  14.205 -14.705  1.00  0.00     0.106 C 
HETATM    3  C2  UNL     1     -29.998  15.137 -14.860  1.00  0.00     0.124 A 
HETATM    4  C3  UNL     1     -30.241  16.238 -14.094  1.00  0.00     0.166 A 
HETATM    5  N8  UNL     1     -31.393  16.837 -14.589  1.00  0.00    -0.332 N 
ATOM      6  H8  UNL     1     -31.814  17.685 -14.210  1.00  0.00     0.168 HD
HETATM    7  C9  UNL     1     -31.872  16.153 -15.626  1.00  0.00     0.089 A 
HETATM    8  C10 UNL     1     -32.989  16.354 -16.436  1.00  0.00     0.061 A 
HETATM    9  C25 UNL     1     -33.174  15.420 -17.429  1.00  0.00     0.049 A 
HETATM   10  C26 UNL     1     -32.293  14.350 -17.601  1.00  0.00     0.090 A 
HETATM   11  N18 UNL     1     -31.232  14.215 -16.781  1.00  0.00    -0.363 N 
ATOM     12  H18 UNL     1     -30.588  13.434 -16.906  1.00  0.00     0.165 HD
HETATM   13  C27 UNL     1     -31.021  15.100 -15.808  1.00  0.00     0.086 A 
ENDROOT
BRANCH   4  14
HETATM   14  O1  UNL     1     -29.595  16.796 -13.020  1.00  0.00    -0.329 OA
BRANCH  14  15
HETATM   15  C4  UNL     1     -29.718  16.457 -11.685  1.00  0.00     0.222 C 
BRANCH  15  16
HETATM   16  C5  UNL     1     -30.947  16.902 -10.992  1.00  0.00     0.105 C 
HETATM   17  N2  UNL     1     -31.637  15.999 -10.242  1.00  0.00    -0.202 N 
ATOM     18  H2  UNL     1     -32.254  16.531  -9.627  1.00  0.00     0.183 HD
BRANCH  17  19
HETATM   19  C6  UNL     1     -31.827  14.804  -9.996  1.00  0.00     0.711 A 
HETATM   20  N3  UNL     1     -32.128  13.974 -11.058  1.00  0.00    -0.021 N 
HETATM   21  C7  UNL     1     -32.360  12.688 -10.961  1.00  0.00     0.705 A 
ATOM     22  H3  UNL     1     -32.173  14.393 -11.988  1.00  0.00     0.203 HD
HETATM   23  N5  UNL     1     -32.305  12.113  -9.734  1.00  0.00    -0.022 N 
HETATM   24  C8  UNL     1     -32.022  12.840  -8.655  1.00  0.00     0.705 A 
ATOM     25  H5  UNL     1     -32.483  11.114  -9.637  1.00  0.00     0.203 HD
HETATM   26  N6  UNL     1     -31.952  12.356  -7.445  1.00  0.00    -0.234 N 
HETATM   27  N7  UNL     1     -31.787  14.184  -8.807  1.00  0.00    -0.021 N 
ATOM     28  H62 UNL     1     -32.127  11.358  -7.331  1.00  0.00     0.174 HD
ATOM     29  H61 UNL     1     -31.735  12.914  -6.619  1.00  0.00     0.174 HD
ATOM     30  H7  UNL     1     -31.571  14.737  -7.978  1.00  0.00     0.203 HD
BRANCH  21  31
HETATM   31  N4  UNL     1     -32.643  11.915 -11.977  1.00  0.00    -0.234 N 
ATOM     32  H42 UNL     1     -32.258  12.173 -12.886  1.00  0.00     0.174 HD
ATOM     33  H41 UNL     1     -33.222  11.078 -11.915  1.00  0.00     0.174 HD
ENDBRANCH  21  31
ENDBRANCH  17  19
ENDBRANCH  15  16
ENDBRANCH  14  15
ENDBRANCH   4  14
BRANCH   8  34
HETATM   34  N9  UNL     1     -33.861  17.448 -16.234  1.00  0.00    -0.379 N 
HETATM   35  C11 UNL     1     -35.019  17.301 -15.381  1.00  0.00     0.125 C 
HETATM   36  C12 UNL     1     -36.275  17.522 -16.170  1.00  0.00     0.045 C 
HETATM   37  C13 UNL     1     -36.130  18.618 -17.192  1.00  0.00     0.089 C 
HETATM   38  C23 UNL     1     -34.972  19.496 -16.787  1.00  0.00     0.045 C 
HETATM   39  C24 UNL     1     -33.652  18.745 -16.857  1.00  0.00     0.125 C 
BRANCH  37  40
HETATM   40  N10 UNL     1     -35.943  18.100 -18.518  1.00  0.00    -0.338 N 
HETATM   41  C14 UNL     1     -36.379  18.789 -19.706  1.00  0.00     0.316 C 
HETATM   42  O2  UNL     1     -36.942  19.895 -19.593  1.00  0.00    -0.247 OA
HETATM   43  N11 UNL     1     -36.176  18.216 -20.967  1.00  0.00    -0.342 N 
ATOM     44  H11 UNL     1     -35.718  17.304 -21.005  1.00  0.00     0.164 HD
ATOM     45  H10 UNL     1     -35.478  17.199 -18.624  1.00  0.00     0.164 HD
BRANCH  43  46
HETATM   46  C15 UNL     1     -36.560  18.813 -22.194  1.00  0.00     0.144 C 
BRANCH  46  47
HETATM   47  C16 UNL     1     -35.404  19.556 -22.815  1.00  0.00     0.157 C 
BRANCH  47  48
HETATM   48  N12 UNL     1     -35.201  20.793 -22.077  1.00  0.00    -0.224 N 
ATOM     49  H12 UNL     1     -35.976  21.440 -21.936  1.00  0.00     0.177 HD
BRANCH  48  50
HETATM   50  C17 UNL     1     -34.042  21.061 -21.609  1.00  0.00     0.679 A 
HETATM   51  N13 UNL     1     -33.853  21.040 -20.274  1.00  0.00    -0.202 N 
HETATM   52  C18 UNL     1     -32.680  21.306 -19.693  1.00  0.00     0.110 A 
ATOM     53  H13 UNL     1     -34.647  20.811 -19.676  1.00  0.00     0.183 HD
HETATM   54  C19 UNL     1     -31.609  21.617 -20.510  1.00  0.00     0.068 A 
HETATM   55  C20 UNL     1     -31.815  21.634 -21.866  1.00  0.00     0.136 A 
HETATM   56  N17 UNL     1     -33.022  21.357 -22.406  1.00  0.00    -0.175 N 
ATOM     57  H17 UNL     1     -33.150  21.376 -23.418  1.00  0.00     0.186 HD
BRANCH  55  58
HETATM   58  N14 UNL     1     -30.801  21.926 -22.644  1.00  0.00    -0.289 N 
ATOM     59  H14 UNL     1     -30.499  22.897 -22.731  1.00  0.00     0.188 HD
BRANCH  58  60
HETATM   60  N15 UNL     1     -30.128  20.936 -23.353  1.00  0.00    -0.326 N 
ATOM     61  H15 UNL     1     -30.651  20.127 -23.689  1.00  0.00     0.180 HD
BRANCH  60  62
HETATM   62  C21 UNL     1     -28.710  21.018 -23.628  1.00  0.00     0.238 C 
BRANCH  62  63
HETATM   63  C22 UNL     1     -27.975  20.010 -22.848  1.00  0.00     0.250 C 
HETATM   64  N16 UNL     1     -26.847  19.288 -23.306  1.00  0.00    -0.061 NA
HETATM   65  O3  UNL     1     -28.370  19.752 -21.662  1.00  0.00    -0.275 OA
ENDBRANCH  62  63
ENDBRANCH  60  62
ENDBRANCH  58  60
ENDBRANCH  55  58
ENDBRANCH  48  50
ENDBRANCH  47  48
ENDBRANCH  46  47
ENDBRANCH  43  46
ENDBRANCH  37  40
ENDBRANCH   8  34
TORSDOF 15
ENDMDL
MODEL 2
REMARK VINA RESULT: -7.976995846      2.916      8.098
REMARK  15 active torsions:
REMARK  status: ('A' for Active; 'I' for Inactive)
REMARK    1  A    between atoms: C3_4  and  O1_5 
REMARK    2  A    between atoms: O1_5  and  C4_6 
REMARK    3  A    between atoms: C4_6  and  C5_7 
REMARK    4  A    between atoms: N2_8  and  C6_10 
REMARK    5  A    between atoms: C7_13  and  N4_14 
REMARK    6  A    between atoms: C10_28  and  N9_29 
REMARK    7  A    between atoms: C13_32  and  N10_33 
REMARK       I    between atoms: N10_33  and  C14_35 
REMARK       I    between atoms: C14_35  and  N11_37 
REMARK    8  A    between atoms: N11_37  and  C15_39 
REMARK    9  A    between atoms: C15_39  and  C16_40 
REMARK   10  A    between atoms: C16_40  and  N12_41 
REMARK   11  A    between atoms: N12_41  and  C17_43 
REMARK   12  A    between atoms: C20_48  and  N14_49 
REMARK   13  A    between atoms: N14_49  and  N15_51 
REMARK   14  A    between atoms: N15_51  and  C21_53 
REMARK   15  A    between atoms: C21_53  and  C22_54 
ROOT
HETATM    1  N1  UNL     1     -31.035  19.428 -13.125  1.00  0.00    -0.191 NA
HETATM    2  C1  UNL     1     -31.038  18.305 -13.329  1.00  0.00     0.106 C 
HETATM    3  C2  UNL     1     -31.067  16.900 -13.565  1.00  0.00     0.124 A 
HETATM    4  C3  UNL     1     -30.981  16.271 -14.772  1.00  0.00     0.166 A 
HETATM    5  N8  UNL     1     -31.074  14.906 -14.532  1.00  0.00    -0.332 N 
ATOM      6  H8  UNL     1     -31.040  14.187 -15.254  1.00  0.00     0.168 HD
HETATM    7  C9  UNL     1     -31.215  14.665 -13.230  1.00  0.00     0.089 A 
HETATM    8  C10 UNL     1     -31.352  13.477 -12.514  1.00  0.00     0.061 A 
HETATM    9  C25 UNL     1     -31.481  13.618 -11.153  1.00  0.00     0.049 A 
HETATM   10  C26 UNL     1     -31.473  14.876 -10.543  1.00  0.00     0.090 A 
HETATM   11  N18 UNL     1     -31.338  15.985 -11.296  1.00  0.00    -0.363 N 
ATOM     12  H18 UNL     1     -31.333  16.903 -10.852  1.00  0.00     0.165 HD
HETATM   13  C27 UNL     1     -31.211  15.886 -12.618  1.00  0.00     0.086 A 
ENDROOT
BRANCH   4  14
HETATM   14  O1  UNL     1     -30.831  16.724 -16.058  1.00  0.00    -0.329 OA
BRANCH  14  15
HETATM   15  C4  UNL     1     -30.042  17.768 -16.504  1.00  0.00     0.222 C 
BRANCH  15  16
HETATM   16  C5  UNL     1     -28.622  17.460 -16.787  1.00  0.00     0.105 C 
HETATM   17  N2  UNL     1     -27.907  18.327 -17.557  1.00  0.00    -0.202 N 
ATOM     18  H2  UNL     1     -26.921  18.119 -17.402  1.00  0.00     0.183 HD
BRANCH  17  19
HETATM   19  C6  UNL     1     -27.957  19.259 -18.365  1.00  0.00     0.711 A 
HETATM   20  N3  UNL     1     -26.807  20.000 -18.555  1.00  0.00    -0.021 N 
HETATM   21  C7  UNL     1     -26.700  21.020 -19.372  1.00  0.00     0.705 A 
ATOM     22  H3  UNL     1     -25.979  19.734 -18.022  1.00  0.00     0.203 HD
HETATM   23  N5  UNL     1     -27.789  21.389 -20.090  1.00  0.00    -0.022 N 
HETATM   24  C8  UNL     1     -28.940  20.729 -19.967  1.00  0.00     0.705 A 
ATOM     25  H5  UNL     1     -27.727  22.180 -20.731  1.00  0.00     0.203 HD
HETATM   26  N6  UNL     1     -30.027  21.027 -20.624  1.00  0.00    -0.234 N 
HETATM   27  N7  UNL     1     -29.002  19.668 -19.099  1.00  0.00    -0.021 N 
ATOM     28  H62 UNL     1     -29.981  21.815 -21.270  1.00  0.00     0.174 HD
ATOM     29  H61 UNL     1     -30.908  20.521 -20.530  1.00  0.00     0.174 HD
ATOM     30  H7  UNL     1     -29.886  19.166 -19.008  1.00  0.00     0.203 HD
BRANCH  21  31
HETATM   31  N4  UNL     1     -25.603  21.711 -19.542  1.00  0.00    -0.234 N 
ATOM     32  H42 UNL     1     -24.794  21.456 -18.975  1.00  0.00     0.174 HD
ATOM     33  H41 UNL     1     -25.509  22.483 -20.202  1.00  0.00     0.174 HD
ENDBRANCH  21  31
ENDBRANCH  17  19
ENDBRANCH  15  16
ENDBRANCH  14  15
ENDBRANCH   4  14
BRANCH   8  34
HETATM   34  N9  UNL     1     -31.355  12.219 -13.162  1.00  0.00    -0.379 N 
HETATM   35  C11 UNL     1     -30.143  11.714 -13.765  1.00  0.00     0.125 C 
HETATM   36  C12 UNL     1     -30.333  11.537 -15.242  1.00  0.00     0.045 C 
HETATM   37  C13 UNL     1     -31.708  11.032 -15.591  1.00  0.00     0.089 C 
HETATM   38  C23 UNL     1     -32.299  10.378 -14.367  1.00  0.00     0.045 C 
HETATM   39  C24 UNL     1     -32.545  11.389 -13.259  1.00  0.00     0.125 C 
BRANCH  37  40
HETATM   40  N10 UNL     1     -32.562  12.079 -16.077  1.00  0.00    -0.338 N 
HETATM   41  C14 UNL     1     -32.292  12.826 -17.280  1.00  0.00     0.316 C 
HETATM   42  O2  UNL     1     -31.275  12.555 -17.947  1.00  0.00    -0.247 OA
HETATM   43  N11 UNL     1     -33.163  13.844 -17.686  1.00  0.00    -0.342 N 
ATOM     44  H11 UNL     1     -33.978  14.033 -17.101  1.00  0.00     0.164 HD
ATOM     45  H10 UNL     1     -33.401  12.306 -15.545  1.00  0.00     0.164 HD
BRANCH  43  46
HETATM   46  C15 UNL     1     -32.993  14.630 -18.853  1.00  0.00     0.144 C 
BRANCH  46  47
HETATM   47  C16 UNL     1     -33.418  16.056 -18.605  1.00  0.00     0.157 C 
BRANCH  47  48
HETATM   48  N12 UNL     1     -33.526  16.263 -17.170  1.00  0.00    -0.224 N 
ATOM     49  H12 UNL     1     -32.963  15.707 -16.526  1.00  0.00     0.177 HD
BRANCH  48  50
HETATM   50  C17 UNL     1     -34.334  17.147 -16.723  1.00  0.00     0.679 A 
HETATM   51  N13 UNL     1     -35.194  16.813 -15.739  1.00  0.00    -0.202 N 
HETATM   52  C18 UNL     1     -36.074  17.668 -15.209  1.00  0.00     0.110 A 
ATOM     53  H13 UNL     1     -35.172  15.858 -15.380  1.00  0.00     0.183 HD
HETATM   54  C19 UNL     1     -36.098  18.959 -15.701  1.00  0.00     0.068 A 
HETATM   55  C20 UNL     1     -35.218  19.286 -16.701  1.00  0.00     0.136 A 
HETATM   56  N17 UNL     1     -34.346  18.384 -17.204  1.00  0.00    -0.175 N 
ATOM     57  H17 UNL     1     -33.701  18.652 -17.948  1.00  0.00     0.186 HD
BRANCH  55  58
HETATM   58  N14 UNL     1     -35.237  20.511 -17.169  1.00  0.00    -0.289 N 
ATOM     59  H14 UNL     1     -35.932  20.769 -17.869  1.00  0.00     0.188 HD
BRANCH  58  60
HETATM   60  N15 UNL     1     -34.325  21.464 -16.726  1.00  0.00    -0.326 N 
ATOM     61  H15 UNL     1     -34.220  21.620 -15.724  1.00  0.00     0.180 HD
BRANCH  60  62
HETATM   62  C21 UNL     1     -33.521  22.241 -17.645  1.00  0.00     0.238 C 
BRANCH  62  63
HETATM   63  C22 UNL     1     -32.851  21.359 -18.614  1.00  0.00     0.250 C 
HETATM   64  N16 UNL     1     -32.087  20.215 -18.283  1.00  0.00    -0.061 NA
HETATM   65  O3  UNL     1     -32.956  21.632 -19.857  1.00  0.00    -0.275 OA
ENDBRANCH  62  63
ENDBRANCH  60  62
ENDBRANCH  58  60
ENDBRANCH  55  58
ENDBRANCH  48  50
ENDBRANCH  47  48
ENDBRANCH  46  47
ENDBRANCH  43  46
ENDBRANCH  37  40
ENDBRANCH   8  34
TORSDOF 15
ENDMDL
MODEL 3
REMARK VINA RESULT: -7.968712922      4.965      9.596
REMARK  15 active torsions:
REMARK  status: ('A' for Active; 'I' for Inactive)
REMARK    1  A    between atoms: C3_4  and  O1_5 
REMARK    2  A    between atoms: O1_5  and  C4_6 
REMARK    3  A    between atoms: C4_6  and  C5_7 
REMARK    4  A    between atoms: N2_8  and  C6_10 
REMARK    5  A    between atoms: C7_13  and  N4_14 
REMARK    6  A    between atoms: C10_28  and  N9_29 
REMARK    7  A    between atoms: C13_32  and  N10_33 
REMARK       I    between atoms: N10_33  and  C14_35 
REMARK       I    between atoms: C14_35  and  N11_37 
REMARK    8  A    between atoms: N11_37  and  C15_39 
REMARK    9  A    between atoms: C15_39  and  C16_40 
REMARK   10  A    between atoms: C16_40  and  N12_41 
REMARK   11  A    between atoms: N12_41  and  C17_43 
REMARK   12  A    between atoms: C20_48  and  N14_49 
REMARK   13  A    between atoms: N14_49  and  N15_51 
REMARK   14  A    between atoms: N15_51  and  C21_53 
REMARK   15  A    between atoms: C21_53  and  C22_54 
ROOT
HETATM    1  N1  UNL     1     -33.064  11.638  -8.825  1.00  0.00    -0.191 NA
HETATM    2  C1  UNL     1     -32.751  12.282  -9.714  1.00  0.00     0.106 C 
HETATM    3  C2  UNL     1     -32.331  13.084 -10.815  1.00  0.00     0.124 A 
HETATM    4  C3  UNL     1     -32.670  12.917 -12.125  1.00  0.00     0.166 A 
HETATM    5  N8  UNL     1     -32.018  13.909 -12.847  1.00  0.00    -0.332 N 
ATOM      6  H8  UNL     1     -32.086  14.030 -13.858  1.00  0.00     0.168 HD
HETATM    7  C9  UNL     1     -31.291  14.679 -12.040  1.00  0.00     0.089 A 
HETATM    8  C10 UNL     1     -30.473  15.779 -12.294  1.00  0.00     0.061 A 
HETATM    9  C25 UNL     1     -29.865  16.330 -11.190  1.00  0.00     0.049 A 
HETATM   10  C26 UNL     1     -30.065  15.811  -9.908  1.00  0.00     0.090 A 
HETATM   11  N18 UNL     1     -30.870  14.745  -9.734  1.00  0.00    -0.363 N 
ATOM     12  H18 UNL     1     -31.017  14.365  -8.799  1.00  0.00     0.165 HD
HETATM   13  C27 UNL     1     -31.475  14.184 -10.781  1.00  0.00     0.086 A 
ENDROOT
BRANCH   4  14
HETATM   14  O1  UNL     1     -33.472  12.018 -12.780  1.00  0.00    -0.329 OA
BRANCH  14  15
HETATM   15  C4  UNL     1     -33.102  11.089 -13.735  1.00  0.00     0.222 C 
BRANCH  15  16
HETATM   16  C5  UNL     1     -34.148  10.655 -14.688  1.00  0.00     0.105 C 
HETATM   17  N2  UNL     1     -34.688  11.579 -15.530  1.00  0.00    -0.202 N 
ATOM     18  H2  UNL     1     -35.149  11.065 -16.281  1.00  0.00     0.183 HD
BRANCH  17  19
HETATM   19  C6  UNL     1     -34.851  12.781 -15.763  1.00  0.00     0.711 A 
HETATM   20  N3  UNL     1     -35.445  13.546 -14.779  1.00  0.00    -0.021 N 
HETATM   21  C7  UNL     1     -35.691  14.830 -14.876  1.00  0.00     0.705 A 
ATOM     22  H3  UNL     1     -35.714  13.078 -13.913  1.00  0.00     0.203 HD
HETATM   23  N5  UNL     1     -35.341  15.470 -16.019  1.00  0.00    -0.022 N 
HETATM   24  C8  UNL     1     -34.763  14.807 -17.019  1.00  0.00     0.705 A 
ATOM     25  H5  UNL     1     -35.524  16.469 -16.115  1.00  0.00     0.203 HD
HETATM   26  N6  UNL     1     -34.400  15.356 -18.146  1.00  0.00    -0.234 N 
HETATM   27  N7  UNL     1     -34.526  13.464 -16.871  1.00  0.00    -0.021 N 
ATOM     28  H62 UNL     1     -34.575  16.355 -18.257  1.00  0.00     0.174 HD
ATOM     29  H61 UNL     1     -33.957  14.848 -18.912  1.00  0.00     0.174 HD
ATOM     30  H7  UNL     1     -34.084  12.960 -17.640  1.00  0.00     0.203 HD
BRANCH  21  31
HETATM   31  N4  UNL     1     -36.254  15.542 -13.935  1.00  0.00    -0.234 N 
ATOM     32  H42 UNL     1     -36.119  15.238 -12.971  1.00  0.00     0.174 HD
ATOM     33  H41 UNL     1     -36.817  16.375 -14.106  1.00  0.00     0.174 HD
ENDBRANCH  21  31
ENDBRANCH  17  19
ENDBRANCH  15  16
ENDBRANCH  14  15
ENDBRANCH   4  14
BRANCH   8  34
HETATM   34  N9  UNL     1     -30.291  16.279 -13.604  1.00  0.00    -0.379 N 
HETATM   35  C11 UNL     1     -31.322  17.083 -14.219  1.00  0.00     0.125 C 
HETATM   36  C12 UNL     1     -31.843  16.405 -15.451  1.00  0.00     0.045 C 
HETATM   37  C13 UNL     1     -30.759  15.707 -16.228  1.00  0.00     0.089 C 
HETATM   38  C23 UNL     1     -29.432  16.309 -15.839  1.00  0.00     0.045 C 
HETATM   39  C24 UNL     1     -29.093  16.018 -14.385  1.00  0.00     0.125 C 
BRANCH  37  40
HETATM   40  N10 UNL     1     -30.764  14.288 -16.010  1.00  0.00    -0.338 N 
HETATM   41  C14 UNL     1     -31.220  13.337 -16.992  1.00  0.00     0.316 C 
HETATM   42  O2  UNL     1     -31.626  13.752 -18.094  1.00  0.00    -0.247 OA
HETATM   43  N11 UNL     1     -31.210  11.968 -16.703  1.00  0.00    -0.342 N 
ATOM     44  H11 UNL     1     -30.876  11.679 -15.783  1.00  0.00     0.164 HD
ATOM     45  H10 UNL     1     -30.428  13.935 -15.114  1.00  0.00     0.164 HD
BRANCH  43  46
HETATM   46  C15 UNL     1     -31.630  10.953 -17.599  1.00  0.00     0.144 C 
BRANCH  46  47
HETATM   47  C16 UNL     1     -30.861   9.677 -17.364  1.00  0.00     0.157 C 
BRANCH  47  48
HETATM   48  N12 UNL     1     -31.508   8.940 -16.290  1.00  0.00    -0.224 N 
ATOM     49  H12 UNL     1     -32.508   8.741 -16.332  1.00  0.00     0.177 HD
BRANCH  48  50
HETATM   50  C17 UNL     1     -30.813   8.543 -15.294  1.00  0.00     0.679 A 
HETATM   51  N13 UNL     1     -31.057   7.327 -14.764  1.00  0.00    -0.202 N 
HETATM   52  C18 UNL     1     -30.383   6.828 -13.724  1.00  0.00     0.110 A 
ATOM     53  H13 UNL     1     -31.796   6.759 -15.179  1.00  0.00     0.183 HD
HETATM   54  C19 UNL     1     -29.385   7.604 -13.168  1.00  0.00     0.068 A 
HETATM   55  C20 UNL     1     -29.146   8.839 -13.716  1.00  0.00     0.136 A 
HETATM   56  N17 UNL     1     -29.856   9.300 -14.769  1.00  0.00    -0.175 N 
ATOM     57  H17 UNL     1     -29.659  10.222 -15.159  1.00  0.00     0.186 HD
BRANCH  55  58
HETATM   58  N14 UNL     1     -28.198   9.578 -13.191  1.00  0.00    -0.289 N 
ATOM     59  H14 UNL     1     -28.104   9.627 -12.177  1.00  0.00     0.188 HD
BRANCH  58  60
HETATM   60  N15 UNL     1     -27.317  10.296 -13.995  1.00  0.00    -0.326 N 
ATOM     61  H15 UNL     1     -26.682   9.788 -14.609  1.00  0.00     0.180 HD
BRANCH  60  62
HETATM   62  C21 UNL     1     -27.277  11.742 -13.985  1.00  0.00     0.238 C 
BRANCH  62  63
HETATM   63  C22 UNL     1     -28.460  12.286 -13.298  1.00  0.00     0.250 C 
HETATM   64  N16 UNL     1     -28.503  12.686 -11.942  1.00  0.00    -0.061 NA
HETATM   65  O3  UNL     1     -29.543  12.414 -13.962  1.00  0.00    -0.275 OA
ENDBRANCH  62  63
ENDBRANCH  60  62
ENDBRANCH  58  60
ENDBRANCH  55  58
ENDBRANCH  48  50
ENDBRANCH  47  48
ENDBRANCH  46  47
ENDBRANCH  43  46
ENDBRANCH  37  40
ENDBRANCH   8  34
TORSDOF 15
ENDMDL
MODEL 4
REMARK VINA RESULT: -7.866727486      5.902     10.544
REMARK  15 active torsions:
REMARK  status: ('A' for Active; 'I' for Inactive)
REMARK    1  A    between atoms: C3_4  and  O1_5 
REMARK    2  A    between atoms: O1_5  and  C4_6 
REMARK    3  A    between atoms: C4_6  and  C5_7 
REMARK    4  A    between atoms: N2_8  and  C6_10 
REMARK    5  A    between atoms: C7_13  and  N4_14 
REMARK    6  A    between atoms: C10_28  and  N9_29 
REMARK    7  A    between atoms: C13_32  and  N10_33 
REMARK       I    between atoms: N10_33  and  C14_35 
REMARK       I    between atoms: C14_35  and  N11_37 
REMARK    8  A    between atoms: N11_37  and  C15_39 
REMARK    9  A    between atoms: C15_39  and  C16_40 
REMARK   10  A    between atoms: C16_40  and  N12_41 
REMARK   11  A    between atoms: N12_41  and  C17_43 
REMARK   12  A    between atoms: C20_48  and  N14_49 
REMARK   13  A    between atoms: N14_49  and  N15_51 
REMARK   14  A    between atoms: N15_51  and  C21_53 
REMARK   15  A    between atoms: C21_53  and  C22_54 
ROOT
HETATM    1  N1  UNL     1     -33.144  12.288  -8.376  1.00  0.00    -0.191 NA
HETATM    2  C1  UNL     1     -32.748  12.662  -9.380  1.00  0.00     0.106 C 
HETATM    3  C2  UNL     1     -32.231  13.142 -10.618  1.00  0.00     0.124 A 
HETATM    4  C3  UNL     1     -32.032  12.420 -11.756  1.00  0.00     0.166 A 
HETATM    5  N8  UNL     1     -31.495  13.283 -12.703  1.00  0.00    -0.332 N 
ATOM      6  H8  UNL     1     -31.243  13.017 -13.654  1.00  0.00     0.168 HD
HETATM    7  C9  UNL     1     -31.352  14.507 -12.197  1.00  0.00     0.089 A 
HETATM    8  C10 UNL     1     -30.860  15.689 -12.748  1.00  0.00     0.061 A 
HETATM    9  C25 UNL     1     -30.862  16.778 -11.909  1.00  0.00     0.049 A 
HETATM   10  C26 UNL     1     -31.329  16.689 -10.595  1.00  0.00     0.090 A 
HETATM   11  N18 UNL     1     -31.792  15.514 -10.125  1.00  0.00    -0.363 N 
ATOM     12  H18 UNL     1     -32.133  15.448  -9.166  1.00  0.00     0.165 HD
HETATM   13  C27 UNL     1     -31.805  14.437 -10.910  1.00  0.00     0.086 A 
ENDROOT
BRANCH   4  14
HETATM   14  O1  UNL     1     -32.256  11.107 -12.087  1.00  0.00    -0.329 OA
BRANCH  14  15
HETATM   15  C4  UNL     1     -33.351  10.570 -12.739  1.00  0.00     0.222 C 
BRANCH  15  16
HETATM   16  C5  UNL     1     -33.309  10.557 -14.218  1.00  0.00     0.105 C 
HETATM   17  N2  UNL     1     -33.877  11.593 -14.897  1.00  0.00    -0.202 N 
ATOM     18  H2  UNL     1     -33.505  11.566 -15.846  1.00  0.00     0.183 HD
BRANCH  17  19
HETATM   19  C6  UNL     1     -34.654  12.550 -14.840  1.00  0.00     0.711 A 
HETATM   20  N3  UNL     1     -35.994  12.297 -15.060  1.00  0.00    -0.021 N 
HETATM   21  C7  UNL     1     -36.940  13.204 -15.039  1.00  0.00     0.705 A 
ATOM     22  H3  UNL     1     -36.268  11.334 -15.252  1.00  0.00     0.203 HD
HETATM   23  N5  UNL     1     -36.595  14.491 -14.784  1.00  0.00    -0.022 N 
HETATM   24  C8  UNL     1     -35.325  14.823 -14.562  1.00  0.00     0.705 A 
ATOM     25  H5  UNL     1     -37.316  15.212 -14.764  1.00  0.00     0.203 HD
HETATM   26  N6  UNL     1     -34.920  16.038 -14.311  1.00  0.00    -0.234 N 
HETATM   27  N7  UNL     1     -34.370  13.838 -14.594  1.00  0.00    -0.021 N 
ATOM     28  H62 UNL     1     -35.629  16.770 -14.286  1.00  0.00     0.174 HD
ATOM     29  H61 UNL     1     -33.947  16.292 -14.141  1.00  0.00     0.174 HD
ATOM     30  H7  UNL     1     -33.398  14.097 -14.424  1.00  0.00     0.203 HD
BRANCH  21  31
HETATM   31  N4  UNL     1     -38.205  12.949 -15.248  1.00  0.00    -0.234 N 
ATOM     32  H42 UNL     1     -38.435  12.095 -15.757  1.00  0.00     0.174 HD
ATOM     33  H41 UNL     1     -38.969  13.548 -14.935  1.00  0.00     0.174 HD
ENDBRANCH  21  31
ENDBRANCH  17  19
ENDBRANCH  15  16
ENDBRANCH  14  15
ENDBRANCH   4  14
BRANCH   8  34
HETATM   34  N9  UNL     1     -30.394  15.745 -14.082  1.00  0.00    -0.379 N 
HETATM   35  C11 UNL     1     -31.338  15.806 -15.175  1.00  0.00     0.125 C 
HETATM   36  C12 UNL     1     -31.189  14.603 -16.058  1.00  0.00     0.045 C 
HETATM   37  C13 UNL     1     -29.752  14.183 -16.223  1.00  0.00     0.089 C 
HETATM   38  C23 UNL     1     -28.871  15.361 -15.889  1.00  0.00     0.045 C 
HETATM   39  C24 UNL     1     -28.981  15.741 -14.421  1.00  0.00     0.125 C 
BRANCH  37  40
HETATM   40  N10 UNL     1     -29.423  13.048 -15.408  1.00  0.00    -0.338 N 
HETATM   41  C14 UNL     1     -30.017  11.746 -15.586  1.00  0.00     0.316 C 
HETATM   42  O2  UNL     1     -30.855  11.581 -16.494  1.00  0.00    -0.247 OA
HETATM   43  N11 UNL     1     -29.658  10.688 -14.743  1.00  0.00    -0.342 N 
ATOM     44  H11 UNL     1     -28.975  10.877 -14.009  1.00  0.00     0.164 HD
ATOM     45  H10 UNL     1     -28.734  13.168 -14.666  1.00  0.00     0.164 HD
BRANCH  43  46
HETATM   46  C15 UNL     1     -30.177   9.373 -14.837  1.00  0.00     0.144 C 
BRANCH  46  47
HETATM   47  C16 UNL     1     -29.068   8.353 -14.782  1.00  0.00     0.157 C 
BRANCH  47  48
HETATM   48  N12 UNL     1     -29.134   7.667 -13.501  1.00  0.00    -0.224 N 
ATOM     49  H12 UNL     1     -29.948   7.101 -13.262  1.00  0.00     0.177 HD
BRANCH  48  50
HETATM   50  C17 UNL     1     -28.163   7.782 -12.678  1.00  0.00     0.679 A 
HETATM   51  N13 UNL     1     -27.345   6.728 -12.477  1.00  0.00    -0.202 N 
HETATM   52  C18 UNL     1     -26.305   6.753 -11.638  1.00  0.00     0.110 A 
ATOM     53  H13 UNL     1     -27.529   5.867 -12.993  1.00  0.00     0.183 HD
HETATM   54  C19 UNL     1     -26.063   7.923 -10.944  1.00  0.00     0.068 A 
HETATM   55  C20 UNL     1     -26.902   8.987 -11.157  1.00  0.00     0.136 A 
HETATM   56  N17 UNL     1     -27.941   8.912 -12.018  1.00  0.00    -0.175 N 
ATOM     57  H17 UNL     1     -28.551   9.718 -12.160  1.00  0.00     0.186 HD
BRANCH  55  58
HETATM   58  N14 UNL     1     -26.673  10.099 -10.502  1.00  0.00    -0.289 N 
ATOM     59  H14 UNL     1     -27.044  10.210  -9.558  1.00  0.00     0.188 HD
BRANCH  58  60
HETATM   60  N15 UNL     1     -25.933  11.131 -11.070  1.00  0.00    -0.326 N 
ATOM     61  H15 UNL     1     -25.425  11.770 -10.459  1.00  0.00     0.180 HD
BRANCH  60  62
HETATM   62  C21 UNL     1     -25.862  11.325 -12.502  1.00  0.00     0.238 C 
BRANCH  62  63
HETATM   63  C22 UNL     1     -27.032  12.081 -12.978  1.00  0.00     0.250 C 
HETATM   64  N16 UNL     1     -28.245  12.238 -12.267  1.00  0.00    -0.061 NA
HETATM   65  O3  UNL     1     -26.966  12.647 -14.120  1.00  0.00    -0.275 OA
ENDBRANCH  62  63
ENDBRANCH  60  62
ENDBRANCH  58  60
ENDBRANCH  55  58
ENDBRANCH  48  50
ENDBRANCH  47  48
ENDBRANCH  46  47
ENDBRANCH  43  46
ENDBRANCH  37  40
ENDBRANCH   8  34
TORSDOF 15
ENDMDL
MODEL 5
REMARK VINA RESULT: -7.859536948      2.491      3.116
REMARK  15 active torsions:
REMARK  status: ('A' for Active; 'I' for Inactive)
REMARK    1  A    between atoms: C3_4  and  O1_5 
REMARK    2  A    between atoms: O1_5  and  C4_6 
REMARK    3  A    between atoms: C4_6  and  C5_7 
REMARK    4  A    between atoms: N2_8  and  C6_10 
REMARK    5  A    between atoms: C7_13  and  N4_14 
REMARK    6  A    between atoms: C10_28  and  N9_29 
REMARK    7  A    between atoms: C13_32  and  N10_33 
REMARK       I    between atoms: N10_33  and  C14_35 
REMARK       I    between atoms: C14_35  and  N11_37 
REMARK    8  A    between atoms: N11_37  and  C15_39 
REMARK    9  A    between atoms: C15_39  and  C16_40 
REMARK   10  A    between atoms: C16_40  and  N12_41 
REMARK   11  A    between atoms: N12_41  and  C17_43 
REMARK   12  A    between atoms: C20_48  and  N14_49 
REMARK   13  A    between atoms: N14_49  and  N15_51 
REMARK   14  A    between atoms: N15_51  and  C21_53 
REMARK   15  A    between atoms: C21_53  and  C22_54 
ROOT
HETATM    1  N1  UNL     1     -28.441  15.686 -14.261  1.00  0.00    -0.191 NA
HETATM    2  C1  UNL     1     -29.538  15.954 -14.428  1.00  0.00     0.106 C 
HETATM    3  C2  UNL     1     -30.914  16.260 -14.639  1.00  0.00     0.124 A 
HETATM    4  C3  UNL     1     -31.697  17.076 -13.879  1.00  0.00     0.166 A 
HETATM    5  N8  UNL     1     -32.969  17.063 -14.437  1.00  0.00    -0.332 N 
ATOM      6  H8  UNL     1     -33.766  17.587 -14.076  1.00  0.00     0.168 HD
HETATM    7  C9  UNL     1     -33.005  16.273 -15.508  1.00  0.00     0.089 A 
HETATM    8  C10 UNL     1     -34.038  15.940 -16.383  1.00  0.00     0.061 A 
HETATM    9  C25 UNL     1     -33.699  15.073 -17.395  1.00  0.00     0.049 A 
HETATM   10  C26 UNL     1     -32.402  14.568 -17.523  1.00  0.00     0.090 A 
HETATM   11  N18 UNL     1     -31.451  14.932 -16.641  1.00  0.00    -0.363 N 
ATOM     12  H18 UNL     1     -30.504  14.564 -16.734  1.00  0.00     0.165 HD
HETATM   13  C27 UNL     1     -31.743  15.770 -15.648  1.00  0.00     0.086 A 
ENDROOT
BRANCH   4  14
HETATM   14  O1  UNL     1     -31.455  17.835 -12.761  1.00  0.00    -0.329 OA
BRANCH  14  15
HETATM   15  C4  UNL     1     -31.491  17.434 -11.438  1.00  0.00     0.222 C 
BRANCH  15  16
HETATM   16  C5  UNL     1     -30.293  16.737 -10.918  1.00  0.00     0.105 C 
HETATM   17  N2  UNL     1     -30.334  15.382 -10.784  1.00  0.00    -0.202 N 
ATOM     18  H2  UNL     1     -29.368  15.062 -10.704  1.00  0.00     0.183 HD
BRANCH  17  19
HETATM   19  C6  UNL     1     -31.053  14.381 -10.719  1.00  0.00     0.711 A 
HETATM   20  N3  UNL     1     -31.461  13.969  -9.465  1.00  0.00    -0.021 N 
HETATM   21  C7  UNL     1     -32.219  12.926  -9.230  1.00  0.00     0.705 A 
ATOM     22  H3  UNL     1     -31.150  14.516  -8.663  1.00  0.00     0.203 HD
HETATM   23  N5  UNL     1     -32.643  12.185 -10.284  1.00  0.00    -0.022 N 
HETATM   24  C8  UNL     1     -32.295  12.512 -11.528  1.00  0.00     0.705 A 
ATOM     25  H5  UNL     1     -33.233  11.369 -10.123  1.00  0.00     0.203 HD
HETATM   26  N6  UNL     1     -32.665  11.847 -12.588  1.00  0.00    -0.234 N 
HETATM   27  N7  UNL     1     -31.500  13.612 -11.723  1.00  0.00    -0.021 N 
ATOM     28  H62 UNL     1     -33.257  11.029 -12.443  1.00  0.00     0.174 HD
ATOM     29  H61 UNL     1     -32.399  12.097 -13.541  1.00  0.00     0.174 HD
ATOM     30  H7  UNL     1     -31.236  13.858 -12.678  1.00  0.00     0.203 HD
BRANCH  21  31
HETATM   31  N4  UNL     1     -32.598  12.549  -8.037  1.00  0.00    -0.234 N 
ATOM     32  H42 UNL     1     -32.050  12.879  -7.243  1.00  0.00     0.174 HD
ATOM     33  H41 UNL     1     -33.402  11.948  -7.855  1.00  0.00     0.174 HD
ENDBRANCH  21  31
ENDBRANCH  17  19
ENDBRANCH  15  16
ENDBRANCH  14  15
ENDBRANCH   4  14
BRANCH   8  34
HETATM   34  N9  UNL     1     -35.340  16.469 -16.225  1.00  0.00    -0.379 N 
HETATM   35  C11 UNL     1     -36.488  15.593 -16.296  1.00  0.00     0.125 C 
HETATM   36  C12 UNL     1     -37.372  15.990 -17.440  1.00  0.00     0.045 C 
HETATM   37  C13 UNL     1     -37.454  17.483 -17.617  1.00  0.00     0.089 C 
HETATM   38  C23 UNL     1     -37.054  18.137 -16.318  1.00  0.00     0.045 C 
HETATM   39  C24 UNL     1     -35.592  17.881 -15.991  1.00  0.00     0.125 C 
BRANCH  37  40
HETATM   40  N10 UNL     1     -36.632  17.945 -18.700  1.00  0.00    -0.338 N 
HETATM   41  C14 UNL     1     -37.165  18.415 -19.953  1.00  0.00     0.316 C 
HETATM   42  O2  UNL     1     -38.400  18.435 -20.118  1.00  0.00    -0.247 OA
HETATM   43  N11 UNL     1     -36.302  18.838 -20.971  1.00  0.00    -0.342 N 
ATOM     44  H11 UNL     1     -35.298  18.794 -20.790  1.00  0.00     0.164 HD
ATOM     45  H10 UNL     1     -35.620  17.940 -18.576  1.00  0.00     0.164 HD
BRANCH  43  46
HETATM   46  C15 UNL     1     -36.723  19.323 -22.234  1.00  0.00     0.144 C 
BRANCH  46  47
HETATM   47  C16 UNL     1     -36.993  20.806 -22.177  1.00  0.00     0.157 C 
BRANCH  47  48
HETATM   48  N12 UNL     1     -35.860  21.504 -22.765  1.00  0.00    -0.224 N 
ATOM     49  H12 UNL     1     -35.622  21.363 -23.746  1.00  0.00     0.177 HD
BRANCH  48  50
HETATM   50  C17 UNL     1     -35.167  22.295 -22.039  1.00  0.00     0.679 A 
HETATM   51  N13 UNL     1     -35.243  23.624 -22.258  1.00  0.00    -0.202 N 
HETATM   52  C18 UNL     1     -34.557  24.527 -21.552  1.00  0.00     0.110 A 
ATOM     53  H13 UNL     1     -35.856  23.957 -23.002  1.00  0.00     0.183 HD
HETATM   54  C19 UNL     1     -33.728  24.067 -20.546  1.00  0.00     0.068 A 
HETATM   55  C20 UNL     1     -33.660  22.714 -20.333  1.00  0.00     0.136 A 
HETATM   56  N17 UNL     1     -34.375  21.839 -21.075  1.00  0.00    -0.175 N 
ATOM     57  H17 UNL     1     -34.308  20.837 -20.897  1.00  0.00     0.186 HD
BRANCH  55  58
HETATM   58  N14 UNL     1     -32.876  22.274 -19.378  1.00  0.00    -0.289 N 
ATOM     59  H14 UNL     1     -31.934  21.958 -19.608  1.00  0.00     0.188 HD
BRANCH  58  60
HETATM   60  N15 UNL     1     -33.307  22.232 -18.055  1.00  0.00    -0.326 N 
ATOM     61  H15 UNL     1     -33.194  23.061 -17.472  1.00  0.00     0.180 HD
BRANCH  60  62
HETATM   62  C21 UNL     1     -33.911  21.048 -17.483  1.00  0.00     0.238 C 
BRANCH  62  63
HETATM   63  C22 UNL     1     -33.329  19.835 -18.079  1.00  0.00     0.250 C 
HETATM   64  N16 UNL     1     -32.213  19.131 -17.569  1.00  0.00    -0.061 NA
HETATM   65  O3  UNL     1     -33.861  19.364 -19.140  1.00  0.00    -0.275 OA
ENDBRANCH  62  63
ENDBRANCH  60  62
ENDBRANCH  58  60
ENDBRANCH  55  58
ENDBRANCH  48  50
ENDBRANCH  47  48
ENDBRANCH  46  47
ENDBRANCH  43  46
ENDBRANCH  37  40
ENDBRANCH   8  34
TORSDOF 15
ENDMDL
