MODEL 1
REMARK VINA RESULT: -8.553395017      0.000      0.000
REMARK  15 active torsions:
REMARK  status: ('A' for Active; 'I' for Inactive)
REMARK    1  A    between atoms: N1_2  and  C2_4 
REMARK    2  A    between atoms: C6_8  and  S1_9 
REMARK    3  A    between atoms: S1_9  and  N2_12 
REMARK    4  A    between atoms: N2_12  and  C7_14 
REMARK    5  A    between atoms: C10_17  and  N3_18 
REMARK    6  A    between atoms: N3_18  and  C11_19 
REMARK    7  A    between atoms: C13_25  and  N6_26 
REMARK    8  A    between atoms: N6_26  and  C14_28 
REMARK    9  A    between atoms: C14_28  and  C15_29 
REMARK   10  A    between atoms: C15_29  and  N7_30 
REMARK   11  A    between atoms: N11_42  and  C20_44 
REMARK   12  A    between atoms: C20_44  and  C21_45 
REMARK   13  A    between atoms: C21_45  and  N12_46 
REMARK   14  A    between atoms: C24_52  and  N15_53 
REMARK   15  A    between atoms: C25_58  and  N17_59 
ROOT
HETATM    1  C11 UNL     1     -33.560  18.570 -17.330  1.00  0.00     0.227 C 
HETATM    2  N4  UNL     1     -33.054  19.503 -18.208  1.00  0.00    -0.313 N 
ATOM      3  H4  UNL     1     -32.385  20.172 -17.827  1.00  0.00     0.170 HD
HETATM    4  C12 UNL     1     -33.350  19.625 -19.513  1.00  0.00     0.141 A 
HETATM    5  N5  UNL     1     -32.353  20.130 -20.242  1.00  0.00    -0.175 N 
ATOM      6  H5  UNL     1     -31.478  20.394 -19.788  1.00  0.00     0.186 HD
HETATM    7  C13 UNL     1     -32.493  20.295 -21.577  1.00  0.00     0.681 A 
HETATM    8  N10 UNL     1     -33.613  19.969 -22.228  1.00  0.00    -0.176 N 
ATOM      9  H10 UNL     1     -33.673  20.112 -23.237  1.00  0.00     0.186 HD
HETATM   10  C19 UNL     1     -34.667  19.452 -21.561  1.00  0.00     0.138 A 
HETATM   11  N11 UNL     1     -35.746  19.094 -22.058  1.00  0.00    -0.353 N 
ATOM     12  H11 UNL     1     -36.367  18.743 -21.329  1.00  0.00     0.166 HD
HETATM   13  C23 UNL     1     -34.517  19.283 -20.180  1.00  0.00     0.097 A 
HETATM   14  C24 UNL     1     -35.664  18.753 -19.618  1.00  0.00     0.118 C 
HETATM   15  N16 UNL     1     -35.703  17.995 -18.500  1.00  0.00    -0.325 N 
ATOM     16  H16 UNL     1     -36.447  17.300 -18.445  1.00  0.00     0.169 HD
HETATM   17  C25 UNL     1     -34.865  18.062 -17.453  1.00  0.00     0.160 C 
ENDROOT
BRANCH   1  18
HETATM   18  N3  UNL     1     -32.912  18.151 -16.437  1.00  0.00    -0.364 NA
BRANCH  18  19
HETATM   19  C10 UNL     1     -32.128  17.691 -15.480  1.00  0.00     0.196 A 
HETATM   20  C9  UNL     1     -30.738  17.638 -15.609  1.00  0.00     0.069 A 
HETATM   21  C8  UNL     1     -29.976  17.153 -14.576  1.00  0.00     0.055 A 
HETATM   22  C7  UNL     1     -30.530  16.713 -13.404  1.00  0.00     0.129 A 
HETATM   23  N19 UNL     1     -31.894  16.800 -13.362  1.00  0.00    -0.283 N 
HETATM   24  N18 UNL     1     -32.640  17.248 -14.307  1.00  0.00    -0.273 N 
ATOM     25  H19 UNL     1     -32.357  16.484 -12.510  1.00  0.00     0.188 HD
ATOM     26  H18 UNL     1     -33.651  17.270 -14.170  1.00  0.00     0.189 HD
BRANCH  22  27
HETATM   27  N2  UNL     1     -29.811  16.247 -12.297  1.00  0.00    -0.265 N 
ATOM     28  H2  UNL     1     -28.875  15.892 -12.491  1.00  0.00     0.180 HD
BRANCH  27  29
HETATM   29  S1  UNL     1     -30.299  16.198 -10.672  1.00  0.00     0.264 S 
HETATM   30  O1  UNL     1     -31.200  17.364 -10.359  1.00  0.00    -0.200 OA
HETATM   31  O2  UNL     1     -29.052  16.278  -9.817  1.00  0.00    -0.200 OA
BRANCH  29  32
HETATM   32  C6  UNL     1     -31.175  14.751 -10.303  1.00  0.00     0.082 A 
HETATM   33  C5  UNL     1     -31.440  14.433  -8.979  1.00  0.00     0.025 A 
HETATM   34  C4  UNL     1     -32.082  13.270  -8.621  1.00  0.00     0.004 A 
HETATM   35  C3  UNL     1     -32.463  12.416  -9.629  1.00  0.00     0.029 A 
HETATM   36  C2  UNL     1     -32.212  12.712 -10.942  1.00  0.00     0.029 A 
HETATM   37  C26 UNL     1     -31.563  13.888 -11.280  1.00  0.00     0.054 A 
BRANCH  36  38
HETATM   38  N1  UNL     1     -32.607  11.817 -11.960  1.00  0.00    -0.394 N 
HETATM   39  C1  UNL     1     -31.843  11.719 -13.194  1.00  0.00     0.146 C 
ATOM     40  H1  UNL     1     -33.434  11.235 -11.828  1.00  0.00     0.159 HD
ENDBRANCH  36  38
ENDBRANCH  29  32
ENDBRANCH  27  29
ENDBRANCH  22  27
ENDBRANCH  18  19
ENDBRANCH   1  18
BRANCH  17  41
HETATM   41  N17 UNL     1     -35.352  17.577 -16.378  1.00  0.00    -0.381 N 
ATOM     42 2H17 UNL     1     -36.016  18.198 -15.914  1.00  0.00     0.157 HD
ATOM     43 1H17 UNL     1     -35.009  16.648 -16.135  1.00  0.00     0.157 HD
ENDBRANCH  17  41
BRANCH  14  44
HETATM   44  N15 UNL     1     -36.759  19.025 -20.215  1.00  0.00    -0.385 N 
ATOM     45 2H15 UNL     1     -37.051  18.440 -20.999  1.00  0.00     0.157 HD
ATOM     46 1H15 UNL     1     -37.281  19.822 -19.852  1.00  0.00     0.157 HD
ENDBRANCH  14  44
BRANCH   7  47
HETATM   47  N6  UNL     1     -31.510  20.790 -22.266  1.00  0.00    -0.224 N 
ATOM     48  H6  UNL     1     -31.620  21.685 -22.741  1.00  0.00     0.177 HD
BRANCH  47  49
HETATM   49  C14 UNL     1     -30.278  20.080 -22.356  1.00  0.00     0.158 C 
BRANCH  49  50
HETATM   50  C15 UNL     1     -29.053  20.907 -22.130  1.00  0.00     0.161 C 
BRANCH  50  51
HETATM   51  N7  UNL     1     -28.077  20.358 -21.245  1.00  0.00    -0.215 N 
HETATM   52  C16 UNL     1     -28.278  20.264 -19.793  1.00  0.00     0.161 C 
HETATM   53  C17 UNL     1     -26.890  20.350 -19.247  1.00  0.00     0.158 C 
HETATM   54  N8  UNL     1     -26.006  20.018 -20.333  1.00  0.00    -0.225 N 
HETATM   55  C18 UNL     1     -26.797  19.801 -21.490  1.00  0.00     0.669 C 
ATOM     56  H8  UNL     1     -24.990  19.952 -20.280  1.00  0.00     0.177 HD
HETATM   57  N9  UNL     1     -26.412  19.197 -22.564  1.00  0.00    -0.235 N 
ATOM     58  H92 UNL     1     -26.980  19.041 -23.396  1.00  0.00     0.174 HD
ATOM     59  H91 UNL     1     -25.491  18.797 -22.740  1.00  0.00     0.174 HD
ENDBRANCH  50  51
ENDBRANCH  49  50
ENDBRANCH  47  49
ENDBRANCH   7  47
BRANCH  11  60
HETATM   60  C20 UNL     1     -36.376  19.019 -23.296  1.00  0.00     0.082 C 
BRANCH  60  61
HETATM   61  C21 UNL     1     -37.576  19.799 -23.629  1.00  0.00     0.166 C 
BRANCH  61  62
HETATM   62  N12 UNL     1     -38.846  19.117 -23.547  1.00  0.00    -0.362 N 
HETATM   63  C22 UNL     1     -39.670  19.332 -22.587  1.00  0.00     0.197 C 
HETATM   64  N13 UNL     1     -40.907  18.666 -22.509  1.00  0.00    -0.067 NA
HETATM   65  N14 UNL     1     -39.316  20.266 -21.588  1.00  0.00    -0.067 NA
ATOM     66  H12 UNL     1     -39.096  18.446 -24.272  1.00  0.00     0.162 HD
ENDBRANCH  61  62
ENDBRANCH  60  61
ENDBRANCH  11  60
TORSDOF 15
ENDMDL
MODEL 2
REMARK VINA RESULT: -8.016386515      1.751      2.074
REMARK  15 active torsions:
REMARK  status: ('A' for Active; 'I' for Inactive)
REMARK    1  A    between atoms: N1_2  and  C2_4 
REMARK    2  A    between atoms: C6_8  and  S1_9 
REMARK    3  A    between atoms: S1_9  and  N2_12 
REMARK    4  A    between atoms: N2_12  and  C7_14 
REMARK    5  A    between atoms: C10_17  and  N3_18 
REMARK    6  A    between atoms: N3_18  and  C11_19 
REMARK    7  A    between atoms: C13_25  and  N6_26 
REMARK    8  A    between atoms: N6_26  and  C14_28 
REMARK    9  A    between atoms: C14_28  and  C15_29 
REMARK   10  A    between atoms: C15_29  and  N7_30 
REMARK   11  A    between atoms: N11_42  and  C20_44 
REMARK   12  A    between atoms: C20_44  and  C21_45 
REMARK   13  A    between atoms: C21_45  and  N12_46 
REMARK   14  A    between atoms: C24_52  and  N15_53 
REMARK   15  A    between atoms: C25_58  and  N17_59 
ROOT
HETATM    1  C11 UNL     1     -33.183  18.484 -17.859  1.00  0.00     0.227 C 
HETATM    2  N4  UNL     1     -32.675  19.547 -18.571  1.00  0.00    -0.313 N 
ATOM      3  H4  UNL     1     -31.878  20.033 -18.157  1.00  0.00     0.170 HD
HETATM    4  C12 UNL     1     -33.116  20.013 -19.751  1.00  0.00     0.141 A 
HETATM    5  N5  UNL     1     -32.162  20.579 -20.493  1.00  0.00    -0.175 N 
ATOM      6  H5  UNL     1     -31.209  20.636 -20.134  1.00  0.00     0.186 HD
HETATM    7  C13 UNL     1     -32.450  21.078 -21.717  1.00  0.00     0.681 A 
HETATM    8  N10 UNL     1     -33.677  21.033 -22.242  1.00  0.00    -0.176 N 
ATOM      9  H10 UNL     1     -33.846  21.422 -23.170  1.00  0.00     0.186 HD
HETATM   10  C19 UNL     1     -34.696  20.476 -21.553  1.00  0.00     0.138 A 
HETATM   11  N11 UNL     1     -35.868  20.359 -21.943  1.00  0.00    -0.353 N 
ATOM     12  H11 UNL     1     -36.431  19.905 -21.225  1.00  0.00     0.166 HD
HETATM   13  C23 UNL     1     -34.395  19.962 -20.287  1.00  0.00     0.097 A 
HETATM   14  C24 UNL     1     -35.521  19.427 -19.688  1.00  0.00     0.118 C 
HETATM   15  N16 UNL     1     -35.516  18.427 -18.779  1.00  0.00    -0.325 N 
ATOM     16  H16 UNL     1     -36.333  17.816 -18.768  1.00  0.00     0.169 HD
HETATM   17  C25 UNL     1     -34.549  18.153 -17.889  1.00  0.00     0.160 C 
ENDROOT
BRANCH   1  18
HETATM   18  N3  UNL     1     -32.488  17.798 -17.197  1.00  0.00    -0.364 NA
BRANCH  18  19
HETATM   19  C10 UNL     1     -31.652  17.064 -16.486  1.00  0.00     0.196 A 
HETATM   20  C9  UNL     1     -30.410  17.540 -16.062  1.00  0.00     0.069 A 
HETATM   21  C8  UNL     1     -29.586  16.731 -15.320  1.00  0.00     0.055 A 
HETATM   22  C7  UNL     1     -29.939  15.454 -14.971  1.00  0.00     0.129 A 
HETATM   23  N19 UNL     1     -31.170  15.069 -15.426  1.00  0.00    -0.283 N 
HETATM   24  N18 UNL     1     -31.967  15.798 -16.121  1.00  0.00    -0.273 N 
ATOM     25  H19 UNL     1     -31.480  14.125 -15.193  1.00  0.00     0.188 HD
ATOM     26  H18 UNL     1     -32.867  15.411 -16.409  1.00  0.00     0.189 HD
BRANCH  22  27
HETATM   27  N2  UNL     1     -29.168  14.592 -14.183  1.00  0.00    -0.265 N 
ATOM     28  H2  UNL     1     -28.159  14.642 -14.323  1.00  0.00     0.180 HD
BRANCH  27  29
HETATM   29  S1  UNL     1     -29.699  13.472 -13.023  1.00  0.00     0.264 S 
HETATM   30  O1  UNL     1     -28.540  12.659 -12.508  1.00  0.00    -0.200 OA
HETATM   31  O2  UNL     1     -30.701  12.558 -13.695  1.00  0.00    -0.200 OA
BRANCH  29  32
HETATM   32  C6  UNL     1     -30.433  14.252 -11.661  1.00  0.00     0.082 A 
HETATM   33  C5  UNL     1     -30.376  15.634 -11.556  1.00  0.00     0.025 A 
HETATM   34  C4  UNL     1     -30.893  16.305 -10.471  1.00  0.00     0.004 A 
HETATM   35  C3  UNL     1     -31.476  15.556  -9.476  1.00  0.00     0.029 A 
HETATM   36  C2  UNL     1     -31.542  14.191  -9.563  1.00  0.00     0.029 A 
HETATM   37  C26 UNL     1     -31.016  13.536 -10.663  1.00  0.00     0.054 A 
BRANCH  36  38
HETATM   38  N1  UNL     1     -32.141  13.442  -8.527  1.00  0.00    -0.394 N 
HETATM   39  C1  UNL     1     -32.663  12.109  -8.785  1.00  0.00     0.146 C 
ATOM     40  H1  UNL     1     -32.209  13.840  -7.590  1.00  0.00     0.159 HD
ENDBRANCH  36  38
ENDBRANCH  29  32
ENDBRANCH  27  29
ENDBRANCH  22  27
ENDBRANCH  18  19
ENDBRANCH   1  18
BRANCH  17  41
HETATM   41  N17 UNL     1     -34.955  17.471 -16.889  1.00  0.00    -0.381 N 
ATOM     42 2H17 UNL     1     -34.713  17.884 -15.988  1.00  0.00     0.157 HD
ATOM     43 1H17 UNL     1     -35.456  16.617 -17.130  1.00  0.00     0.157 HD
ENDBRANCH  17  41
BRANCH  14  44
HETATM   44  N15 UNL     1     -36.636  19.944 -20.029  1.00  0.00    -0.385 N 
ATOM     45 2H15 UNL     1     -36.656  20.920 -20.326  1.00  0.00     0.157 HD
ATOM     46 1H15 UNL     1     -37.447  19.326 -19.989  1.00  0.00     0.157 HD
ENDBRANCH  14  44
BRANCH   7  47
HETATM   47  N6  UNL     1     -31.506  21.625 -22.421  1.00  0.00    -0.224 N 
ATOM     48  H6  UNL     1     -31.672  21.868 -23.397  1.00  0.00     0.177 HD
BRANCH  47  49
HETATM   49  C14 UNL     1     -30.237  21.886 -21.827  1.00  0.00     0.158 C 
BRANCH  49  50
HETATM   50  C15 UNL     1     -29.115  21.038 -22.332  1.00  0.00     0.161 C 
BRANCH  50  51
HETATM   51  N7  UNL     1     -28.208  20.542 -21.348  1.00  0.00    -0.215 N 
HETATM   52  C16 UNL     1     -28.482  20.603 -19.906  1.00  0.00     0.161 C 
HETATM   53  C17 UNL     1     -27.121  20.688 -19.299  1.00  0.00     0.158 C 
HETATM   54  N8  UNL     1     -26.200  20.215 -20.299  1.00  0.00    -0.225 N 
HETATM   55  C18 UNL     1     -26.943  19.914 -21.469  1.00  0.00     0.669 C 
ATOM     56  H8  UNL     1     -25.192  20.114 -20.187  1.00  0.00     0.177 HD
HETATM   57  N9  UNL     1     -26.535  19.190 -22.457  1.00  0.00    -0.235 N 
ATOM     58  H92 UNL     1     -27.069  18.973 -23.299  1.00  0.00     0.174 HD
ATOM     59  H91 UNL     1     -25.625  18.738 -22.544  1.00  0.00     0.174 HD
ENDBRANCH  50  51
ENDBRANCH  49  50
ENDBRANCH  47  49
ENDBRANCH   7  47
BRANCH  11  60
HETATM   60  C20 UNL     1     -36.657  20.651 -23.052  1.00  0.00     0.082 C 
BRANCH  60  61
HETATM   61  C21 UNL     1     -37.609  19.693 -23.629  1.00  0.00     0.166 C 
BRANCH  61  62
HETATM   62  N12 UNL     1     -38.991  19.821 -23.232  1.00  0.00    -0.362 N 
HETATM   63  C22 UNL     1     -39.472  19.176 -22.233  1.00  0.00     0.197 C 
HETATM   64  N13 UNL     1     -40.820  19.302 -21.849  1.00  0.00    -0.067 NA
HETATM   65  N14 UNL     1     -38.617  18.320 -21.505  1.00  0.00    -0.067 NA
ATOM     66  H12 UNL     1     -39.603  20.442 -23.761  1.00  0.00     0.162 HD
ENDBRANCH  61  62
ENDBRANCH  60  61
ENDBRANCH  11  60
TORSDOF 15
ENDMDL
MODEL 3
REMARK VINA RESULT: -7.998032983      4.616     11.255
REMARK  15 active torsions:
REMARK  status: ('A' for Active; 'I' for Inactive)
REMARK    1  A    between atoms: N1_2  and  C2_4 
REMARK    2  A    between atoms: C6_8  and  S1_9 
REMARK    3  A    between atoms: S1_9  and  N2_12 
REMARK    4  A    between atoms: N2_12  and  C7_14 
REMARK    5  A    between atoms: C10_17  and  N3_18 
REMARK    6  A    between atoms: N3_18  and  C11_19 
REMARK    7  A    between atoms: C13_25  and  N6_26 
REMARK    8  A    between atoms: N6_26  and  C14_28 
REMARK    9  A    between atoms: C14_28  and  C15_29 
REMARK   10  A    between atoms: C15_29  and  N7_30 
REMARK   11  A    between atoms: N11_42  and  C20_44 
REMARK   12  A    between atoms: C20_44  and  C21_45 
REMARK   13  A    between atoms: C21_45  and  N12_46 
REMARK   14  A    between atoms: C24_52  and  N15_53 
REMARK   15  A    between atoms: C25_58  and  N17_59 
ROOT
HETATM    1  C11 UNL     1     -33.050  16.781 -16.726  1.00  0.00     0.227 C 
HETATM    2  N4  UNL     1     -32.076  15.809 -16.686  1.00  0.00    -0.313 N 
ATOM      3  H4  UNL     1     -31.593  15.610 -17.563  1.00  0.00     0.170 HD
HETATM    4  C12 UNL     1     -31.694  15.093 -15.614  1.00  0.00     0.141 A 
HETATM    5  N5  UNL     1     -30.416  14.712 -15.655  1.00  0.00    -0.175 N 
ATOM      6  H5  UNL     1     -29.839  14.958 -16.460  1.00  0.00     0.186 HD
HETATM    7  C13 UNL     1     -29.879  14.000 -14.637  1.00  0.00     0.681 A 
HETATM    8  N10 UNL     1     -30.581  13.648 -13.557  1.00  0.00    -0.176 N 
ATOM      9  H10 UNL     1     -30.134  13.111 -12.814  1.00  0.00     0.186 HD
HETATM   10  C19 UNL     1     -31.881  13.997 -13.442  1.00  0.00     0.138 A 
HETATM   11  N11 UNL     1     -32.626  13.746 -12.482  1.00  0.00    -0.353 N 
ATOM     12  H11 UNL     1     -33.557  14.123 -12.655  1.00  0.00     0.166 HD
HETATM   13  C23 UNL     1     -32.432  14.732 -14.497  1.00  0.00     0.097 A 
HETATM   14  C24 UNL     1     -33.764  15.020 -14.259  1.00  0.00     0.118 C 
HETATM   15  N16 UNL     1     -34.425  16.094 -14.744  1.00  0.00    -0.325 N 
ATOM     16  H16 UNL     1     -35.184  16.461 -14.169  1.00  0.00     0.169 HD
HETATM   17  C25 UNL     1     -34.189  16.729 -15.903  1.00  0.00     0.160 C 
ENDROOT
BRANCH   1  18
HETATM   18  N3  UNL     1     -32.965  17.707 -17.452  1.00  0.00    -0.364 NA
BRANCH  18  19
HETATM   19  C10 UNL     1     -32.861  18.786 -18.206  1.00  0.00     0.196 A 
HETATM   20  C9  UNL     1     -32.750  18.722 -19.597  1.00  0.00     0.069 A 
HETATM   21  C8  UNL     1     -32.650  19.879 -20.327  1.00  0.00     0.055 A 
HETATM   22  C7  UNL     1     -32.656  21.116 -19.739  1.00  0.00     0.129 A 
HETATM   23  N19 UNL     1     -32.769  21.088 -18.376  1.00  0.00    -0.283 N 
HETATM   24  N18 UNL     1     -32.864  20.025 -17.660  1.00  0.00    -0.273 N 
ATOM     25  H19 UNL     1     -32.777  21.984 -17.889  1.00  0.00     0.188 HD
ATOM     26  H18 UNL     1     -32.945  20.118 -16.647  1.00  0.00     0.189 HD
BRANCH  22  27
HETATM   27  N2  UNL     1     -32.600  22.335 -20.424  1.00  0.00    -0.265 N 
ATOM     28  H2  UNL     1     -33.304  23.025 -20.164  1.00  0.00     0.180 HD
BRANCH  27  29
HETATM   29  S1  UNL     1     -31.509  22.811 -21.634  1.00  0.00     0.264 S 
HETATM   30  O1  UNL     1     -31.086  24.242 -21.427  1.00  0.00    -0.200 OA
HETATM   31  O2  UNL     1     -32.216  22.680 -22.966  1.00  0.00    -0.200 OA
BRANCH  29  32
HETATM   32  C6  UNL     1     -30.075  21.840 -21.630  1.00  0.00     0.082 A 
HETATM   33  C5  UNL     1     -29.809  21.013 -22.712  1.00  0.00     0.025 A 
HETATM   34  C4  UNL     1     -28.716  20.178 -22.742  1.00  0.00     0.004 A 
HETATM   35  C3  UNL     1     -27.879  20.184 -21.651  1.00  0.00     0.029 A 
HETATM   36  C2  UNL     1     -28.124  20.994 -20.574  1.00  0.00     0.029 A 
HETATM   37  C26 UNL     1     -29.230  21.827 -20.565  1.00  0.00     0.054 A 
BRANCH  36  38
HETATM   38  N1  UNL     1     -27.253  20.980 -19.463  1.00  0.00    -0.394 N 
HETATM   39  C1  UNL     1     -25.899  20.465 -19.593  1.00  0.00     0.146 C 
ATOM     40  H1  UNL     1     -27.576  21.333 -18.563  1.00  0.00     0.159 HD
ENDBRANCH  36  38
ENDBRANCH  29  32
ENDBRANCH  27  29
ENDBRANCH  22  27
ENDBRANCH  18  19
ENDBRANCH   1  18
BRANCH  17  41
HETATM   41  N17 UNL     1     -35.187  17.401 -16.330  1.00  0.00    -0.381 N 
ATOM     42 2H17 UNL     1     -35.963  16.821 -16.648  1.00  0.00     0.157 HD
ATOM     43 1H17 UNL     1     -35.065  18.413 -16.296  1.00  0.00     0.157 HD
ENDBRANCH  17  41
BRANCH  14  44
HETATM   44  N15 UNL     1     -34.396  14.185 -13.530  1.00  0.00    -0.385 N 
ATOM     45 2H15 UNL     1     -34.131  14.087 -12.550  1.00  0.00     0.157 HD
ATOM     46 1H15 UNL     1     -35.146  13.668 -13.989  1.00  0.00     0.157 HD
ENDBRANCH  14  44
BRANCH   7  47
HETATM   47  N6  UNL     1     -28.634  13.638 -14.699  1.00  0.00    -0.224 N 
ATOM     48  H6  UNL     1     -27.936  14.275 -15.081  1.00  0.00     0.177 HD
BRANCH  47  49
HETATM   49  C14 UNL     1     -28.244  12.350 -14.231  1.00  0.00     0.158 C 
BRANCH  49  50
HETATM   50  C15 UNL     1     -26.798  12.216 -13.876  1.00  0.00     0.161 C 
BRANCH  50  51
HETATM   51  N7  UNL     1     -26.491  11.307 -12.820  1.00  0.00    -0.215 N 
HETATM   52  C16 UNL     1     -27.020   9.937 -12.765  1.00  0.00     0.161 C 
HETATM   53  C17 UNL     1     -27.080   9.650 -11.301  1.00  0.00     0.158 C 
HETATM   54  N8  UNL     1     -26.198  10.593 -10.665  1.00  0.00    -0.225 N 
HETATM   55  C18 UNL     1     -25.675  11.447 -11.669  1.00  0.00     0.669 C 
ATOM     56  H8  UNL     1     -25.988  10.639  -9.669  1.00  0.00     0.177 HD
HETATM   57  N9  UNL     1     -24.637  12.206 -11.549  1.00  0.00    -0.235 N 
ATOM     58  H92 UNL     1     -24.261  12.820 -12.271  1.00  0.00     0.174 HD
ATOM     59  H91 UNL     1     -24.050  12.306 -10.721  1.00  0.00     0.174 HD
ENDBRANCH  50  51
ENDBRANCH  49  50
ENDBRANCH  47  49
ENDBRANCH   7  47
BRANCH  11  60
HETATM   60  C20 UNL     1     -32.591  13.113 -11.243  1.00  0.00     0.082 C 
BRANCH  60  61
HETATM   61  C21 UNL     1     -31.805  13.620 -10.110  1.00  0.00     0.166 C 
BRANCH  61  62
HETATM   62  N12 UNL     1     -31.476  15.026 -10.116  1.00  0.00    -0.362 N 
HETATM   63  C22 UNL     1     -30.295  15.445 -10.390  1.00  0.00     0.197 C 
HETATM   64  N13 UNL     1     -29.977  16.816 -10.394  1.00  0.00    -0.067 NA
HETATM   65  N14 UNL     1     -29.295  14.496 -10.696  1.00  0.00    -0.067 NA
ATOM     66  H12 UNL     1     -32.203  15.706  -9.895  1.00  0.00     0.162 HD
ENDBRANCH  61  62
ENDBRANCH  60  61
ENDBRANCH  11  60
TORSDOF 15
ENDMDL
MODEL 4
REMARK VINA RESULT: -7.913721718      3.601      4.258
REMARK  15 active torsions:
REMARK  status: ('A' for Active; 'I' for Inactive)
REMARK    1  A    between atoms: N1_2  and  C2_4 
REMARK    2  A    between atoms: C6_8  and  S1_9 
REMARK    3  A    between atoms: S1_9  and  N2_12 
REMARK    4  A    between atoms: N2_12  and  C7_14 
REMARK    5  A    between atoms: C10_17  and  N3_18 
REMARK    6  A    between atoms: N3_18  and  C11_19 
REMARK    7  A    between atoms: C13_25  and  N6_26 
REMARK    8  A    between atoms: N6_26  and  C14_28 
REMARK    9  A    between atoms: C14_28  and  C15_29 
REMARK   10  A    between atoms: C15_29  and  N7_30 
REMARK   11  A    between atoms: N11_42  and  C20_44 
REMARK   12  A    between atoms: C20_44  and  C21_45 
REMARK   13  A    between atoms: C21_45  and  N12_46 
REMARK   14  A    between atoms: C24_52  and  N15_53 
REMARK   15  A    between atoms: C25_58  and  N17_59 
ROOT
HETATM    1  C11 UNL     1     -31.868  17.622 -17.116  1.00  0.00     0.227 C 
HETATM    2  N4  UNL     1     -31.103  18.685 -17.539  1.00  0.00    -0.313 N 
ATOM      3  H4  UNL     1     -30.239  18.859 -17.024  1.00  0.00     0.170 HD
HETATM    4  C12 UNL     1     -31.373  19.519 -18.558  1.00  0.00     0.141 A 
HETATM    5  N5  UNL     1     -30.282  20.020 -19.142  1.00  0.00    -0.175 N 
ATOM      6  H5  UNL     1     -29.359  19.768 -18.790  1.00  0.00     0.186 HD
HETATM    7  C13 UNL     1     -30.393  20.860 -20.196  1.00  0.00     0.681 A 
HETATM    8  N10 UNL     1     -31.573  21.228 -20.702  1.00  0.00    -0.176 N 
ATOM      9  H10 UNL     1     -31.607  21.865 -21.499  1.00  0.00     0.186 HD
HETATM   10  C19 UNL     1     -32.722  20.763 -20.167  1.00  0.00     0.138 A 
HETATM   11  N11 UNL     1     -33.871  21.016 -20.562  1.00  0.00    -0.353 N 
ATOM     12  H11 UNL     1     -34.555  20.537 -19.977  1.00  0.00     0.166 HD
HETATM   13  C23 UNL     1     -32.604  19.894 -19.076  1.00  0.00     0.097 A 
HETATM   14  C24 UNL     1     -33.848  19.497 -18.621  1.00  0.00     0.118 C 
HETATM   15  N16 UNL     1     -34.109  18.328 -17.996  1.00  0.00    -0.325 N 
ATOM     16  H16 UNL     1     -35.040  17.936 -18.132  1.00  0.00     0.169 HD
HETATM   17  C25 UNL     1     -33.271  17.628 -17.214  1.00  0.00     0.160 C 
ENDROOT
BRANCH   1  18
HETATM   18  N3  UNL     1     -31.375  16.653 -16.657  1.00  0.00    -0.364 NA
BRANCH  18  19
HETATM   19  C10 UNL     1     -30.758  15.601 -16.153  1.00  0.00     0.196 A 
HETATM   20  C9  UNL     1     -31.119  14.292 -16.479  1.00  0.00     0.069 A 
HETATM   21  C8  UNL     1     -30.436  13.238 -15.925  1.00  0.00     0.055 A 
HETATM   22  C7  UNL     1     -29.397  13.420 -15.052  1.00  0.00     0.129 A 
HETATM   23  N19 UNL     1     -29.110  14.731 -14.788  1.00  0.00    -0.283 N 
HETATM   24  N18 UNL     1     -29.726  15.742 -15.287  1.00  0.00    -0.273 N 
ATOM     25  H19 UNL     1     -28.344  14.921 -14.142  1.00  0.00     0.188 HD
ATOM     26  H18 UNL     1     -29.428  16.682 -15.022  1.00  0.00     0.189 HD
BRANCH  22  27
HETATM   27  N2  UNL     1     -28.632  12.394 -14.484  1.00  0.00    -0.265 N 
ATOM     28  H2  UNL     1     -28.003  11.904 -15.119  1.00  0.00     0.180 HD
BRANCH  27  29
HETATM   29  S1  UNL     1     -28.618  11.864 -12.872  1.00  0.00     0.264 S 
HETATM   30  O1  UNL     1     -29.736  10.883 -12.632  1.00  0.00    -0.200 OA
HETATM   31  O2  UNL     1     -28.812  13.078 -11.989  1.00  0.00    -0.200 OA
BRANCH  29  32
HETATM   32  C6  UNL     1     -27.134  11.070 -12.465  1.00  0.00     0.082 A 
HETATM   33  C5  UNL     1     -27.169   9.783 -11.947  1.00  0.00     0.025 A 
HETATM   34  C4  UNL     1     -26.027   9.123 -11.555  1.00  0.00     0.004 A 
HETATM   35  C3  UNL     1     -24.829   9.783 -11.692  1.00  0.00     0.029 A 
HETATM   36  C2  UNL     1     -24.774  11.053 -12.202  1.00  0.00     0.029 A 
HETATM   37  C26 UNL     1     -25.935  11.699 -12.590  1.00  0.00     0.054 A 
BRANCH  36  38
HETATM   38  N1  UNL     1     -23.533  11.713 -12.328  1.00  0.00    -0.394 N 
HETATM   39  C1  UNL     1     -22.959  12.429 -11.199  1.00  0.00     0.146 C 
ATOM     40  H1  UNL     1     -23.035  11.689 -13.218  1.00  0.00     0.159 HD
ENDBRANCH  36  38
ENDBRANCH  29  32
ENDBRANCH  27  29
ENDBRANCH  22  27
ENDBRANCH  18  19
ENDBRANCH   1  18
BRANCH  17  41
HETATM   41  N17 UNL     1     -33.865  16.829 -16.416  1.00  0.00    -0.381 N 
ATOM     42 2H17 UNL     1     -33.268  16.078 -16.070  1.00  0.00     0.157 HD
ATOM     43 1H17 UNL     1     -34.845  17.051 -16.241  1.00  0.00     0.157 HD
ENDBRANCH  17  41
BRANCH  14  44
HETATM   44  N15 UNL     1     -34.803  20.322 -18.808  1.00  0.00    -0.385 N 
ATOM     45 2H15 UNL     1     -34.743  21.248 -18.385  1.00  0.00     0.157 HD
ATOM     46 1H15 UNL     1     -35.572  19.992 -19.391  1.00  0.00     0.157 HD
ENDBRANCH  14  44
BRANCH   7  47
HETATM   47  N6  UNL     1     -29.319  21.337 -20.747  1.00  0.00    -0.224 N 
ATOM     48  H6  UNL     1     -28.841  22.135 -20.329  1.00  0.00     0.177 HD
BRANCH  47  49
HETATM   49  C14 UNL     1     -28.808  20.744 -21.938  1.00  0.00     0.158 C 
BRANCH  49  50
HETATM   50  C15 UNL     1     -27.546  19.961 -21.764  1.00  0.00     0.161 C 
BRANCH  50  51
HETATM   51  N7  UNL     1     -26.464  20.643 -21.130  1.00  0.00    -0.215 N 
HETATM   52  C16 UNL     1     -25.608  21.609 -21.831  1.00  0.00     0.161 C 
HETATM   53  C17 UNL     1     -24.303  21.497 -21.114  1.00  0.00     0.158 C 
HETATM   54  N8  UNL     1     -24.590  20.892 -19.840  1.00  0.00    -0.225 N 
HETATM   55  C18 UNL     1     -25.977  20.596 -19.800  1.00  0.00     0.669 C 
ATOM     56  H8  UNL     1     -23.916  20.709 -19.097  1.00  0.00     0.177 HD
HETATM   57  N9  UNL     1     -26.663  20.340 -18.737  1.00  0.00    -0.235 N 
ATOM     58  H92 UNL     1     -27.660  20.127 -18.708  1.00  0.00     0.174 HD
ATOM     59  H91 UNL     1     -26.313  20.307 -17.780  1.00  0.00     0.174 HD
ENDBRANCH  50  51
ENDBRANCH  49  50
ENDBRANCH  47  49
ENDBRANCH   7  47
BRANCH  11  60
HETATM   60  C20 UNL     1     -34.521  21.747 -21.552  1.00  0.00     0.082 C 
BRANCH  60  61
HETATM   61  C21 UNL     1     -35.477  21.145 -22.490  1.00  0.00     0.166 C 
BRANCH  61  62
HETATM   62  N12 UNL     1     -36.862  21.110 -22.084  1.00  0.00    -0.362 N 
HETATM   63  C22 UNL     1     -37.350  20.125 -21.422  1.00  0.00     0.197 C 
HETATM   64  N13 UNL     1     -38.701  20.094 -21.028  1.00  0.00    -0.067 NA
HETATM   65  N14 UNL     1     -36.500  19.050 -21.085  1.00  0.00    -0.067 NA
ATOM     66  H12 UNL     1     -37.470  21.891 -22.330  1.00  0.00     0.162 HD
ENDBRANCH  61  62
ENDBRANCH  60  61
ENDBRANCH  11  60
TORSDOF 15
ENDMDL
MODEL 5
REMARK VINA RESULT: -7.856109303      2.187      2.736
REMARK  15 active torsions:
REMARK  status: ('A' for Active; 'I' for Inactive)
REMARK    1  A    between atoms: N1_2  and  C2_4 
REMARK    2  A    between atoms: C6_8  and  S1_9 
REMARK    3  A    between atoms: S1_9  and  N2_12 
REMARK    4  A    between atoms: N2_12  and  C7_14 
REMARK    5  A    between atoms: C10_17  and  N3_18 
REMARK    6  A    between atoms: N3_18  and  C11_19 
REMARK    7  A    between atoms: C13_25  and  N6_26 
REMARK    8  A    between atoms: N6_26  and  C14_28 
REMARK    9  A    between atoms: C14_28  and  C15_29 
REMARK   10  A    between atoms: C15_29  and  N7_30 
REMARK   11  A    between atoms: N11_42  and  C20_44 
REMARK   12  A    between atoms: C20_44  and  C21_45 
REMARK   13  A    between atoms: C21_45  and  N12_46 
REMARK   14  A    between atoms: C24_52  and  N15_53 
REMARK   15  A    between atoms: C25_58  and  N17_59 
ROOT
HETATM    1  C11 UNL     1     -33.755  18.640 -18.060  1.00  0.00     0.227 C 
HETATM    2  N4  UNL     1     -33.528  19.803 -18.761  1.00  0.00    -0.313 N 
ATOM      3  H4  UNL     1     -32.787  20.409 -18.410  1.00  0.00     0.170 HD
HETATM    4  C12 UNL     1     -34.181  20.223 -19.858  1.00  0.00     0.141 A 
HETATM    5  N5  UNL     1     -33.435  20.979 -20.666  1.00  0.00    -0.175 N 
ATOM      6  H5  UNL     1     -32.471  21.194 -20.411  1.00  0.00     0.186 HD
HETATM    7  C13 UNL     1     -33.947  21.462 -21.821  1.00  0.00     0.681 A 
HETATM    8  N10 UNL     1     -35.201  21.215 -22.211  1.00  0.00    -0.176 N 
ATOM      9  H10 UNL     1     -35.543  21.601 -23.091  1.00  0.00     0.186 HD
HETATM   10  C19 UNL     1     -36.018  20.458 -21.447  1.00  0.00     0.138 A 
HETATM   11  N11 UNL     1     -37.189  20.145 -21.713  1.00  0.00    -0.353 N 
ATOM     12  H11 UNL     1     -37.575  19.571 -20.964  1.00  0.00     0.166 HD
HETATM   13  C23 UNL     1     -35.484  19.961 -20.253  1.00  0.00     0.097 A 
HETATM   14  C24 UNL     1     -36.420  19.210 -19.566  1.00  0.00     0.118 C 
HETATM   15  N16 UNL     1     -36.133  18.196 -18.721  1.00  0.00    -0.325 N 
ATOM     16  H16 UNL     1     -36.824  17.447 -18.656  1.00  0.00     0.169 HD
HETATM   17  C25 UNL     1     -35.036  18.068 -17.958  1.00  0.00     0.160 C 
ENDROOT
BRANCH   1  18
HETATM   18  N3  UNL     1     -32.877  18.067 -17.518  1.00  0.00    -0.364 NA
BRANCH  18  19
HETATM   19  C10 UNL     1     -31.872  17.403 -16.977  1.00  0.00     0.196 A 
HETATM   20  C9  UNL     1     -30.663  18.015 -16.642  1.00  0.00     0.069 A 
HETATM   21  C8  UNL     1     -29.657  17.272 -16.077  1.00  0.00     0.055 A 
HETATM   22  C7  UNL     1     -29.792  15.933 -15.823  1.00  0.00     0.129 A 
HETATM   23  N19 UNL     1     -31.006  15.415 -16.181  1.00  0.00    -0.283 N 
HETATM   24  N18 UNL     1     -31.970  16.078 -16.711  1.00  0.00    -0.273 N 
ATOM     25  H19 UNL     1     -31.158  14.420 -16.013  1.00  0.00     0.188 HD
ATOM     26  H18 UNL     1     -32.838  15.592 -16.939  1.00  0.00     0.189 HD
BRANCH  22  27
HETATM   27  N2  UNL     1     -28.825  15.126 -15.212  1.00  0.00    -0.265 N 
ATOM     28  H2  UNL     1     -27.902  15.545 -15.100  1.00  0.00     0.180 HD
BRANCH  27  29
HETATM   29  S1  UNL     1     -28.993  13.539 -14.634  1.00  0.00     0.264 S 
HETATM   30  O1  UNL     1     -27.676  13.028 -14.113  1.00  0.00    -0.200 OA
HETATM   31  O2  UNL     1     -29.450  12.677 -15.791  1.00  0.00    -0.200 OA
BRANCH  29  32
HETATM   32  C6  UNL     1     -30.138  13.442 -13.338  1.00  0.00     0.082 A 
HETATM   33  C5  UNL     1     -30.846  12.265 -13.142  1.00  0.00     0.025 A 
HETATM   34  C4  UNL     1     -31.807  12.146 -12.165  1.00  0.00     0.004 A 
HETATM   35  C3  UNL     1     -32.053  13.243 -11.374  1.00  0.00     0.029 A 
HETATM   36  C2  UNL     1     -31.364  14.413 -11.552  1.00  0.00     0.029 A 
HETATM   37  C26 UNL     1     -30.401  14.512 -12.541  1.00  0.00     0.054 A 
BRANCH  36  38
HETATM   38  N1  UNL     1     -31.638  15.529 -10.732  1.00  0.00    -0.394 N 
HETATM   39  C1  UNL     1     -31.474  15.444  -9.289  1.00  0.00     0.146 C 
ATOM     40  H1  UNL     1     -31.953  16.402 -11.154  1.00  0.00     0.159 HD
ENDBRANCH  36  38
ENDBRANCH  29  32
ENDBRANCH  27  29
ENDBRANCH  22  27
ENDBRANCH  18  19
ENDBRANCH   1  18
BRANCH  17  41
HETATM   41  N17 UNL     1     -35.195  17.289 -16.960  1.00  0.00    -0.381 N 
ATOM     42 2H17 UNL     1     -34.320  16.929 -16.580  1.00  0.00     0.157 HD
ATOM     43 1H17 UNL     1     -36.167  17.136 -16.689  1.00  0.00     0.157 HD
ENDBRANCH  17  41
BRANCH  14  44
HETATM   44  N15 UNL     1     -37.642  19.529 -19.753  1.00  0.00    -0.385 N 
ATOM     45 2H15 UNL     1     -38.316  19.356 -19.007  1.00  0.00     0.157 HD
ATOM     46 1H15 UNL     1     -37.861  19.954 -20.655  1.00  0.00     0.157 HD
ENDBRANCH  14  44
BRANCH   7  47
HETATM   47  N6  UNL     1     -33.204  22.196 -22.591  1.00  0.00    -0.224 N 
ATOM     48  H6  UNL     1     -33.545  22.481 -23.509  1.00  0.00     0.177 HD
BRANCH  47  49
HETATM   49  C14 UNL     1     -31.910  22.603 -22.153  1.00  0.00     0.158 C 
BRANCH  49  50
HETATM   50  C15 UNL     1     -30.767  21.933 -22.847  1.00  0.00     0.161 C 
BRANCH  50  51
HETATM   51  N7  UNL     1     -29.788  21.326 -22.005  1.00  0.00    -0.215 N 
HETATM   52  C16 UNL     1     -29.792  21.470 -20.542  1.00  0.00     0.161 C 
HETATM   53  C17 UNL     1     -28.348  21.353 -20.180  1.00  0.00     0.158 C 
HETATM   54  N8  UNL     1     -27.701  20.711 -21.294  1.00  0.00    -0.225 N 
HETATM   55  C18 UNL     1     -28.676  20.500 -22.303  1.00  0.00     0.669 C 
ATOM     56  H8  UNL     1     -26.717  20.452 -21.348  1.00  0.00     0.177 HD
HETATM   57  N9  UNL     1     -28.563  19.693 -23.305  1.00  0.00    -0.235 N 
ATOM     58  H92 UNL     1     -29.263  19.542 -24.030  1.00  0.00     0.174 HD
ATOM     59  H91 UNL     1     -27.762  19.099 -23.519  1.00  0.00     0.174 HD
ENDBRANCH  50  51
ENDBRANCH  49  50
ENDBRANCH  47  49
ENDBRANCH   7  47
BRANCH  11  60
HETATM   60  C20 UNL     1     -38.141  20.330 -22.711  1.00  0.00     0.082 C 
BRANCH  60  61
HETATM   61  C21 UNL     1     -38.826  19.214 -23.377  1.00  0.00     0.166 C 
BRANCH  61  62
HETATM   62  N12 UNL     1     -40.075  18.773 -22.802  1.00  0.00    -0.362 N 
HETATM   63  C22 UNL     1     -40.121  17.861 -21.901  1.00  0.00     0.197 C 
HETATM   64  N13 UNL     1     -41.339  17.432 -21.342  1.00  0.00    -0.067 NA
HETATM   65  N14 UNL     1     -38.910  17.280 -21.463  1.00  0.00    -0.067 NA
ATOM     66  H12 UNL     1     -40.945  19.197 -23.121  1.00  0.00     0.162 HD
ENDBRANCH  61  62
ENDBRANCH  60  61
ENDBRANCH  11  60
TORSDOF 15
ENDMDL
