MODEL 1
REMARK VINA RESULT: -8.044180045      0.000      0.000
REMARK  15 active torsions:
REMARK  status: ('A' for Active; 'I' for Inactive)
REMARK    1  A    between atoms: O1_2  and  C2_3 
REMARK    2  A    between atoms: C2_3  and  C3_5 
REMARK    3  A    between atoms: C3_5  and  C4_6 
REMARK    4  A    between atoms: C4_6  and  O3_7 
REMARK    5  A    between atoms: C4_6  and  C5_9 
REMARK    6  A    between atoms: C7_11  and  O4_12 
REMARK    7  A    between atoms: C10_16  and  O5_17 
REMARK    8  A    between atoms: C11_19  and  C12_20 
REMARK    9  A    between atoms: C13_23  and  C14_24 
REMARK   10  A    between atoms: C14_24  and  C15_25 
REMARK   11  A    between atoms: C16_28  and  C17_29 
REMARK   12  A    between atoms: C17_29  and  O8_30 
REMARK   13  A    between atoms: C17_29  and  O9_32 
REMARK   14  A    between atoms: C19_34  and  O10_35 
REMARK   15  A    between atoms: C21_38  and  O11_39 
ROOT
HETATM    1  C5  UNL     1     -26.916   5.086 -34.171  1.00  0.00     0.008 A 
HETATM    2  C6  UNL     1     -26.124   5.097 -33.045  1.00  0.00     0.050 A 
HETATM    3  C7  UNL     1     -26.670   5.105 -31.781  1.00  0.00     0.081 A 
HETATM    4  C8  UNL     1     -28.049   5.102 -31.656  1.00  0.00     0.062 A 
HETATM    5  C9  UNL     1     -28.902   5.091 -32.765  1.00  0.00     0.032 A 
HETATM    6  C10 UNL     1     -28.289   5.083 -34.016  1.00  0.00     0.087 A 
HETATM    7  C11 UNL     1     -30.295   5.092 -32.307  1.00  0.00     0.065 A 
HETATM    8  C13 UNL     1     -30.327   5.103 -30.986  1.00  0.00     0.017 A 
HETATM    9  C22 UNL     1     -28.928   5.110 -30.506  1.00  0.00     0.193 A 
HETATM   10  O12 UNL     1     -28.537   5.121 -29.316  1.00  0.00    -0.287 OA
ENDROOT
BRANCH   8  11
HETATM   11  C14 UNL     1     -31.437   5.111 -30.045  1.00  0.00     0.104 C 
BRANCH  11  12
HETATM   12  C15 UNL     1     -31.083   5.775 -28.754  1.00  0.00     0.047 A 
HETATM   13  N1  UNL     1     -30.889   4.982 -27.690  1.00  0.00    -0.354 N 
HETATM   14  C16 UNL     1     -30.563   5.475 -26.455  1.00  0.00     0.098 A 
ATOM     15  H1  UNL     1     -30.988   3.974 -27.805  1.00  0.00     0.166 HD
HETATM   16  C19 UNL     1     -30.442   6.835 -26.345  1.00  0.00     0.096 A 
HETATM   17  C20 UNL     1     -30.641   7.687 -27.448  1.00  0.00     0.077 A 
HETATM   18  C21 UNL     1     -30.965   7.144 -28.661  1.00  0.00     0.091 A 
BRANCH  14  19
HETATM   19  C17 UNL     1     -30.321   4.530 -25.335  1.00  0.00     0.310 C 
BRANCH  19  20
HETATM   20  O8  UNL     1     -30.397   3.232 -25.797  1.00  0.00    -0.366 OA
ATOM     21  H8  UNL     1     -30.033   2.640 -25.149  1.00  0.00     0.213 HD
ENDBRANCH  19  20
BRANCH  19  22
HETATM   22  O9  UNL     1     -31.333   4.713 -24.394  1.00  0.00    -0.360 OA
HETATM   23  C18 UNL     1     -31.246   3.721 -23.395  1.00  0.00     0.205 C 
ENDBRANCH  19  22
ENDBRANCH  14  19
BRANCH  16  24
HETATM   24  O10 UNL     1     -30.128   7.427 -25.156  1.00  0.00    -0.358 OA
ATOM     25  H10 UNL     1     -29.226   7.589 -24.908  1.00  0.00     0.217 HD
ENDBRANCH  16  24
BRANCH  18  26
HETATM   26  O11 UNL     1     -31.168   7.961 -29.777  1.00  0.00    -0.359 OA
ATOM     27  H11 UNL     1     -31.981   8.440 -29.891  1.00  0.00     0.217 HD
ENDBRANCH  18  26
ENDBRANCH  11  12
ENDBRANCH   8  11
BRANCH   7  28
HETATM   28  C12 UNL     1     -31.468   5.060 -33.146  1.00  0.00     0.211 C 
HETATM   29  O6  UNL     1     -31.706   5.940 -34.049  1.00  0.00    -0.644 OA
HETATM   30  O7  UNL     1     -32.440   4.086 -33.059  1.00  0.00    -0.644 OA
ENDBRANCH   7  28
BRANCH   6  31
HETATM   31  O5  UNL     1     -29.013   5.075 -35.186  1.00  0.00    -0.359 OA
ATOM     32  H5  UNL     1     -29.692   5.736 -35.249  1.00  0.00     0.217 HD
ENDBRANCH   6  31
BRANCH   3  33
HETATM   33  O4  UNL     1     -25.836   5.117 -30.675  1.00  0.00    -0.360 OA
ATOM     34  H4  UNL     1     -26.108   5.571 -29.887  1.00  0.00     0.217 HD
ENDBRANCH   3  33
BRANCH   1  35
HETATM   35  C4  UNL     1     -26.277   5.060 -35.497  1.00  0.00     0.163 C 
BRANCH  35  36
HETATM   36  C3  UNL     1     -25.517   6.354 -35.759  1.00  0.00     0.147 C 
BRANCH  36  37
HETATM   37  C2  UNL     1     -24.097   6.105 -36.097  1.00  0.00     0.261 C 
HETATM   38  O2  UNL     1     -23.241   5.856 -35.220  1.00  0.00    -0.265 OA
BRANCH  37  39
HETATM   39  O1  UNL     1     -23.634   6.135 -37.410  1.00  0.00    -0.326 OA
HETATM   40  C1  UNL     1     -24.499   6.467 -38.495  1.00  0.00     0.213 C 
ENDBRANCH  37  39
ENDBRANCH  36  37
ENDBRANCH  35  36
BRANCH  35  41
HETATM   41  O3  UNL     1     -25.418   3.967 -35.628  1.00  0.00    -0.390 OA
ATOM     42  H3  UNL     1     -25.114   3.899 -36.526  1.00  0.00     0.210 HD
ENDBRANCH  35  41
ENDBRANCH   1  35
TORSDOF 15
ENDMDL
MODEL 2
REMARK VINA RESULT: -7.891475398      7.315     11.263
REMARK  15 active torsions:
REMARK  status: ('A' for Active; 'I' for Inactive)
REMARK    1  A    between atoms: O1_2  and  C2_3 
REMARK    2  A    between atoms: C2_3  and  C3_5 
REMARK    3  A    between atoms: C3_5  and  C4_6 
REMARK    4  A    between atoms: C4_6  and  O3_7 
REMARK    5  A    between atoms: C4_6  and  C5_9 
REMARK    6  A    between atoms: C7_11  and  O4_12 
REMARK    7  A    between atoms: C10_16  and  O5_17 
REMARK    8  A    between atoms: C11_19  and  C12_20 
REMARK    9  A    between atoms: C13_23  and  C14_24 
REMARK   10  A    between atoms: C14_24  and  C15_25 
REMARK   11  A    between atoms: C16_28  and  C17_29 
REMARK   12  A    between atoms: C17_29  and  O8_30 
REMARK   13  A    between atoms: C17_29  and  O9_32 
REMARK   14  A    between atoms: C19_34  and  O10_35 
REMARK   15  A    between atoms: C21_38  and  O11_39 
ROOT
HETATM    1  C5  UNL     1     -31.206   7.227 -25.021  1.00  0.00     0.008 A 
HETATM    2  C6  UNL     1     -31.804   7.872 -26.079  1.00  0.00     0.050 A 
HETATM    3  C7  UNL     1     -32.846   8.751 -25.890  1.00  0.00     0.081 A 
HETATM    4  C8  UNL     1     -33.291   8.982 -24.598  1.00  0.00     0.062 A 
HETATM    5  C9  UNL     1     -32.720   8.354 -23.486  1.00  0.00     0.032 A 
HETATM    6  C10 UNL     1     -31.669   7.476 -23.744  1.00  0.00     0.087 A 
HETATM    7  C11 UNL     1     -33.406   8.802 -22.270  1.00  0.00     0.065 A 
HETATM    8  C13 UNL     1     -34.357   9.662 -22.589  1.00  0.00     0.017 A 
HETATM    9  C22 UNL     1     -34.338   9.823 -24.059  1.00  0.00     0.193 A 
HETATM   10  O12 UNL     1     -35.087  10.553 -24.750  1.00  0.00    -0.287 OA
ENDROOT
BRANCH   8  11
HETATM   11  C14 UNL     1     -35.317  10.390 -21.773  1.00  0.00     0.104 C 
BRANCH  11  12
HETATM   12  C15 UNL     1     -36.625   9.676 -21.661  1.00  0.00     0.047 A 
HETATM   13  N1  UNL     1     -37.318   9.483 -22.792  1.00  0.00    -0.354 N 
HETATM   14  C16 UNL     1     -38.528   8.844 -22.815  1.00  0.00     0.098 A 
ATOM     15  H1  UNL     1     -36.927   9.825 -23.670  1.00  0.00     0.166 HD
HETATM   16  C19 UNL     1     -39.016   8.404 -21.612  1.00  0.00     0.096 A 
HETATM   17  C20 UNL     1     -38.306   8.595 -20.412  1.00  0.00     0.077 A 
HETATM   18  C21 UNL     1     -37.100   9.238 -20.444  1.00  0.00     0.091 A 
BRANCH  14  19
HETATM   19  C17 UNL     1     -39.214   8.630 -24.115  1.00  0.00     0.310 C 
BRANCH  19  20
HETATM   20  O8  UNL     1     -40.499   9.128 -24.048  1.00  0.00    -0.366 OA
ATOM     21  H8  UNL     1     -40.504  10.037 -24.325  1.00  0.00     0.213 HD
ENDBRANCH  19  20
BRANCH  19  22
HETATM   22  O9  UNL     1     -39.295   7.256 -24.335  1.00  0.00    -0.360 OA
HETATM   23  C18 UNL     1     -40.516   6.941 -24.967  1.00  0.00     0.205 C 
ENDBRANCH  19  22
ENDBRANCH  14  19
BRANCH  16  24
HETATM   24  O10 UNL     1     -40.217   7.762 -21.526  1.00  0.00    -0.358 OA
ATOM     25  H10 UNL     1     -40.318   6.970 -21.012  1.00  0.00     0.217 HD
ENDBRANCH  16  24
BRANCH  18  26
HETATM   26  O11 UNL     1     -36.369   9.444 -19.270  1.00  0.00    -0.359 OA
ATOM     27  H11 UNL     1     -35.525   9.880 -19.290  1.00  0.00     0.217 HD
ENDBRANCH  18  26
ENDBRANCH  11  12
ENDBRANCH   8  11
BRANCH   7  28
HETATM   28  C12 UNL     1     -33.096   8.401 -20.920  1.00  0.00     0.211 C 
HETATM   29  O6  UNL     1     -32.340   7.401 -20.643  1.00  0.00    -0.644 OA
HETATM   30  O7  UNL     1     -33.578   9.050 -19.802  1.00  0.00    -0.644 OA
ENDBRANCH   7  28
BRANCH   6  31
HETATM   31  O5  UNL     1     -31.023   6.792 -22.739  1.00  0.00    -0.359 OA
ATOM     32  H5  UNL     1     -30.137   7.081 -22.556  1.00  0.00     0.217 HD
ENDBRANCH   6  31
BRANCH   3  33
HETATM   33  O4  UNL     1     -33.420   9.378 -26.983  1.00  0.00    -0.360 OA
ATOM     34  H4  UNL     1     -34.333   9.220 -27.189  1.00  0.00     0.217 HD
ENDBRANCH   3  33
BRANCH   1  35
HETATM   35  C4  UNL     1     -30.083   6.310 -25.282  1.00  0.00     0.163 C 
BRANCH  35  36
HETATM   36  C3  UNL     1     -30.567   5.043 -25.975  1.00  0.00     0.147 C 
BRANCH  36  37
HETATM   37  C2  UNL     1     -31.024   4.020 -25.008  1.00  0.00     0.261 C 
HETATM   38  O2  UNL     1     -31.863   3.145 -25.316  1.00  0.00    -0.265 OA
BRANCH  37  39
HETATM   39  O1  UNL     1     -30.546   3.973 -23.701  1.00  0.00    -0.326 OA
HETATM   40  C1  UNL     1     -31.133   3.109 -22.727  1.00  0.00     0.213 C 
ENDBRANCH  37  39
ENDBRANCH  36  37
ENDBRANCH  35  36
BRANCH  35  41
HETATM   41  O3  UNL     1     -29.091   6.923 -26.047  1.00  0.00    -0.390 OA
ATOM     42  H3  UNL     1     -28.705   7.644 -25.563  1.00  0.00     0.210 HD
ENDBRANCH  35  41
ENDBRANCH   1  35
TORSDOF 15
ENDMDL
MODEL 3
REMARK VINA RESULT: -7.866907162      3.533      9.948
REMARK  15 active torsions:
REMARK  status: ('A' for Active; 'I' for Inactive)
REMARK    1  A    between atoms: O1_2  and  C2_3 
REMARK    2  A    between atoms: C2_3  and  C3_5 
REMARK    3  A    between atoms: C3_5  and  C4_6 
REMARK    4  A    between atoms: C4_6  and  O3_7 
REMARK    5  A    between atoms: C4_6  and  C5_9 
REMARK    6  A    between atoms: C7_11  and  O4_12 
REMARK    7  A    between atoms: C10_16  and  O5_17 
REMARK    8  A    between atoms: C11_19  and  C12_20 
REMARK    9  A    between atoms: C13_23  and  C14_24 
REMARK   10  A    between atoms: C14_24  and  C15_25 
REMARK   11  A    between atoms: C16_28  and  C17_29 
REMARK   12  A    between atoms: C17_29  and  O8_30 
REMARK   13  A    between atoms: C17_29  and  O9_32 
REMARK   14  A    between atoms: C19_34  and  O10_35 
REMARK   15  A    between atoms: C21_38  and  O11_39 
ROOT
HETATM    1  C5  UNL     1     -31.560   7.007 -23.738  1.00  0.00     0.008 A 
HETATM    2  C6  UNL     1     -31.353   5.676 -23.455  1.00  0.00     0.050 A 
HETATM    3  C7  UNL     1     -30.759   4.831 -24.365  1.00  0.00     0.081 A 
HETATM    4  C8  UNL     1     -30.367   5.347 -25.589  1.00  0.00     0.062 A 
HETATM    5  C9  UNL     1     -30.553   6.691 -25.930  1.00  0.00     0.032 A 
HETATM    6  C10 UNL     1     -31.159   7.494 -24.966  1.00  0.00     0.087 A 
HETATM    7  C11 UNL     1     -30.039   6.924 -27.283  1.00  0.00     0.065 A 
HETATM    8  C13 UNL     1     -29.555   5.797 -27.774  1.00  0.00     0.017 A 
HETATM    9  C22 UNL     1     -29.732   4.750 -26.745  1.00  0.00     0.193 A 
HETATM   10  O12 UNL     1     -29.401   3.544 -26.827  1.00  0.00    -0.287 OA
ENDROOT
BRANCH   8  11
HETATM   11  C14 UNL     1     -28.939   5.485 -29.055  1.00  0.00     0.104 C 
BRANCH  11  12
HETATM   12  C15 UNL     1     -29.950   5.161 -30.107  1.00  0.00     0.047 A 
HETATM   13  N1  UNL     1     -31.240   5.359 -29.800  1.00  0.00    -0.354 N 
HETATM   14  C16 UNL     1     -32.255   5.097 -30.681  1.00  0.00     0.098 A 
ATOM     15  H1  UNL     1     -31.474   5.719 -28.875  1.00  0.00     0.166 HD
HETATM   16  C19 UNL     1     -31.895   4.612 -31.911  1.00  0.00     0.096 A 
HETATM   17  C20 UNL     1     -30.547   4.397 -32.255  1.00  0.00     0.077 A 
HETATM   18  C21 UNL     1     -29.571   4.676 -31.339  1.00  0.00     0.091 A 
BRANCH  14  19
HETATM   19  C17 UNL     1     -33.657   5.383 -30.283  1.00  0.00     0.310 C 
BRANCH  19  20
HETATM   20  O8  UNL     1     -34.205   6.309 -31.146  1.00  0.00    -0.366 OA
ATOM     21  H8  UNL     1     -34.918   6.765 -30.715  1.00  0.00     0.213 HD
ENDBRANCH  19  20
BRANCH  19  22
HETATM   22  O9  UNL     1     -33.634   5.944 -29.007  1.00  0.00    -0.360 OA
HETATM   23  C18 UNL     1     -34.233   7.221 -29.031  1.00  0.00     0.205 C 
ENDBRANCH  19  22
ENDBRANCH  14  19
BRANCH  16  24
HETATM   24  O10 UNL     1     -32.831   4.311 -32.857  1.00  0.00    -0.358 OA
ATOM     25  H10 UNL     1     -32.607   3.809 -33.631  1.00  0.00     0.217 HD
ENDBRANCH  16  24
BRANCH  18  26
HETATM   26  O11 UNL     1     -28.223   4.474 -31.649  1.00  0.00    -0.359 OA
ATOM     27  H11 UNL     1     -27.950   4.268 -32.535  1.00  0.00     0.217 HD
ENDBRANCH  18  26
ENDBRANCH  11  12
ENDBRANCH   8  11
BRANCH   7  28
HETATM   28  C12 UNL     1     -30.027   8.185 -27.984  1.00  0.00     0.211 C 
HETATM   29  O6  UNL     1     -30.526   8.338 -29.157  1.00  0.00    -0.644 OA
HETATM   30  O7  UNL     1     -29.483   9.341 -27.464  1.00  0.00    -0.644 OA
ENDBRANCH   7  28
BRANCH   6  31
HETATM   31  O5  UNL     1     -31.402   8.833 -25.176  1.00  0.00    -0.359 OA
ATOM     32  H5  UNL     1     -32.181   9.029 -25.684  1.00  0.00     0.217 HD
ENDBRANCH   6  31
BRANCH   3  33
HETATM   33  O4  UNL     1     -30.570   3.498 -24.039  1.00  0.00    -0.360 OA
ATOM     34  H4  UNL     1     -30.414   2.864 -24.729  1.00  0.00     0.217 HD
ENDBRANCH   3  33
BRANCH   1  35
HETATM   35  C4  UNL     1     -32.183   7.868 -22.719  1.00  0.00     0.163 C 
BRANCH  35  36
HETATM   36  C3  UNL     1     -33.596   8.263 -23.131  1.00  0.00     0.147 C 
BRANCH  36  37
HETATM   37  C2  UNL     1     -34.177   9.277 -22.224  1.00  0.00     0.261 C 
HETATM   38  O2  UNL     1     -34.781  10.284 -22.655  1.00  0.00    -0.265 OA
BRANCH  37  39
HETATM   39  O1  UNL     1     -34.085   9.169 -20.839  1.00  0.00    -0.326 OA
HETATM   40  C1  UNL     1     -34.928   9.934 -19.977  1.00  0.00     0.213 C 
ENDBRANCH  37  39
ENDBRANCH  36  37
ENDBRANCH  35  36
BRANCH  35  41
HETATM   41  O3  UNL     1     -32.208   7.246 -21.470  1.00  0.00    -0.390 OA
ATOM     42  H3  UNL     1     -31.341   7.259 -21.083  1.00  0.00     0.210 HD
ENDBRANCH  35  41
ENDBRANCH   1  35
TORSDOF 15
ENDMDL
MODEL 4
REMARK VINA RESULT: -7.848547694      1.671      2.136
REMARK  15 active torsions:
REMARK  status: ('A' for Active; 'I' for Inactive)
REMARK    1  A    between atoms: O1_2  and  C2_3 
REMARK    2  A    between atoms: C2_3  and  C3_5 
REMARK    3  A    between atoms: C3_5  and  C4_6 
REMARK    4  A    between atoms: C4_6  and  O3_7 
REMARK    5  A    between atoms: C4_6  and  C5_9 
REMARK    6  A    between atoms: C7_11  and  O4_12 
REMARK    7  A    between atoms: C10_16  and  O5_17 
REMARK    8  A    between atoms: C11_19  and  C12_20 
REMARK    9  A    between atoms: C13_23  and  C14_24 
REMARK   10  A    between atoms: C14_24  and  C15_25 
REMARK   11  A    between atoms: C16_28  and  C17_29 
REMARK   12  A    between atoms: C17_29  and  O8_30 
REMARK   13  A    between atoms: C17_29  and  O9_32 
REMARK   14  A    between atoms: C19_34  and  O10_35 
REMARK   15  A    between atoms: C21_38  and  O11_39 
ROOT
HETATM    1  C5  UNL     1     -27.147   5.059 -34.255  1.00  0.00     0.008 A 
HETATM    2  C6  UNL     1     -26.275   5.088 -33.190  1.00  0.00     0.050 A 
HETATM    3  C7  UNL     1     -26.729   5.121 -31.891  1.00  0.00     0.081 A 
HETATM    4  C8  UNL     1     -28.095   5.123 -31.666  1.00  0.00     0.062 A 
HETATM    5  C9  UNL     1     -29.026   5.093 -32.711  1.00  0.00     0.032 A 
HETATM    6  C10 UNL     1     -28.504   5.061 -34.002  1.00  0.00     0.087 A 
HETATM    7  C11 UNL     1     -30.382   5.105 -32.153  1.00  0.00     0.065 A 
HETATM    8  C13 UNL     1     -30.319   5.140 -30.834  1.00  0.00     0.017 A 
HETATM    9  C22 UNL     1     -28.889   5.153 -30.456  1.00  0.00     0.193 A 
HETATM   10  O12 UNL     1     -28.413   5.185 -29.298  1.00  0.00    -0.287 OA
ENDROOT
BRANCH   8  11
HETATM   11  C14 UNL     1     -31.358   5.168 -29.816  1.00  0.00     0.104 C 
BRANCH  11  12
HETATM   12  C15 UNL     1     -31.565   6.536 -29.252  1.00  0.00     0.047 A 
HETATM   13  N1  UNL     1     -30.813   6.885 -28.198  1.00  0.00    -0.354 N 
HETATM   14  C16 UNL     1     -30.915   8.109 -27.595  1.00  0.00     0.098 A 
ATOM     15  H1  UNL     1     -30.140   6.212 -27.832  1.00  0.00     0.166 HD
HETATM   16  C19 UNL     1     -31.834   8.981 -28.117  1.00  0.00     0.096 A 
HETATM   17  C20 UNL     1     -32.634   8.636 -29.223  1.00  0.00     0.077 A 
HETATM   18  C21 UNL     1     -32.493   7.400 -29.790  1.00  0.00     0.091 A 
BRANCH  14  19
HETATM   19  C17 UNL     1     -30.016   8.438 -26.458  1.00  0.00     0.310 C 
BRANCH  19  20
HETATM   20  O8  UNL     1     -29.147   7.390 -26.235  1.00  0.00    -0.366 OA
ATOM     21  H8  UNL     1     -28.611   7.576 -25.474  1.00  0.00     0.213 HD
ENDBRANCH  19  20
BRANCH  19  22
HETATM   22  O9  UNL     1     -30.804   8.596 -25.320  1.00  0.00    -0.360 OA
HETATM   23  C18 UNL     1     -30.983   7.350 -24.683  1.00  0.00     0.205 C 
ENDBRANCH  19  22
ENDBRANCH  14  19
BRANCH  16  24
HETATM   24  O10 UNL     1     -32.018  10.223 -27.583  1.00  0.00    -0.358 OA
ATOM     25  H10 UNL     1     -32.100  10.991 -28.136  1.00  0.00     0.217 HD
ENDBRANCH  16  24
BRANCH  18  26
HETATM   26  O11 UNL     1     -33.271   7.026 -30.889  1.00  0.00    -0.359 OA
ATOM     27  H11 UNL     1     -32.915   7.045 -31.770  1.00  0.00     0.217 HD
ENDBRANCH  18  26
ENDBRANCH  11  12
ENDBRANCH   8  11
BRANCH   7  28
HETATM   28  C12 UNL     1     -31.612   5.060 -32.905  1.00  0.00     0.211 C 
HETATM   29  O6  UNL     1     -32.011   6.025 -33.653  1.00  0.00    -0.644 OA
HETATM   30  O7  UNL     1     -32.474   3.983 -32.894  1.00  0.00    -0.644 OA
ENDBRANCH   7  28
BRANCH   6  31
HETATM   31  O5  UNL     1     -29.311   5.033 -35.117  1.00  0.00    -0.359 OA
ATOM     32  H5  UNL     1     -29.176   5.742 -35.734  1.00  0.00     0.217 HD
ENDBRANCH   6  31
BRANCH   3  33
HETATM   33  O4  UNL     1     -25.817   5.150 -30.848  1.00  0.00    -0.360 OA
ATOM     34  H4  UNL     1     -25.385   4.349 -30.579  1.00  0.00     0.217 HD
ENDBRANCH   3  33
BRANCH   1  35
HETATM   35  C4  UNL     1     -26.604   5.007 -35.623  1.00  0.00     0.163 C 
BRANCH  35  36
HETATM   36  C3  UNL     1     -25.081   5.035 -35.606  1.00  0.00     0.147 C 
BRANCH  36  37
HETATM   37  C2  UNL     1     -24.540   6.236 -36.280  1.00  0.00     0.261 C 
HETATM   38  O2  UNL     1     -24.024   6.181 -37.418  1.00  0.00    -0.265 OA
BRANCH  37  39
HETATM   39  O1  UNL     1     -24.574   7.495 -35.687  1.00  0.00    -0.326 OA
HETATM   40  C1  UNL     1     -23.553   7.917 -34.782  1.00  0.00     0.213 C 
ENDBRANCH  37  39
ENDBRANCH  36  37
ENDBRANCH  35  36
BRANCH  35  41
HETATM   41  O3  UNL     1     -27.052   3.876 -36.307  1.00  0.00    -0.390 OA
ATOM     42  H3  UNL     1     -26.507   3.128 -36.092  1.00  0.00     0.210 HD
ENDBRANCH  35  41
ENDBRANCH   1  35
TORSDOF 15
ENDMDL
MODEL 5
REMARK VINA RESULT: -7.846997261      6.696     10.464
REMARK  15 active torsions:
REMARK  status: ('A' for Active; 'I' for Inactive)
REMARK    1  A    between atoms: O1_2  and  C2_3 
REMARK    2  A    between atoms: C2_3  and  C3_5 
REMARK    3  A    between atoms: C3_5  and  C4_6 
REMARK    4  A    between atoms: C4_6  and  O3_7 
REMARK    5  A    between atoms: C4_6  and  C5_9 
REMARK    6  A    between atoms: C7_11  and  O4_12 
REMARK    7  A    between atoms: C10_16  and  O5_17 
REMARK    8  A    between atoms: C11_19  and  C12_20 
REMARK    9  A    between atoms: C13_23  and  C14_24 
REMARK   10  A    between atoms: C14_24  and  C15_25 
REMARK   11  A    between atoms: C16_28  and  C17_29 
REMARK   12  A    between atoms: C17_29  and  O8_30 
REMARK   13  A    between atoms: C17_29  and  O9_32 
REMARK   14  A    between atoms: C19_34  and  O10_35 
REMARK   15  A    between atoms: C21_38  and  O11_39 
ROOT
HETATM    1  C5  UNL     1     -30.907   7.497 -25.253  1.00  0.00     0.008 A 
HETATM    2  C6  UNL     1     -30.958   7.115 -23.931  1.00  0.00     0.050 A 
HETATM    3  C7  UNL     1     -31.952   7.561 -23.091  1.00  0.00     0.081 A 
HETATM    4  C8  UNL     1     -32.917   8.413 -23.601  1.00  0.00     0.062 A 
HETATM    5  C9  UNL     1     -32.915   8.834 -24.935  1.00  0.00     0.032 A 
HETATM    6  C10 UNL     1     -31.883   8.348 -25.735  1.00  0.00     0.087 A 
HETATM    7  C11 UNL     1     -34.057   9.725 -25.165  1.00  0.00     0.065 A 
HETATM    8  C13 UNL     1     -34.743   9.864 -24.045  1.00  0.00     0.017 A 
HETATM    9  C22 UNL     1     -34.072   9.053 -23.007  1.00  0.00     0.193 A 
HETATM   10  O12 UNL     1     -34.416   8.922 -21.810  1.00  0.00    -0.287 OA
ENDROOT
BRANCH   8  11
HETATM   11  C14 UNL     1     -35.942  10.628 -23.734  1.00  0.00     0.104 C 
BRANCH  11  12
HETATM   12  C15 UNL     1     -35.695  11.675 -22.696  1.00  0.00     0.047 A 
HETATM   13  N1  UNL     1     -36.026  11.375 -21.432  1.00  0.00    -0.354 N 
HETATM   14  C16 UNL     1     -35.848  12.253 -20.397  1.00  0.00     0.098 A 
ATOM     15  H1  UNL     1     -36.425  10.458 -21.234  1.00  0.00     0.166 HD
HETATM   16  C19 UNL     1     -35.312  13.474 -20.709  1.00  0.00     0.096 A 
HETATM   17  C20 UNL     1     -34.956  13.811 -22.029  1.00  0.00     0.077 A 
HETATM   18  C21 UNL     1     -35.153  12.897 -23.027  1.00  0.00     0.091 A 
BRANCH  14  19
HETATM   19  C17 UNL     1     -36.199  11.832 -19.016  1.00  0.00     0.310 C 
BRANCH  19  20
HETATM   20  O8  UNL     1     -36.812  10.596 -19.050  1.00  0.00    -0.366 OA
ATOM     21  H8  UNL     1     -36.352   9.996 -18.475  1.00  0.00     0.213 HD
ENDBRANCH  19  20
BRANCH  19  22
HETATM   22  O9  UNL     1     -37.112  12.753 -18.506  1.00  0.00    -0.360 OA
HETATM   23  C18 UNL     1     -38.425  12.378 -18.862  1.00  0.00     0.205 C 
ENDBRANCH  19  22
ENDBRANCH  14  19
BRANCH  16  24
HETATM   24  O10 UNL     1     -35.102  14.423 -19.750  1.00  0.00    -0.358 OA
ATOM     25  H10 UNL     1     -35.779  14.652 -19.124  1.00  0.00     0.217 HD
ENDBRANCH  16  24
BRANCH  18  26
HETATM   26  O11 UNL     1     -34.811  13.199 -24.348  1.00  0.00    -0.359 OA
ATOM     27  H11 UNL     1     -34.469  12.530 -24.929  1.00  0.00     0.217 HD
ENDBRANCH  18  26
ENDBRANCH  11  12
ENDBRANCH   8  11
BRANCH   7  28
HETATM   28  C12 UNL     1     -34.412  10.348 -26.417  1.00  0.00     0.211 C 
HETATM   29  O6  UNL     1     -34.748   9.680 -27.461  1.00  0.00    -0.644 OA
HETATM   30  O7  UNL     1     -34.427  11.713 -26.611  1.00  0.00    -0.644 OA
ENDBRANCH   7  28
BRANCH   6  31
HETATM   31  O5  UNL     1     -31.764   8.687 -27.064  1.00  0.00    -0.359 OA
ATOM     32  H5  UNL     1     -32.582   8.857 -27.514  1.00  0.00     0.217 HD
ENDBRANCH   6  31
BRANCH   3  33
HETATM   33  O4  UNL     1     -31.965   7.152 -21.768  1.00  0.00    -0.360 OA
ATOM     34  H4  UNL     1     -32.313   7.731 -21.101  1.00  0.00     0.217 HD
ENDBRANCH   3  33
BRANCH   1  35
HETATM   35  C4  UNL     1     -29.830   6.974 -26.110  1.00  0.00     0.163 C 
BRANCH  35  36
HETATM   36  C3  UNL     1     -30.357   5.896 -27.048  1.00  0.00     0.147 C 
BRANCH  36  37
HETATM   37  C2  UNL     1     -30.156   4.536 -26.500  1.00  0.00     0.261 C 
HETATM   38  O2  UNL     1     -29.034   3.984 -26.492  1.00  0.00    -0.265 OA
BRANCH  37  39
HETATM   39  O1  UNL     1     -31.204   3.793 -25.962  1.00  0.00    -0.326 OA
HETATM   40  C1  UNL     1     -31.244   3.465 -24.574  1.00  0.00     0.213 C 
ENDBRANCH  37  39
ENDBRANCH  36  37
ENDBRANCH  35  36
BRANCH  35  41
HETATM   41  O3  UNL     1     -29.224   7.993 -26.847  1.00  0.00    -0.390 OA
ATOM     42  H3  UNL     1     -28.413   8.258 -26.429  1.00  0.00     0.210 HD
ENDBRANCH  35  41
ENDBRANCH   1  35
TORSDOF 15
ENDMDL
