MODEL 1
REMARK VINA RESULT: -6.884099443      0.000      0.000
REMARK  12 active torsions:
REMARK  status: ('A' for Active; 'I' for Inactive)
REMARK    1  A    between atoms: C2_2  and  O1_4 
REMARK    2  A    between atoms: C2_2  and  N1_6 
REMARK       I    between atoms: N1_6  and  C4_8 
REMARK    3  A    between atoms: C4_8  and  C5_10 
REMARK    4  A    between atoms: C5_10  and  N2_11 
REMARK    5  A    between atoms: C5_10  and  C11_19 
REMARK    6  A    between atoms: N2_11  and  O3_12 
REMARK    7  A    between atoms: O3_12  and  C6_13 
REMARK       I    between atoms: C11_19  and  N3_21 
REMARK    8  A    between atoms: N3_21  and  C12_23 
REMARK    9  A    between atoms: C14_25  and  S1_26 
REMARK   10  A    between atoms: S1_26  and  S2_27 
REMARK   11  A    between atoms: C16_32  and  O9_33 
REMARK   12  A    between atoms: C17_35  and  O10_36 
ROOT
HETATM    1  C11 UNL     1     -30.827   9.100 -26.870  1.00  0.00     0.253 C 
HETATM    2  O5  UNL     1     -30.137   9.920 -26.242  1.00  0.00    -0.271 OA
HETATM    3  N3  UNL     1     -31.938   8.488 -26.280  1.00  0.00    -0.323 N 
ATOM      4  H3  UNL     1     -32.431   7.817 -26.868  1.00  0.00     0.169 HD
ENDROOT
BRANCH   1   5
HETATM    5  C5  UNL     1     -30.401   8.805 -28.280  1.00  0.00     0.290 C 
BRANCH   5   6
HETATM    6  C4  UNL     1     -29.928   7.386 -28.361  1.00  0.00     0.251 C 
HETATM    7  N1  UNL     1     -29.281   6.939 -29.539  1.00  0.00    -0.328 N 
ATOM      8  H1  UNL     1     -29.143   7.580 -30.319  1.00  0.00     0.165 HD
HETATM    9  O2  UNL     1     -30.124   6.639 -27.370  1.00  0.00    -0.271 OA
BRANCH   7  10
HETATM   10  C2  UNL     1     -28.809   5.554 -29.636  1.00  0.00     0.126 C 
HETATM   11  C1  UNL     1     -27.676   5.464 -30.617  1.00  0.00     0.070 C 
HETATM   12  C3  UNL     1     -29.934   4.682 -30.183  1.00  0.00     0.070 C 
BRANCH  10  13
HETATM   13  O1  UNL     1     -28.439   5.150 -28.370  1.00  0.00    -0.372 OA
ATOM     14  H1  UNL     1     -28.237   4.222 -28.332  1.00  0.00     0.212 HD
ENDBRANCH  10  13
ENDBRANCH   7  10
ENDBRANCH   5   6
BRANCH   5  15
HETATM   15  N2  UNL     1     -31.635   8.876 -29.096  1.00  0.00    -0.074 NA
BRANCH  15  16
HETATM   16  O3  UNL     1     -32.043   7.627 -29.419  1.00  0.00    -0.253 OA
BRANCH  16  17
HETATM   17  C6  UNL     1     -33.389   7.527 -29.681  1.00  0.00     0.283 C 
HETATM   18  C7  UNL     1     -33.764   6.349 -30.539  1.00  0.00     0.062 C 
HETATM   19  C8  UNL     1     -34.543   5.325 -29.732  1.00  0.00     0.007 C 
HETATM   20  C9  UNL     1     -35.803   5.968 -29.203  1.00  0.00     0.026 C 
HETATM   21  C10 UNL     1     -35.433   7.313 -28.614  1.00  0.00     0.171 C 
HETATM   22  O4  UNL     1     -34.052   7.383 -28.449  1.00  0.00    -0.359 OA
ENDBRANCH  16  17
ENDBRANCH  15  16
ENDBRANCH   5  15
ENDBRANCH   1   5
BRANCH   3  23
HETATM   23  C12 UNL     1     -32.477   8.667 -24.982  1.00  0.00     0.072 A 
HETATM   24  C13 UNL     1     -33.462   9.561 -24.658  1.00  0.00     0.052 A 
HETATM   25  C14 UNL     1     -33.966   9.660 -23.352  1.00  0.00     0.023 A 
HETATM   26  C15 UNL     1     -33.417   8.810 -22.416  1.00  0.00     0.059 A 
HETATM   27  C16 UNL     1     -32.437   7.912 -22.712  1.00  0.00     0.102 A 
HETATM   28  C17 UNL     1     -31.952   7.821 -23.982  1.00  0.00     0.126 A 
BRANCH  25  29
HETATM   29  S1  UNL     1     -35.182  10.773 -22.987  1.00  0.00     0.027 SA
BRANCH  29  30
HETATM   30  S2  UNL     1     -35.934  10.791 -21.107  1.00  0.00     0.171 S 
HETATM   31  O6  UNL     1     -36.876  11.949 -21.155  1.00  0.00    -0.586 OA
HETATM   32  O7  UNL     1     -35.106  10.979 -19.904  1.00  0.00    -0.586 OA
HETATM   33  O8  UNL     1     -36.659   9.300 -21.003  1.00  0.00    -0.586 OA
ENDBRANCH  29  30
ENDBRANCH  25  29
BRANCH  27  34
HETATM   34  O9  UNL     1     -31.918   7.074 -21.719  1.00  0.00    -0.358 OA
ATOM     35  H9  UNL     1     -32.099   6.141 -21.732  1.00  0.00     0.217 HD
ENDBRANCH  27  34
BRANCH  28  36
HETATM   36  O10 UNL     1     -30.961   6.902 -24.240  1.00  0.00    -0.356 OA
ATOM     37  H10 UNL     1     -30.460   6.486 -23.548  1.00  0.00     0.218 HD
ENDBRANCH  28  36
ENDBRANCH   3  23
TORSDOF 12
ENDMDL
MODEL 2
REMARK VINA RESULT: -6.844906589      1.139      1.562
REMARK  12 active torsions:
REMARK  status: ('A' for Active; 'I' for Inactive)
REMARK    1  A    between atoms: C2_2  and  O1_4 
REMARK    2  A    between atoms: C2_2  and  N1_6 
REMARK       I    between atoms: N1_6  and  C4_8 
REMARK    3  A    between atoms: C4_8  and  C5_10 
REMARK    4  A    between atoms: C5_10  and  N2_11 
REMARK    5  A    between atoms: C5_10  and  C11_19 
REMARK    6  A    between atoms: N2_11  and  O3_12 
REMARK    7  A    between atoms: O3_12  and  C6_13 
REMARK       I    between atoms: C11_19  and  N3_21 
REMARK    8  A    between atoms: N3_21  and  C12_23 
REMARK    9  A    between atoms: C14_25  and  S1_26 
REMARK   10  A    between atoms: S1_26  and  S2_27 
REMARK   11  A    between atoms: C16_32  and  O9_33 
REMARK   12  A    between atoms: C17_35  and  O10_36 
ROOT
HETATM    1  C11 UNL     1     -30.873   9.084 -26.883  1.00  0.00     0.253 C 
HETATM    2  O5  UNL     1     -30.156   9.880 -26.255  1.00  0.00    -0.271 OA
HETATM    3  N3  UNL     1     -31.989   8.491 -26.283  1.00  0.00    -0.323 N 
ATOM      4  H3  UNL     1     -32.506   7.838 -26.872  1.00  0.00     0.169 HD
ENDROOT
BRANCH   1   5
HETATM    5  C5  UNL     1     -30.477   8.798 -28.302  1.00  0.00     0.290 C 
BRANCH   5   6
HETATM    6  C4  UNL     1     -30.012   7.377 -28.403  1.00  0.00     0.251 C 
HETATM    7  N1  UNL     1     -29.307   6.960 -29.558  1.00  0.00    -0.328 N 
ATOM      8  H1  UNL     1     -29.123   7.624 -30.310  1.00  0.00     0.165 HD
HETATM    9  O2  UNL     1     -30.266   6.602 -27.447  1.00  0.00    -0.271 OA
BRANCH   7  10
HETATM   10  C2  UNL     1     -28.842   5.574 -29.674  1.00  0.00     0.126 C 
HETATM   11  C1  UNL     1     -27.740   5.483 -30.690  1.00  0.00     0.070 C 
HETATM   12  C3  UNL     1     -29.986   4.706 -30.188  1.00  0.00     0.070 C 
BRANCH  10  13
HETATM   13  O1  UNL     1     -28.434   5.165 -28.421  1.00  0.00    -0.372 OA
ATOM     14  H1  UNL     1     -29.153   4.829 -27.899  1.00  0.00     0.212 HD
ENDBRANCH  10  13
ENDBRANCH   7  10
ENDBRANCH   5   6
BRANCH   5  15
HETATM   15  N2  UNL     1     -31.725   8.880 -29.094  1.00  0.00    -0.074 NA
BRANCH  15  16
HETATM   16  O3  UNL     1     -31.433   8.846 -30.415  1.00  0.00    -0.253 OA
BRANCH  16  17
HETATM   17  C6  UNL     1     -32.361   8.176 -31.178  1.00  0.00     0.283 C 
HETATM   18  C7  UNL     1     -31.978   8.030 -32.625  1.00  0.00     0.062 C 
HETATM   19  C8  UNL     1     -31.672   6.579 -32.955  1.00  0.00     0.007 C 
HETATM   20  C9  UNL     1     -32.901   5.742 -32.684  1.00  0.00     0.026 C 
HETATM   21  C10 UNL     1     -33.451   6.139 -31.331  1.00  0.00     0.171 C 
HETATM   22  O4  UNL     1     -32.497   6.884 -30.642  1.00  0.00    -0.359 OA
ENDBRANCH  16  17
ENDBRANCH  15  16
ENDBRANCH   5  15
ENDBRANCH   1   5
BRANCH   3  23
HETATM   23  C12 UNL     1     -32.504   8.665 -24.975  1.00  0.00     0.072 A 
HETATM   24  C13 UNL     1     -33.474   9.566 -24.627  1.00  0.00     0.052 A 
HETATM   25  C14 UNL     1     -33.955   9.660 -23.312  1.00  0.00     0.023 A 
HETATM   26  C15 UNL     1     -33.398   8.799 -22.392  1.00  0.00     0.059 A 
HETATM   27  C16 UNL     1     -32.432   7.893 -22.711  1.00  0.00     0.102 A 
HETATM   28  C17 UNL     1     -31.971   7.807 -23.990  1.00  0.00     0.126 A 
BRANCH  25  29
HETATM   29  S1  UNL     1     -35.153  10.783 -22.919  1.00  0.00     0.027 SA
BRANCH  29  30
HETATM   30  S2  UNL     1     -35.920  10.751 -21.044  1.00  0.00     0.171 S 
HETATM   31  O6  UNL     1     -36.919  11.859 -21.093  1.00  0.00    -0.586 OA
HETATM   32  O7  UNL     1     -35.111  10.973 -19.834  1.00  0.00    -0.586 OA
HETATM   33  O8  UNL     1     -36.568   9.224 -20.954  1.00  0.00    -0.586 OA
ENDBRANCH  29  30
ENDBRANCH  25  29
BRANCH  27  34
HETATM   34  O9  UNL     1     -31.905   7.043 -21.733  1.00  0.00    -0.358 OA
ATOM     35  H9  UNL     1     -31.291   6.357 -21.970  1.00  0.00     0.217 HD
ENDBRANCH  27  34
BRANCH  28  36
HETATM   36  O10 UNL     1     -30.993   6.880 -24.272  1.00  0.00    -0.356 OA
ATOM     37  H10 UNL     1     -30.188   7.110 -24.721  1.00  0.00     0.218 HD
ENDBRANCH  28  36
ENDBRANCH   3  23
TORSDOF 12
ENDMDL
MODEL 3
REMARK VINA RESULT: -6.839081609      4.277      7.042
REMARK  12 active torsions:
REMARK  status: ('A' for Active; 'I' for Inactive)
REMARK    1  A    between atoms: C2_2  and  O1_4 
REMARK    2  A    between atoms: C2_2  and  N1_6 
REMARK       I    between atoms: N1_6  and  C4_8 
REMARK    3  A    between atoms: C4_8  and  C5_10 
REMARK    4  A    between atoms: C5_10  and  N2_11 
REMARK    5  A    between atoms: C5_10  and  C11_19 
REMARK    6  A    between atoms: N2_11  and  O3_12 
REMARK    7  A    between atoms: O3_12  and  C6_13 
REMARK       I    between atoms: C11_19  and  N3_21 
REMARK    8  A    between atoms: N3_21  and  C12_23 
REMARK    9  A    between atoms: C14_25  and  S1_26 
REMARK   10  A    between atoms: S1_26  and  S2_27 
REMARK   11  A    between atoms: C16_32  and  O9_33 
REMARK   12  A    between atoms: C17_35  and  O10_36 
ROOT
HETATM    1  C11 UNL     1     -29.684   5.257 -29.986  1.00  0.00     0.253 C 
HETATM    2  O5  UNL     1     -28.555   5.045 -29.513  1.00  0.00    -0.271 OA
HETATM    3  N3  UNL     1     -30.636   5.998 -29.277  1.00  0.00    -0.323 N 
ATOM      4  H3  UNL     1     -31.539   6.104 -29.739  1.00  0.00     0.169 HD
ENDROOT
BRANCH   1   5
HETATM    5  C5  UNL     1     -29.964   4.677 -31.342  1.00  0.00     0.290 C 
BRANCH   5   6
HETATM    6  C4  UNL     1     -31.355   5.050 -31.755  1.00  0.00     0.251 C 
HETATM    7  N1  UNL     1     -32.347   4.042 -31.836  1.00  0.00    -0.328 N 
ATOM      8  H1  UNL     1     -32.110   3.075 -31.615  1.00  0.00     0.165 HD
HETATM    9  O2  UNL     1     -31.592   6.255 -32.016  1.00  0.00    -0.271 OA
BRANCH   7  10
HETATM   10  C2  UNL     1     -33.714   4.388 -32.237  1.00  0.00     0.126 C 
HETATM   11  C1  UNL     1     -34.629   3.218 -32.011  1.00  0.00     0.070 C 
HETATM   12  C3  UNL     1     -33.736   4.679 -33.734  1.00  0.00     0.070 C 
BRANCH  10  13
HETATM   13  O1  UNL     1     -34.094   5.497 -31.511  1.00  0.00    -0.372 OA
ATOM     14  H1  UNL     1     -34.030   6.299 -32.016  1.00  0.00     0.212 HD
ENDBRANCH  10  13
ENDBRANCH   7  10
ENDBRANCH   5   6
BRANCH   5  15
HETATM   15  N2  UNL     1     -29.054   5.377 -32.276  1.00  0.00    -0.074 NA
BRANCH  15  16
HETATM   16  O3  UNL     1     -29.111   4.794 -33.496  1.00  0.00    -0.253 OA
BRANCH  16  17
HETATM   17  C6  UNL     1     -27.903   4.316 -33.947  1.00  0.00     0.283 C 
HETATM   18  C7  UNL     1     -27.736   4.376 -35.441  1.00  0.00     0.062 C 
HETATM   19  C8  UNL     1     -26.690   5.410 -35.821  1.00  0.00     0.007 C 
HETATM   20  C9  UNL     1     -25.369   5.031 -35.194  1.00  0.00     0.026 C 
HETATM   21  C10 UNL     1     -25.624   4.669 -33.746  1.00  0.00     0.171 C 
HETATM   22  O4  UNL     1     -26.893   5.108 -33.374  1.00  0.00    -0.359 OA
ENDBRANCH  16  17
ENDBRANCH  15  16
ENDBRANCH   5  15
ENDBRANCH   1   5
BRANCH   3  23
HETATM   23  C12 UNL     1     -30.526   6.622 -28.010  1.00  0.00     0.072 A 
HETATM   24  C13 UNL     1     -30.841   6.032 -26.815  1.00  0.00     0.052 A 
HETATM   25  C14 UNL     1     -30.677   6.706 -25.595  1.00  0.00     0.023 A 
HETATM   26  C15 UNL     1     -30.184   7.991 -25.666  1.00  0.00     0.059 A 
HETATM   27  C16 UNL     1     -29.863   8.601 -26.840  1.00  0.00     0.102 A 
HETATM   28  C17 UNL     1     -30.024   7.940 -28.021  1.00  0.00     0.126 A 
BRANCH  25  29
HETATM   29  S1  UNL     1     -31.074   5.948 -24.140  1.00  0.00     0.027 SA
BRANCH  29  30
HETATM   30  S2  UNL     1     -31.011   3.924 -24.064  1.00  0.00     0.171 S 
HETATM   31  O6  UNL     1     -29.953   3.604 -25.068  1.00  0.00    -0.586 OA
HETATM   32  O7  UNL     1     -32.163   3.065 -24.385  1.00  0.00    -0.586 OA
HETATM   33  O8  UNL     1     -30.587   3.644 -22.483  1.00  0.00    -0.586 OA
ENDBRANCH  29  30
ENDBRANCH  25  29
BRANCH  27  34
HETATM   34  O9  UNL     1     -29.365   9.908 -26.849  1.00  0.00    -0.358 OA
ATOM     35  H9  UNL     1     -28.441  10.071 -27.001  1.00  0.00     0.217 HD
ENDBRANCH  27  34
BRANCH  28  36
HETATM   36  O10 UNL     1     -29.690   8.592 -29.186  1.00  0.00    -0.356 OA
ATOM     37  H10 UNL     1     -28.872   9.065 -29.289  1.00  0.00     0.218 HD
ENDBRANCH  28  36
ENDBRANCH   3  23
TORSDOF 12
ENDMDL
MODEL 4
REMARK VINA RESULT: -6.807323888      3.612      6.995
REMARK  12 active torsions:
REMARK  status: ('A' for Active; 'I' for Inactive)
REMARK    1  A    between atoms: C2_2  and  O1_4 
REMARK    2  A    between atoms: C2_2  and  N1_6 
REMARK       I    between atoms: N1_6  and  C4_8 
REMARK    3  A    between atoms: C4_8  and  C5_10 
REMARK    4  A    between atoms: C5_10  and  N2_11 
REMARK    5  A    between atoms: C5_10  and  C11_19 
REMARK    6  A    between atoms: N2_11  and  O3_12 
REMARK    7  A    between atoms: O3_12  and  C6_13 
REMARK       I    between atoms: C11_19  and  N3_21 
REMARK    8  A    between atoms: N3_21  and  C12_23 
REMARK    9  A    between atoms: C14_25  and  S1_26 
REMARK   10  A    between atoms: S1_26  and  S2_27 
REMARK   11  A    between atoms: C16_32  and  O9_33 
REMARK   12  A    between atoms: C17_35  and  O10_36 
ROOT
HETATM    1  C11 UNL     1     -30.875   9.810 -26.753  1.00  0.00     0.253 C 
HETATM    2  O5  UNL     1     -29.669   9.968 -26.499  1.00  0.00    -0.271 OA
HETATM    3  N3  UNL     1     -31.364   8.574 -27.190  1.00  0.00    -0.323 N 
ATOM      4  H3  UNL     1     -32.364   8.547 -27.391  1.00  0.00     0.169 HD
ENDROOT
BRANCH   1   5
HETATM    5  C5  UNL     1     -31.762  11.007 -26.571  1.00  0.00     0.290 C 
BRANCH   5   6
HETATM    6  C4  UNL     1     -32.277  11.442 -27.909  1.00  0.00     0.251 C 
HETATM    7  N1  UNL     1     -32.929  12.694 -28.024  1.00  0.00    -0.328 N 
ATOM      8  H1  UNL     1     -33.045  13.287 -27.203  1.00  0.00     0.165 HD
HETATM    9  O2  UNL     1     -32.107  10.673 -28.887  1.00  0.00    -0.271 OA
BRANCH   7  10
HETATM   10  C2  UNL     1     -33.438  13.138 -29.326  1.00  0.00     0.126 C 
HETATM   11  C1  UNL     1     -33.909  14.562 -29.237  1.00  0.00     0.070 C 
HETATM   12  C3  UNL     1     -34.654  12.297 -29.699  1.00  0.00     0.070 C 
BRANCH  10  13
HETATM   13  O1  UNL     1     -32.424  12.980 -30.247  1.00  0.00    -0.372 OA
ATOM     14  H1  UNL     1     -32.740  13.014 -31.142  1.00  0.00     0.212 HD
ENDBRANCH  10  13
ENDBRANCH   7  10
ENDBRANCH   5   6
BRANCH   5  15
HETATM   15  N2  UNL     1     -32.939  10.524 -25.813  1.00  0.00    -0.074 NA
BRANCH  15  16
HETATM   16  O3  UNL     1     -32.539   9.674 -24.838  1.00  0.00    -0.253 OA
BRANCH  16  17
HETATM   17  C6  UNL     1     -33.571   9.035 -24.193  1.00  0.00     0.283 C 
HETATM   18  C7  UNL     1     -33.168   8.347 -22.917  1.00  0.00     0.062 C 
HETATM   19  C8  UNL     1     -33.766   9.055 -21.714  1.00  0.00     0.007 C 
HETATM   20  C9  UNL     1     -35.272   9.036 -21.828  1.00  0.00     0.026 C 
HETATM   21  C10 UNL     1     -35.642   9.440 -23.239  1.00  0.00     0.171 C 
HETATM   22  O4  UNL     1     -34.534  10.006 -23.866  1.00  0.00    -0.359 OA
ENDBRANCH  16  17
ENDBRANCH  15  16
ENDBRANCH   5  15
ENDBRANCH   1   5
BRANCH   3  23
HETATM   23  C12 UNL     1     -30.671   7.356 -27.395  1.00  0.00     0.072 A 
HETATM   24  C13 UNL     1     -30.575   6.344 -26.478  1.00  0.00     0.052 A 
HETATM   25  C14 UNL     1     -29.894   5.151 -26.766  1.00  0.00     0.023 A 
HETATM   26  C15 UNL     1     -29.329   5.054 -28.018  1.00  0.00     0.059 A 
HETATM   27  C16 UNL     1     -29.410   6.045 -28.949  1.00  0.00     0.102 A 
HETATM   28  C17 UNL     1     -30.073   7.201 -28.663  1.00  0.00     0.126 A 
BRANCH  25  29
HETATM   29  S1  UNL     1     -29.797   3.923 -25.611  1.00  0.00     0.027 SA
BRANCH  29  30
HETATM   30  S2  UNL     1     -31.227   3.837 -24.179  1.00  0.00     0.171 S 
HETATM   31  O6  UNL     1     -32.002   2.626 -24.580  1.00  0.00    -0.586 OA
HETATM   32  O7  UNL     1     -32.213   4.907 -23.953  1.00  0.00    -0.586 OA
HETATM   33  O8  UNL     1     -30.328   3.668 -22.792  1.00  0.00    -0.586 OA
ENDBRANCH  29  30
ENDBRANCH  25  29
BRANCH  27  34
HETATM   34  O9  UNL     1     -28.816   5.889 -30.206  1.00  0.00    -0.358 OA
ATOM     35  H9  UNL     1     -28.573   6.648 -30.723  1.00  0.00     0.217 HD
ENDBRANCH  27  34
BRANCH  28  36
HETATM   36  O10 UNL     1     -30.130   8.178 -29.630  1.00  0.00    -0.356 OA
ATOM     37  H10 UNL     1     -30.952   8.489 -29.992  1.00  0.00     0.218 HD
ENDBRANCH  28  36
ENDBRANCH   3  23
TORSDOF 12
ENDMDL
MODEL 5
REMARK VINA RESULT: -6.771052511      0.726      1.106
REMARK  12 active torsions:
REMARK  status: ('A' for Active; 'I' for Inactive)
REMARK    1  A    between atoms: C2_2  and  O1_4 
REMARK    2  A    between atoms: C2_2  and  N1_6 
REMARK       I    between atoms: N1_6  and  C4_8 
REMARK    3  A    between atoms: C4_8  and  C5_10 
REMARK    4  A    between atoms: C5_10  and  N2_11 
REMARK    5  A    between atoms: C5_10  and  C11_19 
REMARK    6  A    between atoms: N2_11  and  O3_12 
REMARK    7  A    between atoms: O3_12  and  C6_13 
REMARK       I    between atoms: C11_19  and  N3_21 
REMARK    8  A    between atoms: N3_21  and  C12_23 
REMARK    9  A    between atoms: C14_25  and  S1_26 
REMARK   10  A    between atoms: S1_26  and  S2_27 
REMARK   11  A    between atoms: C16_32  and  O9_33 
REMARK   12  A    between atoms: C17_35  and  O10_36 
ROOT
HETATM    1  C11 UNL     1     -31.214   9.057 -26.796  1.00  0.00     0.253 C 
HETATM    2  O5  UNL     1     -30.499   9.903 -26.233  1.00  0.00    -0.271 OA
HETATM    3  N3  UNL     1     -32.274   8.444 -26.120  1.00  0.00    -0.323 N 
ATOM      4  H3  UNL     1     -32.792   7.750 -26.659  1.00  0.00     0.169 HD
ENDROOT
BRANCH   1   5
HETATM    5  C5  UNL     1     -30.876   8.734 -28.222  1.00  0.00     0.290 C 
BRANCH   5   6
HETATM    6  C4  UNL     1     -30.331   7.340 -28.292  1.00  0.00     0.251 C 
HETATM    7  N1  UNL     1     -29.455   6.992 -29.349  1.00  0.00    -0.328 N 
ATOM      8  H1  UNL     1     -29.203   7.686 -30.051  1.00  0.00     0.165 HD
HETATM    9  O2  UNL     1     -30.675   6.525 -27.400  1.00  0.00    -0.271 OA
BRANCH   7  10
HETATM   10  C2  UNL     1     -28.911   5.632 -29.432  1.00  0.00     0.126 C 
HETATM   11  C1  UNL     1     -27.786   5.588 -30.427  1.00  0.00     0.070 C 
HETATM   12  C3  UNL     1     -29.994   4.693 -29.952  1.00  0.00     0.070 C 
BRANCH  10  13
HETATM   13  O1  UNL     1     -28.504   5.268 -28.166  1.00  0.00    -0.372 OA
ATOM     14  H1  UNL     1     -28.865   4.431 -27.898  1.00  0.00     0.212 HD
ENDBRANCH  10  13
ENDBRANCH   7  10
ENDBRANCH   5   6
BRANCH   5  15
HETATM   15  N2  UNL     1     -32.167   8.710 -28.947  1.00  0.00    -0.074 NA
BRANCH  15  16
HETATM   16  O3  UNL     1     -32.084   7.869 -30.004  1.00  0.00    -0.253 OA
BRANCH  16  17
HETATM   17  C6  UNL     1     -33.257   7.214 -30.294  1.00  0.00     0.283 C 
HETATM   18  C7  UNL     1     -33.329   6.668 -31.694  1.00  0.00     0.062 C 
HETATM   19  C8  UNL     1     -33.287   5.150 -31.680  1.00  0.00     0.007 C 
HETATM   20  C9  UNL     1     -34.465   4.631 -30.890  1.00  0.00     0.026 C 
HETATM   21  C10 UNL     1     -34.555   5.424 -29.604  1.00  0.00     0.171 C 
HETATM   22  O4  UNL     1     -33.368   6.128 -29.408  1.00  0.00    -0.359 OA
ENDBRANCH  16  17
ENDBRANCH  15  16
ENDBRANCH   5  15
ENDBRANCH   1   5
BRANCH   3  23
HETATM   23  C12 UNL     1     -32.731   8.646 -24.794  1.00  0.00     0.072 A 
HETATM   24  C13 UNL     1     -33.689   9.552 -24.424  1.00  0.00     0.052 A 
HETATM   25  C14 UNL     1     -34.111   9.674 -23.092  1.00  0.00     0.023 A 
HETATM   26  C15 UNL     1     -33.510   8.836 -22.178  1.00  0.00     0.059 A 
HETATM   27  C16 UNL     1     -32.555   7.927 -22.519  1.00  0.00     0.102 A 
HETATM   28  C17 UNL     1     -32.150   7.813 -23.815  1.00  0.00     0.126 A 
BRANCH  25  29
HETATM   29  S1  UNL     1     -35.296  10.801 -22.671  1.00  0.00     0.027 SA
BRANCH  29  30
HETATM   30  S2  UNL     1     -36.158  10.651 -20.844  1.00  0.00     0.171 S 
HETATM   31  O6  UNL     1     -35.217  11.431 -19.987  1.00  0.00    -0.586 OA
HETATM   32  O7  UNL     1     -36.380   9.368 -20.156  1.00  0.00    -0.586 OA
HETATM   33  O8  UNL     1     -37.637  11.363 -21.092  1.00  0.00    -0.586 OA
ENDBRANCH  29  30
ENDBRANCH  25  29
BRANCH  27  34
HETATM   34  O9  UNL     1     -31.981   7.101 -21.547  1.00  0.00    -0.358 OA
ATOM     35  H9  UNL     1     -31.267   7.418 -21.005  1.00  0.00     0.217 HD
ENDBRANCH  27  34
BRANCH  28  36
HETATM   36  O10 UNL     1     -31.181   6.884 -24.119  1.00  0.00    -0.356 OA
ATOM     37  H10 UNL     1     -30.269   7.006 -23.887  1.00  0.00     0.218 HD
ENDBRANCH  28  36
ENDBRANCH   3  23
TORSDOF 12
ENDMDL
