MODEL 1
REMARK VINA RESULT: -7.410197442      0.000      0.000
REMARK  13 active torsions:
REMARK  status: ('A' for Active; 'I' for Inactive)
REMARK    1  A    between atoms: C4_6  and  O1_7 
REMARK    2  A    between atoms: C6_10  and  N2_11 
REMARK    3  A    between atoms: N2_11  and  N3_13 
REMARK    4  A    between atoms: N3_13  and  C7_14 
REMARK    5  A    between atoms: C7_14  and  C8_15 
REMARK    6  A    between atoms: C8_15  and  O3_17 
REMARK    7  A    between atoms: C12_22  and  O4_23 
REMARK    8  A    between atoms: O4_23  and  C13_24 
REMARK    9  A    between atoms: C13_24  and  C14_26 
REMARK   10  A    between atoms: C14_26  and  C15_27 
REMARK   11  A    between atoms: C15_27  and  C16_32 
REMARK   12  A    between atoms: N4_28  and  O6_30 
REMARK   13  A    between atoms: C18_35  and  N5_36 
ROOT
HETATM    1  C1  UNL     1     -32.244   8.054 -23.515  1.00  0.00     0.019 C 
HETATM    2  C2  UNL     1     -31.946   6.884 -23.605  1.00  0.00    -0.057 C 
HETATM    3  C3  UNL     1     -31.571   5.502 -23.710  1.00  0.00     0.116 A 
HETATM    4  N1  UNL     1     -31.692   4.544 -22.769  1.00  0.00    -0.328 N 
ATOM      5  H1  UNL     1     -32.076   4.688 -21.835  1.00  0.00     0.168 HD
HETATM    6  C4  UNL     1     -31.235   3.376 -23.235  1.00  0.00     0.143 A 
HETATM    7  C5  UNL     1     -30.806   3.605 -24.529  1.00  0.00     0.089 A 
HETATM    8  C6  UNL     1     -31.014   4.930 -24.829  1.00  0.00     0.084 A 
ENDROOT
BRANCH   8   9
HETATM    9  N2  UNL     1     -30.701   5.576 -26.081  1.00  0.00    -0.300 N 
ATOM     10  H2  UNL     1     -30.154   6.436 -26.063  1.00  0.00     0.182 HD
BRANCH   9  11
HETATM   11  N3  UNL     1     -31.110   5.081 -27.295  1.00  0.00    -0.116 NA
BRANCH  11  12
HETATM   12  C7  UNL     1     -31.140   6.161 -28.266  1.00  0.00     0.173 C 
HETATM   13  C10 UNL     1     -29.758   6.810 -28.382  1.00  0.00     0.116 C 
HETATM   14  S1  UNL     1     -30.139   7.913 -29.788  1.00  0.00    -0.164 SA
HETATM   15  C11 UNL     1     -31.475   6.919 -30.513  1.00  0.00     0.109 C 
HETATM   16  C12 UNL     1     -31.438   5.696 -29.642  1.00  0.00     0.178 C 
BRANCH  12  17
HETATM   17  C8  UNL     1     -32.033   7.205 -27.742  1.00  0.00     0.288 C 
HETATM   18  O2  UNL     1     -31.568   8.150 -27.006  1.00  0.00    -0.263 OA
BRANCH  17  19
HETATM   19  O3  UNL     1     -33.397   7.294 -27.962  1.00  0.00    -0.325 OA
HETATM   20  C9  UNL     1     -34.058   8.529 -28.168  1.00  0.00     0.213 C 
ENDBRANCH  17  19
ENDBRANCH  12  17
BRANCH  16  21
HETATM   21  O4  UNL     1     -30.371   4.874 -30.160  1.00  0.00    -0.312 OA
BRANCH  21  22
HETATM   22  C13 UNL     1     -30.443   4.334 -31.423  1.00  0.00     0.265 C 
HETATM   23  O5  UNL     1     -31.248   3.348 -31.550  1.00  0.00    -0.265 OA
BRANCH  22  24
HETATM   24  C14 UNL     1     -29.737   4.725 -32.627  1.00  0.00     0.172 C 
BRANCH  24  25
HETATM   25  C15 UNL     1     -28.279   5.002 -32.426  1.00  0.00     0.068 C 
HETATM   26  N4  UNL     1     -27.924   5.196 -31.254  1.00  0.00    -0.271 N 
ATOM     27  H4  UNL     1     -28.715   5.128 -30.614  1.00  0.00     0.194 HD
BRANCH  26  28
HETATM   28  O6  UNL     1     -26.806   5.464 -30.605  1.00  0.00    -0.290 OA
ATOM     29  H6  UNL     1     -26.425   6.196 -30.133  1.00  0.00     0.244 HD
ENDBRANCH  26  28
BRANCH  25  30
HETATM   30  C16 UNL     1     -27.343   5.039 -33.576  1.00  0.00     0.066 A 
HETATM   31  C17 UNL     1     -27.790   5.078 -34.870  1.00  0.00     0.084 A 
HETATM   32  S2  UNL     1     -26.332   5.110 -35.771  1.00  0.00    -0.064 SA
HETATM   33  C18 UNL     1     -25.246   5.072 -34.466  1.00  0.00     0.142 A 
HETATM   34  N6  UNL     1     -26.036   5.036 -33.400  1.00  0.00    -0.335 N 
ATOM     35  H6  UNL     1     -25.639   5.007 -32.461  1.00  0.00     0.168 HD
BRANCH  33  36
HETATM   36  N5  UNL     1     -23.923   5.076 -34.472  1.00  0.00    -0.380 N 
ATOM     37  H52 UNL     1     -23.310   4.317 -34.174  1.00  0.00     0.158 HD
ATOM     38  H51 UNL     1     -23.277   5.809 -34.763  1.00  0.00     0.158 HD
ENDBRANCH  33  36
ENDBRANCH  25  30
ENDBRANCH  24  25
ENDBRANCH  22  24
ENDBRANCH  21  22
ENDBRANCH  16  21
ENDBRANCH  11  12
ENDBRANCH   9  11
ENDBRANCH   8   9
BRANCH   6  39
HETATM   39  O1  UNL     1     -31.188   2.154 -22.569  1.00  0.00    -0.346 OA
ATOM     40  H1  UNL     1     -30.422   1.709 -22.225  1.00  0.00     0.219 HD
ENDBRANCH   6  39
TORSDOF 13
ENDMDL
MODEL 2
REMARK VINA RESULT: -7.391053617      1.583      2.014
REMARK  13 active torsions:
REMARK  status: ('A' for Active; 'I' for Inactive)
REMARK    1  A    between atoms: C4_6  and  O1_7 
REMARK    2  A    between atoms: C6_10  and  N2_11 
REMARK    3  A    between atoms: N2_11  and  N3_13 
REMARK    4  A    between atoms: N3_13  and  C7_14 
REMARK    5  A    between atoms: C7_14  and  C8_15 
REMARK    6  A    between atoms: C8_15  and  O3_17 
REMARK    7  A    between atoms: C12_22  and  O4_23 
REMARK    8  A    between atoms: O4_23  and  C13_24 
REMARK    9  A    between atoms: C13_24  and  C14_26 
REMARK   10  A    between atoms: C14_26  and  C15_27 
REMARK   11  A    between atoms: C15_27  and  C16_32 
REMARK   12  A    between atoms: N4_28  and  O6_30 
REMARK   13  A    between atoms: C18_35  and  N5_36 
ROOT
HETATM    1  C1  UNL     1     -32.304   8.064 -22.493  1.00  0.00     0.019 C 
HETATM    2  C2  UNL     1     -31.995   6.983 -22.941  1.00  0.00    -0.057 C 
HETATM    3  C3  UNL     1     -31.607   5.706 -23.469  1.00  0.00     0.116 A 
HETATM    4  N1  UNL     1     -31.722   4.501 -22.874  1.00  0.00    -0.328 N 
ATOM      5  H1  UNL     1     -32.111   4.344 -21.944  1.00  0.00     0.168 HD
HETATM    6  C4  UNL     1     -31.253   3.540 -23.678  1.00  0.00     0.143 A 
HETATM    7  C5  UNL     1     -30.822   4.164 -24.833  1.00  0.00     0.089 A 
HETATM    8  C6  UNL     1     -31.040   5.515 -24.707  1.00  0.00     0.084 A 
ENDROOT
BRANCH   8   9
HETATM    9  N2  UNL     1     -30.729   6.521 -25.693  1.00  0.00    -0.300 N 
ATOM     10  H2  UNL     1     -30.284   7.385 -25.385  1.00  0.00     0.182 HD
BRANCH   9  11
HETATM   11  N3  UNL     1     -31.008   6.363 -27.028  1.00  0.00    -0.116 NA
BRANCH  11  12
HETATM   12  C7  UNL     1     -31.711   7.539 -27.512  1.00  0.00     0.173 C 
HETATM   13  C10 UNL     1     -30.726   8.518 -28.159  1.00  0.00     0.116 C 
HETATM   14  S1  UNL     1     -31.965   9.697 -28.804  1.00  0.00    -0.164 SA
HETATM   15  C11 UNL     1     -33.347   8.529 -28.953  1.00  0.00     0.109 C 
HETATM   16  C12 UNL     1     -32.680   7.234 -28.592  1.00  0.00     0.178 C 
BRANCH  12  17
HETATM   17  C8  UNL     1     -32.264   8.238 -26.343  1.00  0.00     0.288 C 
HETATM   18  O2  UNL     1     -31.594   9.169 -25.763  1.00  0.00    -0.263 OA
BRANCH  17  19
HETATM   19  O3  UNL     1     -33.496   7.996 -25.759  1.00  0.00    -0.325 OA
HETATM   20  C9  UNL     1     -34.410   9.033 -25.449  1.00  0.00     0.213 C 
ENDBRANCH  17  19
ENDBRANCH  12  17
BRANCH  16  21
HETATM   21  O4  UNL     1     -32.007   6.789 -29.790  1.00  0.00    -0.312 OA
BRANCH  21  22
HETATM   22  C13 UNL     1     -32.246   5.540 -30.313  1.00  0.00     0.265 C 
HETATM   23  O5  UNL     1     -33.471   5.174 -30.316  1.00  0.00    -0.265 OA
BRANCH  22  24
HETATM   24  C14 UNL     1     -31.305   4.584 -30.862  1.00  0.00     0.172 C 
BRANCH  24  25
HETATM   25  C15 UNL     1     -29.868   4.976 -30.714  1.00  0.00     0.068 C 
HETATM   26  N4  UNL     1     -29.527   5.356 -29.584  1.00  0.00    -0.271 N 
ATOM     27  H4  UNL     1     -30.313   5.332 -28.935  1.00  0.00     0.194 HD
BRANCH  26  28
HETATM   28  O6  UNL     1     -28.428   5.783 -28.988  1.00  0.00    -0.290 OA
ATOM     29  H6  UNL     1     -28.069   5.805 -28.109  1.00  0.00     0.244 HD
ENDBRANCH  26  28
BRANCH  25  30
HETATM   30  C16 UNL     1     -28.934   4.907 -31.865  1.00  0.00     0.066 A 
HETATM   31  C17 UNL     1     -29.372   4.634 -33.134  1.00  0.00     0.084 A 
HETATM   32  S2  UNL     1     -27.923   4.675 -34.048  1.00  0.00    -0.064 SA
HETATM   33  C18 UNL     1     -26.852   5.032 -32.780  1.00  0.00     0.142 A 
HETATM   34  N6  UNL     1     -27.639   5.106 -31.714  1.00  0.00    -0.335 N 
ATOM     35  H6  UNL     1     -27.250   5.312 -30.795  1.00  0.00     0.168 HD
BRANCH  33  36
HETATM   36  N5  UNL     1     -25.540   5.204 -32.808  1.00  0.00    -0.380 N 
ATOM     37  H52 UNL     1     -25.040   6.028 -33.141  1.00  0.00     0.158 HD
ATOM     38  H51 UNL     1     -24.796   4.571 -32.516  1.00  0.00     0.158 HD
ENDBRANCH  33  36
ENDBRANCH  25  30
ENDBRANCH  24  25
ENDBRANCH  22  24
ENDBRANCH  21  22
ENDBRANCH  16  21
ENDBRANCH  11  12
ENDBRANCH   9  11
ENDBRANCH   8   9
BRANCH   6  39
HETATM   39  O1  UNL     1     -31.197   2.171 -23.425  1.00  0.00    -0.346 OA
ATOM     40  H1  UNL     1     -30.898   1.485 -24.010  1.00  0.00     0.219 HD
ENDBRANCH   6  39
TORSDOF 13
ENDMDL
MODEL 3
REMARK VINA RESULT: -7.349707820      1.525      2.042
REMARK  13 active torsions:
REMARK  status: ('A' for Active; 'I' for Inactive)
REMARK    1  A    between atoms: C4_6  and  O1_7 
REMARK    2  A    between atoms: C6_10  and  N2_11 
REMARK    3  A    between atoms: N2_11  and  N3_13 
REMARK    4  A    between atoms: N3_13  and  C7_14 
REMARK    5  A    between atoms: C7_14  and  C8_15 
REMARK    6  A    between atoms: C8_15  and  O3_17 
REMARK    7  A    between atoms: C12_22  and  O4_23 
REMARK    8  A    between atoms: O4_23  and  C13_24 
REMARK    9  A    between atoms: C13_24  and  C14_26 
REMARK   10  A    between atoms: C14_26  and  C15_27 
REMARK   11  A    between atoms: C15_27  and  C16_32 
REMARK   12  A    between atoms: N4_28  and  O6_30 
REMARK   13  A    between atoms: C18_35  and  N5_36 
ROOT
HETATM    1  C1  UNL     1     -32.176   8.067 -23.709  1.00  0.00     0.019 C 
HETATM    2  C2  UNL     1     -31.896   6.890 -23.740  1.00  0.00    -0.057 C 
HETATM    3  C3  UNL     1     -31.545   5.498 -23.775  1.00  0.00     0.116 A 
HETATM    4  N1  UNL     1     -31.687   4.589 -22.789  1.00  0.00    -0.328 N 
ATOM      5  H1  UNL     1     -32.074   4.785 -21.866  1.00  0.00     0.168 HD
HETATM    6  C4  UNL     1     -31.247   3.392 -23.194  1.00  0.00     0.143 A 
HETATM    7  C5  UNL     1     -30.807   3.551 -24.495  1.00  0.00     0.089 A 
HETATM    8  C6  UNL     1     -30.990   4.863 -24.861  1.00  0.00     0.084 A 
ENDROOT
BRANCH   8   9
HETATM    9  N2  UNL     1     -30.659   5.442 -26.140  1.00  0.00    -0.300 N 
ATOM     10  H2  UNL     1     -30.304   6.398 -26.167  1.00  0.00     0.182 HD
BRANCH   9  11
HETATM   11  N3  UNL     1     -30.802   4.759 -27.323  1.00  0.00    -0.116 NA
BRANCH  11  12
HETATM   12  C7  UNL     1     -30.887   5.712 -28.417  1.00  0.00     0.173 C 
HETATM   13  C10 UNL     1     -30.083   6.973 -28.087  1.00  0.00     0.116 C 
HETATM   14  S1  UNL     1     -30.250   7.785 -29.717  1.00  0.00    -0.164 SA
HETATM   15  C11 UNL     1     -30.478   6.280 -30.707  1.00  0.00     0.109 C 
HETATM   16  C12 UNL     1     -30.276   5.211 -29.672  1.00  0.00     0.178 C 
BRANCH  12  17
HETATM   17  C8  UNL     1     -32.288   6.143 -28.522  1.00  0.00     0.288 C 
HETATM   18  O2  UNL     1     -33.103   5.530 -29.303  1.00  0.00    -0.263 OA
BRANCH  17  19
HETATM   19  O3  UNL     1     -32.867   7.196 -27.834  1.00  0.00    -0.325 OA
HETATM   20  C9  UNL     1     -33.886   8.005 -28.394  1.00  0.00     0.213 C 
ENDBRANCH  17  19
ENDBRANCH  12  17
BRANCH  16  21
HETATM   21  O4  UNL     1     -28.847   5.060 -29.535  1.00  0.00    -0.312 OA
BRANCH  21  22
HETATM   22  C13 UNL     1     -28.018   5.150 -30.629  1.00  0.00     0.265 C 
HETATM   23  O5  UNL     1     -27.315   6.216 -30.696  1.00  0.00    -0.265 OA
BRANCH  22  24
HETATM   24  C14 UNL     1     -27.830   4.207 -31.714  1.00  0.00     0.172 C 
BRANCH  24  25
HETATM   25  C15 UNL     1     -27.186   4.788 -32.934  1.00  0.00     0.068 C 
HETATM   26  N4  UNL     1     -26.029   5.207 -32.786  1.00  0.00    -0.271 N 
ATOM     27  H4  UNL     1     -25.711   5.076 -31.826  1.00  0.00     0.194 HD
BRANCH  26  28
HETATM   28  O6  UNL     1     -25.094   5.776 -33.525  1.00  0.00    -0.290 OA
ATOM     29  H6  UNL     1     -24.602   6.589 -33.532  1.00  0.00     0.244 HD
ENDBRANCH  26  28
BRANCH  25  30
HETATM   30  C16 UNL     1     -27.913   4.848 -34.227  1.00  0.00     0.066 A 
HETATM   31  C17 UNL     1     -29.282   4.859 -34.285  1.00  0.00     0.084 A 
HETATM   32  S2  UNL     1     -29.585   4.935 -35.970  1.00  0.00    -0.064 SA
HETATM   33  C18 UNL     1     -27.972   4.949 -36.501  1.00  0.00     0.142 A 
HETATM   34  N6  UNL     1     -27.270   4.895 -35.377  1.00  0.00    -0.335 N 
ATOM     35  H6  UNL     1     -26.250   4.889 -35.402  1.00  0.00     0.168 HD
BRANCH  33  36
HETATM   36  N5  UNL     1     -27.491   5.001 -37.733  1.00  0.00    -0.380 N 
ATOM     37  H52 UNL     1     -26.767   5.629 -38.079  1.00  0.00     0.158 HD
ATOM     38  H51 UNL     1     -27.741   4.445 -38.552  1.00  0.00     0.158 HD
ENDBRANCH  33  36
ENDBRANCH  25  30
ENDBRANCH  24  25
ENDBRANCH  22  24
ENDBRANCH  21  22
ENDBRANCH  16  21
ENDBRANCH  11  12
ENDBRANCH   9  11
ENDBRANCH   8   9
BRANCH   6  39
HETATM   39  O1  UNL     1     -31.225   2.203 -22.469  1.00  0.00    -0.346 OA
ATOM     40  H1  UNL     1     -30.475   1.785 -22.064  1.00  0.00     0.219 HD
ENDBRANCH   6  39
TORSDOF 13
ENDMDL
MODEL 4
REMARK VINA RESULT: -7.310119248      2.819      8.869
REMARK  13 active torsions:
REMARK  status: ('A' for Active; 'I' for Inactive)
REMARK    1  A    between atoms: C4_6  and  O1_7 
REMARK    2  A    between atoms: C6_10  and  N2_11 
REMARK    3  A    between atoms: N2_11  and  N3_13 
REMARK    4  A    between atoms: N3_13  and  C7_14 
REMARK    5  A    between atoms: C7_14  and  C8_15 
REMARK    6  A    between atoms: C8_15  and  O3_17 
REMARK    7  A    between atoms: C12_22  and  O4_23 
REMARK    8  A    between atoms: O4_23  and  C13_24 
REMARK    9  A    between atoms: C13_24  and  C14_26 
REMARK   10  A    between atoms: C14_26  and  C15_27 
REMARK   11  A    between atoms: C15_27  and  C16_32 
REMARK   12  A    between atoms: N4_28  and  O6_30 
REMARK   13  A    between atoms: C18_35  and  N5_36 
ROOT
HETATM    1  C1  UNL     1     -29.510   4.542 -36.552  1.00  0.00     0.019 C 
HETATM    2  C2  UNL     1     -28.529   4.628 -35.848  1.00  0.00    -0.057 C 
HETATM    3  C3  UNL     1     -27.370   4.712 -35.006  1.00  0.00     0.116 A 
HETATM    4  N1  UNL     1     -26.076   4.612 -35.376  1.00  0.00    -0.328 N 
ATOM      5  H1  UNL     1     -25.752   4.459 -36.331  1.00  0.00     0.168 HD
HETATM    6  C4  UNL     1     -25.278   4.742 -34.310  1.00  0.00     0.143 A 
HETATM    7  C5  UNL     1     -26.102   4.933 -33.218  1.00  0.00     0.089 A 
HETATM    8  C6  UNL     1     -27.408   4.914 -33.647  1.00  0.00     0.084 A 
ENDROOT
BRANCH   8   9
HETATM    9  N2  UNL     1     -28.577   5.078 -32.818  1.00  0.00    -0.300 N 
ATOM     10  H2  UNL     1     -28.700   5.955 -32.314  1.00  0.00     0.182 HD
BRANCH   9  11
HETATM   11  N3  UNL     1     -29.532   4.100 -32.680  1.00  0.00    -0.116 NA
BRANCH  11  12
HETATM   12  C7  UNL     1     -30.801   4.717 -32.335  1.00  0.00     0.173 C 
HETATM   13  C10 UNL     1     -31.820   3.647 -31.931  1.00  0.00     0.116 C 
HETATM   14  S1  UNL     1     -33.143   4.783 -31.386  1.00  0.00    -0.164 SA
HETATM   15  C11 UNL     1     -32.081   6.188 -30.946  1.00  0.00     0.109 C 
HETATM   16  C12 UNL     1     -30.714   5.600 -31.147  1.00  0.00     0.178 C 
BRANCH  12  17
HETATM   17  C8  UNL     1     -31.336   5.342 -33.553  1.00  0.00     0.288 C 
HETATM   18  O2  UNL     1     -31.002   6.541 -33.872  1.00  0.00    -0.263 OA
BRANCH  17  19
HETATM   19  O3  UNL     1     -32.209   4.754 -34.452  1.00  0.00    -0.325 OA
HETATM   20  C9  UNL     1     -33.036   5.509 -35.320  1.00  0.00     0.213 C 
ENDBRANCH  17  19
ENDBRANCH  12  17
BRANCH  16  21
HETATM   21  O4  UNL     1     -30.430   4.844 -29.951  1.00  0.00    -0.312 OA
BRANCH  21  22
HETATM   22  C13 UNL     1     -29.401   5.206 -29.113  1.00  0.00     0.265 C 
HETATM   23  O5  UNL     1     -28.339   5.615 -29.697  1.00  0.00    -0.265 OA
BRANCH  22  24
HETATM   24  C14 UNL     1     -29.353   5.190 -27.665  1.00  0.00     0.172 C 
BRANCH  24  25
HETATM   25  C15 UNL     1     -29.746   6.482 -27.019  1.00  0.00     0.068 C 
HETATM   26  N4  UNL     1     -29.421   7.510 -27.629  1.00  0.00    -0.271 N 
ATOM     27  H4  UNL     1     -28.928   7.286 -28.493  1.00  0.00     0.194 HD
BRANCH  26  28
HETATM   28  O6  UNL     1     -29.538   8.817 -27.472  1.00  0.00    -0.290 OA
ATOM     29  H6  UNL     1     -29.283   9.473 -26.834  1.00  0.00     0.244 HD
ENDBRANCH  26  28
BRANCH  25  30
HETATM   30  C16 UNL     1     -30.477   6.499 -25.728  1.00  0.00     0.066 A 
HETATM   31  C17 UNL     1     -30.942   7.664 -25.177  1.00  0.00     0.084 A 
HETATM   32  S2  UNL     1     -31.688   7.125 -23.732  1.00  0.00    -0.064 SA
HETATM   33  C18 UNL     1     -31.372   5.466 -23.905  1.00  0.00     0.142 A 
HETATM   34  N6  UNL     1     -30.712   5.390 -25.054  1.00  0.00    -0.335 N 
ATOM     35  H6  UNL     1     -30.391   4.489 -25.410  1.00  0.00     0.168 HD
BRANCH  33  36
HETATM   36  N5  UNL     1     -31.691   4.459 -23.107  1.00  0.00    -0.380 N 
ATOM     37  H52 UNL     1     -31.334   4.289 -22.168  1.00  0.00     0.158 HD
ATOM     38  H51 UNL     1     -32.332   3.682 -23.267  1.00  0.00     0.158 HD
ENDBRANCH  33  36
ENDBRANCH  25  30
ENDBRANCH  24  25
ENDBRANCH  22  24
ENDBRANCH  21  22
ENDBRANCH  16  21
ENDBRANCH  11  12
ENDBRANCH   9  11
ENDBRANCH   8   9
BRANCH   6  39
HETATM   39  O1  UNL     1     -23.886   4.698 -34.279  1.00  0.00    -0.346 OA
ATOM     40  H1  UNL     1     -23.332   4.347 -33.592  1.00  0.00     0.219 HD
ENDBRANCH   6  39
TORSDOF 13
ENDMDL
MODEL 5
REMARK VINA RESULT: -7.296103914      1.983      2.758
REMARK  13 active torsions:
REMARK  status: ('A' for Active; 'I' for Inactive)
REMARK    1  A    between atoms: C4_6  and  O1_7 
REMARK    2  A    between atoms: C6_10  and  N2_11 
REMARK    3  A    between atoms: N2_11  and  N3_13 
REMARK    4  A    between atoms: N3_13  and  C7_14 
REMARK    5  A    between atoms: C7_14  and  C8_15 
REMARK    6  A    between atoms: C8_15  and  O3_17 
REMARK    7  A    between atoms: C12_22  and  O4_23 
REMARK    8  A    between atoms: O4_23  and  C13_24 
REMARK    9  A    between atoms: C13_24  and  C14_26 
REMARK   10  A    between atoms: C14_26  and  C15_27 
REMARK   11  A    between atoms: C15_27  and  C16_32 
REMARK   12  A    between atoms: N4_28  and  O6_30 
REMARK   13  A    between atoms: C18_35  and  N5_36 
ROOT
HETATM    1  C1  UNL     1     -29.865   3.590 -26.476  1.00  0.00     0.019 C 
HETATM    2  C2  UNL     1     -30.259   4.489 -25.768  1.00  0.00    -0.057 C 
HETATM    3  C3  UNL     1     -30.745   5.554 -24.936  1.00  0.00     0.116 A 
HETATM    4  N1  UNL     1     -30.999   5.513 -23.612  1.00  0.00    -0.328 N 
ATOM      5  H1  UNL     1     -30.874   4.692 -23.019  1.00  0.00     0.168 HD
HETATM    6  C4  UNL     1     -31.440   6.702 -23.187  1.00  0.00     0.143 A 
HETATM    7  C5  UNL     1     -31.466   7.533 -24.291  1.00  0.00     0.089 A 
HETATM    8  C6  UNL     1     -31.034   6.821 -25.384  1.00  0.00     0.084 A 
ENDROOT
BRANCH   8   9
HETATM    9  N2  UNL     1     -30.913   7.323 -26.731  1.00  0.00    -0.300 N 
ATOM     10  H2  UNL     1     -30.360   8.165 -26.891  1.00  0.00     0.182 HD
BRANCH   9  11
HETATM   11  N3  UNL     1     -31.512   6.715 -27.807  1.00  0.00    -0.116 NA
BRANCH  11  12
HETATM   12  C7  UNL     1     -32.301   7.695 -28.533  1.00  0.00     0.173 C 
HETATM   13  C10 UNL     1     -31.383   8.666 -29.282  1.00  0.00     0.116 C 
HETATM   14  S1  UNL     1     -32.691   9.556 -30.199  1.00  0.00    -0.164 SA
HETATM   15  C11 UNL     1     -33.916   8.216 -30.222  1.00  0.00     0.109 C 
HETATM   16  C12 UNL     1     -33.138   7.093 -29.598  1.00  0.00     0.178 C 
BRANCH  12  17
HETATM   17  C8  UNL     1     -33.022   8.507 -27.541  1.00  0.00     0.288 C 
HETATM   18  O2  UNL     1     -34.082   8.054 -26.975  1.00  0.00    -0.263 OA
BRANCH  17  19
HETATM   19  O3  UNL     1     -32.669   9.778 -27.121  1.00  0.00    -0.325 OA
HETATM   20  C9  UNL     1     -33.214  10.376 -25.959  1.00  0.00     0.213 C 
ENDBRANCH  17  19
ENDBRANCH  12  17
BRANCH  16  21
HETATM   21  O4  UNL     1     -32.325   6.541 -30.655  1.00  0.00    -0.312 OA
BRANCH  21  22
HETATM   22  C13 UNL     1     -32.339   5.193 -30.928  1.00  0.00     0.265 C 
HETATM   23  O5  UNL     1     -33.489   4.700 -31.190  1.00  0.00    -0.265 OA
BRANCH  22  24
HETATM   24  C14 UNL     1     -31.234   4.256 -30.960  1.00  0.00     0.172 C 
BRANCH  24  25
HETATM   25  C15 UNL     1     -29.883   4.888 -30.826  1.00  0.00     0.068 C 
HETATM   26  N4  UNL     1     -29.632   5.393 -29.722  1.00  0.00    -0.271 N 
ATOM     27  H4  UNL     1     -30.416   5.284 -29.080  1.00  0.00     0.194 HD
BRANCH  26  28
HETATM   28  O6  UNL     1     -28.630   6.033 -29.147  1.00  0.00    -0.290 OA
ATOM     29  H6  UNL     1     -28.350   6.252 -28.266  1.00  0.00     0.244 HD
ENDBRANCH  26  28
BRANCH  25  30
HETATM   30  C16 UNL     1     -28.927   4.896 -31.960  1.00  0.00     0.066 A 
HETATM   31  C17 UNL     1     -29.343   4.736 -33.256  1.00  0.00     0.084 A 
HETATM   32  S2  UNL     1     -27.874   4.826 -34.135  1.00  0.00    -0.064 SA
HETATM   33  C18 UNL     1     -26.825   5.060 -32.822  1.00  0.00     0.142 A 
HETATM   34  N6  UNL     1     -27.633   5.059 -31.769  1.00  0.00    -0.335 N 
ATOM     35  H6  UNL     1     -27.259   5.183 -30.828  1.00  0.00     0.168 HD
BRANCH  33  36
HETATM   36  N5  UNL     1     -25.510   5.210 -32.811  1.00  0.00    -0.380 N 
ATOM     37  H52 UNL     1     -24.834   4.715 -33.393  1.00  0.00     0.158 HD
ATOM     38  H51 UNL     1     -24.932   5.827 -32.240  1.00  0.00     0.158 HD
ENDBRANCH  33  36
ENDBRANCH  25  30
ENDBRANCH  24  25
ENDBRANCH  22  24
ENDBRANCH  21  22
ENDBRANCH  16  21
ENDBRANCH  11  12
ENDBRANCH   9  11
ENDBRANCH   8   9
BRANCH   6  39
HETATM   39  O1  UNL     1     -31.807   7.060 -21.892  1.00  0.00    -0.346 OA
ATOM     40  H1  UNL     1     -31.392   7.701 -21.327  1.00  0.00     0.219 HD
ENDBRANCH   6  39
TORSDOF 13
ENDMDL
