MODEL 1
REMARK VINA RESULT: -9.045108833      0.000      0.000
REMARK  10 active torsions:
REMARK  status: ('A' for Active; 'I' for Inactive)
REMARK    1  A    between atoms: C4_4  and  N1_5 
REMARK       I    between atoms: N1_5  and  C5_7 
REMARK       I    between atoms: C5_7  and  N2_9 
REMARK    2  A    between atoms: C7_16  and  S1_17 
REMARK    3  A    between atoms: S1_17  and  S2_18 
REMARK    4  A    between atoms: S2_18  and  C8_19 
REMARK    5  A    between atoms: C8_19  and  C9_20 
REMARK    6  A    between atoms: C9_20  and  C10_22 
REMARK    7  A    between atoms: C10_22  and  N5_24 
REMARK    8  A    between atoms: N5_24  and  N6_26 
REMARK       I    between atoms: N6_26  and  C12_28 
REMARK    9  A    between atoms: C14_34  and  O6_35 
REMARK   10  A    between atoms: C17_39  and  O7_40 
ROOT
HETATM    1  N1  UNL     1     -28.088   5.608 -31.035  1.00  0.00    -0.306 N 
ATOM      2  H1  UNL     1     -27.232   5.642 -30.480  1.00  0.00     0.171 HD
HETATM    3  C5  UNL     1     -29.274   5.990 -30.406  1.00  0.00     0.326 C 
HETATM    4  O1  UNL     1     -30.400   5.938 -31.043  1.00  0.00    -0.247 OA
HETATM    5  N2  UNL     1     -29.337   6.445 -29.106  1.00  0.00    -0.288 N 
ATOM      6  H2  UNL     1     -28.818   5.861 -28.451  1.00  0.00     0.172 HD
HETATM    7  C6  UNL     1     -29.903   7.436 -28.552  1.00  0.00     0.201 A 
HETATM    8  N3  UNL     1     -29.746   7.581 -27.182  1.00  0.00    -0.278 N 
ATOM      9  H3  UNL     1     -29.157   6.934 -26.658  1.00  0.00     0.189 HD
HETATM   10  N4  UNL     1     -30.360   8.556 -26.572  1.00  0.00    -0.271 N 
ATOM     11  H4  UNL     1     -30.229   8.641 -25.564  1.00  0.00     0.189 HD
HETATM   12  C7  UNL     1     -31.153   9.459 -27.174  1.00  0.00     0.216 A 
HETATM   13  O4  UNL     1     -31.278   9.297 -28.475  1.00  0.00    -0.246 OA
HETATM   14  C13 UNL     1     -30.702   8.354 -29.163  1.00  0.00     0.336 A 
HETATM   15  O5  UNL     1     -30.919   8.337 -30.435  1.00  0.00    -0.255 OA
ENDROOT
BRANCH   1  16
HETATM   16  C4  UNL     1     -27.971   5.170 -32.394  1.00  0.00     0.070 A 
HETATM   17  C3  UNL     1     -29.077   4.963 -33.214  1.00  0.00     0.042 A 
HETATM   18  C2  UNL     1     -28.906   4.600 -34.546  1.00  0.00    -0.026 A 
HETATM   19  C1  UNL     1     -30.092   4.384 -35.424  1.00  0.00     0.051 C 
HETATM   20  C17 UNL     1     -27.620   4.457 -35.017  1.00  0.00     0.080 A 
HETATM   21  C15 UNL     1     -26.528   4.659 -34.223  1.00  0.00     0.007 A 
HETATM   22  C14 UNL     1     -26.678   5.022 -32.891  1.00  0.00     0.101 A 
HETATM   23  C16 UNL     1     -25.154   4.462 -34.779  1.00  0.00     0.054 C 
BRANCH  20  24
HETATM   24  O7  UNL     1     -27.495   4.092 -36.353  1.00  0.00    -0.360 OA
ATOM     25  H7  UNL     1     -27.076   4.727 -36.923  1.00  0.00     0.217 HD
ENDBRANCH  20  24
BRANCH  22  26
HETATM   26  O6  UNL     1     -25.541   5.219 -32.103  1.00  0.00    -0.358 OA
ATOM     27  H6  UNL     1     -24.925   5.926 -32.260  1.00  0.00     0.217 HD
ENDBRANCH  22  26
ENDBRANCH   1  16
BRANCH  12  28
HETATM   28  S1  UNL     1     -32.020  10.787 -26.401  1.00  0.00    -0.007 SA
BRANCH  28  29
HETATM   29  S2  UNL     1     -33.739  10.288 -25.345  1.00  0.00    -0.057 SA
BRANCH  29  30
HETATM   30  C8  UNL     1     -33.439   9.252 -23.919  1.00  0.00     0.114 C 
BRANCH  30  31
HETATM   31  C9  UNL     1     -32.668   8.054 -24.066  1.00  0.00     0.202 C 
HETATM   32  O2  UNL     1     -32.719   7.380 -25.144  1.00  0.00    -0.286 OA
BRANCH  31  33
HETATM   33  C10 UNL     1     -31.731   7.397 -23.070  1.00  0.00     0.072 C 
HETATM   34  C11 UNL     1     -32.286   7.456 -21.696  1.00  0.00     0.074 C 
BRANCH  33  35
HETATM   35  N5  UNL     1     -31.177   6.276 -23.623  1.00  0.00    -0.298 N 
ATOM     36  H5  UNL     1     -30.191   6.417 -23.840  1.00  0.00     0.187 HD
BRANCH  35  37
HETATM   37  N6  UNL     1     -31.570   5.075 -23.949  1.00  0.00    -0.254 N 
HETATM   38  C12 UNL     1     -31.267   3.766 -23.523  1.00  0.00     0.347 C 
HETATM   39  N7  UNL     1     -31.938   2.672 -24.178  1.00  0.00    -0.038 NA
HETATM   40  O3  UNL     1     -30.437   3.567 -22.611  1.00  0.00    -0.249 OA
ATOM     41  H6  UNL     1     -32.266   5.085 -24.694  1.00  0.00     0.191 HD
ENDBRANCH  35  37
ENDBRANCH  33  35
ENDBRANCH  31  33
ENDBRANCH  30  31
ENDBRANCH  29  30
ENDBRANCH  28  29
ENDBRANCH  12  28
TORSDOF 10
ENDMDL
MODEL 2
REMARK VINA RESULT: -8.985018948      1.381      1.421
REMARK  10 active torsions:
REMARK  status: ('A' for Active; 'I' for Inactive)
REMARK    1  A    between atoms: C4_4  and  N1_5 
REMARK       I    between atoms: N1_5  and  C5_7 
REMARK       I    between atoms: C5_7  and  N2_9 
REMARK    2  A    between atoms: C7_16  and  S1_17 
REMARK    3  A    between atoms: S1_17  and  S2_18 
REMARK    4  A    between atoms: S2_18  and  C8_19 
REMARK    5  A    between atoms: C8_19  and  C9_20 
REMARK    6  A    between atoms: C9_20  and  C10_22 
REMARK    7  A    between atoms: C10_22  and  N5_24 
REMARK    8  A    between atoms: N5_24  and  N6_26 
REMARK       I    between atoms: N6_26  and  C12_28 
REMARK    9  A    between atoms: C14_34  and  O6_35 
REMARK   10  A    between atoms: C17_39  and  O7_40 
ROOT
HETATM    1  N1  UNL     1     -28.697   5.116 -31.550  1.00  0.00    -0.306 N 
ATOM      2  H1  UNL     1     -28.022   5.134 -30.786  1.00  0.00     0.171 HD
HETATM    3  C5  UNL     1     -30.043   5.281 -31.218  1.00  0.00     0.326 C 
HETATM    4  O1  UNL     1     -30.954   5.235 -32.137  1.00  0.00    -0.247 OA
HETATM    5  N2  UNL     1     -30.492   5.505 -29.934  1.00  0.00    -0.288 N 
ATOM      6  H2  UNL     1     -30.084   4.869 -29.249  1.00  0.00     0.172 HD
HETATM    7  C6  UNL     1     -31.304   6.335 -29.423  1.00  0.00     0.201 A 
HETATM    8  N3  UNL     1     -31.519   6.264 -28.055  1.00  0.00    -0.278 N 
ATOM      9  H3  UNL     1     -31.003   5.594 -27.486  1.00  0.00     0.189 HD
HETATM   10  N4  UNL     1     -32.389   7.065 -27.506  1.00  0.00    -0.271 N 
ATOM     11  H4  UNL     1     -32.529   6.991 -26.498  1.00  0.00     0.189 HD
HETATM   12  C7  UNL     1     -33.115   7.980 -28.171  1.00  0.00     0.216 A 
HETATM   13  O4  UNL     1     -32.884   8.026 -29.466  1.00  0.00    -0.246 OA
HETATM   14  C13 UNL     1     -32.035   7.266 -30.096  1.00  0.00     0.336 A 
HETATM   15  O5  UNL     1     -31.919   7.442 -31.369  1.00  0.00    -0.255 OA
ENDROOT
BRANCH   1  16
HETATM   16  C4  UNL     1     -28.185   4.923 -32.874  1.00  0.00     0.070 A 
HETATM   17  C3  UNL     1     -29.008   4.679 -33.969  1.00  0.00     0.042 A 
HETATM   18  C2  UNL     1     -28.464   4.563 -35.245  1.00  0.00    -0.026 A 
HETATM   19  C1  UNL     1     -29.347   4.307 -36.418  1.00  0.00     0.051 C 
HETATM   20  C17 UNL     1     -27.100   4.699 -35.380  1.00  0.00     0.080 A 
HETATM   21  C15 UNL     1     -26.283   4.939 -34.314  1.00  0.00     0.007 A 
HETATM   22  C14 UNL     1     -26.807   5.059 -33.033  1.00  0.00     0.101 A 
HETATM   23  C16 UNL     1     -24.805   5.050 -34.514  1.00  0.00     0.054 C 
BRANCH  20  24
HETATM   24  O7  UNL     1     -26.598   4.574 -36.672  1.00  0.00    -0.360 OA
ATOM     25  H7  UNL     1     -25.706   4.255 -36.745  1.00  0.00     0.217 HD
ENDBRANCH  20  24
BRANCH  22  26
HETATM   26  O6  UNL     1     -25.945   5.304 -31.960  1.00  0.00    -0.358 OA
ATOM     27  H6  UNL     1     -25.032   5.041 -31.967  1.00  0.00     0.217 HD
ENDBRANCH  22  26
ENDBRANCH   1  16
BRANCH  12  28
HETATM   28  S1  UNL     1     -34.315   9.077 -27.486  1.00  0.00    -0.007 SA
BRANCH  28  29
HETATM   29  S2  UNL     1     -33.840   9.961 -25.667  1.00  0.00    -0.057 SA
BRANCH  29  30
HETATM   30  C8  UNL     1     -33.272   8.805 -24.426  1.00  0.00     0.114 C 
BRANCH  30  31
HETATM   31  C9  UNL     1     -31.944   8.276 -24.512  1.00  0.00     0.202 C 
HETATM   32  O2  UNL     1     -31.121   8.728 -25.370  1.00  0.00    -0.286 OA
BRANCH  31  33
HETATM   33  C10 UNL     1     -31.306   7.172 -23.689  1.00  0.00     0.072 C 
HETATM   34  C11 UNL     1     -31.892   7.113 -22.328  1.00  0.00     0.074 C 
BRANCH  33  35
HETATM   35  N5  UNL     1     -31.086   6.075 -24.475  1.00  0.00    -0.298 N 
ATOM     36  H5  UNL     1     -30.433   6.283 -25.230  1.00  0.00     0.187 HD
BRANCH  35  37
HETATM   37  N6  UNL     1     -31.487   4.834 -24.521  1.00  0.00    -0.254 N 
HETATM   38  C12 UNL     1     -31.266   3.675 -23.751  1.00  0.00     0.347 C 
HETATM   39  N7  UNL     1     -31.912   2.456 -24.168  1.00  0.00    -0.038 NA
HETATM   40  O3  UNL     1     -30.528   3.708 -22.744  1.00  0.00    -0.249 OA
ATOM     41  H6  UNL     1     -32.114   4.660 -25.307  1.00  0.00     0.191 HD
ENDBRANCH  35  37
ENDBRANCH  33  35
ENDBRANCH  31  33
ENDBRANCH  30  31
ENDBRANCH  29  30
ENDBRANCH  28  29
ENDBRANCH  12  28
TORSDOF 10
ENDMDL
MODEL 3
REMARK VINA RESULT: -8.768369878      2.285      2.703
REMARK  10 active torsions:
REMARK  status: ('A' for Active; 'I' for Inactive)
REMARK    1  A    between atoms: C4_4  and  N1_5 
REMARK       I    between atoms: N1_5  and  C5_7 
REMARK       I    between atoms: C5_7  and  N2_9 
REMARK    2  A    between atoms: C7_16  and  S1_17 
REMARK    3  A    between atoms: S1_17  and  S2_18 
REMARK    4  A    between atoms: S2_18  and  C8_19 
REMARK    5  A    between atoms: C8_19  and  C9_20 
REMARK    6  A    between atoms: C9_20  and  C10_22 
REMARK    7  A    between atoms: C10_22  and  N5_24 
REMARK    8  A    between atoms: N5_24  and  N6_26 
REMARK       I    between atoms: N6_26  and  C12_28 
REMARK    9  A    between atoms: C14_34  and  O6_35 
REMARK   10  A    between atoms: C17_39  and  O7_40 
ROOT
HETATM    1  N1  UNL     1     -31.229   4.975 -31.519  1.00  0.00    -0.306 N 
ATOM      2  H1  UNL     1     -31.694   4.097 -31.285  1.00  0.00     0.171 HD
HETATM    3  C5  UNL     1     -31.862   6.157 -31.132  1.00  0.00     0.326 C 
HETATM    4  O1  UNL     1     -31.342   7.305 -31.428  1.00  0.00    -0.247 OA
HETATM    5  N2  UNL     1     -33.043   6.195 -30.423  1.00  0.00    -0.288 N 
ATOM      6  H2  UNL     1     -33.759   5.575 -30.802  1.00  0.00     0.172 HD
HETATM    7  C6  UNL     1     -33.430   6.836 -29.399  1.00  0.00     0.201 A 
HETATM    8  N3  UNL     1     -34.724   6.616 -28.953  1.00  0.00    -0.278 N 
ATOM      9  H3  UNL     1     -35.318   5.928 -29.415  1.00  0.00     0.189 HD
HETATM   10  N4  UNL     1     -35.172   7.299 -27.937  1.00  0.00    -0.271 N 
ATOM     11  H4  UNL     1     -36.128   7.119 -27.631  1.00  0.00     0.189 HD
HETATM   12  C7  UNL     1     -34.465   8.224 -27.265  1.00  0.00     0.216 A 
HETATM   13  O4  UNL     1     -33.239   8.406 -27.708  1.00  0.00    -0.246 OA
HETATM   14  C13 UNL     1     -32.712   7.769 -28.713  1.00  0.00     0.336 A 
HETATM   15  O5  UNL     1     -31.492   8.057 -29.018  1.00  0.00    -0.255 OA
ENDROOT
BRANCH   1  16
HETATM   16  C4  UNL     1     -29.982   4.889 -32.219  1.00  0.00     0.070 A 
HETATM   17  C3  UNL     1     -29.902   4.848 -33.608  1.00  0.00     0.042 A 
HETATM   18  C2  UNL     1     -28.663   4.830 -34.240  1.00  0.00    -0.026 A 
HETATM   19  C1  UNL     1     -28.579   4.790 -35.728  1.00  0.00     0.051 C 
HETATM   20  C17 UNL     1     -27.534   4.858 -33.452  1.00  0.00     0.080 A 
HETATM   21  C15 UNL     1     -27.601   4.900 -32.089  1.00  0.00     0.007 A 
HETATM   22  C14 UNL     1     -28.828   4.919 -31.439  1.00  0.00     0.101 A 
HETATM   23  C16 UNL     1     -26.343   4.900 -31.279  1.00  0.00     0.054 C 
BRANCH  20  24
HETATM   24  O7  UNL     1     -26.317   4.837 -34.124  1.00  0.00    -0.360 OA
ATOM     25  H7  UNL     1     -25.562   4.563 -33.615  1.00  0.00     0.217 HD
ENDBRANCH  20  24
BRANCH  22  26
HETATM   26  O6  UNL     1     -28.863   4.961 -30.042  1.00  0.00    -0.358 OA
ATOM     27  H6  UNL     1     -28.092   5.137 -29.516  1.00  0.00     0.217 HD
ENDBRANCH  22  26
ENDBRANCH   1  16
BRANCH  12  28
HETATM   28  S1  UNL     1     -35.022   9.190 -25.897  1.00  0.00    -0.007 SA
BRANCH  28  29
HETATM   29  S2  UNL     1     -34.620   8.440 -24.001  1.00  0.00    -0.057 SA
BRANCH  29  30
HETATM   30  C8  UNL     1     -32.935   8.697 -23.462  1.00  0.00     0.114 C 
BRANCH  30  31
HETATM   31  C9  UNL     1     -31.971   7.653 -23.637  1.00  0.00     0.202 C 
HETATM   32  O2  UNL     1     -31.530   7.005 -22.635  1.00  0.00    -0.286 OA
BRANCH  31  33
HETATM   33  C10 UNL     1     -31.331   7.154 -24.919  1.00  0.00     0.072 C 
HETATM   34  C11 UNL     1     -30.594   8.242 -25.606  1.00  0.00     0.074 C 
BRANCH  33  35
HETATM   35  N5  UNL     1     -30.834   5.894 -24.730  1.00  0.00    -0.298 N 
ATOM     36  H5  UNL     1     -29.827   5.912 -24.570  1.00  0.00     0.187 HD
BRANCH  35  37
HETATM   37  N6  UNL     1     -31.300   4.675 -24.700  1.00  0.00    -0.254 N 
HETATM   38  C12 UNL     1     -31.249   3.600 -23.791  1.00  0.00     0.347 C 
HETATM   39  N7  UNL     1     -31.908   2.373 -24.161  1.00  0.00    -0.038 NA
HETATM   40  O3  UNL     1     -30.643   3.711 -22.704  1.00  0.00    -0.249 OA
ATOM     41  H6  UNL     1     -31.831   4.445 -25.539  1.00  0.00     0.191 HD
ENDBRANCH  35  37
ENDBRANCH  33  35
ENDBRANCH  31  33
ENDBRANCH  30  31
ENDBRANCH  29  30
ENDBRANCH  28  29
ENDBRANCH  12  28
TORSDOF 10
ENDMDL
MODEL 4
REMARK VINA RESULT: -8.763950543      1.433      1.549
REMARK  10 active torsions:
REMARK  status: ('A' for Active; 'I' for Inactive)
REMARK    1  A    between atoms: C4_4  and  N1_5 
REMARK       I    between atoms: N1_5  and  C5_7 
REMARK       I    between atoms: C5_7  and  N2_9 
REMARK    2  A    between atoms: C7_16  and  S1_17 
REMARK    3  A    between atoms: S1_17  and  S2_18 
REMARK    4  A    between atoms: S2_18  and  C8_19 
REMARK    5  A    between atoms: C8_19  and  C9_20 
REMARK    6  A    between atoms: C9_20  and  C10_22 
REMARK    7  A    between atoms: C10_22  and  N5_24 
REMARK    8  A    between atoms: N5_24  and  N6_26 
REMARK       I    between atoms: N6_26  and  C12_28 
REMARK    9  A    between atoms: C14_34  and  O6_35 
REMARK   10  A    between atoms: C17_39  and  O7_40 
ROOT
HETATM    1  N1  UNL     1     -29.453   5.093 -31.001  1.00  0.00    -0.306 N 
ATOM      2  H1  UNL     1     -29.051   4.564 -30.227  1.00  0.00     0.171 HD
HETATM    3  C5  UNL     1     -30.530   5.933 -30.711  1.00  0.00     0.326 C 
HETATM    4  O1  UNL     1     -31.107   6.607 -31.654  1.00  0.00    -0.247 OA
HETATM    5  N2  UNL     1     -31.041   6.111 -29.444  1.00  0.00    -0.288 N 
ATOM      6  H2  UNL     1     -31.194   5.234 -28.946  1.00  0.00     0.172 HD
HETATM    7  C6  UNL     1     -31.360   7.133 -28.764  1.00  0.00     0.201 A 
HETATM    8  N3  UNL     1     -31.857   6.925 -27.486  1.00  0.00    -0.278 N 
ATOM      9  H3  UNL     1     -31.917   5.982 -27.103  1.00  0.00     0.189 HD
HETATM   10  N4  UNL     1     -32.248   7.950 -26.781  1.00  0.00    -0.271 N 
ATOM     11  H4  UNL     1     -32.611   7.770 -25.845  1.00  0.00     0.189 HD
HETATM   12  C7  UNL     1     -32.206   9.227 -27.198  1.00  0.00     0.216 A 
HETATM   13  O4  UNL     1     -31.725   9.392 -28.412  1.00  0.00    -0.246 OA
HETATM   14  C13 UNL     1     -31.313   8.427 -29.184  1.00  0.00     0.336 A 
HETATM   15  O5  UNL     1     -30.859   8.757 -30.346  1.00  0.00    -0.255 OA
ENDROOT
BRANCH   1  16
HETATM   16  C4  UNL     1     -28.865   4.912 -32.295  1.00  0.00     0.070 A 
HETATM   17  C3  UNL     1     -29.623   4.674 -33.438  1.00  0.00     0.042 A 
HETATM   18  C2  UNL     1     -29.007   4.569 -34.681  1.00  0.00    -0.026 A 
HETATM   19  C1  UNL     1     -29.821   4.320 -35.905  1.00  0.00     0.051 C 
HETATM   20  C17 UNL     1     -27.638   4.709 -34.737  1.00  0.00     0.080 A 
HETATM   21  C15 UNL     1     -26.884   4.943 -33.623  1.00  0.00     0.007 A 
HETATM   22  C14 UNL     1     -27.481   5.052 -32.374  1.00  0.00     0.101 A 
HETATM   23  C16 UNL     1     -25.397   5.059 -33.738  1.00  0.00     0.054 C 
BRANCH  20  24
HETATM   24  O7  UNL     1     -27.062   4.596 -35.998  1.00  0.00    -0.360 OA
ATOM     25  H7  UNL     1     -26.331   5.175 -36.178  1.00  0.00     0.217 HD
ENDBRANCH  20  24
BRANCH  22  26
HETATM   26  O6  UNL     1     -26.682   5.291 -31.252  1.00  0.00    -0.358 OA
ATOM     27  H6  UNL     1     -26.465   6.167 -30.955  1.00  0.00     0.217 HD
ENDBRANCH  22  26
ENDBRANCH   1  16
BRANCH  12  28
HETATM   28  S1  UNL     1     -32.734  10.650 -26.297  1.00  0.00    -0.007 SA
BRANCH  28  29
HETATM   29  S2  UNL     1     -34.754  10.758 -25.825  1.00  0.00    -0.057 SA
BRANCH  29  30
HETATM   30  C8  UNL     1     -35.214   9.799 -24.387  1.00  0.00     0.114 C 
BRANCH  30  31
HETATM   31  C9  UNL     1     -34.344   8.760 -23.924  1.00  0.00     0.202 C 
HETATM   32  O2  UNL     1     -34.411   7.590 -24.420  1.00  0.00    -0.286 OA
BRANCH  31  33
HETATM   33  C10 UNL     1     -33.274   8.823 -22.850  1.00  0.00     0.072 C 
HETATM   34  C11 UNL     1     -33.878   8.869 -21.496  1.00  0.00     0.074 C 
BRANCH  33  35
HETATM   35  N5  UNL     1     -32.225   8.016 -23.191  1.00  0.00    -0.298 N 
ATOM     36  H5  UNL     1     -31.621   8.463 -23.881  1.00  0.00     0.187 HD
BRANCH  35  37
HETATM   37  N6  UNL     1     -31.787   6.828 -22.874  1.00  0.00    -0.254 N 
HETATM   38  C12 UNL     1     -31.330   5.701 -23.584  1.00  0.00     0.347 C 
HETATM   39  N7  UNL     1     -30.938   4.540 -22.825  1.00  0.00    -0.038 NA
HETATM   40  O3  UNL     1     -31.275   5.710 -24.832  1.00  0.00    -0.249 OA
ATOM     41  H6  UNL     1     -31.773   6.680 -21.865  1.00  0.00     0.191 HD
ENDBRANCH  35  37
ENDBRANCH  33  35
ENDBRANCH  31  33
ENDBRANCH  30  31
ENDBRANCH  29  30
ENDBRANCH  28  29
ENDBRANCH  12  28
TORSDOF 10
ENDMDL
MODEL 5
REMARK VINA RESULT: -8.548264325      4.248     11.202
REMARK  10 active torsions:
REMARK  status: ('A' for Active; 'I' for Inactive)
REMARK    1  A    between atoms: C4_4  and  N1_5 
REMARK       I    between atoms: N1_5  and  C5_7 
REMARK       I    between atoms: C5_7  and  N2_9 
REMARK    2  A    between atoms: C7_16  and  S1_17 
REMARK    3  A    between atoms: S1_17  and  S2_18 
REMARK    4  A    between atoms: S2_18  and  C8_19 
REMARK    5  A    between atoms: C8_19  and  C9_20 
REMARK    6  A    between atoms: C9_20  and  C10_22 
REMARK    7  A    between atoms: C10_22  and  N5_24 
REMARK    8  A    between atoms: N5_24  and  N6_26 
REMARK       I    between atoms: N6_26  and  C12_28 
REMARK    9  A    between atoms: C14_34  and  O6_35 
REMARK   10  A    between atoms: C17_39  and  O7_40 
ROOT
HETATM    1  N1  UNL     1     -35.618   8.569 -21.705  1.00  0.00    -0.306 N 
ATOM      2  H1  UNL     1     -35.661   7.556 -21.589  1.00  0.00     0.171 HD
HETATM    3  C5  UNL     1     -34.439   9.104 -22.227  1.00  0.00     0.326 C 
HETATM    4  O1  UNL     1     -34.308  10.384 -22.369  1.00  0.00    -0.247 OA
HETATM    5  N2  UNL     1     -33.364   8.340 -22.625  1.00  0.00    -0.288 N 
ATOM      6  H2  UNL     1     -33.101   7.630 -21.942  1.00  0.00     0.172 HD
HETATM    7  C6  UNL     1     -32.631   8.331 -23.661  1.00  0.00     0.201 A 
HETATM    8  N3  UNL     1     -31.611   7.394 -23.718  1.00  0.00    -0.278 N 
ATOM      9  H3  UNL     1     -31.493   6.714 -22.968  1.00  0.00     0.189 HD
HETATM   10  N4  UNL     1     -30.804   7.394 -24.742  1.00  0.00    -0.271 N 
ATOM     11  H4  UNL     1     -30.061   6.696 -24.759  1.00  0.00     0.189 HD
HETATM   12  C7  UNL     1     -30.881   8.248 -25.778  1.00  0.00     0.216 A 
HETATM   13  O4  UNL     1     -31.862   9.121 -25.696  1.00  0.00    -0.246 OA
HETATM   14  C13 UNL     1     -32.712   9.192 -24.712  1.00  0.00     0.336 A 
HETATM   15  O5  UNL     1     -33.624  10.102 -24.787  1.00  0.00    -0.255 OA
ENDROOT
BRANCH   1  16
HETATM   16  C4  UNL     1     -36.775   9.322 -21.319  1.00  0.00     0.070 A 
HETATM   17  C3  UNL     1     -38.006   9.185 -21.954  1.00  0.00     0.042 A 
HETATM   18  C2  UNL     1     -39.113   9.893 -21.498  1.00  0.00    -0.026 A 
HETATM   19  C1  UNL     1     -40.433   9.742 -22.176  1.00  0.00     0.051 C 
HETATM   20  C17 UNL     1     -38.949  10.720 -20.410  1.00  0.00     0.080 A 
HETATM   21  C15 UNL     1     -37.747  10.861 -19.778  1.00  0.00     0.007 A 
HETATM   22  C14 UNL     1     -36.630  10.163 -20.218  1.00  0.00     0.101 A 
HETATM   23  C16 UNL     1     -37.617  11.795 -18.617  1.00  0.00     0.054 C 
BRANCH  20  24
HETATM   24  O7  UNL     1     -40.081  11.410 -19.988  1.00  0.00    -0.360 OA
ATOM     25  H7  UNL     1     -40.654  10.946 -19.389  1.00  0.00     0.217 HD
ENDBRANCH  20  24
BRANCH  22  26
HETATM   26  O6  UNL     1     -35.412  10.329 -19.552  1.00  0.00    -0.358 OA
ATOM     27  H6  UNL     1     -34.965  11.166 -19.502  1.00  0.00     0.217 HD
ENDBRANCH  22  26
ENDBRANCH   1  16
BRANCH  12  28
HETATM   28  S1  UNL     1     -29.811   8.307 -27.180  1.00  0.00    -0.007 SA
BRANCH  28  29
HETATM   29  S2  UNL     1     -30.722   8.440 -29.043  1.00  0.00    -0.057 SA
BRANCH  29  30
HETATM   30  C8  UNL     1     -31.184   6.859 -29.738  1.00  0.00     0.114 C 
BRANCH  30  31
HETATM   31  C9  UNL     1     -31.392   5.740 -28.869  1.00  0.00     0.202 C 
HETATM   32  O2  UNL     1     -32.566   5.415 -28.502  1.00  0.00    -0.286 OA
BRANCH  31  33
HETATM   33  C10 UNL     1     -30.364   4.806 -28.258  1.00  0.00     0.072 C 
HETATM   34  C11 UNL     1     -29.025   5.021 -28.857  1.00  0.00     0.074 C 
BRANCH  33  35
HETATM   35  N5  UNL     1     -30.591   4.680 -26.916  1.00  0.00    -0.298 N 
ATOM     36  H5  UNL     1     -30.266   5.502 -26.406  1.00  0.00     0.187 HD
BRANCH  35  37
HETATM   37  N6  UNL     1     -31.110   3.794 -26.111  1.00  0.00    -0.254 N 
HETATM   38  C12 UNL     1     -31.183   3.622 -24.714  1.00  0.00     0.347 C 
HETATM   39  N7  UNL     1     -31.861   2.453 -24.214  1.00  0.00    -0.038 NA
HETATM   40  O3  UNL     1     -30.667   4.456 -23.941  1.00  0.00    -0.249 OA
ATOM     41  H6  UNL     1     -31.577   3.041 -26.616  1.00  0.00     0.191 HD
ENDBRANCH  35  37
ENDBRANCH  33  35
ENDBRANCH  31  33
ENDBRANCH  30  31
ENDBRANCH  29  30
ENDBRANCH  28  29
ENDBRANCH  12  28
TORSDOF 10
ENDMDL
