MODEL 1
REMARK VINA RESULT: -6.518189904      0.000      0.000
REMARK  2 active torsions:
REMARK  status: ('A' for Active; 'I' for Inactive)
REMARK    1  A    between atoms: N3_6  and  N4_7 
REMARK       I    between atoms: N4_7  and  C4_9 
REMARK    2  A    between atoms: C6_18  and  N10_21 
ROOT
HETATM    1  N1  UNL     1     -11.796  -0.215   4.785  1.00  0.00    -0.193 NA
HETATM    2  C1  UNL     1     -11.692  -0.904   3.873  1.00  0.00     0.115 C 
HETATM    3  C2  UNL     1     -11.545  -1.778   2.697  1.00  0.00     0.294 C 
HETATM    4  C3  UNL     1     -10.359  -1.374   1.982  1.00  0.00     0.115 C 
HETATM    5  N2  UNL     1      -9.396  -1.054   1.414  1.00  0.00    -0.193 NA
HETATM    6  N3  UNL     1     -12.733  -1.803   1.882  1.00  0.00    -0.218 N 
HETATM    7  C5  UNL     1     -12.933  -3.143   1.490  1.00  0.00     0.211 C 
HETATM    8  N7  UNL     1     -13.802  -3.614   0.434  1.00  0.00    -0.062 NA
HETATM    9  N8  UNL     1     -12.216  -3.909   2.220  1.00  0.00    -0.316 N 
ATOM     10  H8  UNL     1     -12.198  -4.924   2.117  1.00  0.00     0.166 HD
HETATM   11  C6  UNL     1     -11.446  -3.208   3.190  1.00  0.00     0.313 C 
HETATM   12  C7  UNL     1     -11.994  -3.328   4.547  1.00  0.00     0.125 C 
HETATM   13  N9  UNL     1     -12.404  -3.411   5.606  1.00  0.00    -0.192 NA
ENDROOT
BRANCH   6  14
HETATM   14  N4  UNL     1     -13.517  -0.692   1.561  1.00  0.00    -0.266 N 
HETATM   15  C4  UNL     1     -13.507  -0.095   0.264  1.00  0.00     0.201 C 
HETATM   16  N5  UNL     1     -14.621   0.058  -0.360  1.00  0.00    -0.372 N 
HETATM   17  N6  UNL     1     -12.311   0.338  -0.365  1.00  0.00    -0.062 NA
ATOM     18  H52 UNL     1     -15.481  -0.253   0.092  1.00  0.00     0.158 HD
ATOM     19  H51 UNL     1     -14.614   0.485  -1.286  1.00  0.00     0.158 HD
ATOM     20  H4  UNL     1     -14.120  -0.292   2.280  1.00  0.00     0.190 HD
ENDBRANCH   6  14
BRANCH  11  21
HETATM   21  N10 UNL     1     -10.057  -3.576   3.213  1.00  0.00    -0.103 N 
HETATM   22  O1  UNL     1      -9.625  -4.311   2.305  1.00  0.00    -0.533 OA
HETATM   23  O2  UNL     1      -9.268  -3.116   4.212  1.00  0.00    -0.533 OA
ENDBRANCH  11  21
TORSDOF 2
ENDMDL
MODEL 2
REMARK VINA RESULT: -6.158042999      2.607      4.762
REMARK  2 active torsions:
REMARK  status: ('A' for Active; 'I' for Inactive)
REMARK    1  A    between atoms: N3_6  and  N4_7 
REMARK       I    between atoms: N4_7  and  C4_9 
REMARK    2  A    between atoms: C6_18  and  N10_21 
ROOT
HETATM    1  N1  UNL     1     -13.715  -3.783   4.688  1.00  0.00    -0.193 NA
HETATM    2  C1  UNL     1     -13.399  -3.424   3.645  1.00  0.00     0.115 C 
HETATM    3  C2  UNL     1     -13.003  -2.978   2.299  1.00  0.00     0.294 C 
HETATM    4  C3  UNL     1     -13.738  -3.757   1.332  1.00  0.00     0.115 C 
HETATM    5  N2  UNL     1     -14.341  -4.378   0.555  1.00  0.00    -0.193 NA
HETATM    6  N3  UNL     1     -11.576  -3.015   2.108  1.00  0.00    -0.218 N 
HETATM    7  C5  UNL     1     -11.225  -1.840   1.411  1.00  0.00     0.211 C 
HETATM    8  N7  UNL     1      -9.974  -1.580   0.731  1.00  0.00    -0.062 NA
HETATM    9  N8  UNL     1     -12.195  -1.012   1.462  1.00  0.00    -0.316 N 
ATOM     10  H8  UNL     1     -12.168  -0.090   1.024  1.00  0.00     0.166 HD
HETATM   11  C6  UNL     1     -13.319  -1.499   2.188  1.00  0.00     0.313 C 
HETATM   12  C7  UNL     1     -13.441  -0.894   3.520  1.00  0.00     0.125 C 
HETATM   13  N9  UNL     1     -13.553  -0.434   4.556  1.00  0.00    -0.192 NA
ENDROOT
BRANCH   6  14
HETATM   14  N4  UNL     1     -10.727  -4.036   2.545  1.00  0.00    -0.266 N 
HETATM   15  C4  UNL     1      -9.955  -3.933   3.742  1.00  0.00     0.201 C 
HETATM   16  N5  UNL     1     -10.058  -4.856   4.631  1.00  0.00    -0.372 N 
HETATM   17  N6  UNL     1      -9.077  -2.846   3.988  1.00  0.00    -0.062 NA
ATOM     18  H52 UNL     1     -10.689  -5.638   4.453  1.00  0.00     0.158 HD
ATOM     19  H51 UNL     1      -9.506  -4.783   5.485  1.00  0.00     0.158 HD
ATOM     20  H4  UNL     1     -10.656  -4.887   1.988  1.00  0.00     0.190 HD
ENDBRANCH   6  14
BRANCH  11  21
HETATM   21  N10 UNL     1     -14.570  -1.362   1.495  1.00  0.00    -0.103 N 
HETATM   22  O1  UNL     1     -14.552  -0.955   0.318  1.00  0.00    -0.533 OA
HETATM   23  O2  UNL     1     -15.719  -1.675   2.137  1.00  0.00    -0.533 OA
ENDBRANCH  11  21
TORSDOF 2
ENDMDL
MODEL 3
REMARK VINA RESULT: -5.951441183      1.022      1.372
REMARK  2 active torsions:
REMARK  status: ('A' for Active; 'I' for Inactive)
REMARK    1  A    between atoms: N3_6  and  N4_7 
REMARK       I    between atoms: N4_7  and  C4_9 
REMARK    2  A    between atoms: C6_18  and  N10_21 
ROOT
HETATM    1  N1  UNL     1     -12.032   0.094   3.894  1.00  0.00    -0.193 NA
HETATM    2  C1  UNL     1     -11.932  -0.804   3.187  1.00  0.00     0.115 C 
HETATM    3  C2  UNL     1     -11.789  -1.949   2.272  1.00  0.00     0.294 C 
HETATM    4  C3  UNL     1     -10.595  -1.753   1.488  1.00  0.00     0.115 C 
HETATM    5  N2  UNL     1      -9.623  -1.598   0.867  1.00  0.00    -0.193 NA
HETATM    6  N3  UNL     1     -12.973  -2.165   1.479  1.00  0.00    -0.218 N 
HETATM    7  C5  UNL     1     -13.189  -3.558   1.437  1.00  0.00     0.211 C 
HETATM    8  N7  UNL     1     -14.058  -4.271   0.526  1.00  0.00    -0.062 NA
HETATM    9  N8  UNL     1     -12.487  -4.123   2.343  1.00  0.00    -0.316 N 
ATOM     10  H8  UNL     1     -12.482  -5.131   2.500  1.00  0.00     0.166 HD
HETATM   11  C6  UNL     1     -11.713  -3.208   3.112  1.00  0.00     0.313 C 
HETATM   12  C7  UNL     1     -12.270  -2.975   4.450  1.00  0.00     0.125 C 
HETATM   13  N9  UNL     1     -12.688  -2.783   5.492  1.00  0.00    -0.192 NA
ENDROOT
BRANCH   6  14
HETATM   14  N4  UNL     1     -13.740  -1.163   0.880  1.00  0.00    -0.266 N 
HETATM   15  C4  UNL     1     -14.843  -0.542   1.540  1.00  0.00     0.201 C 
HETATM   16  N5  UNL     1     -14.868   0.740   1.640  1.00  0.00    -0.372 N 
HETATM   17  N6  UNL     1     -15.916  -1.288   2.093  1.00  0.00    -0.062 NA
ATOM     18  H52 UNL     1     -14.097   1.276   1.242  1.00  0.00     0.158 HD
ATOM     19  H51 UNL     1     -15.656   1.184   2.111  1.00  0.00     0.158 HD
ATOM     20  H4  UNL     1     -13.503  -0.863  -0.066  1.00  0.00     0.190 HD
ENDBRANCH   6  14
BRANCH  11  21
HETATM   21  N10 UNL     1     -10.329  -3.574   3.240  1.00  0.00    -0.103 N 
HETATM   22  O1  UNL     1      -9.899  -4.513   2.543  1.00  0.00    -0.533 OA
HETATM   23  O2  UNL     1      -9.543  -2.894   4.105  1.00  0.00    -0.533 OA
ENDBRANCH  11  21
TORSDOF 2
ENDMDL
MODEL 4
REMARK VINA RESULT: -5.946057236      2.726      4.863
REMARK  2 active torsions:
REMARK  status: ('A' for Active; 'I' for Inactive)
REMARK    1  A    between atoms: N3_6  and  N4_7 
REMARK       I    between atoms: N4_7  and  C4_9 
REMARK    2  A    between atoms: C6_18  and  N10_21 
ROOT
HETATM    1  N1  UNL     1     -14.056  -4.408   0.202  1.00  0.00    -0.193 NA
HETATM    2  C1  UNL     1     -13.724  -3.701   1.043  1.00  0.00     0.115 C 
HETATM    3  C2  UNL     1     -13.291  -2.783   2.110  1.00  0.00     0.294 C 
HETATM    4  C3  UNL     1     -12.663  -1.640   1.493  1.00  0.00     0.115 C 
HETATM    5  N2  UNL     1     -12.169  -0.714   0.992  1.00  0.00    -0.193 NA
HETATM    6  N3  UNL     1     -12.464  -3.438   3.091  1.00  0.00    -0.218 N 
HETATM    7  C5  UNL     1     -12.877  -2.966   4.355  1.00  0.00     0.211 C 
HETATM    8  N7  UNL     1     -12.156  -3.095   5.603  1.00  0.00    -0.062 NA
HETATM    9  N8  UNL     1     -14.011  -2.388   4.242  1.00  0.00    -0.316 N 
ATOM     10  H8  UNL     1     -14.506  -1.967   5.029  1.00  0.00     0.166 HD
HETATM   11  C6  UNL     1     -14.516  -2.389   2.911  1.00  0.00     0.313 C 
HETATM   12  C7  UNL     1     -15.599  -3.361   2.714  1.00  0.00     0.125 C 
HETATM   13  N9  UNL     1     -16.441  -4.109   2.544  1.00  0.00    -0.192 NA
ENDROOT
BRANCH   6  14
HETATM   14  N4  UNL     1     -11.455  -4.363   2.813  1.00  0.00    -0.266 N 
HETATM   15  C4  UNL     1     -10.068  -4.028   2.875  1.00  0.00     0.201 C 
HETATM   16  N5  UNL     1      -9.288  -4.741   3.607  1.00  0.00    -0.372 N 
HETATM   17  N6  UNL     1      -9.518  -2.934   2.158  1.00  0.00    -0.062 NA
ATOM     18  H52 UNL     1      -9.684  -5.528   4.121  1.00  0.00     0.158 HD
ATOM     19  H51 UNL     1      -8.297  -4.502   3.651  1.00  0.00     0.158 HD
ATOM     20  H4  UNL     1     -11.718  -5.314   2.554  1.00  0.00     0.190 HD
ENDBRANCH   6  14
BRANCH  11  21
HETATM   21  N10 UNL     1     -14.955  -1.101   2.449  1.00  0.00    -0.103 N 
HETATM   22  O1  UNL     1     -15.557  -1.038   1.360  1.00  0.00    -0.533 OA
HETATM   23  O2  UNL     1     -14.702  -0.008   3.204  1.00  0.00    -0.533 OA
ENDBRANCH  11  21
TORSDOF 2
ENDMDL
MODEL 5
REMARK VINA RESULT: -5.937189364      2.499      3.553
REMARK  2 active torsions:
REMARK  status: ('A' for Active; 'I' for Inactive)
REMARK    1  A    between atoms: N3_6  and  N4_7 
REMARK       I    between atoms: N4_7  and  C4_9 
REMARK    2  A    between atoms: C6_18  and  N10_21 
ROOT
HETATM    1  N1  UNL     1     -11.743  -1.671   4.945  1.00  0.00    -0.193 NA
HETATM    2  C1  UNL     1     -12.214  -1.748   3.902  1.00  0.00     0.115 C 
HETATM    3  C2  UNL     1     -12.827  -1.830   2.565  1.00  0.00     0.294 C 
HETATM    4  C3  UNL     1     -13.479  -0.573   2.291  1.00  0.00     0.115 C 
HETATM    5  N2  UNL     1     -13.994   0.446   2.067  1.00  0.00    -0.193 NA
HETATM    6  N3  UNL     1     -13.692  -2.973   2.430  1.00  0.00    -0.218 N 
HETATM    7  C5  UNL     1     -13.449  -3.522   1.153  1.00  0.00     0.211 C 
HETATM    8  N7  UNL     1     -14.279  -4.477   0.451  1.00  0.00    -0.062 NA
HETATM    9  N8  UNL     1     -12.360  -3.044   0.687  1.00  0.00    -0.316 N 
ATOM     10  H8  UNL     1     -11.983  -3.298  -0.226  1.00  0.00     0.166 HD
HETATM   11  C6  UNL     1     -11.724  -2.122   1.567  1.00  0.00     0.313 C 
HETATM   12  C7  UNL     1     -10.552  -2.695   2.240  1.00  0.00     0.125 C 
HETATM   13  N9  UNL     1      -9.639  -3.122   2.771  1.00  0.00    -0.192 NA
ENDROOT
BRANCH   6  14
HETATM   14  N4  UNL     1     -14.590  -3.428   3.399  1.00  0.00    -0.266 N 
HETATM   15  C4  UNL     1     -15.998  -3.213   3.302  1.00  0.00     0.201 C 
HETATM   16  N5  UNL     1     -16.789  -4.225   3.378  1.00  0.00    -0.372 N 
HETATM   17  N6  UNL     1     -16.560  -1.922   3.123  1.00  0.00    -0.062 NA
ATOM     18  H52 UNL     1     -16.385  -5.152   3.507  1.00  0.00     0.158 HD
ATOM     19  H51 UNL     1     -17.795  -4.071   3.309  1.00  0.00     0.158 HD
ATOM     20  H4  UNL     1     -14.226  -3.933   4.207  1.00  0.00     0.190 HD
ENDBRANCH   6  14
BRANCH  11  21
HETATM   21  N10 UNL     1     -11.347  -0.883   0.944  1.00  0.00    -0.103 N 
HETATM   22  O1  UNL     1     -11.881  -0.580  -0.139  1.00  0.00    -0.533 OA
HETATM   23  O2  UNL     1     -10.431  -0.092   1.549  1.00  0.00    -0.533 OA
ENDBRANCH  11  21
TORSDOF 2
ENDMDL
