MODEL 1
REMARK VINA RESULT: -5.465928409      0.000      0.000
REMARK  8 active torsions:
REMARK  status: ('A' for Active; 'I' for Inactive)
REMARK    1  A    between atoms: N1_2  and  N2_3 
REMARK    2  A    between atoms: N1_2  and  C2_8 
REMARK    3  A    between atoms: N2_3  and  N3_5 
REMARK    4  A    between atoms: C2_8  and  O1_10 
REMARK    5  A    between atoms: O1_10  and  C3_11 
REMARK    6  A    between atoms: C3_11  and  N4_12 
REMARK    7  A    between atoms: N4_12  and  N5_13 
REMARK    8  A    between atoms: N4_12  and  O2_16 
ROOT
HETATM    1  C3  UNL     1     -12.464  -1.179   1.573  1.00  0.00     0.216 C 
HETATM    2  C4  UNL     1     -11.808  -0.780   2.888  1.00  0.00     0.189 C 
HETATM    3  N6  UNL     1     -11.308  -1.921   3.600  1.00  0.00    -0.360 N 
ATOM      4  H6  UNL     1     -11.214  -1.834   4.611  1.00  0.00     0.162 HD
HETATM    5  C5  UNL     1     -10.973  -3.028   3.082  1.00  0.00     0.184 C 
HETATM    6  N7  UNL     1     -10.479  -4.125   3.855  1.00  0.00    -0.064 NA
HETATM    7  N8  UNL     1     -11.088  -3.195   1.678  1.00  0.00    -0.360 N 
ATOM      8  H8  UNL     1     -11.017  -4.118   1.249  1.00  0.00     0.162 HD
HETATM    9  C6  UNL     1     -11.310  -2.013   0.873  1.00  0.00     0.189 C 
ENDROOT
BRANCH   1  10
HETATM   10  O1  UNL     1     -13.518  -1.997   1.627  1.00  0.00    -0.286 OA
BRANCH  10  11
HETATM   11  C2  UNL     1     -14.611  -2.427   2.195  1.00  0.00     0.234 C 
HETATM   12  S1  UNL     1     -15.583  -1.268   2.924  1.00  0.00    -0.031 SA
BRANCH  11  13
HETATM   13  N1  UNL     1     -15.089  -3.746   2.280  1.00  0.00    -0.252 N 
HETATM   14  C1  UNL     1     -16.358  -4.161   2.835  1.00  0.00     0.182 C 
BRANCH  13  15
HETATM   15  N2  UNL     1     -14.265  -4.780   1.780  1.00  0.00    -0.245 N 
ATOM     16  H2  UNL     1     -13.862  -5.485   2.396  1.00  0.00     0.208 HD
BRANCH  15  17
HETATM   17  N3  UNL     1     -14.045  -4.792   0.509  1.00  0.00    -0.331 N 
ATOM     18  H32 UNL     1     -14.815  -4.681  -0.151  1.00  0.00     0.178 HD
ATOM     19  H31 UNL     1     -13.079  -4.915   0.206  1.00  0.00     0.178 HD
ENDBRANCH  15  17
ENDBRANCH  13  15
ENDBRANCH  11  13
ENDBRANCH  10  11
ENDBRANCH   1  10
BRANCH   1  20
HETATM   20  N4  UNL     1     -12.581  -0.054   0.663  1.00  0.00    -0.167 N 
BRANCH  20  21
HETATM   21  N5  UNL     1     -13.646   0.820   0.710  1.00  0.00    -0.321 N 
ATOM     22  H52 UNL     1     -13.586   1.654   1.293  1.00  0.00     0.179 HD
ATOM     23  H51 UNL     1     -14.505   0.657   0.184  1.00  0.00     0.179 HD
ENDBRANCH  20  21
BRANCH  20  24
HETATM   24  O2  UNL     1     -11.688   0.122  -0.168  1.00  0.00    -0.270 OA
ATOM     25  H2  UNL     1     -11.793  -0.261  -1.032  1.00  0.00     0.246 HD
ENDBRANCH  20  24
ENDBRANCH   1  20
TORSDOF 8
ENDMDL
MODEL 2
REMARK VINA RESULT: -5.149528669      1.602      1.754
REMARK  8 active torsions:
REMARK  status: ('A' for Active; 'I' for Inactive)
REMARK    1  A    between atoms: N1_2  and  N2_3 
REMARK    2  A    between atoms: N1_2  and  C2_8 
REMARK    3  A    between atoms: N2_3  and  N3_5 
REMARK    4  A    between atoms: C2_8  and  O1_10 
REMARK    5  A    between atoms: O1_10  and  C3_11 
REMARK    6  A    between atoms: C3_11  and  N4_12 
REMARK    7  A    between atoms: N4_12  and  N5_13 
REMARK    8  A    between atoms: N4_12  and  O2_16 
ROOT
HETATM    1  C3  UNL     1     -11.264  -1.992   2.311  1.00  0.00     0.216 C 
HETATM    2  C4  UNL     1     -11.226  -1.738   3.812  1.00  0.00     0.189 C 
HETATM    3  N6  UNL     1     -11.607  -2.902   4.558  1.00  0.00    -0.360 N 
ATOM      4  H6  UNL     1     -11.986  -2.753   5.493  1.00  0.00     0.162 HD
HETATM    5  C5  UNL     1     -11.514  -4.102   4.157  1.00  0.00     0.184 C 
HETATM    6  N7  UNL     1     -11.913  -5.217   4.958  1.00  0.00    -0.064 NA
HETATM    7  N8  UNL     1     -10.994  -4.357   2.862  1.00  0.00    -0.360 N 
ATOM      8  H8  UNL     1     -11.083  -5.277   2.431  1.00  0.00     0.162 HD
HETATM    9  C6  UNL     1     -10.333  -3.269   2.174  1.00  0.00     0.189 C 
ENDROOT
BRANCH   1  10
HETATM   10  O1  UNL     1     -12.434  -2.339   1.769  1.00  0.00    -0.286 OA
BRANCH  10  11
HETATM   11  C2  UNL     1     -13.739  -2.342   1.755  1.00  0.00     0.234 C 
HETATM   12  S1  UNL     1     -14.485  -0.942   1.204  1.00  0.00    -0.031 SA
BRANCH  11  13
HETATM   13  N1  UNL     1     -14.614  -3.371   2.144  1.00  0.00    -0.252 N 
HETATM   14  C1  UNL     1     -15.780  -3.229   2.986  1.00  0.00     0.182 C 
BRANCH  13  15
HETATM   15  N2  UNL     1     -14.344  -4.677   1.676  1.00  0.00    -0.245 N 
ATOM     16  H2  UNL     1     -14.446  -5.491   2.281  1.00  0.00     0.208 HD
BRANCH  15  17
HETATM   17  N3  UNL     1     -13.962  -4.794   0.449  1.00  0.00    -0.331 N 
ATOM     18  H32 UNL     1     -14.348  -4.186  -0.274  1.00  0.00     0.178 HD
ATOM     19  H31 UNL     1     -13.268  -5.513   0.246  1.00  0.00     0.178 HD
ENDBRANCH  15  17
ENDBRANCH  13  15
ENDBRANCH  11  13
ENDBRANCH  10  11
ENDBRANCH   1  10
BRANCH   1  20
HETATM   20  N4  UNL     1     -10.492  -1.008   1.575  1.00  0.00    -0.167 N 
BRANCH  20  21
HETATM   21  N5  UNL     1     -10.823   0.330   1.570  1.00  0.00    -0.321 N 
ATOM     22  H52 UNL     1     -10.376   0.956   0.901  1.00  0.00     0.179 HD
ATOM     23  H51 UNL     1     -11.502   0.724   2.222  1.00  0.00     0.179 HD
ENDBRANCH  20  21
BRANCH  20  24
HETATM   24  O2  UNL     1      -9.503  -1.391   0.946  1.00  0.00    -0.270 OA
ATOM     25  H2  UNL     1      -9.632  -2.008   0.235  1.00  0.00     0.246 HD
ENDBRANCH  20  24
ENDBRANCH   1  20
TORSDOF 8
ENDMDL
MODEL 3
REMARK VINA RESULT: -5.143224117      1.973      3.082
REMARK  8 active torsions:
REMARK  status: ('A' for Active; 'I' for Inactive)
REMARK    1  A    between atoms: N1_2  and  N2_3 
REMARK    2  A    between atoms: N1_2  and  C2_8 
REMARK    3  A    between atoms: N2_3  and  N3_5 
REMARK    4  A    between atoms: C2_8  and  O1_10 
REMARK    5  A    between atoms: O1_10  and  C3_11 
REMARK    6  A    between atoms: C3_11  and  N4_12 
REMARK    7  A    between atoms: N4_12  and  N5_13 
REMARK    8  A    between atoms: N4_12  and  O2_16 
ROOT
HETATM    1  C3  UNL     1     -11.635  -1.785   2.389  1.00  0.00     0.216 C 
HETATM    2  C4  UNL     1     -11.386  -1.431   3.849  1.00  0.00     0.189 C 
HETATM    3  N6  UNL     1     -12.046  -2.345   4.737  1.00  0.00    -0.360 N 
ATOM      4  H6  UNL     1     -12.275  -2.003   5.670  1.00  0.00     0.162 HD
HETATM    5  C5  UNL     1     -12.371  -3.539   4.464  1.00  0.00     0.184 C 
HETATM    6  N7  UNL     1     -13.027  -4.395   5.401  1.00  0.00    -0.064 NA
HETATM    7  N8  UNL     1     -12.075  -4.056   3.176  1.00  0.00    -0.360 N 
ATOM      8  H8  UNL     1     -12.486  -4.931   2.852  1.00  0.00     0.162 HD
HETATM    9  C6  UNL     1     -11.169  -3.301   2.337  1.00  0.00     0.189 C 
ENDROOT
BRANCH   1  10
HETATM   10  O1  UNL     1     -12.898  -1.782   1.956  1.00  0.00    -0.286 OA
BRANCH  10  11
HETATM   11  C2  UNL     1     -14.106  -1.289   1.939  1.00  0.00     0.234 C 
HETATM   12  S1  UNL     1     -15.301  -2.212   2.674  1.00  0.00    -0.031 SA
BRANCH  11  13
HETATM   13  N1  UNL     1     -14.547  -0.076   1.383  1.00  0.00    -0.252 N 
HETATM   14  C1  UNL     1     -15.919   0.364   1.270  1.00  0.00     0.182 C 
BRANCH  13  15
HETATM   15  N2  UNL     1     -13.569   0.813   0.881  1.00  0.00    -0.245 N 
ATOM     16  H2  UNL     1     -13.264   1.626   1.415  1.00  0.00     0.208 HD
BRANCH  15  17
HETATM   17  N3  UNL     1     -13.078   0.549  -0.283  1.00  0.00    -0.331 N 
ATOM     18  H32 UNL     1     -13.484  -0.186  -0.862  1.00  0.00     0.178 HD
ATOM     19  H31 UNL     1     -12.279   1.106  -0.586  1.00  0.00     0.178 HD
ENDBRANCH  15  17
ENDBRANCH  13  15
ENDBRANCH  11  13
ENDBRANCH  10  11
ENDBRANCH   1  10
BRANCH   1  20
HETATM   20  N4  UNL     1     -10.661  -1.168   1.509  1.00  0.00    -0.167 N 
BRANCH  20  21
HETATM   21  N5  UNL     1      -9.729  -1.907   0.812  1.00  0.00    -0.321 N 
ATOM     22  H52 UNL     1      -9.900  -2.137  -0.167  1.00  0.00     0.179 HD
ATOM     23  H51 UNL     1      -8.869  -2.243   1.245  1.00  0.00     0.179 HD
ENDBRANCH  20  21
BRANCH  20  24
HETATM   24  O2  UNL     1     -10.682   0.058   1.380  1.00  0.00    -0.270 OA
ATOM     25  H2  UNL     1     -11.250   0.433   0.717  1.00  0.00     0.246 HD
ENDBRANCH  20  24
ENDBRANCH   1  20
TORSDOF 8
ENDMDL
MODEL 4
REMARK VINA RESULT: -5.114818766      1.886      3.959
REMARK  8 active torsions:
REMARK  status: ('A' for Active; 'I' for Inactive)
REMARK    1  A    between atoms: N1_2  and  N2_3 
REMARK    2  A    between atoms: N1_2  and  C2_8 
REMARK    3  A    between atoms: N2_3  and  N3_5 
REMARK    4  A    between atoms: C2_8  and  O1_10 
REMARK    5  A    between atoms: O1_10  and  C3_11 
REMARK    6  A    between atoms: C3_11  and  N4_12 
REMARK    7  A    between atoms: N4_12  and  N5_13 
REMARK    8  A    between atoms: N4_12  and  O2_16 
ROOT
HETATM    1  C3  UNL     1     -14.232  -3.098   2.118  1.00  0.00     0.216 C 
HETATM    2  C4  UNL     1     -13.500  -3.452   0.830  1.00  0.00     0.189 C 
HETATM    3  N6  UNL     1     -12.153  -2.959   0.833  1.00  0.00    -0.360 N 
ATOM      4  H6  UNL     1     -11.717  -2.792  -0.074  1.00  0.00     0.162 HD
HETATM    5  C5  UNL     1     -11.456  -2.713   1.863  1.00  0.00     0.184 C 
HETATM    6  N7  UNL     1     -10.115  -2.224   1.789  1.00  0.00    -0.064 NA
HETATM    7  N8  UNL     1     -12.022  -2.929   3.145  1.00  0.00    -0.360 N 
ATOM      8  H8  UNL     1     -11.575  -2.565   3.987  1.00  0.00     0.162 HD
HETATM    9  C6  UNL     1     -13.254  -3.684   3.221  1.00  0.00     0.189 C 
ENDROOT
BRANCH   1  10
HETATM   10  O1  UNL     1     -14.376  -1.804   2.415  1.00  0.00    -0.286 OA
BRANCH  10  11
HETATM   11  C2  UNL     1     -15.077  -0.704   2.453  1.00  0.00     0.234 C 
HETATM   12  S1  UNL     1     -15.577  -0.187   3.971  1.00  0.00    -0.031 SA
BRANCH  11  13
HETATM   13  N1  UNL     1     -15.475   0.116   1.383  1.00  0.00    -0.252 N 
HETATM   14  C1  UNL     1     -16.680   0.910   1.317  1.00  0.00     0.182 C 
BRANCH  13  15
HETATM   15  N2  UNL     1     -14.626   0.183   0.254  1.00  0.00    -0.245 N 
ATOM     16  H2  UNL     1     -14.961  -0.057  -0.679  1.00  0.00     0.208 HD
BRANCH  15  17
HETATM   17  N3  UNL     1     -13.410   0.562   0.456  1.00  0.00    -0.331 N 
ATOM     18  H32 UNL     1     -12.777  -0.007   1.018  1.00  0.00     0.178 HD
ATOM     19  H31 UNL     1     -13.121   1.443   0.030  1.00  0.00     0.178 HD
ENDBRANCH  15  17
ENDBRANCH  13  15
ENDBRANCH  11  13
ENDBRANCH  10  11
ENDBRANCH   1  10
BRANCH   1  20
HETATM   20  N4  UNL     1     -15.405  -3.928   2.320  1.00  0.00    -0.167 N 
BRANCH  20  21
HETATM   21  N5  UNL     1     -16.201  -3.814   3.440  1.00  0.00    -0.321 N 
ATOM     22  H52 UNL     1     -16.659  -2.926   3.642  1.00  0.00     0.179 HD
ATOM     23  H51 UNL     1     -16.344  -4.591   4.085  1.00  0.00     0.179 HD
ENDBRANCH  20  21
BRANCH  20  24
HETATM   24  O2  UNL     1     -15.695  -4.753   1.450  1.00  0.00    -0.270 OA
ATOM     25  H2  UNL     1     -15.715  -5.673   1.689  1.00  0.00     0.246 HD
ENDBRANCH  20  24
ENDBRANCH   1  20
TORSDOF 8
ENDMDL
MODEL 5
REMARK VINA RESULT: -5.106181401      2.258      4.335
REMARK  8 active torsions:
REMARK  status: ('A' for Active; 'I' for Inactive)
REMARK    1  A    between atoms: N1_2  and  N2_3 
REMARK    2  A    between atoms: N1_2  and  C2_8 
REMARK    3  A    between atoms: N2_3  and  N3_5 
REMARK    4  A    between atoms: C2_8  and  O1_10 
REMARK    5  A    between atoms: O1_10  and  C3_11 
REMARK    6  A    between atoms: C3_11  and  N4_12 
REMARK    7  A    between atoms: N4_12  and  N5_13 
REMARK    8  A    between atoms: N4_12  and  O2_16 
ROOT
HETATM    1  C3  UNL     1     -14.418  -3.161   2.122  1.00  0.00     0.216 C 
HETATM    2  C4  UNL     1     -13.619  -3.805   0.997  1.00  0.00     0.189 C 
HETATM    3  N6  UNL     1     -12.263  -3.340   0.975  1.00  0.00    -0.360 N 
ATOM      4  H6  UNL     1     -11.769  -3.386   0.083  1.00  0.00     0.162 HD
HETATM    5  C5  UNL     1     -11.623  -2.875   1.966  1.00  0.00     0.184 C 
HETATM    6  N7  UNL     1     -10.268  -2.430   1.871  1.00  0.00    -0.064 NA
HETATM    7  N8  UNL     1     -12.270  -2.790   3.225  1.00  0.00    -0.360 N 
ATOM      8  H8  UNL     1     -11.866  -2.251   3.991  1.00  0.00     0.162 HD
HETATM    9  C6  UNL     1     -13.524  -3.494   3.389  1.00  0.00     0.189 C 
ENDROOT
BRANCH   1  10
HETATM   10  O1  UNL     1     -14.546  -1.832   2.111  1.00  0.00    -0.286 OA
BRANCH  10  11
HETATM   11  C2  UNL     1     -14.924  -0.718   1.545  1.00  0.00     0.234 C 
HETATM   12  S1  UNL     1     -14.109  -0.276   0.145  1.00  0.00    -0.031 SA
BRANCH  11  13
HETATM   13  N1  UNL     1     -15.932   0.172   1.955  1.00  0.00    -0.252 N 
HETATM   14  C1  UNL     1     -17.158  -0.181   2.633  1.00  0.00     0.182 C 
BRANCH  13  15
HETATM   15  N2  UNL     1     -15.745   1.547   1.688  1.00  0.00    -0.245 N 
ATOM     16  H2  UNL     1     -14.925   1.884   1.183  1.00  0.00     0.208 HD
BRANCH  15  17
HETATM   17  N3  UNL     1     -16.656   2.356   2.109  1.00  0.00    -0.331 N 
ATOM     18  H32 UNL     1     -17.618   2.271   1.780  1.00  0.00     0.178 HD
ATOM     19  H31 UNL     1     -16.369   3.072   2.777  1.00  0.00     0.178 HD
ENDBRANCH  15  17
ENDBRANCH  13  15
ENDBRANCH  11  13
ENDBRANCH  10  11
ENDBRANCH   1  10
BRANCH   1  20
HETATM   20  N4  UNL     1     -15.622  -3.911   2.429  1.00  0.00    -0.167 N 
BRANCH  20  21
HETATM   21  N5  UNL     1     -16.387  -3.647   3.545  1.00  0.00    -0.321 N 
ATOM     22  H52 UNL     1     -16.156  -2.846   4.134  1.00  0.00     0.179 HD
ATOM     23  H51 UNL     1     -17.178  -4.232   3.812  1.00  0.00     0.179 HD
ENDBRANCH  20  21
BRANCH  20  24
HETATM   24  O2  UNL     1     -15.968  -4.806   1.655  1.00  0.00    -0.270 OA
ATOM     25  H2  UNL     1     -16.303  -4.560   0.800  1.00  0.00     0.246 HD
ENDBRANCH  20  24
ENDBRANCH   1  20
TORSDOF 8
ENDMDL
