MODEL 1
REMARK VINA RESULT: -5.377396797      0.000      0.000
REMARK  4 active torsions:
REMARK  status: ('A' for Active; 'I' for Inactive)
REMARK    1  A    between atoms: O1_2  and  C2_3 
REMARK    2  A    between atoms: C5_13  and  N3_14 
REMARK    3  A    between atoms: C5_13  and  N4_18 
REMARK    4  A    between atoms: N4_18  and  N5_19 
ROOT
HETATM    1  C2  UNL     1     -13.698  -1.425   0.524  1.00  0.00     0.287 C 
HETATM    2  N1  UNL     1     -14.712  -0.449   0.867  1.00  0.00    -0.326 N 
ATOM      3  H1  UNL     1     -14.928   0.290   0.198  1.00  0.00     0.165 HD
HETATM    4  C3  UNL     1     -15.415  -0.481   2.096  1.00  0.00     0.222 C 
HETATM    5  N2  UNL     1     -15.929   0.606   2.535  1.00  0.00    -0.365 N 
ATOM      6  H21 UNL     1     -16.435   0.583   3.419  1.00  0.00     0.159 HD
ATOM      7  H22 UNL     1     -15.865   1.503   2.054  1.00  0.00     0.159 HD
HETATM    8  O2  UNL     1     -15.502  -1.706   2.751  1.00  0.00    -0.243 OA
HETATM    9  C4  UNL     1     -14.898  -2.782   2.152  1.00  0.00     0.325 C 
HETATM   10  O3  UNL     1     -15.426  -3.900   2.204  1.00  0.00    -0.260 OA
HETATM   11  C5  UNL     1     -13.623  -2.591   1.451  1.00  0.00     0.337 C 
ENDROOT
BRANCH  11  12
HETATM   12  N3  UNL     1     -13.377  -3.778   0.628  1.00  0.00    -0.040 N 
ATOM     13  H33 UNL     1     -13.414  -3.586  -0.374  1.00  0.00     0.277 HD
ATOM     14  H32 UNL     1     -12.410  -4.099   0.664  1.00  0.00     0.277 HD
ATOM     15  H31 UNL     1     -14.046  -4.490   0.923  1.00  0.00     0.277 HD
ENDBRANCH  11  12
BRANCH  11  16
HETATM   16  N4  UNL     1     -12.610  -2.455   2.473  1.00  0.00    -0.111 NA
BRANCH  16  17
HETATM   17  N5  UNL     1     -11.610  -3.390   2.410  1.00  0.00    -0.228 NA
HETATM   18  C6  UNL     1     -10.355  -2.704   2.164  1.00  0.00     0.135 C 
HETATM   19  C7  UNL     1      -9.405  -2.833   3.331  1.00  0.00     0.183 C 
HETATM   20  O4  UNL     1      -9.110  -4.140   3.645  1.00  0.00    -0.389 OA
HETATM   21  C8  UNL     1     -10.222  -4.952   3.680  1.00  0.00     0.183 C 
HETATM   22  C9  UNL     1     -11.463  -4.097   3.668  1.00  0.00     0.135 C 
ENDBRANCH  16  17
ENDBRANCH  11  16
BRANCH   1  23
HETATM   23  O1  UNL     1     -12.509  -0.752   0.375  1.00  0.00    -0.367 OA
HETATM   24  C1  UNL     1     -12.737   0.441  -0.298  1.00  0.00     0.204 C 
ENDBRANCH   1  23
TORSDOF 4
ENDMDL
MODEL 2
REMARK VINA RESULT: -5.088114363      1.914      2.230
REMARK  4 active torsions:
REMARK  status: ('A' for Active; 'I' for Inactive)
REMARK    1  A    between atoms: O1_2  and  C2_3 
REMARK    2  A    between atoms: C5_13  and  N3_14 
REMARK    3  A    between atoms: C5_13  and  N4_18 
REMARK    4  A    between atoms: N4_18  and  N5_19 
ROOT
HETATM    1  C2  UNL     1     -12.436  -1.905   0.959  1.00  0.00     0.287 C 
HETATM    2  N1  UNL     1     -13.321  -0.976   0.287  1.00  0.00    -0.326 N 
ATOM      3  H1  UNL     1     -13.008  -0.538  -0.579  1.00  0.00     0.165 HD
HETATM    4  C3  UNL     1     -14.606  -0.651   0.789  1.00  0.00     0.222 C 
HETATM    5  N2  UNL     1     -15.131   0.465   0.446  1.00  0.00    -0.365 N 
ATOM      6  H21 UNL     1     -16.056   0.698   0.806  1.00  0.00     0.159 HD
ATOM      7  H22 UNL     1     -14.683   1.143  -0.170  1.00  0.00     0.159 HD
HETATM    8  O2  UNL     1     -15.218  -1.577   1.628  1.00  0.00    -0.243 OA
HETATM    9  C4  UNL     1     -14.525  -2.728   1.903  1.00  0.00     0.325 C 
HETATM   10  O3  UNL     1     -15.125  -3.806   2.004  1.00  0.00    -0.260 OA
HETATM   11  C5  UNL     1     -13.069  -2.667   2.075  1.00  0.00     0.337 C 
ENDROOT
BRANCH  11  12
HETATM   12  N3  UNL     1     -12.547  -4.035   2.009  1.00  0.00    -0.040 N 
ATOM     13  H33 UNL     1     -13.279  -4.745   2.044  1.00  0.00     0.277 HD
ATOM     14  H32 UNL     1     -12.173  -4.278   1.092  1.00  0.00     0.277 HD
ATOM     15  H31 UNL     1     -11.862  -4.130   2.759  1.00  0.00     0.277 HD
ENDBRANCH  11  12
BRANCH  11  16
HETATM   16  N4  UNL     1     -12.834  -2.088   3.377  1.00  0.00    -0.111 NA
BRANCH  16  17
HETATM   17  N5  UNL     1     -12.121  -2.886   4.233  1.00  0.00    -0.228 NA
HETATM   18  C6  UNL     1     -10.921  -2.174   4.633  1.00  0.00     0.135 C 
HETATM   19  C7  UNL     1     -10.927  -1.845   6.108  1.00  0.00     0.183 C 
HETATM   20  O4  UNL     1     -11.034  -2.961   6.908  1.00  0.00    -0.389 OA
HETATM   21  C8  UNL     1     -12.005  -3.839   6.482  1.00  0.00     0.183 C 
HETATM   22  C9  UNL     1     -12.867  -3.165   5.446  1.00  0.00     0.135 C 
ENDBRANCH  16  17
ENDBRANCH  11  16
BRANCH   1  23
HETATM   23  O1  UNL     1     -11.308  -1.212   1.324  1.00  0.00    -0.367 OA
HETATM   24  C1  UNL     1     -10.183  -1.894   0.878  1.00  0.00     0.204 C 
ENDBRANCH   1  23
TORSDOF 4
ENDMDL
MODEL 3
REMARK VINA RESULT: -5.086641881      1.874      2.862
REMARK  4 active torsions:
REMARK  status: ('A' for Active; 'I' for Inactive)
REMARK    1  A    between atoms: O1_2  and  C2_3 
REMARK    2  A    between atoms: C5_13  and  N3_14 
REMARK    3  A    between atoms: C5_13  and  N4_18 
REMARK    4  A    between atoms: N4_18  and  N5_19 
ROOT
HETATM    1  C2  UNL     1     -13.662  -2.519   1.447  1.00  0.00     0.287 C 
HETATM    2  N1  UNL     1     -13.827  -1.351   0.606  1.00  0.00    -0.326 N 
ATOM      3  H1  UNL     1     -14.543  -1.367  -0.121  1.00  0.00     0.165 HD
HETATM    4  C3  UNL     1     -13.032  -0.188   0.753  1.00  0.00     0.222 C 
HETATM    5  N2  UNL     1     -12.894   0.589  -0.255  1.00  0.00    -0.365 N 
ATOM      6  H21 UNL     1     -12.322   1.426  -0.148  1.00  0.00     0.159 HD
ATOM      7  H22 UNL     1     -13.321   0.426  -1.166  1.00  0.00     0.159 HD
HETATM    8  O2  UNL     1     -12.449   0.034   1.997  1.00  0.00    -0.243 OA
HETATM    9  C4  UNL     1     -12.692  -0.892   2.978  1.00  0.00     0.325 C 
HETATM   10  O3  UNL     1     -12.847  -0.530   4.152  1.00  0.00    -0.260 OA
HETATM   11  C5  UNL     1     -12.765  -2.314   2.622  1.00  0.00     0.337 C 
ENDROOT
BRANCH  11  12
HETATM   12  N3  UNL     1     -13.365  -3.033   3.749  1.00  0.00    -0.040 N 
ATOM     13  H33 UNL     1     -13.929  -3.833   3.460  1.00  0.00     0.277 HD
ATOM     14  H32 UNL     1     -12.683  -3.549   4.305  1.00  0.00     0.277 HD
ATOM     15  H31 UNL     1     -13.891  -2.349   4.294  1.00  0.00     0.277 HD
ENDBRANCH  11  12
BRANCH  11  16
HETATM   16  N4  UNL     1     -11.407  -2.751   2.396  1.00  0.00    -0.111 NA
BRANCH  16  17
HETATM   17  N5  UNL     1     -10.783  -3.260   3.505  1.00  0.00    -0.228 NA
HETATM   18  C6  UNL     1     -10.316  -4.599   3.194  1.00  0.00     0.135 C 
HETATM   19  C7  UNL     1      -8.808  -4.686   3.203  1.00  0.00     0.183 C 
HETATM   20  O4  UNL     1      -8.254  -4.322   4.410  1.00  0.00    -0.389 OA
HETATM   21  C8  UNL     1      -8.795  -3.165   4.926  1.00  0.00     0.183 C 
HETATM   22  C9  UNL     1      -9.612  -2.480   3.861  1.00  0.00     0.135 C 
ENDBRANCH  16  17
ENDBRANCH  11  16
BRANCH   1  23
HETATM   23  O1  UNL     1     -13.292  -3.564   0.636  1.00  0.00    -0.367 OA
HETATM   24  C1  UNL     1     -14.282  -4.539   0.660  1.00  0.00     0.204 C 
ENDBRANCH   1  23
TORSDOF 4
ENDMDL
MODEL 4
REMARK VINA RESULT: -4.986360963      2.494      3.627
REMARK  4 active torsions:
REMARK  status: ('A' for Active; 'I' for Inactive)
REMARK    1  A    between atoms: O1_2  and  C2_3 
REMARK    2  A    between atoms: C5_13  and  N3_14 
REMARK    3  A    between atoms: C5_13  and  N4_18 
REMARK    4  A    between atoms: N4_18  and  N5_19 
ROOT
HETATM    1  C2  UNL     1     -11.423  -2.107   1.796  1.00  0.00     0.287 C 
HETATM    2  N1  UNL     1     -11.586  -1.060   0.809  1.00  0.00    -0.326 N 
ATOM      3  H1  UNL     1     -10.756  -0.676   0.358  1.00  0.00     0.165 HD
HETATM    4  C3  UNL     1     -12.856  -0.546   0.448  1.00  0.00     0.222 C 
HETATM    5  N2  UNL     1     -12.920   0.634  -0.043  1.00  0.00    -0.365 N 
ATOM      6  H21 UNL     1     -13.834   1.003  -0.304  1.00  0.00     0.159 HD
ATOM      7  H22 UNL     1     -12.111   1.236  -0.194  1.00  0.00     0.159 HD
HETATM    8  O2  UNL     1     -13.960  -1.368   0.653  1.00  0.00    -0.243 OA
HETATM    9  C4  UNL     1     -13.728  -2.608   1.190  1.00  0.00     0.325 C 
HETATM   10  O3  UNL     1     -14.385  -3.585   0.807  1.00  0.00    -0.260 OA
HETATM   11  C5  UNL     1     -12.694  -2.763   2.220  1.00  0.00     0.337 C 
ENDROOT
BRANCH  11  12
HETATM   12  N3  UNL     1     -12.410  -4.193   2.366  1.00  0.00    -0.040 N 
ATOM     13  H33 UNL     1     -11.643  -4.387   3.009  1.00  0.00     0.277 HD
ATOM     14  H32 UNL     1     -13.137  -4.697   2.874  1.00  0.00     0.277 HD
ATOM     15  H31 UNL     1     -12.249  -4.563   1.428  1.00  0.00     0.277 HD
ENDBRANCH  11  12
BRANCH  11  16
HETATM   16  N4  UNL     1     -13.246  -2.220   3.440  1.00  0.00    -0.111 NA
BRANCH  16  17
HETATM   17  N5  UNL     1     -13.400  -3.135   4.449  1.00  0.00    -0.228 NA
HETATM   18  C6  UNL     1     -12.639  -2.682   5.599  1.00  0.00     0.135 C 
HETATM   19  C7  UNL     1     -13.534  -2.333   6.765  1.00  0.00     0.183 C 
HETATM   20  O4  UNL     1     -14.320  -3.387   7.175  1.00  0.00    -0.389 OA
HETATM   21  C8  UNL     1     -14.922  -4.050   6.130  1.00  0.00     0.183 C 
HETATM   22  C9  UNL     1     -14.784  -3.230   4.874  1.00  0.00     0.135 C 
ENDBRANCH  16  17
ENDBRANCH  11  16
BRANCH   1  23
HETATM   23  O1  UNL     1     -10.688  -1.588   2.834  1.00  0.00    -0.367 OA
HETATM   24  C1  UNL     1      -9.562  -2.374   3.041  1.00  0.00     0.204 C 
ENDBRANCH   1  23
TORSDOF 4
ENDMDL
MODEL 5
REMARK VINA RESULT: -4.940915182      1.907      5.616
REMARK  4 active torsions:
REMARK  status: ('A' for Active; 'I' for Inactive)
REMARK    1  A    between atoms: O1_2  and  C2_3 
REMARK    2  A    between atoms: C5_13  and  N3_14 
REMARK    3  A    between atoms: C5_13  and  N4_18 
REMARK    4  A    between atoms: N4_18  and  N5_19 
ROOT
HETATM    1  C2  UNL     1     -11.830  -4.010   3.294  1.00  0.00     0.287 C 
HETATM    2  N1  UNL     1     -10.587  -3.926   4.033  1.00  0.00    -0.326 N 
ATOM      3  H1  UNL     1     -10.343  -4.683   4.672  1.00  0.00     0.165 HD
HETATM    4  C3  UNL     1      -9.695  -2.833   3.901  1.00  0.00     0.222 C 
HETATM    5  N2  UNL     1      -8.891  -2.581   4.865  1.00  0.00    -0.365 N 
ATOM      6  H21 UNL     1      -8.250  -1.795   4.770  1.00  0.00     0.159 HD
ATOM      7  H22 UNL     1      -8.849  -3.120   5.730  1.00  0.00     0.159 HD
HETATM    8  O2  UNL     1      -9.753  -2.099   2.721  1.00  0.00    -0.243 OA
HETATM    9  C4  UNL     1     -10.671  -2.494   1.781  1.00  0.00     0.325 C 
HETATM   10  O3  UNL     1     -10.393  -2.434   0.576  1.00  0.00    -0.260 OA
HETATM   11  C5  UNL     1     -11.982  -2.986   2.220  1.00  0.00     0.337 C 
ENDROOT
BRANCH  11  12
HETATM   12  N3  UNL     1     -12.619  -3.653   1.081  1.00  0.00    -0.040 N 
ATOM     13  H33 UNL     1     -12.330  -4.625   0.972  1.00  0.00     0.277 HD
ATOM     14  H32 UNL     1     -13.614  -3.827   1.223  1.00  0.00     0.277 HD
ATOM     15  H31 UNL     1     -12.427  -3.084   0.256  1.00  0.00     0.277 HD
ENDBRANCH  11  12
BRANCH  11  16
HETATM   16  N4  UNL     1     -12.740  -1.826   2.628  1.00  0.00    -0.111 NA
BRANCH  16  17
HETATM   17  N5  UNL     1     -13.873  -1.600   1.891  1.00  0.00    -0.228 NA
HETATM   18  C6  UNL     1     -15.008  -1.559   2.795  1.00  0.00     0.135 C 
HETATM   19  C7  UNL     1     -15.642  -0.188   2.840  1.00  0.00     0.183 C 
HETATM   20  O4  UNL     1     -16.077   0.244   1.607  1.00  0.00    -0.389 OA
HETATM   21  C8  UNL     1     -15.154   0.040   0.606  1.00  0.00     0.183 C 
HETATM   22  C9  UNL     1     -13.824  -0.315   1.221  1.00  0.00     0.135 C 
ENDBRANCH  16  17
ENDBRANCH  11  16
BRANCH   1  23
HETATM   23  O1  UNL     1     -12.855  -4.017   4.209  1.00  0.00    -0.367 OA
HETATM   24  C1  UNL     1     -12.418  -4.609   5.387  1.00  0.00     0.204 C 
ENDBRANCH   1  23
TORSDOF 4
ENDMDL
