MODEL 1
REMARK VINA RESULT: -6.959347998      0.000      0.000
REMARK  4 active torsions:
REMARK  status: ('A' for Active; 'I' for Inactive)
REMARK    1  A    between atoms: C2_2  and  C3_4 
REMARK    2  A    between atoms: C5_10  and  N3_11 
REMARK    3  A    between atoms: N3_11  and  C6_13 
REMARK    4  A    between atoms: C7_22  and  N9_23 
ROOT
HETATM    1  C3  UNL     1      -9.115  -4.657   3.341  1.00  0.00     0.182 A 
HETATM    2  N1  UNL     1     -10.004  -4.389   2.362  1.00  0.00    -0.169 N 
ATOM      3  H1  UNL     1     -10.087  -4.879   1.471  1.00  0.00     0.186 HD
HETATM    4  C4  UNL     1     -10.769  -3.350   2.780  1.00  0.00     0.735 A 
HETATM    5  N2  UNL     1     -11.799  -2.675   2.215  1.00  0.00    -0.019 N 
ATOM      6  H2  UNL     1     -12.123  -2.944   1.286  1.00  0.00     0.203 HD
HETATM    7  C5  UNL     1     -12.401  -1.659   2.854  1.00  0.00     0.726 A 
HETATM    8  N8  UNL     1     -12.005  -1.271   4.079  1.00  0.00    -0.019 N 
ATOM      9  H8  UNL     1     -12.463  -0.499   4.563  1.00  0.00     0.203 HD
HETATM   10  C7  UNL     1     -10.983  -1.937   4.645  1.00  0.00     0.727 A 
HETATM   11  N10 UNL     1     -10.371  -2.965   4.005  1.00  0.00     0.092 N 
HETATM   12  N11 UNL     1      -9.372  -3.772   4.316  1.00  0.00    -0.246 N 
ATOM     13  H11 UNL     1      -8.857  -3.728   5.195  1.00  0.00     0.190 HD
ENDROOT
BRANCH   7  14
HETATM   14  N3  UNL     1     -13.490  -0.996   2.178  1.00  0.00    -0.019 N 
ATOM     15  H3  UNL     1     -14.408  -0.939   2.618  1.00  0.00     0.203 HD
BRANCH  14  16
HETATM   16  C6  UNL     1     -13.293  -0.474   1.004  1.00  0.00     0.722 A 
HETATM   17  N4  UNL     1     -12.191   0.139   0.545  1.00  0.00    -0.116 N 
HETATM   18  N5  UNL     1     -12.454   0.504  -0.698  1.00  0.00     0.006 NA
ATOM     19  H4  UNL     1     -11.320   0.292   1.055  1.00  0.00     0.202 HD
HETATM   20  N6  UNL     1     -13.681   0.144  -1.037  1.00  0.00     0.006 NA
HETATM   21  N7  UNL     1     -14.204  -0.469   0.029  1.00  0.00    -0.116 N 
ATOM     22  H7  UNL     1     -15.142  -0.866   0.088  1.00  0.00     0.202 HD
ENDBRANCH  14  16
ENDBRANCH   7  14
BRANCH  10  23
HETATM   23  N9  UNL     1     -10.566  -1.591   5.839  1.00  0.00    -0.232 N 
ATOM     24  H92 UNL     1     -11.209  -1.658   6.627  1.00  0.00     0.174 HD
ATOM     25  H91 UNL     1      -9.608  -1.261   5.961  1.00  0.00     0.174 HD
ENDBRANCH  10  23
BRANCH   1  26
HETATM   26  C2  UNL     1      -8.077  -5.708   3.332  1.00  0.00     0.191 C 
HETATM   27  C1  UNL     1      -6.983  -5.581   4.327  1.00  0.00     0.100 C 
HETATM   28  O1  UNL     1      -8.132  -6.652   2.520  1.00  0.00    -0.290 OA
ENDBRANCH   1  26
TORSDOF 4
ENDMDL
MODEL 2
REMARK VINA RESULT: -6.790487333      1.931      2.736
REMARK  4 active torsions:
REMARK  status: ('A' for Active; 'I' for Inactive)
REMARK    1  A    between atoms: C2_2  and  C3_4 
REMARK    2  A    between atoms: C5_10  and  N3_11 
REMARK    3  A    between atoms: N3_11  and  C6_13 
REMARK    4  A    between atoms: C7_22  and  N9_23 
ROOT
HETATM    1  C3  UNL     1      -7.629  -5.950   4.188  1.00  0.00     0.182 A 
HETATM    2  N1  UNL     1      -8.267  -5.931   3.000  1.00  0.00    -0.169 N 
ATOM      3  H1  UNL     1      -8.183  -6.627   2.259  1.00  0.00     0.186 HD
HETATM    4  C4  UNL     1      -9.040  -4.817   2.969  1.00  0.00     0.735 A 
HETATM    5  N2  UNL     1      -9.880  -4.301   2.040  1.00  0.00    -0.019 N 
ATOM      6  H2  UNL     1     -10.010  -4.791   1.156  1.00  0.00     0.203 HD
HETATM    7  C5  UNL     1     -10.544  -3.154   2.261  1.00  0.00     0.726 A 
HETATM    8  N8  UNL     1     -10.401  -2.475   3.413  1.00  0.00    -0.019 N 
ATOM      9  H8  UNL     1     -10.906  -1.604   3.579  1.00  0.00     0.203 HD
HETATM   10  C7  UNL     1      -9.569  -2.983   4.338  1.00  0.00     0.727 A 
HETATM   11  N10 UNL     1      -8.895  -4.140   4.121  1.00  0.00     0.092 N 
HETATM   12  N11 UNL     1      -8.039  -4.848   4.836  1.00  0.00    -0.246 N 
ATOM     13  H11 UNL     1      -7.725  -4.588   5.770  1.00  0.00     0.190 HD
ENDROOT
BRANCH   7  14
HETATM   14  N3  UNL     1     -11.418  -2.677   1.217  1.00  0.00    -0.019 N 
ATOM     15  H3  UNL     1     -11.033  -2.190   0.408  1.00  0.00     0.203 HD
BRANCH  14  16
HETATM   16  C6  UNL     1     -12.700  -2.871   1.314  1.00  0.00     0.722 A 
HETATM   17  N4  UNL     1     -13.645  -1.989   1.674  1.00  0.00    -0.116 N 
HETATM   18  N5  UNL     1     -14.798  -2.635   1.629  1.00  0.00     0.006 NA
ATOM     19  H4  UNL     1     -13.503  -1.012   1.932  1.00  0.00     0.202 HD
HETATM   20  N6  UNL     1     -14.612  -3.890   1.254  1.00  0.00     0.006 NA
HETATM   21  N7  UNL     1     -13.298  -4.036   1.057  1.00  0.00    -0.116 N 
ATOM     22  H7  UNL     1     -12.831  -4.892   0.759  1.00  0.00     0.202 HD
ENDBRANCH  14  16
ENDBRANCH   7  14
BRANCH  10  23
HETATM   23  N9  UNL     1      -9.401  -2.351   5.475  1.00  0.00    -0.232 N 
ATOM     24  H92 UNL     1      -8.830  -2.780   6.201  1.00  0.00     0.174 HD
ATOM     25  H91 UNL     1      -9.843  -1.442   5.616  1.00  0.00     0.174 HD
ENDBRANCH  10  23
BRANCH   1  26
HETATM   26  C2  UNL     1      -6.680  -6.974   4.669  1.00  0.00     0.191 C 
HETATM   27  C1  UNL     1      -6.373  -6.977   6.121  1.00  0.00     0.100 C 
HETATM   28  O1  UNL     1      -6.168  -7.791   3.878  1.00  0.00    -0.290 OA
ENDBRANCH   1  26
TORSDOF 4
ENDMDL
MODEL 3
REMARK VINA RESULT: -6.766738827      2.113      3.300
REMARK  4 active torsions:
REMARK  status: ('A' for Active; 'I' for Inactive)
REMARK    1  A    between atoms: C2_2  and  C3_4 
REMARK    2  A    between atoms: C5_10  and  N3_11 
REMARK    3  A    between atoms: N3_11  and  C6_13 
REMARK    4  A    between atoms: C7_22  and  N9_23 
ROOT
HETATM    1  C3  UNL     1     -10.107  -3.575   2.944  1.00  0.00     0.182 A 
HETATM    2  N1  UNL     1     -10.294  -2.278   2.625  1.00  0.00    -0.169 N 
ATOM      3  H1  UNL     1      -9.639  -1.515   2.794  1.00  0.00     0.186 HD
HETATM    4  C4  UNL     1     -11.512  -2.174   2.038  1.00  0.00     0.735 A 
HETATM    5  N2  UNL     1     -12.206  -1.128   1.528  1.00  0.00    -0.019 N 
ATOM      6  H2  UNL     1     -11.795  -0.196   1.554  1.00  0.00     0.203 HD
HETATM    7  C5  UNL     1     -13.424  -1.296   0.988  1.00  0.00     0.726 A 
HETATM    8  N8  UNL     1     -14.004  -2.508   0.935  1.00  0.00    -0.019 N 
ATOM      9  H8  UNL     1     -14.930  -2.634   0.525  1.00  0.00     0.203 HD
HETATM   10  C7  UNL     1     -13.320  -3.550   1.439  1.00  0.00     0.727 A 
HETATM   11  N10 UNL     1     -12.089  -3.387   1.986  1.00  0.00     0.092 N 
HETATM   12  N11 UNL     1     -11.217  -4.211   2.539  1.00  0.00    -0.246 N 
ATOM     13  H11 UNL     1     -11.370  -5.213   2.646  1.00  0.00     0.190 HD
ENDROOT
BRANCH   7  14
HETATM   14  N3  UNL     1     -14.091  -0.127   0.468  1.00  0.00    -0.019 N 
ATOM     15  H3  UNL     1     -13.774   0.301  -0.402  1.00  0.00     0.203 HD
BRANCH  14  16
HETATM   16  C6  UNL     1     -15.099   0.379   1.115  1.00  0.00     0.722 A 
HETATM   17  N4  UNL     1     -16.227   0.901   0.612  1.00  0.00    -0.116 N 
HETATM   18  N5  UNL     1     -16.957   1.287   1.645  1.00  0.00     0.006 NA
ATOM     19  H4  UNL     1     -16.475   0.985  -0.375  1.00  0.00     0.202 HD
HETATM   20  N6  UNL     1     -16.328   1.026   2.779  1.00  0.00     0.006 NA
HETATM   21  N7  UNL     1     -15.166   0.456   2.446  1.00  0.00    -0.116 N 
ATOM     22  H7  UNL     1     -14.451   0.135   3.098  1.00  0.00     0.202 HD
ENDBRANCH  14  16
ENDBRANCH   7  14
BRANCH  10  23
HETATM   23  N9  UNL     1     -13.850  -4.749   1.407  1.00  0.00    -0.232 N 
ATOM     24  H92 UNL     1     -14.469  -4.997   0.636  1.00  0.00     0.174 HD
ATOM     25  H91 UNL     1     -13.636  -5.414   2.150  1.00  0.00     0.174 HD
ENDBRANCH  10  23
BRANCH   1  26
HETATM   26  C2  UNL     1      -8.924  -4.164   3.602  1.00  0.00     0.191 C 
HETATM   27  C1  UNL     1      -8.304  -5.342   2.943  1.00  0.00     0.100 C 
HETATM   28  O1  UNL     1      -8.477  -3.683   4.662  1.00  0.00    -0.290 OA
ENDBRANCH   1  26
TORSDOF 4
ENDMDL
MODEL 4
REMARK VINA RESULT: -6.708989971      1.235      1.562
REMARK  4 active torsions:
REMARK  status: ('A' for Active; 'I' for Inactive)
REMARK    1  A    between atoms: C2_2  and  C3_4 
REMARK    2  A    between atoms: C5_10  and  N3_11 
REMARK    3  A    between atoms: N3_11  and  C6_13 
REMARK    4  A    between atoms: C7_22  and  N9_23 
ROOT
HETATM    1  C3  UNL     1      -9.266  -4.819   3.001  1.00  0.00     0.182 A 
HETATM    2  N1  UNL     1      -9.339  -3.625   2.378  1.00  0.00    -0.169 N 
ATOM      3  H1  UNL     1      -8.614  -3.200   1.801  1.00  0.00     0.186 HD
HETATM    4  C4  UNL     1     -10.553  -3.091   2.662  1.00  0.00     0.735 A 
HETATM    5  N2  UNL     1     -11.157  -1.930   2.311  1.00  0.00    -0.019 N 
ATOM      6  H2  UNL     1     -10.660  -1.269   1.713  1.00  0.00     0.203 HD
HETATM    7  C5  UNL     1     -12.396  -1.632   2.735  1.00  0.00     0.726 A 
HETATM    8  N8  UNL     1     -13.085  -2.474   3.525  1.00  0.00    -0.019 N 
ATOM      9  H8  UNL     1     -14.026  -2.246   3.846  1.00  0.00     0.203 HD
HETATM   10  C7  UNL     1     -12.491  -3.627   3.876  1.00  0.00     0.727 A 
HETATM   11  N10 UNL     1     -11.240  -3.934   3.451  1.00  0.00     0.092 N 
HETATM   12  N11 UNL     1     -10.438  -4.967   3.638  1.00  0.00    -0.246 N 
ATOM     13  H11 UNL     1     -10.681  -5.782   4.200  1.00  0.00     0.190 HD
ENDROOT
BRANCH   7  14
HETATM   14  N3  UNL     1     -12.962  -0.374   2.312  1.00  0.00    -0.019 N 
ATOM     15  H3  UNL     1     -13.239   0.323   3.004  1.00  0.00     0.203 HD
BRANCH  14  16
HETATM   16  C6  UNL     1     -13.116  -0.134   1.044  1.00  0.00     0.722 A 
HETATM   17  N4  UNL     1     -14.196  -0.369   0.283  1.00  0.00    -0.116 N 
HETATM   18  N5  UNL     1     -13.891   0.037  -0.938  1.00  0.00     0.006 NA
ATOM     19  H4  UNL     1     -15.080  -0.780   0.586  1.00  0.00     0.202 HD
HETATM   20  N6  UNL     1     -12.660   0.519  -0.972  1.00  0.00     0.006 NA
HETATM   21  N7  UNL     1     -12.177   0.412   0.269  1.00  0.00    -0.116 N 
ATOM     22  H7  UNL     1     -11.247   0.699   0.574  1.00  0.00     0.202 HD
ENDBRANCH  14  16
ENDBRANCH   7  14
BRANCH  10  23
HETATM   23  N9  UNL     1     -13.129  -4.476   4.646  1.00  0.00    -0.232 N 
ATOM     24  H92 UNL     1     -13.798  -5.121   4.225  1.00  0.00     0.174 HD
ATOM     25  H91 UNL     1     -12.949  -4.479   5.650  1.00  0.00     0.174 HD
ENDBRANCH  10  23
BRANCH   1  26
HETATM   26  C2  UNL     1      -8.130  -5.762   2.979  1.00  0.00     0.191 C 
HETATM   27  C1  UNL     1      -7.081  -5.575   4.013  1.00  0.00     0.100 C 
HETATM   28  O1  UNL     1      -8.069  -6.669   2.125  1.00  0.00    -0.290 OA
ENDBRANCH   1  26
TORSDOF 4
ENDMDL
MODEL 5
REMARK VINA RESULT: -6.696599072      2.855      6.731
REMARK  4 active torsions:
REMARK  status: ('A' for Active; 'I' for Inactive)
REMARK    1  A    between atoms: C2_2  and  C3_4 
REMARK    2  A    between atoms: C5_10  and  N3_11 
REMARK    3  A    between atoms: N3_11  and  C6_13 
REMARK    4  A    between atoms: C7_22  and  N9_23 
ROOT
HETATM    1  C3  UNL     1     -12.401  -0.914   0.655  1.00  0.00     0.182 A 
HETATM    2  N1  UNL     1     -11.130  -0.858   1.104  1.00  0.00    -0.169 N 
ATOM      3  H1  UNL     1     -10.446  -0.132   0.891  1.00  0.00     0.186 HD
HETATM    4  C4  UNL     1     -10.928  -1.945   1.889  1.00  0.00     0.735 A 
HETATM    5  N2  UNL     1      -9.858  -2.393   2.589  1.00  0.00    -0.019 N 
ATOM      6  H2  UNL     1      -8.990  -1.859   2.571  1.00  0.00     0.203 HD
HETATM    7  C5  UNL     1      -9.918  -3.527   3.306  1.00  0.00     0.726 A 
HETATM    8  N8  UNL     1     -11.043  -4.262   3.357  1.00  0.00    -0.019 N 
ATOM      9  H8  UNL     1     -11.087  -5.124   3.902  1.00  0.00     0.203 HD
HETATM   10  C7  UNL     1     -12.108  -3.823   2.664  1.00  0.00     0.727 A 
HETATM   11  N10 UNL     1     -12.053  -2.679   1.938  1.00  0.00     0.092 N 
HETATM   12  N11 UNL     1     -12.923  -2.030   1.184  1.00  0.00    -0.246 N 
ATOM     13  H11 UNL     1     -13.881  -2.343   1.023  1.00  0.00     0.190 HD
ENDROOT
BRANCH   7  14
HETATM   14  N3  UNL     1      -8.732  -3.929   4.021  1.00  0.00    -0.019 N 
ATOM     15  H3  UNL     1      -8.303  -3.299   4.701  1.00  0.00     0.203 HD
BRANCH  14  16
HETATM   16  C6  UNL     1      -8.211  -5.098   3.795  1.00  0.00     0.722 A 
HETATM   17  N4  UNL     1      -8.413  -5.904   2.741  1.00  0.00    -0.116 N 
HETATM   18  N5  UNL     1      -7.674  -6.982   2.945  1.00  0.00     0.006 NA
ATOM     19  H4  UNL     1      -9.017  -5.721   1.939  1.00  0.00     0.202 HD
HETATM   20  N6  UNL     1      -7.017  -6.883   4.088  1.00  0.00     0.006 NA
HETATM   21  N7  UNL     1      -7.353  -5.703   4.618  1.00  0.00    -0.116 N 
ATOM     22  H7  UNL     1      -7.011  -5.328   5.503  1.00  0.00     0.202 HD
ENDBRANCH  14  16
ENDBRANCH   7  14
BRANCH  10  23
HETATM   23  N9  UNL     1     -13.224  -4.511   2.687  1.00  0.00    -0.232 N 
ATOM     24  H92 UNL     1     -13.589  -4.834   3.582  1.00  0.00     0.174 HD
ATOM     25  H91 UNL     1     -13.709  -4.713   1.812  1.00  0.00     0.174 HD
ENDBRANCH  10  23
BRANCH   1  26
HETATM   26  C2  UNL     1     -13.070   0.057  -0.234  1.00  0.00     0.191 C 
HETATM   27  C1  UNL     1     -14.548   0.154  -0.134  1.00  0.00     0.100 C 
HETATM   28  O1  UNL     1     -12.410   0.757  -1.027  1.00  0.00    -0.290 OA
ENDBRANCH   1  26
TORSDOF 4
ENDMDL
