MODEL 1
REMARK VINA RESULT: -6.528984926      0.000      0.000
REMARK  4 active torsions:
REMARK  status: ('A' for Active; 'I' for Inactive)
REMARK    1  A    between atoms: C3_8  and  C4_9 
REMARK    2  A    between atoms: C5_10  and  O2_11 
REMARK    3  A    between atoms: O2_11  and  C6_12 
REMARK       I    between atoms: C6_12  and  N3_14 
REMARK    4  A    between atoms: N3_14  and  N4_16 
ROOT
HETATM    1  C4  UNL     1     -12.957  -3.175   2.181  1.00  0.00     0.104 A 
HETATM    2  C5  UNL     1     -12.539  -2.275   1.232  1.00  0.00     0.176 A 
HETATM    3  C7  UNL     1     -11.234  -1.859   1.257  1.00  0.00     0.340 A 
HETATM    4  O4  UNL     1     -10.761  -1.032   0.422  1.00  0.00    -0.255 OA
HETATM    5  O5  UNL     1     -10.381  -2.303   2.169  1.00  0.00    -0.190 OA
HETATM    6  N5  UNL     1     -10.753  -3.151   3.074  1.00  0.00    -0.221 N 
ATOM      7  H5  UNL     1     -10.079  -3.480   3.766  1.00  0.00     0.198 HD
HETATM    8  C8  UNL     1     -11.998  -3.594   3.106  1.00  0.00     0.281 A 
HETATM    9  O6  UNL     1     -12.387  -4.417   3.970  1.00  0.00    -0.265 OA
ENDROOT
BRANCH   1  10
HETATM   10  C3  UNL     1     -14.318  -3.673   2.232  1.00  0.00     0.099 A 
HETATM   11  C2  UNL     1     -15.326  -3.337   3.102  1.00  0.00     0.060 A 
HETATM   12  C1  UNL     1     -15.189  -2.351   4.201  1.00  0.00     0.072 C 
HETATM   13  N1  UNL     1     -16.429  -4.066   2.758  1.00  0.00    -0.244 N 
HETATM   14  O1  UNL     1     -16.099  -4.801   1.736  1.00  0.00    -0.156 OA
ATOM     15  H1  UNL     1     -17.340  -4.040   3.216  1.00  0.00     0.196 HD
HETATM   16  N2  UNL     1     -14.844  -4.584   1.404  1.00  0.00    -0.239 N 
ATOM     17  H2  UNL     1     -14.350  -5.039   0.636  1.00  0.00     0.197 HD
ENDBRANCH   1  10
BRANCH   2  18
HETATM   18  O2  UNL     1     -13.424  -1.817   0.288  1.00  0.00    -0.253 OA
BRANCH  18  19
HETATM   19  C6  UNL     1     -14.042  -0.592   0.347  1.00  0.00     0.384 C 
HETATM   20  O3  UNL     1     -14.106   0.063  -0.745  1.00  0.00    -0.236 OA
HETATM   21  N3  UNL     1     -14.591  -0.049   1.534  1.00  0.00    -0.252 N 
ATOM     22  H3  UNL     1     -14.535  -0.580   2.403  1.00  0.00     0.191 HD
BRANCH  21  23
HETATM   23  N4  UNL     1     -15.204   1.199   1.531  1.00  0.00    -0.341 N 
ATOM     24  H42 UNL     1     -16.212   1.248   1.384  1.00  0.00     0.177 HD
ATOM     25  H41 UNL     1     -14.660   2.051   1.672  1.00  0.00     0.177 HD
ENDBRANCH  21  23
ENDBRANCH  18  19
ENDBRANCH   2  18
TORSDOF 4
ENDMDL
MODEL 2
REMARK VINA RESULT: -6.399335637      1.471      3.968
REMARK  4 active torsions:
REMARK  status: ('A' for Active; 'I' for Inactive)
REMARK    1  A    between atoms: C3_8  and  C4_9 
REMARK    2  A    between atoms: C5_10  and  O2_11 
REMARK    3  A    between atoms: O2_11  and  C6_12 
REMARK       I    between atoms: C6_12  and  N3_14 
REMARK    4  A    between atoms: N3_14  and  N4_16 
ROOT
HETATM    1  C4  UNL     1     -12.678  -2.007   0.999  1.00  0.00     0.104 A 
HETATM    2  C5  UNL     1     -11.342  -2.094   1.306  1.00  0.00     0.176 A 
HETATM    3  C7  UNL     1     -10.569  -0.970   1.181  1.00  0.00     0.340 A 
HETATM    4  O4  UNL     1      -9.330  -0.957   1.441  1.00  0.00    -0.255 OA
HETATM    5  O5  UNL     1     -11.081   0.182   0.774  1.00  0.00    -0.190 OA
HETATM    6  N5  UNL     1     -12.337   0.289   0.480  1.00  0.00    -0.221 N 
ATOM      7  H5  UNL     1     -12.711   1.186   0.169  1.00  0.00     0.198 HD
HETATM    8  C8  UNL     1     -13.139  -0.758   0.578  1.00  0.00     0.281 A 
HETATM    9  O6  UNL     1     -14.361  -0.686   0.300  1.00  0.00    -0.265 OA
ENDROOT
BRANCH   1  10
HETATM   10  C3  UNL     1     -13.574  -3.143   1.101  1.00  0.00     0.099 A 
HETATM   11  C2  UNL     1     -14.415  -3.486   2.131  1.00  0.00     0.060 A 
HETATM   12  C1  UNL     1     -14.561  -2.711   3.386  1.00  0.00     0.072 C 
HETATM   13  N1  UNL     1     -15.059  -4.637   1.772  1.00  0.00    -0.244 N 
HETATM   14  O1  UNL     1     -14.625  -4.966   0.590  1.00  0.00    -0.156 OA
ATOM     15  H1  UNL     1     -15.749  -5.144   2.327  1.00  0.00     0.196 HD
HETATM   16  N2  UNL     1     -13.739  -4.090   0.169  1.00  0.00    -0.239 N 
ATOM     17  H2  UNL     1     -13.253  -4.126  -0.727  1.00  0.00     0.197 HD
ENDBRANCH   1  10
BRANCH   2  18
HETATM   18  O2  UNL     1     -10.815  -3.290   1.727  1.00  0.00    -0.253 OA
BRANCH  18  19
HETATM   19  C6  UNL     1     -10.499  -3.570   3.034  1.00  0.00     0.384 C 
HETATM   20  O3  UNL     1     -11.343  -4.272   3.682  1.00  0.00    -0.236 OA
HETATM   21  N3  UNL     1      -9.312  -3.124   3.665  1.00  0.00    -0.252 N 
ATOM     22  H3  UNL     1      -8.642  -2.563   3.138  1.00  0.00     0.191 HD
BRANCH  21  23
HETATM   23  N4  UNL     1      -9.048  -3.439   4.993  1.00  0.00    -0.341 N 
ATOM     24  H42 UNL     1      -9.807  -3.806   5.568  1.00  0.00     0.177 HD
ATOM     25  H41 UNL     1      -8.117  -3.308   5.388  1.00  0.00     0.177 HD
ENDBRANCH  21  23
ENDBRANCH  18  19
ENDBRANCH   2  18
TORSDOF 4
ENDMDL
MODEL 3
REMARK VINA RESULT: -6.288288924      1.557      3.850
REMARK  4 active torsions:
REMARK  status: ('A' for Active; 'I' for Inactive)
REMARK    1  A    between atoms: C3_8  and  C4_9 
REMARK    2  A    between atoms: C5_10  and  O2_11 
REMARK    3  A    between atoms: O2_11  and  C6_12 
REMARK       I    between atoms: C6_12  and  N3_14 
REMARK    4  A    between atoms: N3_14  and  N4_16 
ROOT
HETATM    1  C4  UNL     1     -12.715  -1.998   0.991  1.00  0.00     0.104 A 
HETATM    2  C5  UNL     1     -11.390  -2.091   1.341  1.00  0.00     0.176 A 
HETATM    3  C7  UNL     1     -10.598  -0.983   1.200  1.00  0.00     0.340 A 
HETATM    4  O4  UNL     1      -9.367  -0.976   1.497  1.00  0.00    -0.255 OA
HETATM    5  O5  UNL     1     -11.082   0.162   0.739  1.00  0.00    -0.190 OA
HETATM    6  N5  UNL     1     -12.327   0.273   0.403  1.00  0.00    -0.221 N 
ATOM      7  H5  UNL     1     -12.679   1.164   0.050  1.00  0.00     0.198 HD
HETATM    8  C8  UNL     1     -13.146  -0.758   0.514  1.00  0.00     0.281 A 
HETATM    9  O6  UNL     1     -14.358  -0.681   0.197  1.00  0.00    -0.265 OA
ENDROOT
BRANCH   1  10
HETATM   10  C3  UNL     1     -13.629  -3.118   1.106  1.00  0.00     0.099 A 
HETATM   11  C2  UNL     1     -14.522  -3.401   2.110  1.00  0.00     0.060 A 
HETATM   12  C1  UNL     1     -14.717  -2.563   3.318  1.00  0.00     0.072 C 
HETATM   13  N1  UNL     1     -15.163  -4.562   1.778  1.00  0.00    -0.244 N 
HETATM   14  O1  UNL     1     -14.678  -4.953   0.635  1.00  0.00    -0.156 OA
ATOM     15  H1  UNL     1     -15.885  -5.033   2.323  1.00  0.00     0.196 HD
HETATM   16  N2  UNL     1     -13.762  -4.108   0.215  1.00  0.00    -0.239 N 
ATOM     17  H2  UNL     1     -13.235  -4.194  -0.655  1.00  0.00     0.197 HD
ENDBRANCH   1  10
BRANCH   2  18
HETATM   18  O2  UNL     1     -10.892  -3.278   1.819  1.00  0.00    -0.253 OA
BRANCH  18  19
HETATM   19  C6  UNL     1     -10.971  -3.668   3.134  1.00  0.00     0.384 C 
HETATM   20  O3  UNL     1     -10.314  -2.968   3.972  1.00  0.00    -0.236 OA
HETATM   21  N3  UNL     1     -11.728  -4.781   3.576  1.00  0.00    -0.252 N 
ATOM     22  H3  UNL     1     -12.251  -5.335   2.897  1.00  0.00     0.191 HD
BRANCH  21  23
HETATM   23  N4  UNL     1     -11.768  -5.127   4.922  1.00  0.00    -0.341 N 
ATOM     24  H42 UNL     1     -12.674  -5.169   5.388  1.00  0.00     0.177 HD
ATOM     25  H41 UNL     1     -10.912  -5.336   5.435  1.00  0.00     0.177 HD
ENDBRANCH  21  23
ENDBRANCH  18  19
ENDBRANCH   2  18
TORSDOF 4
ENDMDL
MODEL 4
REMARK VINA RESULT: -6.267195109      2.045      2.797
REMARK  4 active torsions:
REMARK  status: ('A' for Active; 'I' for Inactive)
REMARK    1  A    between atoms: C3_8  and  C4_9 
REMARK    2  A    between atoms: C5_10  and  O2_11 
REMARK    3  A    between atoms: O2_11  and  C6_12 
REMARK       I    between atoms: C6_12  and  N3_14 
REMARK    4  A    between atoms: N3_14  and  N4_16 
ROOT
HETATM    1  C4  UNL     1     -13.164  -1.461   2.016  1.00  0.00     0.104 A 
HETATM    2  C5  UNL     1     -13.789  -0.814   0.977  1.00  0.00     0.176 A 
HETATM    3  C7  UNL     1     -13.014  -0.224   0.014  1.00  0.00     0.340 A 
HETATM    4  O4  UNL     1     -13.502   0.392  -0.978  1.00  0.00    -0.255 OA
HETATM    5  O5  UNL     1     -11.690  -0.267   0.066  1.00  0.00    -0.190 OA
HETATM    6  N5  UNL     1     -11.079  -0.871   1.035  1.00  0.00    -0.221 N 
ATOM      7  H5  UNL     1     -10.059  -0.891   1.056  1.00  0.00     0.198 HD
HETATM    8  C8  UNL     1     -11.767  -1.460   1.997  1.00  0.00     0.281 A 
HETATM    9  O6  UNL     1     -11.204  -2.054   2.949  1.00  0.00    -0.265 OA
ENDROOT
BRANCH   1  10
HETATM   10  C3  UNL     1     -13.901  -2.113   3.079  1.00  0.00     0.099 A 
HETATM   11  C2  UNL     1     -14.511  -3.344   3.076  1.00  0.00     0.060 A 
HETATM   12  C1  UNL     1     -14.520  -4.270   1.918  1.00  0.00     0.072 C 
HETATM   13  N1  UNL     1     -15.079  -3.527   4.305  1.00  0.00    -0.244 N 
HETATM   14  O1  UNL     1     -14.823  -2.462   5.008  1.00  0.00    -0.156 OA
ATOM     15  H1  UNL     1     -15.604  -4.345   4.614  1.00  0.00     0.196 HD
HETATM   16  N2  UNL     1     -14.122  -1.605   4.298  1.00  0.00    -0.239 N 
ATOM     17  H2  UNL     1     -13.798  -0.694   4.625  1.00  0.00     0.197 HD
ENDBRANCH   1  10
BRANCH   2  18
HETATM   18  O2  UNL     1     -15.160  -0.772   0.925  1.00  0.00    -0.253 OA
BRANCH  18  19
HETATM   19  C6  UNL     1     -15.929   0.104   1.653  1.00  0.00     0.384 C 
HETATM   20  O3  UNL     1     -16.721  -0.413   2.507  1.00  0.00    -0.236 OA
HETATM   21  N3  UNL     1     -15.875   1.510   1.493  1.00  0.00    -0.252 N 
ATOM     22  H3  UNL     1     -15.238   1.915   0.806  1.00  0.00     0.191 HD
BRANCH  21  23
HETATM   23  N4  UNL     1     -16.679   2.347   2.259  1.00  0.00    -0.341 N 
ATOM     24  H42 UNL     1     -16.815   2.125   3.245  1.00  0.00     0.177 HD
ATOM     25  H41 UNL     1     -17.127   3.166   1.846  1.00  0.00     0.177 HD
ENDBRANCH  21  23
ENDBRANCH  18  19
ENDBRANCH   2  18
TORSDOF 4
ENDMDL
MODEL 5
REMARK VINA RESULT: -6.176721072      2.065      2.685
REMARK  4 active torsions:
REMARK  status: ('A' for Active; 'I' for Inactive)
REMARK    1  A    between atoms: C3_8  and  C4_9 
REMARK    2  A    between atoms: C5_10  and  O2_11 
REMARK    3  A    between atoms: O2_11  and  C6_12 
REMARK       I    between atoms: C6_12  and  N3_14 
REMARK    4  A    between atoms: N3_14  and  N4_16 
ROOT
HETATM    1  C4  UNL     1     -12.969  -1.564   2.180  1.00  0.00     0.104 A 
HETATM    2  C5  UNL     1     -13.702  -0.996   1.166  1.00  0.00     0.176 A 
HETATM    3  C7  UNL     1     -13.033  -0.387   0.138  1.00  0.00     0.340 A 
HETATM    4  O4  UNL     1     -13.624   0.162  -0.837  1.00  0.00    -0.255 OA
HETATM    5  O5  UNL     1     -11.708  -0.338   0.106  1.00  0.00    -0.190 OA
HETATM    6  N5  UNL     1     -10.997  -0.866   1.049  1.00  0.00    -0.221 N 
ATOM      7  H5  UNL     1      -9.978  -0.817   1.004  1.00  0.00     0.198 HD
HETATM    8  C8  UNL     1     -11.580  -1.469   2.071  1.00  0.00     0.281 A 
HETATM    9  O6  UNL     1     -10.918  -1.991   3.000  1.00  0.00    -0.265 OA
ENDROOT
BRANCH   1  10
HETATM   10  C3  UNL     1     -13.591  -2.230   3.308  1.00  0.00     0.099 A 
HETATM   11  C2  UNL     1     -14.029  -1.690   4.492  1.00  0.00     0.060 A 
HETATM   12  C1  UNL     1     -13.937  -0.252   4.841  1.00  0.00     0.072 C 
HETATM   13  N1  UNL     1     -14.544  -2.709   5.245  1.00  0.00    -0.244 N 
HETATM   14  O1  UNL     1     -14.420  -3.800   4.547  1.00  0.00    -0.156 OA
ATOM     15  H1  UNL     1     -14.949  -2.628   6.177  1.00  0.00     0.196 HD
HETATM   16  N2  UNL     1     -13.854  -3.540   3.389  1.00  0.00    -0.239 N 
ATOM     17  H2  UNL     1     -13.648  -4.229   2.665  1.00  0.00     0.197 HD
ENDBRANCH   1  10
BRANCH   2  18
HETATM   18  O2  UNL     1     -15.074  -1.049   1.203  1.00  0.00    -0.253 OA
BRANCH  18  19
HETATM   19  C6  UNL     1     -15.866  -0.059   1.732  1.00  0.00     0.384 C 
HETATM   20  O3  UNL     1     -16.839  -0.442   2.461  1.00  0.00    -0.236 OA
HETATM   21  N3  UNL     1     -15.648   1.322   1.504  1.00  0.00    -0.252 N 
ATOM     22  H3  UNL     1     -14.867   1.619   0.920  1.00  0.00     0.191 HD
BRANCH  21  23
HETATM   23  N4  UNL     1     -16.486   2.278   2.067  1.00  0.00    -0.341 N 
ATOM     24  H42 UNL     1     -17.356   1.971   2.502  1.00  0.00     0.177 HD
ATOM     25  H41 UNL     1     -16.239   3.268   2.047  1.00  0.00     0.177 HD
ENDBRANCH  21  23
ENDBRANCH  18  19
ENDBRANCH   2  18
TORSDOF 4
ENDMDL
