MODEL 1
REMARK VINA RESULT: -7.081563768      0.000      0.000
REMARK  5 active torsions:
REMARK  status: ('A' for Active; 'I' for Inactive)
REMARK    1  A    between atoms: N1_1  and  C1_4 
REMARK    2  A    between atoms: N4_11  and  N5_12 
REMARK    3  A    between atoms: N5_12  and  C3_14 
REMARK    4  A    between atoms: C3_14  and  C4_15 
REMARK    5  A    between atoms: C6_17  and  N6_18 
ROOT
HETATM    1  C1  UNL     1     -13.000  -0.275   1.037  1.00  0.00     0.694 A 
HETATM    2  N2  UNL     1     -13.386  -1.555   1.178  1.00  0.00    -0.021 N 
ATOM      3  H2  UNL     1     -14.378  -1.786   1.145  1.00  0.00     0.203 HD
HETATM    4  C2  UNL     1     -12.481  -2.537   1.363  1.00  0.00     0.716 A 
HETATM    5  N3  UNL     1     -12.862  -3.775   1.500  1.00  0.00    -0.232 N 
ATOM      6  H31 UNL     1     -12.177  -4.519   1.639  1.00  0.00     0.174 HD
ATOM      7  H32 UNL     1     -13.864  -3.962   1.460  1.00  0.00     0.174 HD
HETATM    8  N4  UNL     1     -11.156  -2.291   1.415  1.00  0.00    -0.031 N 
HETATM    9  C7  UNL     1     -10.775  -1.005   1.272  1.00  0.00     0.374 A 
HETATM   10  O4  UNL     1      -9.526  -0.752   1.317  1.00  0.00    -0.244 OA
HETATM   11  N8  UNL     1     -11.679  -0.024   1.088  1.00  0.00    -0.139 N 
ATOM     12  H8  UNL     1     -11.354   0.937   0.983  1.00  0.00     0.189 HD
ENDROOT
BRANCH   8  13
HETATM   13  N5  UNL     1     -10.202  -3.294   1.605  1.00  0.00    -0.284 N 
ATOM     14  H5  UNL     1      -9.905  -3.851   0.804  1.00  0.00     0.187 HD
BRANCH  13  15
HETATM   15  C3  UNL     1      -9.685  -3.537   2.761  1.00  0.00     0.140 C 
BRANCH  15  16
HETATM   16  C4  UNL     1      -8.924  -4.738   3.045  1.00  0.00     0.076 A 
HETATM   17  C5  UNL     1      -8.131  -4.932   4.134  1.00  0.00     0.097 A 
HETATM   18  C6  UNL     1      -7.589  -6.211   4.018  1.00  0.00     0.238 A 
HETATM   19  O3  UNL     1      -8.063  -6.721   2.899  1.00  0.00    -0.213 OA
HETATM   20  N7  UNL     1      -8.855  -5.858   2.313  1.00  0.00    -0.258 N 
ATOM     21  H7  UNL     1      -9.346  -6.015   1.433  1.00  0.00     0.195 HD
BRANCH  18  22
HETATM   22  N6  UNL     1      -6.705  -6.820   4.937  1.00  0.00    -0.088 N 
HETATM   23  O1  UNL     1      -6.629  -6.413   6.099  1.00  0.00    -0.530 OA
HETATM   24  O2  UNL     1      -5.921  -7.873   4.543  1.00  0.00    -0.530 OA
ENDBRANCH  18  22
ENDBRANCH  15  16
ENDBRANCH  13  15
ENDBRANCH   8  13
BRANCH   1  25
HETATM   25  N1  UNL     1     -13.844   0.692   0.859  1.00  0.00    -0.234 N 
ATOM     26  H12 UNL     1     -13.811   1.253   0.008  1.00  0.00     0.174 HD
ATOM     27  H11 UNL     1     -14.561   0.929   1.544  1.00  0.00     0.174 HD
ENDBRANCH   1  25
TORSDOF 5
ENDMDL
MODEL 2
REMARK VINA RESULT: -6.985400972      0.779      1.041
REMARK  5 active torsions:
REMARK  status: ('A' for Active; 'I' for Inactive)
REMARK    1  A    between atoms: N1_1  and  C1_4 
REMARK    2  A    between atoms: N4_11  and  N5_12 
REMARK    3  A    between atoms: N5_12  and  C3_14 
REMARK    4  A    between atoms: C3_14  and  C4_15 
REMARK    5  A    between atoms: C6_17  and  N6_18 
ROOT
HETATM    1  C1  UNL     1     -13.834  -0.622   0.621  1.00  0.00     0.694 A 
HETATM    2  N2  UNL     1     -14.048  -1.925   0.878  1.00  0.00    -0.021 N 
ATOM      3  H2  UNL     1     -15.002  -2.285   0.882  1.00  0.00     0.203 HD
HETATM    4  C2  UNL     1     -13.021  -2.761   1.130  1.00  0.00     0.716 A 
HETATM    5  N3  UNL     1     -13.237  -4.022   1.378  1.00  0.00    -0.232 N 
ATOM      6  H31 UNL     1     -12.460  -4.655   1.569  1.00  0.00     0.174 HD
ATOM      7  H32 UNL     1     -14.206  -4.339   1.373  1.00  0.00     0.174 HD
HETATM    8  N4  UNL     1     -11.740  -2.342   1.137  1.00  0.00    -0.031 N 
HETATM    9  C7  UNL     1     -11.531  -1.034   0.878  1.00  0.00     0.374 A 
HETATM   10  O4  UNL     1     -10.326  -0.618   0.880  1.00  0.00    -0.244 OA
HETATM   11  N8  UNL     1     -12.557  -0.198   0.627  1.00  0.00    -0.139 N 
ATOM     12  H8  UNL     1     -12.360   0.784   0.435  1.00  0.00     0.189 HD
ENDROOT
BRANCH   8  13
HETATM   13  N5  UNL     1     -10.662  -3.192   1.395  1.00  0.00    -0.284 N 
ATOM     14  H5  UNL     1     -10.302  -3.776   0.641  1.00  0.00     0.187 HD
BRANCH  13  15
HETATM   15  C3  UNL     1     -10.107  -3.261   2.557  1.00  0.00     0.140 C 
BRANCH  15  16
HETATM   16  C4  UNL     1      -9.289  -4.383   2.972  1.00  0.00     0.076 A 
HETATM   17  C5  UNL     1      -8.481  -4.410   4.068  1.00  0.00     0.097 A 
HETATM   18  C6  UNL     1      -7.881  -5.668   4.097  1.00  0.00     0.238 A 
HETATM   19  O3  UNL     1      -8.338  -6.328   3.053  1.00  0.00    -0.213 OA
HETATM   20  N7  UNL     1      -9.173  -5.578   2.378  1.00  0.00    -0.258 N 
ATOM     21  H7  UNL     1      -9.662  -5.862   1.528  1.00  0.00     0.195 HD
BRANCH  18  22
HETATM   22  N6  UNL     1      -6.964  -6.123   5.072  1.00  0.00    -0.088 N 
HETATM   23  O1  UNL     1      -6.530  -7.277   5.035  1.00  0.00    -0.530 OA
HETATM   24  O2  UNL     1      -6.548  -5.281   6.070  1.00  0.00    -0.530 OA
ENDBRANCH  18  22
ENDBRANCH  15  16
ENDBRANCH  13  15
ENDBRANCH   8  13
BRANCH   1  25
HETATM   25  N1  UNL     1     -14.798   0.208   0.376  1.00  0.00    -0.234 N 
ATOM     26  H12 UNL     1     -15.752  -0.131   0.258  1.00  0.00     0.174 HD
ATOM     27  H11 UNL     1     -14.649   1.214   0.292  1.00  0.00     0.174 HD
ENDBRANCH   1  25
TORSDOF 5
ENDMDL
MODEL 3
REMARK VINA RESULT: -6.847821558      1.293      1.597
REMARK  5 active torsions:
REMARK  status: ('A' for Active; 'I' for Inactive)
REMARK    1  A    between atoms: N1_1  and  C1_4 
REMARK    2  A    between atoms: N4_11  and  N5_12 
REMARK    3  A    between atoms: N5_12  and  C3_14 
REMARK    4  A    between atoms: C3_14  and  C4_15 
REMARK    5  A    between atoms: C6_17  and  N6_18 
ROOT
HETATM    1  C1  UNL     1     -13.599  -0.517   0.259  1.00  0.00     0.694 A 
HETATM    2  N2  UNL     1     -13.768  -1.818   0.554  1.00  0.00    -0.021 N 
ATOM      3  H2  UNL     1     -14.668  -2.261   0.370  1.00  0.00     0.203 HD
HETATM    4  C2  UNL     1     -12.766  -2.544   1.088  1.00  0.00     0.716 A 
HETATM    5  N3  UNL     1     -12.937  -3.804   1.372  1.00  0.00    -0.232 N 
ATOM      6  H31 UNL     1     -12.178  -4.354   1.776  1.00  0.00     0.174 HD
ATOM      7  H32 UNL     1     -13.852  -4.207   1.172  1.00  0.00     0.174 HD
HETATM    8  N4  UNL     1     -11.556  -2.011   1.352  1.00  0.00    -0.031 N 
HETATM    9  C7  UNL     1     -11.392  -0.706   1.054  1.00  0.00     0.374 A 
HETATM   10  O4  UNL     1     -10.255  -0.184   1.296  1.00  0.00    -0.244 OA
HETATM   11  N8  UNL     1     -12.394   0.020   0.520  1.00  0.00    -0.139 N 
ATOM     12  H8  UNL     1     -12.233   1.004   0.307  1.00  0.00     0.189 HD
ENDROOT
BRANCH   8  13
HETATM   13  N5  UNL     1     -10.504  -2.747   1.905  1.00  0.00    -0.284 N 
ATOM     14  H5  UNL     1      -9.947  -3.346   1.296  1.00  0.00     0.187 HD
BRANCH  13  15
HETATM   15  C3  UNL     1     -10.216  -2.691   3.161  1.00  0.00     0.140 C 
BRANCH  15  16
HETATM   16  C4  UNL     1      -9.257  -3.579   3.787  1.00  0.00     0.076 A 
HETATM   17  C5  UNL     1      -8.915  -4.818   3.337  1.00  0.00     0.097 A 
HETATM   18  C6  UNL     1      -7.968  -5.324   4.225  1.00  0.00     0.238 A 
HETATM   19  O3  UNL     1      -7.782  -4.401   5.145  1.00  0.00    -0.213 OA
HETATM   20  N7  UNL     1      -8.539  -3.362   4.897  1.00  0.00    -0.258 N 
ATOM     21  H7  UNL     1      -8.577  -2.514   5.464  1.00  0.00     0.195 HD
BRANCH  18  22
HETATM   22  N6  UNL     1      -7.343  -6.589   4.133  1.00  0.00    -0.088 N 
HETATM   23  O1  UNL     1      -7.521  -7.306   3.145  1.00  0.00    -0.530 OA
HETATM   24  O2  UNL     1      -6.531  -7.030   5.144  1.00  0.00    -0.530 OA
ENDBRANCH  18  22
ENDBRANCH  15  16
ENDBRANCH  13  15
ENDBRANCH   8  13
BRANCH   1  25
HETATM   25  N1  UNL     1     -14.542   0.210  -0.255  1.00  0.00    -0.234 N 
ATOM     26  H12 UNL     1     -15.245   0.641   0.345  1.00  0.00     0.174 HD
ATOM     27  H11 UNL     1     -14.619   0.380  -1.257  1.00  0.00     0.174 HD
ENDBRANCH   1  25
TORSDOF 5
ENDMDL
MODEL 4
REMARK VINA RESULT: -6.689961985      1.679      2.302
REMARK  5 active torsions:
REMARK  status: ('A' for Active; 'I' for Inactive)
REMARK    1  A    between atoms: N1_1  and  C1_4 
REMARK    2  A    between atoms: N4_11  and  N5_12 
REMARK    3  A    between atoms: N5_12  and  C3_14 
REMARK    4  A    between atoms: C3_14  and  C4_15 
REMARK    5  A    between atoms: C6_17  and  N6_18 
ROOT
HETATM    1  C1  UNL     1     -15.159   0.090   1.016  1.00  0.00     0.694 A 
HETATM    2  N2  UNL     1     -15.222  -1.103   1.632  1.00  0.00    -0.021 N 
ATOM      3  H2  UNL     1     -16.084  -1.381   2.101  1.00  0.00     0.203 HD
HETATM    4  C2  UNL     1     -14.163  -1.938   1.639  1.00  0.00     0.716 A 
HETATM    5  N3  UNL     1     -14.231  -3.092   2.239  1.00  0.00    -0.232 N 
ATOM      6  H31 UNL     1     -13.430  -3.724   2.244  1.00  0.00     0.174 HD
ATOM      7  H32 UNL     1     -15.112  -3.330   2.695  1.00  0.00     0.174 HD
HETATM    8  N4  UNL     1     -12.999  -1.623   1.036  1.00  0.00    -0.031 N 
HETATM    9  C7  UNL     1     -12.942  -0.425   0.419  1.00  0.00     0.374 A 
HETATM   10  O4  UNL     1     -11.850  -0.110  -0.157  1.00  0.00    -0.244 OA
HETATM   11  N8  UNL     1     -14.000   0.409   0.412  1.00  0.00    -0.139 N 
ATOM     12  H8  UNL     1     -13.920   1.306  -0.065  1.00  0.00     0.189 HD
ENDROOT
BRANCH   8  13
HETATM   13  N5  UNL     1     -11.890  -2.473   1.032  1.00  0.00    -0.284 N 
ATOM     14  H5  UNL     1     -11.790  -3.151   0.275  1.00  0.00     0.187 HD
BRANCH  13  15
HETATM   15  C3  UNL     1     -10.989  -2.428   1.953  1.00  0.00     0.140 C 
BRANCH  15  16
HETATM   16  C4  UNL     1     -10.469  -3.616   2.602  1.00  0.00     0.076 A 
HETATM   17  C5  UNL     1      -9.168  -4.017   2.590  1.00  0.00     0.097 A 
HETATM   18  C6  UNL     1      -9.102  -5.198   3.328  1.00  0.00     0.238 A 
HETATM   19  O3  UNL     1     -10.325  -5.452   3.743  1.00  0.00    -0.213 OA
HETATM   20  N7  UNL     1     -11.145  -4.522   3.320  1.00  0.00    -0.258 N 
ATOM     21  H7  UNL     1     -12.147  -4.493   3.509  1.00  0.00     0.195 HD
BRANCH  18  22
HETATM   22  N6  UNL     1      -7.934  -5.956   3.571  1.00  0.00    -0.088 N 
HETATM   23  O1  UNL     1      -7.825  -7.101   3.125  1.00  0.00    -0.530 OA
HETATM   24  O2  UNL     1      -6.908  -5.422   4.306  1.00  0.00    -0.530 OA
ENDBRANCH  18  22
ENDBRANCH  15  16
ENDBRANCH  13  15
ENDBRANCH   8  13
BRANCH   1  25
HETATM   25  N1  UNL     1     -16.159   0.915   0.991  1.00  0.00    -0.234 N 
ATOM     26  H12 UNL     1     -17.093   0.601   1.252  1.00  0.00     0.174 HD
ATOM     27  H11 UNL     1     -16.057   1.892   0.716  1.00  0.00     0.174 HD
ENDBRANCH   1  25
TORSDOF 5
ENDMDL
MODEL 5
REMARK VINA RESULT: -6.433030864      1.503      1.923
REMARK  5 active torsions:
REMARK  status: ('A' for Active; 'I' for Inactive)
REMARK    1  A    between atoms: N1_1  and  C1_4 
REMARK    2  A    between atoms: N4_11  and  N5_12 
REMARK    3  A    between atoms: N5_12  and  C3_14 
REMARK    4  A    between atoms: C3_14  and  C4_15 
REMARK    5  A    between atoms: C6_17  and  N6_18 
ROOT
HETATM    1  C1  UNL     1     -14.591  -1.023   1.465  1.00  0.00     0.694 A 
HETATM    2  N2  UNL     1     -14.373  -2.292   1.851  1.00  0.00    -0.021 N 
ATOM      3  H2  UNL     1     -15.128  -2.820   2.289  1.00  0.00     0.203 HD
HETATM    4  C2  UNL     1     -13.173  -2.877   1.667  1.00  0.00     0.716 A 
HETATM    5  N3  UNL     1     -12.969  -4.107   2.044  1.00  0.00    -0.232 N 
ATOM      6  H31 UNL     1     -12.060  -4.550   1.905  1.00  0.00     0.174 HD
ATOM      7  H32 UNL     1     -13.750  -4.598   2.478  1.00  0.00     0.174 HD
HETATM    8  N4  UNL     1     -12.139  -2.228   1.094  1.00  0.00    -0.031 N 
HETATM    9  C7  UNL     1     -12.364  -0.955   0.708  1.00  0.00     0.374 A 
HETATM   10  O4  UNL     1     -11.399  -0.325   0.163  1.00  0.00    -0.244 OA
HETATM   11  N8  UNL     1     -13.564  -0.371   0.892  1.00  0.00    -0.139 N 
ATOM     12  H8  UNL     1     -13.697   0.593   0.587  1.00  0.00     0.189 HD
ENDROOT
BRANCH   8  13
HETATM   13  N5  UNL     1     -10.888  -2.816   0.894  1.00  0.00    -0.284 N 
ATOM     14  H5  UNL     1     -10.770  -3.477   0.126  1.00  0.00     0.187 HD
BRANCH  13  15
HETATM   15  C3  UNL     1      -9.878  -2.550   1.650  1.00  0.00     0.140 C 
BRANCH  15  16
HETATM   16  C4  UNL     1      -9.414  -3.450   2.688  1.00  0.00     0.076 A 
HETATM   17  C5  UNL     1      -8.665  -4.569   2.486  1.00  0.00     0.097 A 
HETATM   18  C6  UNL     1      -8.441  -5.137   3.739  1.00  0.00     0.238 A 
HETATM   19  O3  UNL     1      -9.043  -4.362   4.618  1.00  0.00    -0.213 OA
HETATM   20  N7  UNL     1      -9.623  -3.358   4.008  1.00  0.00    -0.258 N 
ATOM     21  H7  UNL     1     -10.154  -2.619   4.468  1.00  0.00     0.195 HD
BRANCH  18  22
HETATM   22  N6  UNL     1      -7.705  -6.317   3.992  1.00  0.00    -0.088 N 
HETATM   23  O1  UNL     1      -7.698  -7.239   3.173  1.00  0.00    -0.530 OA
HETATM   24  O2  UNL     1      -6.991  -6.447   5.154  1.00  0.00    -0.530 OA
ENDBRANCH  18  22
ENDBRANCH  15  16
ENDBRANCH  13  15
ENDBRANCH   8  13
BRANCH   1  25
HETATM   25  N1  UNL     1     -15.733  -0.431   1.627  1.00  0.00    -0.234 N 
ATOM     26  H12 UNL     1     -15.772   0.571   1.813  1.00  0.00     0.174 HD
ATOM     27  H11 UNL     1     -16.622  -0.928   1.575  1.00  0.00     0.174 HD
ENDBRANCH   1  25
TORSDOF 5
ENDMDL
