MODEL 1
REMARK VINA RESULT: -7.053105653      0.000      0.000
REMARK  12 active torsions:
REMARK  status: ('A' for Active; 'I' for Inactive)
REMARK    1  A    between atoms: N1_1  and  C1_5 
REMARK    2  A    between atoms: C1_5  and  C2_6 
REMARK    3  A    between atoms: C4_8  and  N2_9 
REMARK    4  A    between atoms: C5_13  and  O1_14 
REMARK    5  A    between atoms: O1_14  and  C6_15 
REMARK    6  A    between atoms: C8_17  and  O2_18 
REMARK    7  A    between atoms: O2_18  and  C9_19 
REMARK    8  A    between atoms: C10_22  and  C11_23 
REMARK    9  A    between atoms: C11_23  and  N4_24 
REMARK   10  A    between atoms: C12_29  and  N5_30 
REMARK   11  A    between atoms: C14_35  and  N6_36 
REMARK   12  A    between atoms: C15_40  and  O5_41 
ROOT
HETATM    1  C6  UNL     1     -30.717   5.757 -28.288  1.00  0.00     0.155 C 
HETATM    2  C7  UNL     1     -30.064   4.955 -27.179  1.00  0.00     0.068 C 
HETATM    3  C8  UNL     1     -30.043   5.733 -25.907  1.00  0.00     0.160 C 
HETATM    4  C12 UNL     1     -30.238   7.221 -26.079  1.00  0.00     0.214 C 
HETATM    5  C13 UNL     1     -31.439   7.594 -26.877  1.00  0.00     0.070 C 
HETATM    6  C14 UNL     1     -31.929   6.409 -27.671  1.00  0.00     0.214 C 
ENDROOT
BRANCH   1   7
HETATM    7  O1  UNL     1     -30.990   4.991 -29.398  1.00  0.00    -0.371 OA
BRANCH   7   8
HETATM    8  C5  UNL     1     -29.839   4.737 -30.083  1.00  0.00     0.207 C 
HETATM    9  C4  UNL     1     -30.060   4.480 -31.559  1.00  0.00     0.219 C 
HETATM   10  C3  UNL     1     -28.768   4.377 -32.265  1.00  0.00     0.069 C 
HETATM   11  C2  UNL     1     -27.538   4.532 -31.467  1.00  0.00     0.152 C 
HETATM   12  O6  UNL     1     -27.598   5.271 -30.335  1.00  0.00    -0.352 OA
HETATM   13  C15 UNL     1     -28.804   5.847 -30.029  1.00  0.00     0.288 C 
BRANCH   9  14
HETATM   14  N2  UNL     1     -30.909   5.530 -32.131  1.00  0.00    -0.072 N 
ATOM     15  H23 UNL     1     -30.392   6.104 -32.796  1.00  0.00     0.274 HD
ATOM     16  H22 UNL     1     -31.607   5.140 -32.766  1.00  0.00     0.274 HD
ATOM     17  H21 UNL     1     -31.344   6.100 -31.405  1.00  0.00     0.274 HD
ENDBRANCH   9  14
BRANCH  11  18
HETATM   18  C1  UNL     1     -26.369   5.070 -32.305  1.00  0.00     0.261 C 
BRANCH  18  19
HETATM   19  N1  UNL     1     -26.686   4.724 -33.683  1.00  0.00    -0.077 N 
ATOM     20  H13 UNL     1     -27.156   3.825 -33.782  1.00  0.00     0.274 HD
ATOM     21  H12 UNL     1     -27.429   5.294 -34.087  1.00  0.00     0.274 HD
ATOM     22  H11 UNL     1     -25.802   4.783 -34.188  1.00  0.00     0.274 HD
ENDBRANCH  18  19
ENDBRANCH  11  18
BRANCH  13  23
HETATM   23  O5  UNL     1     -29.107   6.836 -30.973  1.00  0.00    -0.369 OA
ATOM     24  H5  UNL     1     -28.883   7.694 -30.632  1.00  0.00     0.212 HD
ENDBRANCH  13  23
ENDBRANCH   7   8
ENDBRANCH   1   7
BRANCH   6  25
HETATM   25  N6  UNL     1     -32.965   6.738 -28.594  1.00  0.00    -0.072 N 
ATOM     26  H63 UNL     1     -32.978   6.070 -29.364  1.00  0.00     0.274 HD
ATOM     27  H62 UNL     1     -33.878   6.551 -28.182  1.00  0.00     0.274 HD
ATOM     28  H61 UNL     1     -32.928   7.691 -28.954  1.00  0.00     0.274 HD
ENDBRANCH   6  25
BRANCH   3  29
HETATM   29  O2  UNL     1     -30.942   5.298 -24.965  1.00  0.00    -0.330 OA
BRANCH  29  30
HETATM   30  C9  UNL     1     -30.760   3.945 -24.701  1.00  0.00     0.436 C 
HETATM   31  O3  UNL     1     -31.848   3.176 -25.083  1.00  0.00    -0.225 OA
HETATM   32  N3  UNL     1     -32.134   2.354 -24.059  1.00  0.00    -0.062 NA
HETATM   33  C10 UNL     1     -31.502   2.870 -22.888  1.00  0.00     0.272 C 
HETATM   34  O4  UNL     1     -30.580   3.778 -23.342  1.00  0.00    -0.312 OA
BRANCH  33  35
HETATM   35  C11 UNL     1     -30.879   1.783 -22.033  1.00  0.00     0.281 C 
BRANCH  35  36
HETATM   36  N4  UNL     1     -29.531   2.143 -21.641  1.00  0.00    -0.076 N 
ATOM     37  H43 UNL     1     -29.319   3.114 -21.869  1.00  0.00     0.274 HD
ATOM     38  H42 UNL     1     -29.434   2.198 -20.627  1.00  0.00     0.274 HD
ATOM     39  H41 UNL     1     -28.850   1.503 -22.050  1.00  0.00     0.274 HD
ENDBRANCH  35  36
ENDBRANCH  33  35
ENDBRANCH  29  30
ENDBRANCH   3  29
BRANCH   4  40
HETATM   40  N5  UNL     1     -29.017   7.886 -26.526  1.00  0.00    -0.072 N 
ATOM     41  H53 UNL     1     -28.736   7.559 -27.450  1.00  0.00     0.274 HD
ATOM     42  H52 UNL     1     -29.190   8.867 -26.747  1.00  0.00     0.274 HD
ATOM     43  H51 UNL     1     -28.257   7.788 -25.852  1.00  0.00     0.274 HD
ENDBRANCH   4  40
TORSDOF 12
ENDMDL
MODEL 2
REMARK VINA RESULT: -6.912141781      1.656      2.018
REMARK  12 active torsions:
REMARK  status: ('A' for Active; 'I' for Inactive)
REMARK    1  A    between atoms: N1_1  and  C1_5 
REMARK    2  A    between atoms: C1_5  and  C2_6 
REMARK    3  A    between atoms: C4_8  and  N2_9 
REMARK    4  A    between atoms: C5_13  and  O1_14 
REMARK    5  A    between atoms: O1_14  and  C6_15 
REMARK    6  A    between atoms: C8_17  and  O2_18 
REMARK    7  A    between atoms: O2_18  and  C9_19 
REMARK    8  A    between atoms: C10_22  and  C11_23 
REMARK    9  A    between atoms: C11_23  and  N4_24 
REMARK   10  A    between atoms: C12_29  and  N5_30 
REMARK   11  A    between atoms: C14_35  and  N6_36 
REMARK   12  A    between atoms: C15_40  and  O5_41 
ROOT
HETATM    1  C6  UNL     1     -31.623   6.987 -27.716  1.00  0.00     0.155 C 
HETATM    2  C7  UNL     1     -31.002   5.718 -27.165  1.00  0.00     0.068 C 
HETATM    3  C8  UNL     1     -30.385   5.968 -25.831  1.00  0.00     0.160 C 
HETATM    4  C12 UNL     1     -30.111   7.423 -25.531  1.00  0.00     0.214 C 
HETATM    5  C13 UNL     1     -31.287   8.319 -25.716  1.00  0.00     0.070 C 
HETATM    6  C14 UNL     1     -32.336   7.638 -26.557  1.00  0.00     0.214 C 
ENDROOT
BRANCH   1   7
HETATM    7  O1  UNL     1     -32.422   6.747 -28.810  1.00  0.00    -0.371 OA
BRANCH   7   8
HETATM    8  C5  UNL     1     -31.768   5.945 -29.697  1.00  0.00     0.207 C 
HETATM    9  C4  UNL     1     -32.697   5.173 -30.611  1.00  0.00     0.219 C 
HETATM   10  C3  UNL     1     -31.926   4.458 -31.648  1.00  0.00     0.069 C 
HETATM   11  C2  UNL     1     -30.459   4.600 -31.629  1.00  0.00     0.152 C 
HETATM   12  O6  UNL     1     -29.931   5.726 -31.094  1.00  0.00    -0.352 OA
HETATM   13  C15 UNL     1     -30.812   6.668 -30.630  1.00  0.00     0.288 C 
BRANCH   9  14
HETATM   14  N2  UNL     1     -33.689   6.078 -31.201  1.00  0.00    -0.072 N 
ATOM     15  H23 UNL     1     -33.246   6.906 -31.599  1.00  0.00     0.274 HD
ATOM     16  H22 UNL     1     -34.090   5.686 -32.054  1.00  0.00     0.274 HD
ATOM     17  H21 UNL     1     -34.415   6.330 -30.530  1.00  0.00     0.274 HD
ENDBRANCH   9  14
BRANCH  11  18
HETATM   18  C1  UNL     1     -29.843   4.423 -33.025  1.00  0.00     0.261 C 
BRANCH  18  19
HETATM   19  N1  UNL     1     -30.696   5.182 -33.926  1.00  0.00    -0.077 N 
ATOM     20  H13 UNL     1     -31.494   5.620 -33.465  1.00  0.00     0.274 HD
ATOM     21  H12 UNL     1     -30.268   6.043 -34.268  1.00  0.00     0.274 HD
ATOM     22  H11 UNL     1     -30.957   4.531 -34.667  1.00  0.00     0.274 HD
ENDBRANCH  18  19
ENDBRANCH  11  18
BRANCH  13  23
HETATM   23  O5  UNL     1     -31.515   7.225 -31.705  1.00  0.00    -0.369 OA
ATOM     24  H5  UNL     1     -31.243   6.821 -32.520  1.00  0.00     0.212 HD
ENDBRANCH  13  23
ENDBRANCH   7   8
ENDBRANCH   1   7
BRANCH   6  25
HETATM   25  N6  UNL     1     -33.411   8.500 -26.927  1.00  0.00    -0.072 N 
ATOM     26  H63 UNL     1     -33.049   9.353 -27.354  1.00  0.00     0.274 HD
ATOM     27  H62 UNL     1     -33.921   8.110 -27.719  1.00  0.00     0.274 HD
ATOM     28  H61 UNL     1     -34.053   8.730 -26.169  1.00  0.00     0.274 HD
ENDBRANCH   6  25
BRANCH   3  29
HETATM   29  O2  UNL     1     -31.090   5.447 -24.775  1.00  0.00    -0.330 OA
BRANCH  29  30
HETATM   30  C9  UNL     1     -30.766   4.110 -24.581  1.00  0.00     0.436 C 
HETATM   31  O3  UNL     1     -31.715   3.247 -25.106  1.00  0.00    -0.225 OA
HETATM   32  N3  UNL     1     -31.980   2.325 -24.166  1.00  0.00    -0.062 NA
HETATM   33  C10 UNL     1     -31.516   2.825 -22.912  1.00  0.00     0.272 C 
HETATM   34  O4  UNL     1     -30.678   3.866 -23.224  1.00  0.00    -0.312 OA
BRANCH  33  35
HETATM   35  C11 UNL     1     -30.835   1.759 -22.075  1.00  0.00     0.281 C 
BRANCH  35  36
HETATM   36  N4  UNL     1     -29.497   2.173 -21.699  1.00  0.00    -0.076 N 
ATOM     37  H43 UNL     1     -29.230   3.045 -22.156  1.00  0.00     0.274 HD
ATOM     38  H42 UNL     1     -29.458   2.489 -20.730  1.00  0.00     0.274 HD
ATOM     39  H41 UNL     1     -28.823   1.430 -21.881  1.00  0.00     0.274 HD
ENDBRANCH  35  36
ENDBRANCH  33  35
ENDBRANCH  29  30
ENDBRANCH   3  29
BRANCH   4  40
HETATM   40  N5  UNL     1     -28.906   7.904 -26.199  1.00  0.00    -0.072 N 
ATOM     41  H53 UNL     1     -28.597   7.251 -26.919  1.00  0.00     0.274 HD
ATOM     42  H52 UNL     1     -29.107   8.712 -26.790  1.00  0.00     0.274 HD
ATOM     43  H51 UNL     1     -28.155   8.109 -25.539  1.00  0.00     0.274 HD
ENDBRANCH   4  40
TORSDOF 12
ENDMDL
MODEL 3
REMARK VINA RESULT: -6.462766307      2.830      3.401
REMARK  12 active torsions:
REMARK  status: ('A' for Active; 'I' for Inactive)
REMARK    1  A    between atoms: N1_1  and  C1_5 
REMARK    2  A    between atoms: C1_5  and  C2_6 
REMARK    3  A    between atoms: C4_8  and  N2_9 
REMARK    4  A    between atoms: C5_13  and  O1_14 
REMARK    5  A    between atoms: O1_14  and  C6_15 
REMARK    6  A    between atoms: C8_17  and  O2_18 
REMARK    7  A    between atoms: O2_18  and  C9_19 
REMARK    8  A    between atoms: C10_22  and  C11_23 
REMARK    9  A    between atoms: C11_23  and  N4_24 
REMARK   10  A    between atoms: C12_29  and  N5_30 
REMARK   11  A    between atoms: C14_35  and  N6_36 
REMARK   12  A    between atoms: C15_40  and  O5_41 
ROOT
HETATM    1  C6  UNL     1     -30.946   7.925 -28.260  1.00  0.00     0.155 C 
HETATM    2  C7  UNL     1     -30.559   6.481 -28.004  1.00  0.00     0.068 C 
HETATM    3  C8  UNL     1     -30.297   6.253 -26.554  1.00  0.00     0.160 C 
HETATM    4  C12 UNL     1     -30.033   7.510 -25.760  1.00  0.00     0.214 C 
HETATM    5  C13 UNL     1     -31.071   8.567 -25.923  1.00  0.00     0.070 C 
HETATM    6  C14 UNL     1     -31.901   8.301 -27.153  1.00  0.00     0.214 C 
ENDROOT
BRANCH   1   7
HETATM    7  O1  UNL     1     -31.445   8.117 -29.527  1.00  0.00    -0.371 OA
BRANCH   7   8
HETATM    8  C5  UNL     1     -32.029   6.971 -29.977  1.00  0.00     0.207 C 
HETATM    9  C4  UNL     1     -33.541   7.047 -30.034  1.00  0.00     0.219 C 
HETATM   10  C3  UNL     1     -34.095   5.841 -30.681  1.00  0.00     0.069 C 
HETATM   11  C2  UNL     1     -33.144   4.814 -31.142  1.00  0.00     0.152 C 
HETATM   12  O6  UNL     1     -31.888   5.202 -31.468  1.00  0.00    -0.352 OA
HETATM   13  C15 UNL     1     -31.605   6.539 -31.370  1.00  0.00     0.288 C 
BRANCH   9  14
HETATM   14  N2  UNL     1     -33.957   8.272 -30.724  1.00  0.00    -0.072 N 
ATOM     15  H23 UNL     1     -34.968   8.395 -30.686  1.00  0.00     0.274 HD
ATOM     16  H22 UNL     1     -33.675   9.106 -30.207  1.00  0.00     0.274 HD
ATOM     17  H21 UNL     1     -33.615   8.299 -31.685  1.00  0.00     0.274 HD
ENDBRANCH   9  14
BRANCH  11  18
HETATM   18  C1  UNL     1     -33.695   4.003 -32.324  1.00  0.00     0.261 C 
BRANCH  18  19
HETATM   19  N1  UNL     1     -34.329   4.975 -33.201  1.00  0.00    -0.077 N 
ATOM     20  H13 UNL     1     -34.816   4.557 -33.993  1.00  0.00     0.274 HD
ATOM     21  H12 UNL     1     -35.142   5.432 -32.787  1.00  0.00     0.274 HD
ATOM     22  H11 UNL     1     -33.588   5.623 -33.470  1.00  0.00     0.274 HD
ENDBRANCH  18  19
ENDBRANCH  11  18
BRANCH  13  23
HETATM   23  O5  UNL     1     -32.330   7.248 -32.336  1.00  0.00    -0.369 OA
ATOM     24  H5  UNL     1     -31.860   7.251 -33.162  1.00  0.00     0.212 HD
ENDBRANCH  13  23
ENDBRANCH   7   8
ENDBRANCH   1   7
BRANCH   6  25
HETATM   25  N6  UNL     1     -32.794   9.366 -27.473  1.00  0.00    -0.072 N 
ATOM     26  H63 UNL     1     -33.566   9.392 -26.807  1.00  0.00     0.274 HD
ATOM     27  H62 UNL     1     -32.358  10.265 -27.272  1.00  0.00     0.274 HD
ATOM     28  H61 UNL     1     -33.151   9.351 -28.427  1.00  0.00     0.274 HD
ENDBRANCH   6  25
BRANCH   3  29
HETATM   29  O2  UNL     1     -31.279   5.546 -25.908  1.00  0.00    -0.330 OA
BRANCH  29  30
HETATM   30  C9  UNL     1     -30.762   4.379 -25.356  1.00  0.00     0.436 C 
HETATM   31  O3  UNL     1     -31.511   3.258 -25.679  1.00  0.00    -0.225 OA
HETATM   32  N3  UNL     1     -31.705   2.568 -24.543  1.00  0.00    -0.062 NA
HETATM   33  C10 UNL     1     -31.438   3.440 -23.444  1.00  0.00     0.272 C 
HETATM   34  O4  UNL     1     -30.755   4.502 -23.981  1.00  0.00    -0.312 OA
BRANCH  33  35
HETATM   35  C11 UNL     1     -30.671   2.756 -22.328  1.00  0.00     0.281 C 
BRANCH  35  36
HETATM   36  N4  UNL     1     -31.173   1.415 -22.103  1.00  0.00    -0.076 N 
ATOM     37  H43 UNL     1     -32.189   1.374 -22.182  1.00  0.00     0.274 HD
ATOM     38  H42 UNL     1     -30.935   0.789 -22.872  1.00  0.00     0.274 HD
ATOM     39  H41 UNL     1     -30.849   1.051 -21.208  1.00  0.00     0.274 HD
ENDBRANCH  35  36
ENDBRANCH  33  35
ENDBRANCH  29  30
ENDBRANCH   3  29
BRANCH   4  40
HETATM   40  N5  UNL     1     -28.672   8.003 -25.947  1.00  0.00    -0.072 N 
ATOM     41  H53 UNL     1     -28.537   8.900 -25.483  1.00  0.00     0.274 HD
ATOM     42  H52 UNL     1     -28.000   7.444 -25.419  1.00  0.00     0.274 HD
ATOM     43  H51 UNL     1     -28.414   8.054 -26.933  1.00  0.00     0.274 HD
ENDBRANCH   4  40
TORSDOF 12
ENDMDL
MODEL 4
REMARK VINA RESULT: -6.292606153      3.572      5.976
REMARK  12 active torsions:
REMARK  status: ('A' for Active; 'I' for Inactive)
REMARK    1  A    between atoms: N1_1  and  C1_5 
REMARK    2  A    between atoms: C1_5  and  C2_6 
REMARK    3  A    between atoms: C4_8  and  N2_9 
REMARK    4  A    between atoms: C5_13  and  O1_14 
REMARK    5  A    between atoms: O1_14  and  C6_15 
REMARK    6  A    between atoms: C8_17  and  O2_18 
REMARK    7  A    between atoms: O2_18  and  C9_19 
REMARK    8  A    between atoms: C10_22  and  C11_23 
REMARK    9  A    between atoms: C11_23  and  N4_24 
REMARK   10  A    between atoms: C12_29  and  N5_30 
REMARK   11  A    between atoms: C14_35  and  N6_36 
REMARK   12  A    between atoms: C15_40  and  O5_41 
ROOT
HETATM    1  C6  UNL     1     -30.952   8.392 -26.392  1.00  0.00     0.155 C 
HETATM    2  C7  UNL     1     -31.875   7.522 -25.561  1.00  0.00     0.068 C 
HETATM    3  C8  UNL     1     -31.415   6.104 -25.571  1.00  0.00     0.160 C 
HETATM    4  C12 UNL     1     -30.468   5.760 -26.696  1.00  0.00     0.214 C 
HETATM    5  C13 UNL     1     -29.293   6.670 -26.809  1.00  0.00     0.070 C 
HETATM    6  C14 UNL     1     -29.549   7.950 -26.054  1.00  0.00     0.214 C 
ENDROOT
BRANCH   1   7
HETATM    7  O1  UNL     1     -31.184   9.734 -26.200  1.00  0.00    -0.371 OA
BRANCH   7   8
HETATM    8  C5  UNL     1     -32.445  10.052 -26.608  1.00  0.00     0.207 C 
HETATM    9  C4  UNL     1     -32.835  11.484 -26.305  1.00  0.00     0.219 C 
HETATM   10  C3  UNL     1     -34.140  11.805 -26.917  1.00  0.00     0.069 C 
HETATM   11  C2  UNL     1     -34.817  10.742 -27.681  1.00  0.00     0.152 C 
HETATM   12  O6  UNL     1     -34.056   9.779 -28.251  1.00  0.00    -0.352 OA
HETATM   13  C15 UNL     1     -32.699   9.883 -28.096  1.00  0.00     0.288 C 
BRANCH   9  14
HETATM   14  N2  UNL     1     -31.783  12.398 -26.760  1.00  0.00    -0.072 N 
ATOM     15  H23 UNL     1     -31.756  13.245 -26.193  1.00  0.00     0.274 HD
ATOM     16  H22 UNL     1     -30.854  12.034 -26.547  1.00  0.00     0.274 HD
ATOM     17  H21 UNL     1     -31.877  12.617 -27.752  1.00  0.00     0.274 HD
ENDBRANCH   9  14
BRANCH  11  18
HETATM   18  C1  UNL     1     -35.735  11.310 -28.774  1.00  0.00     0.261 C 
BRANCH  18  19
HETATM   19  N1  UNL     1     -34.969  12.370 -29.413  1.00  0.00    -0.077 N 
ATOM     20  H13 UNL     1     -34.068  12.550 -28.969  1.00  0.00     0.274 HD
ATOM     21  H12 UNL     1     -34.601  12.114 -30.330  1.00  0.00     0.274 HD
ATOM     22  H11 UNL     1     -35.587  13.180 -29.430  1.00  0.00     0.274 HD
ENDBRANCH  18  19
ENDBRANCH  11  18
BRANCH  13  23
HETATM   23  O5  UNL     1     -32.228  11.001 -28.796  1.00  0.00    -0.369 OA
ATOM     24  H5  UNL     1     -31.339  11.203 -28.530  1.00  0.00     0.212 HD
ENDBRANCH  13  23
ENDBRANCH   7   8
ENDBRANCH   1   7
BRANCH   6  25
HETATM   25  N6  UNL     1     -28.545   8.940 -26.266  1.00  0.00    -0.072 N 
ATOM     26  H63 UNL     1     -27.948   9.021 -25.443  1.00  0.00     0.274 HD
ATOM     27  H62 UNL     1     -27.862   8.610 -26.947  1.00  0.00     0.274 HD
ATOM     28  H61 UNL     1     -28.900   9.857 -26.536  1.00  0.00     0.274 HD
ENDBRANCH   6  25
BRANCH   3  29
HETATM   29  O2  UNL     1     -30.840   5.688 -24.397  1.00  0.00    -0.330 OA
BRANCH  29  30
HETATM   30  C9  UNL     1     -30.678   4.307 -24.391  1.00  0.00     0.436 C 
HETATM   31  O3  UNL     1     -31.768   3.640 -24.928  1.00  0.00    -0.225 OA
HETATM   32  N3  UNL     1     -32.081   2.643 -24.084  1.00  0.00    -0.062 NA
HETATM   33  C10 UNL     1     -31.464   2.919 -22.826  1.00  0.00     0.272 C 
HETATM   34  O4  UNL     1     -30.524   3.883 -23.086  1.00  0.00    -0.312 OA
BRANCH  33  35
HETATM   35  C11 UNL     1     -30.869   1.680 -22.184  1.00  0.00     0.281 C 
BRANCH  35  36
HETATM   36  N4  UNL     1     -29.567   1.969 -21.614  1.00  0.00    -0.076 N 
ATOM     37  H43 UNL     1     -28.839   1.985 -22.327  1.00  0.00     0.274 HD
ATOM     38  H42 UNL     1     -29.498   2.938 -21.302  1.00  0.00     0.274 HD
ATOM     39  H41 UNL     1     -29.346   1.316 -20.863  1.00  0.00     0.274 HD
ENDBRANCH  35  36
ENDBRANCH  33  35
ENDBRANCH  29  30
ENDBRANCH   3  29
BRANCH   4  40
HETATM   40  N5  UNL     1     -31.169   5.561 -27.962  1.00  0.00    -0.072 N 
ATOM     41  H53 UNL     1     -31.469   4.593 -28.070  1.00  0.00     0.274 HD
ATOM     42  H52 UNL     1     -32.083   6.014 -27.954  1.00  0.00     0.274 HD
ATOM     43  H51 UNL     1     -30.613   5.867 -28.761  1.00  0.00     0.274 HD
ENDBRANCH   4  40
TORSDOF 12
ENDMDL
MODEL 5
REMARK VINA RESULT: -6.228244664      2.750      5.912
REMARK  12 active torsions:
REMARK  status: ('A' for Active; 'I' for Inactive)
REMARK    1  A    between atoms: N1_1  and  C1_5 
REMARK    2  A    between atoms: C1_5  and  C2_6 
REMARK    3  A    between atoms: C4_8  and  N2_9 
REMARK    4  A    between atoms: C5_13  and  O1_14 
REMARK    5  A    between atoms: O1_14  and  C6_15 
REMARK    6  A    between atoms: C8_17  and  O2_18 
REMARK    7  A    between atoms: O2_18  and  C9_19 
REMARK    8  A    between atoms: C10_22  and  C11_23 
REMARK    9  A    between atoms: C11_23  and  N4_24 
REMARK   10  A    between atoms: C12_29  and  N5_30 
REMARK   11  A    between atoms: C14_35  and  N6_36 
REMARK   12  A    between atoms: C15_40  and  O5_41 
ROOT
HETATM    1  C6  UNL     1     -31.385   6.915 -28.902  1.00  0.00     0.155 C 
HETATM    2  C7  UNL     1     -31.502   5.859 -27.821  1.00  0.00     0.068 C 
HETATM    3  C8  UNL     1     -30.439   4.824 -27.975  1.00  0.00     0.160 C 
HETATM    4  C12 UNL     1     -29.799   4.782 -29.343  1.00  0.00     0.214 C 
HETATM    5  C13 UNL     1     -29.293   6.099 -29.823  1.00  0.00     0.070 C 
HETATM    6  C14 UNL     1     -29.912   7.220 -29.027  1.00  0.00     0.214 C 
ENDROOT
BRANCH   1   7
HETATM    7  O1  UNL     1     -32.171   8.015 -28.648  1.00  0.00    -0.371 OA
BRANCH   7   8
HETATM    8  C5  UNL     1     -32.585   8.001 -27.350  1.00  0.00     0.207 C 
HETATM    9  C4  UNL     1     -31.679   8.782 -26.420  1.00  0.00     0.219 C 
HETATM   10  C3  UNL     1     -32.270   8.864 -25.070  1.00  0.00     0.069 C 
HETATM   11  C2  UNL     1     -33.573   8.210 -24.853  1.00  0.00     0.152 C 
HETATM   12  O6  UNL     1     -34.402   8.067 -25.914  1.00  0.00    -0.352 OA
HETATM   13  C15 UNL     1     -33.973   8.571 -27.113  1.00  0.00     0.288 C 
BRANCH   9  14
HETATM   14  N2  UNL     1     -31.412  10.112 -26.977  1.00  0.00    -0.072 N 
ATOM     15  H23 UNL     1     -31.625  10.147 -27.973  1.00  0.00     0.274 HD
ATOM     16  H22 UNL     1     -32.091  10.798 -26.644  1.00  0.00     0.274 HD
ATOM     17  H21 UNL     1     -30.456  10.414 -26.790  1.00  0.00     0.274 HD
ENDBRANCH   9  14
BRANCH  11  18
HETATM   18  C1  UNL     1     -34.377   8.881 -23.729  1.00  0.00     0.261 C 
BRANCH  18  19
HETATM   19  N1  UNL     1     -33.630   8.619 -22.508  1.00  0.00    -0.077 N 
ATOM     20  H13 UNL     1     -32.631   8.483 -22.660  1.00  0.00     0.274 HD
ATOM     21  H12 UNL     1     -33.549   9.431 -21.895  1.00  0.00     0.274 HD
ATOM     22  H11 UNL     1     -34.092   7.821 -22.072  1.00  0.00     0.274 HD
ENDBRANCH  18  19
ENDBRANCH  11  18
BRANCH  13  23
HETATM   23  O5  UNL     1     -33.916   9.968 -27.045  1.00  0.00    -0.369 OA
ATOM     24  H5  UNL     1     -34.698  10.308 -26.628  1.00  0.00     0.212 HD
ENDBRANCH  13  23
ENDBRANCH   7   8
ENDBRANCH   1   7
BRANCH   6  25
HETATM   25  N6  UNL     1     -29.613   8.514 -29.548  1.00  0.00    -0.072 N 
ATOM     26  H63 UNL     1     -30.463   9.074 -29.615  1.00  0.00     0.274 HD
ATOM     27  H62 UNL     1     -29.096   9.060 -28.860  1.00  0.00     0.274 HD
ATOM     28  H61 UNL     1     -29.121   8.510 -30.441  1.00  0.00     0.274 HD
ENDBRANCH   6  25
BRANCH   3  29
HETATM   29  O2  UNL     1     -29.434   4.903 -27.044  1.00  0.00    -0.330 OA
BRANCH  29  30
HETATM   30  C9  UNL     1     -29.656   4.007 -26.005  1.00  0.00     0.436 C 
HETATM   31  O3  UNL     1     -30.556   3.008 -26.344  1.00  0.00    -0.225 OA
HETATM   32  N3  UNL     1     -31.440   2.909 -25.337  1.00  0.00    -0.062 NA
HETATM   33  C10 UNL     1     -31.355   4.100 -24.555  1.00  0.00     0.272 C 
HETATM   34  O4  UNL     1     -30.177   4.696 -24.927  1.00  0.00    -0.312 OA
BRANCH  33  35
HETATM   35  C11 UNL     1     -31.428   3.827 -23.065  1.00  0.00     0.281 C 
BRANCH  35  36
HETATM   36  N4  UNL     1     -31.012   2.470 -22.768  1.00  0.00    -0.076 N 
ATOM     37  H43 UNL     1     -31.221   2.214 -21.804  1.00  0.00     0.274 HD
ATOM     38  H42 UNL     1     -31.599   1.784 -23.241  1.00  0.00     0.274 HD
ATOM     39  H41 UNL     1     -30.025   2.337 -22.988  1.00  0.00     0.274 HD
ENDBRANCH  35  36
ENDBRANCH  33  35
ENDBRANCH  29  30
ENDBRANCH   3  29
BRANCH   4  40
HETATM   40  N5  UNL     1     -30.638   4.094 -30.320  1.00  0.00    -0.072 N 
ATOM     41  H53 UNL     1     -30.240   3.191 -30.577  1.00  0.00     0.274 HD
ATOM     42  H52 UNL     1     -31.510   3.772 -29.899  1.00  0.00     0.274 HD
ATOM     43  H51 UNL     1     -30.816   4.667 -31.145  1.00  0.00     0.274 HD
ENDBRANCH   4  40
TORSDOF 12
ENDMDL
