MODEL 1
REMARK VINA RESULT: -7.706977448      0.000      0.000
REMARK  11 active torsions:
REMARK  status: ('A' for Active; 'I' for Inactive)
REMARK    1  A    between atoms: C2_2  and  N1_3 
REMARK    2  A    between atoms: C2_2  and  C12_36 
REMARK    3  A    between atoms: N1_3  and  N2_5 
REMARK    4  A    between atoms: N2_5  and  C3_7 
REMARK    5  A    between atoms: C3_7  and  O1_8 
REMARK    6  A    between atoms: C3_7  and  C4_10 
REMARK    7  A    between atoms: C5_11  and  C6_12 
REMARK    8  A    between atoms: C7_15  and  O4_16 
REMARK    9  A    between atoms: C8_20  and  N4_21 
REMARK   10  A    between atoms: C9_24  and  N5_25 
REMARK       I    between atoms: N5_25  and  C10_27 
REMARK   11  A    between atoms: C10_27  and  C11_29 
ROOT
HETATM    1  C4  UNL     1     -30.428   6.586 -25.590  1.00  0.00     0.068 A 
HETATM    2  C5  UNL     1     -31.201   6.395 -24.475  1.00  0.00     0.108 A 
HETATM    3  C7  UNL     1     -31.473   5.073 -24.046  1.00  0.00     0.160 A 
HETATM    4  N3  UNL     1     -31.006   4.021 -24.696  1.00  0.00    -0.321 N 
ATOM      5  H3  UNL     1     -31.230   3.088 -24.348  1.00  0.00     0.169 HD
HETATM    6  C8  UNL     1     -30.256   4.135 -25.785  1.00  0.00     0.129 A 
HETATM    7  C9  UNL     1     -29.970   5.396 -26.227  1.00  0.00     0.095 A 
ENDROOT
BRANCH   1   8
HETATM    8  C3  UNL     1     -30.083   7.816 -26.220  1.00  0.00     0.169 C 
BRANCH   8   9
HETATM    9  N2  UNL     1     -30.748   8.817 -26.901  1.00  0.00    -0.279 N 
ATOM     10  H2  UNL     1     -30.289   9.683 -27.185  1.00  0.00     0.189 HD
BRANCH   9  11
HETATM   11  N1  UNL     1     -32.151   8.548 -27.185  1.00  0.00    -0.298 N 
ATOM     12  H1  UNL     1     -32.851   8.583 -26.445  1.00  0.00     0.186 HD
BRANCH  11  13
HETATM   13  C2  UNL     1     -32.484   8.265 -28.399  1.00  0.00     0.086 C 
HETATM   14  C1  UNL     1     -33.589   7.345 -28.740  1.00  0.00     0.075 C 
BRANCH  13  15
HETATM   15  C12 UNL     1     -31.721   8.894 -29.463  1.00  0.00     0.278 C 
HETATM   16  N10 UNL     1     -32.300   9.972 -30.169  1.00  0.00    -0.056 NA
HETATM   17  O6  UNL     1     -30.555   8.503 -29.774  1.00  0.00    -0.270 OA
ENDBRANCH  13  15
ENDBRANCH  11  13
ENDBRANCH   9  11
ENDBRANCH   8   9
BRANCH   8  18
HETATM   18  O1  UNL     1     -28.774   8.076 -26.110  1.00  0.00    -0.344 OA
ATOM     19  H1  UNL     1     -28.249   7.294 -26.232  1.00  0.00     0.219 HD
ENDBRANCH   8  18
ENDBRANCH   1   8
BRANCH   2  20
HETATM   20  C6  UNL     1     -31.845   7.450 -23.779  1.00  0.00     0.214 C 
HETATM   21  O2  UNL     1     -32.453   8.459 -24.074  1.00  0.00    -0.644 OA
HETATM   22  O3  UNL     1     -31.805   7.355 -22.330  1.00  0.00    -0.644 OA
ENDBRANCH   2  20
BRANCH   7  23
HETATM   23  N5  UNL     1     -29.120   5.437 -27.386  1.00  0.00    -0.316 N 
HETATM   24  C10 UNL     1     -29.714   5.246 -28.666  1.00  0.00     0.292 C 
HETATM   25  O5  UNL     1     -30.931   5.050 -28.759  1.00  0.00    -0.264 OA
ATOM     26  H5  UNL     1     -28.117   5.599 -27.294  1.00  0.00     0.169 HD
BRANCH  24  27
HETATM   27  C11 UNL     1     -28.908   5.275 -29.873  1.00  0.00     0.200 A 
HETATM   28  N6  UNL     1     -27.670   5.758 -30.023  1.00  0.00    -0.266 N 
HETATM   29  N7  UNL     1     -27.300   5.589 -31.287  1.00  0.00    -0.007 NA
ATOM     30  H6  UNL     1     -27.104   6.184 -29.289  1.00  0.00     0.185 HD
HETATM   31  N8  UNL     1     -28.277   5.005 -31.958  1.00  0.00    -0.007 NA
HETATM   32  N9  UNL     1     -29.262   4.811 -31.098  1.00  0.00    -0.266 N 
ATOM     33  H9  UNL     1     -30.157   4.375 -31.322  1.00  0.00     0.185 HD
ENDBRANCH  24  27
ENDBRANCH   7  23
BRANCH   3  34
HETATM   34  O4  UNL     1     -32.258   4.935 -22.901  1.00  0.00    -0.345 OA
ATOM     35  H4  UNL     1     -31.797   4.824 -22.078  1.00  0.00     0.219 HD
ENDBRANCH   3  34
BRANCH   6  36
HETATM   36  N4  UNL     1     -29.810   3.080 -26.410  1.00  0.00    -0.384 N 
ATOM     37  H42 UNL     1     -30.181   2.806 -27.319  1.00  0.00     0.157 HD
ATOM     38  H41 UNL     1     -29.076   2.498 -26.005  1.00  0.00     0.157 HD
ENDBRANCH   6  36
TORSDOF 11
ENDMDL
MODEL 2
REMARK VINA RESULT: -7.668297342      2.588      5.382
REMARK  11 active torsions:
REMARK  status: ('A' for Active; 'I' for Inactive)
REMARK    1  A    between atoms: C2_2  and  N1_3 
REMARK    2  A    between atoms: C2_2  and  C12_36 
REMARK    3  A    between atoms: N1_3  and  N2_5 
REMARK    4  A    between atoms: N2_5  and  C3_7 
REMARK    5  A    between atoms: C3_7  and  O1_8 
REMARK    6  A    between atoms: C3_7  and  C4_10 
REMARK    7  A    between atoms: C5_11  and  C6_12 
REMARK    8  A    between atoms: C7_15  and  O4_16 
REMARK    9  A    between atoms: C8_20  and  N4_21 
REMARK   10  A    between atoms: C9_24  and  N5_25 
REMARK       I    between atoms: N5_25  and  C10_27 
REMARK   11  A    between atoms: C10_27  and  C11_29 
ROOT
HETATM    1  C4  UNL     1     -31.025   5.952 -24.951  1.00  0.00     0.068 A 
HETATM    2  C5  UNL     1     -30.788   4.607 -25.067  1.00  0.00     0.108 A 
HETATM    3  C7  UNL     1     -30.087   4.128 -26.200  1.00  0.00     0.160 A 
HETATM    4  N3  UNL     1     -29.662   4.943 -27.151  1.00  0.00    -0.321 N 
ATOM      5  H3  UNL     1     -29.162   4.550 -27.949  1.00  0.00     0.169 HD
HETATM    6  C8  UNL     1     -29.862   6.254 -27.104  1.00  0.00     0.129 A 
HETATM    7  C9  UNL     1     -30.532   6.753 -26.022  1.00  0.00     0.095 A 
ENDROOT
BRANCH   1   8
HETATM    8  C3  UNL     1     -31.752   6.631 -23.933  1.00  0.00     0.169 C 
BRANCH   8   9
HETATM    9  N2  UNL     1     -32.976   7.263 -23.822  1.00  0.00    -0.279 N 
ATOM     10  H2  UNL     1     -33.757   7.055 -24.443  1.00  0.00     0.189 HD
BRANCH   9  11
HETATM   11  N1  UNL     1     -33.070   8.249 -22.753  1.00  0.00    -0.298 N 
ATOM     12  H1  UNL     1     -32.351   8.310 -22.032  1.00  0.00     0.186 HD
BRANCH  11  13
HETATM   13  C2  UNL     1     -34.086   9.043 -22.744  1.00  0.00     0.086 C 
HETATM   14  C1  UNL     1     -34.926   9.267 -21.548  1.00  0.00     0.075 C 
BRANCH  13  15
HETATM   15  C12 UNL     1     -34.400   9.739 -23.980  1.00  0.00     0.278 C 
HETATM   16  N10 UNL     1     -34.951   9.004 -25.053  1.00  0.00    -0.056 NA
HETATM   17  O6  UNL     1     -34.192  10.982 -24.121  1.00  0.00    -0.270 OA
ENDBRANCH  13  15
ENDBRANCH  11  13
ENDBRANCH   9  11
ENDBRANCH   8   9
BRANCH   8  18
HETATM   18  O1  UNL     1     -31.078   6.651 -22.776  1.00  0.00    -0.344 OA
ATOM     19  H1  UNL     1     -30.506   5.898 -22.690  1.00  0.00     0.219 HD
ENDBRANCH   8  18
ENDBRANCH   1   8
BRANCH   2  20
HETATM   20  C6  UNL     1     -31.304   3.641 -24.166  1.00  0.00     0.214 C 
HETATM   21  O2  UNL     1     -32.141   2.762 -24.200  1.00  0.00    -0.644 OA
HETATM   22  O3  UNL     1     -30.716   3.654 -22.837  1.00  0.00    -0.644 OA
ENDBRANCH   2  20
BRANCH   7  23
HETATM   23  N5  UNL     1     -30.674   8.185 -26.024  1.00  0.00    -0.316 N 
HETATM   24  C10 UNL     1     -31.729   8.758 -26.788  1.00  0.00     0.292 C 
HETATM   25  O5  UNL     1     -32.495   8.029 -27.429  1.00  0.00    -0.264 OA
ATOM     26  H5  UNL     1     -30.034   8.774 -25.491  1.00  0.00     0.169 HD
BRANCH  24  27
HETATM   27  C11 UNL     1     -31.922  10.196 -26.830  1.00  0.00     0.200 A 
HETATM   28  N6  UNL     1     -33.070  10.867 -26.979  1.00  0.00    -0.266 N 
HETATM   29  N7  UNL     1     -32.806  12.168 -26.963  1.00  0.00    -0.007 NA
ATOM     30  H6  UNL     1     -33.995  10.448 -27.087  1.00  0.00     0.185 HD
HETATM   31  N8  UNL     1     -31.507  12.351 -26.806  1.00  0.00    -0.007 NA
HETATM   32  N9  UNL     1     -30.963  11.149 -26.724  1.00  0.00    -0.266 N 
ATOM     33  H9  UNL     1     -29.967  10.964 -26.599  1.00  0.00     0.185 HD
ENDBRANCH  24  27
ENDBRANCH   7  23
BRANCH   3  34
HETATM   34  O4  UNL     1     -29.866   2.752 -26.265  1.00  0.00    -0.345 OA
ATOM     35  H4  UNL     1     -29.680   2.391 -27.124  1.00  0.00     0.219 HD
ENDBRANCH   3  34
BRANCH   6  36
HETATM   36  N4  UNL     1     -29.435   7.036 -28.057  1.00  0.00    -0.384 N 
ATOM     37  H42 UNL     1     -28.825   6.687 -28.796  1.00  0.00     0.157 HD
ATOM     38  H41 UNL     1     -29.699   8.022 -28.089  1.00  0.00     0.157 HD
ENDBRANCH   6  36
TORSDOF 11
ENDMDL
MODEL 3
REMARK VINA RESULT: -7.617287789      1.363      1.706
REMARK  11 active torsions:
REMARK  status: ('A' for Active; 'I' for Inactive)
REMARK    1  A    between atoms: C2_2  and  N1_3 
REMARK    2  A    between atoms: C2_2  and  C12_36 
REMARK    3  A    between atoms: N1_3  and  N2_5 
REMARK    4  A    between atoms: N2_5  and  C3_7 
REMARK    5  A    between atoms: C3_7  and  O1_8 
REMARK    6  A    between atoms: C3_7  and  C4_10 
REMARK    7  A    between atoms: C5_11  and  C6_12 
REMARK    8  A    between atoms: C7_15  and  O4_16 
REMARK    9  A    between atoms: C8_20  and  N4_21 
REMARK   10  A    between atoms: C9_24  and  N5_25 
REMARK       I    between atoms: N5_25  and  C10_27 
REMARK   11  A    between atoms: C10_27  and  C11_29 
ROOT
HETATM    1  C4  UNL     1     -30.359   6.581 -25.709  1.00  0.00     0.068 A 
HETATM    2  C5  UNL     1     -31.150   6.417 -24.602  1.00  0.00     0.108 A 
HETATM    3  C7  UNL     1     -31.444   5.106 -24.155  1.00  0.00     0.160 A 
HETATM    4  N3  UNL     1     -30.981   4.038 -24.782  1.00  0.00    -0.321 N 
ATOM      5  H3  UNL     1     -31.221   3.113 -24.422  1.00  0.00     0.169 HD
HETATM    6  C8  UNL     1     -30.215   4.125 -25.862  1.00  0.00     0.129 A 
HETATM    7  C9  UNL     1     -29.907   5.375 -26.320  1.00  0.00     0.095 A 
ENDROOT
BRANCH   1   8
HETATM    8  C3  UNL     1     -29.992   7.796 -26.354  1.00  0.00     0.169 C 
BRANCH   8   9
HETATM    9  N2  UNL     1     -30.471   8.567 -27.396  1.00  0.00    -0.279 N 
ATOM     10  H2  UNL     1     -29.907   8.792 -28.215  1.00  0.00     0.189 HD
BRANCH   9  11
HETATM   11  N1  UNL     1     -31.842   9.036 -27.240  1.00  0.00    -0.298 N 
ATOM     12  H1  UNL     1     -32.571   8.414 -26.889  1.00  0.00     0.186 HD
BRANCH  11  13
HETATM   13  C2  UNL     1     -32.108  10.257 -27.556  1.00  0.00     0.086 C 
HETATM   14  C1  UNL     1     -33.043  10.626 -28.640  1.00  0.00     0.075 C 
BRANCH  13  15
HETATM   15  C12 UNL     1     -31.446  11.302 -26.795  1.00  0.00     0.278 C 
HETATM   16  N10 UNL     1     -32.181  12.455 -26.440  1.00  0.00    -0.056 NA
HETATM   17  O6  UNL     1     -30.231  11.208 -26.443  1.00  0.00    -0.270 OA
ENDBRANCH  13  15
ENDBRANCH  11  13
ENDBRANCH   9  11
ENDBRANCH   8   9
BRANCH   8  18
HETATM   18  O1  UNL     1     -28.903   8.341 -25.795  1.00  0.00    -0.344 OA
ATOM     19  H1  UNL     1     -29.132   9.024 -25.176  1.00  0.00     0.219 HD
ENDBRANCH   8  18
ENDBRANCH   1   8
BRANCH   2  20
HETATM   20  C6  UNL     1     -31.791   7.491 -23.932  1.00  0.00     0.214 C 
HETATM   21  O2  UNL     1     -32.370   8.509 -24.252  1.00  0.00    -0.644 OA
HETATM   22  O3  UNL     1     -31.790   7.408 -22.482  1.00  0.00    -0.644 OA
ENDBRANCH   2  20
BRANCH   7  23
HETATM   23  N5  UNL     1     -29.041   5.387 -27.469  1.00  0.00    -0.316 N 
HETATM   24  C10 UNL     1     -29.624   5.208 -28.755  1.00  0.00     0.292 C 
HETATM   25  O5  UNL     1     -30.845   5.047 -28.864  1.00  0.00    -0.264 OA
ATOM     26  H5  UNL     1     -28.036   5.520 -27.364  1.00  0.00     0.169 HD
BRANCH  24  27
HETATM   27  C11 UNL     1     -28.802   5.210 -29.952  1.00  0.00     0.200 A 
HETATM   28  N6  UNL     1     -29.118   4.746 -31.166  1.00  0.00    -0.266 N 
HETATM   29  N7  UNL     1     -28.084   4.941 -31.976  1.00  0.00    -0.007 NA
ATOM     30  H6  UNL     1     -30.005   4.315 -31.427  1.00  0.00     0.185 HD
HETATM   31  N8  UNL     1     -27.105   5.524 -31.307  1.00  0.00    -0.007 NA
HETATM   32  N9  UNL     1     -27.539   5.690 -30.070  1.00  0.00    -0.266 N 
ATOM     33  H9  UNL     1     -27.003   6.117 -29.315  1.00  0.00     0.185 HD
ENDBRANCH  24  27
ENDBRANCH   7  23
BRANCH   3  34
HETATM   34  O4  UNL     1     -32.246   4.996 -23.019  1.00  0.00    -0.345 OA
ATOM     35  H4  UNL     1     -32.713   5.778 -22.750  1.00  0.00     0.219 HD
ENDBRANCH   3  34
BRANCH   6  36
HETATM   36  N4  UNL     1     -29.773   3.054 -26.464  1.00  0.00    -0.384 N 
ATOM     37  H42 UNL     1     -30.329   2.201 -26.504  1.00  0.00     0.157 HD
ATOM     38  H41 UNL     1     -28.856   3.041 -26.912  1.00  0.00     0.157 HD
ENDBRANCH   6  36
TORSDOF 11
ENDMDL
MODEL 4
REMARK VINA RESULT: -7.550949073      0.973      1.437
REMARK  11 active torsions:
REMARK  status: ('A' for Active; 'I' for Inactive)
REMARK    1  A    between atoms: C2_2  and  N1_3 
REMARK    2  A    between atoms: C2_2  and  C12_36 
REMARK    3  A    between atoms: N1_3  and  N2_5 
REMARK    4  A    between atoms: N2_5  and  C3_7 
REMARK    5  A    between atoms: C3_7  and  O1_8 
REMARK    6  A    between atoms: C3_7  and  C4_10 
REMARK    7  A    between atoms: C5_11  and  C6_12 
REMARK    8  A    between atoms: C7_15  and  O4_16 
REMARK    9  A    between atoms: C8_20  and  N4_21 
REMARK   10  A    between atoms: C9_24  and  N5_25 
REMARK       I    between atoms: N5_25  and  C10_27 
REMARK   11  A    between atoms: C10_27  and  C11_29 
ROOT
HETATM    1  C4  UNL     1     -30.383   6.459 -25.430  1.00  0.00     0.068 A 
HETATM    2  C5  UNL     1     -31.154   6.245 -24.318  1.00  0.00     0.108 A 
HETATM    3  C7  UNL     1     -31.494   4.917 -23.963  1.00  0.00     0.160 A 
HETATM    4  N3  UNL     1     -31.094   3.880 -24.680  1.00  0.00    -0.321 N 
ATOM      5  H3  UNL     1     -31.366   2.942 -24.384  1.00  0.00     0.169 HD
HETATM    6  C8  UNL     1     -30.350   4.017 -25.771  1.00  0.00     0.129 A 
HETATM    7  C9  UNL     1     -29.998   5.285 -26.142  1.00  0.00     0.095 A 
ENDROOT
BRANCH   1   8
HETATM    8  C3  UNL     1     -29.976   7.702 -25.992  1.00  0.00     0.169 C 
BRANCH   8   9
HETATM    9  N2  UNL     1     -30.578   8.740 -26.677  1.00  0.00    -0.279 N 
ATOM     10  H2  UNL     1     -31.074   9.494 -26.203  1.00  0.00     0.189 HD
BRANCH   9  11
HETATM   11  N1  UNL     1     -30.452   8.680 -28.128  1.00  0.00    -0.298 N 
ATOM     12  H1  UNL     1     -29.542   8.770 -28.579  1.00  0.00     0.186 HD
BRANCH  11  13
HETATM   13  C2  UNL     1     -31.523   8.510 -28.826  1.00  0.00     0.086 C 
HETATM   14  C1  UNL     1     -31.508   8.273 -30.284  1.00  0.00     0.075 C 
BRANCH  13  15
HETATM   15  C12 UNL     1     -32.792   8.558 -28.121  1.00  0.00     0.278 C 
HETATM   16  N10 UNL     1     -33.425   9.808 -27.945  1.00  0.00    -0.056 NA
HETATM   17  O6  UNL     1     -33.345   7.512 -27.662  1.00  0.00    -0.270 OA
ENDBRANCH  13  15
ENDBRANCH  11  13
ENDBRANCH   9  11
ENDBRANCH   8   9
BRANCH   8  18
HETATM   18  O1  UNL     1     -28.672   7.932 -25.789  1.00  0.00    -0.344 OA
ATOM     19  H1  UNL     1     -28.368   7.539 -24.980  1.00  0.00     0.219 HD
ENDBRANCH   8  18
ENDBRANCH   1   8
BRANCH   2  20
HETATM   20  C6  UNL     1     -31.731   7.290 -23.553  1.00  0.00     0.214 C 
HETATM   21  O2  UNL     1     -31.911   7.523 -22.375  1.00  0.00    -0.644 OA
HETATM   22  O3  UNL     1     -32.260   8.404 -24.320  1.00  0.00    -0.644 OA
ENDBRANCH   2  20
BRANCH   7  23
HETATM   23  N5  UNL     1     -29.160   5.347 -27.309  1.00  0.00    -0.316 N 
HETATM   24  C10 UNL     1     -29.770   5.211 -28.587  1.00  0.00     0.292 C 
HETATM   25  O5  UNL     1     -30.992   5.044 -28.674  1.00  0.00    -0.264 OA
ATOM     26  H5  UNL     1     -28.153   5.486 -27.222  1.00  0.00     0.169 HD
BRANCH  24  27
HETATM   27  C11 UNL     1     -28.977   5.265 -29.802  1.00  0.00     0.200 A 
HETATM   28  N6  UNL     1     -29.323   4.857 -31.028  1.00  0.00    -0.266 N 
HETATM   29  N7  UNL     1     -28.307   5.086 -31.852  1.00  0.00    -0.007 NA
ATOM     30  H6  UNL     1     -30.217   4.440 -31.287  1.00  0.00     0.185 HD
HETATM   31  N8  UNL     1     -27.311   5.636 -31.181  1.00  0.00    -0.007 NA
HETATM   32  N9  UNL     1     -27.716   5.748 -29.928  1.00  0.00    -0.266 N 
ATOM     33  H9  UNL     1     -27.161   6.139 -29.167  1.00  0.00     0.185 HD
ENDBRANCH  24  27
ENDBRANCH   7  23
BRANCH   3  34
HETATM   34  O4  UNL     1     -32.274   4.754 -22.818  1.00  0.00    -0.345 OA
ATOM     35  H4  UNL     1     -32.164   5.402 -22.132  1.00  0.00     0.219 HD
ENDBRANCH   3  34
BRANCH   6  36
HETATM   36  N4  UNL     1     -29.970   2.978 -26.463  1.00  0.00    -0.384 N 
ATOM     37  H42 UNL     1     -30.559   2.150 -26.542  1.00  0.00     0.157 HD
ATOM     38  H41 UNL     1     -29.070   2.965 -26.945  1.00  0.00     0.157 HD
ENDBRANCH   6  36
TORSDOF 11
ENDMDL
MODEL 5
REMARK VINA RESULT: -7.544657153      2.844      5.816
REMARK  11 active torsions:
REMARK  status: ('A' for Active; 'I' for Inactive)
REMARK    1  A    between atoms: C2_2  and  N1_3 
REMARK    2  A    between atoms: C2_2  and  C12_36 
REMARK    3  A    between atoms: N1_3  and  N2_5 
REMARK    4  A    between atoms: N2_5  and  C3_7 
REMARK    5  A    between atoms: C3_7  and  O1_8 
REMARK    6  A    between atoms: C3_7  and  C4_10 
REMARK    7  A    between atoms: C5_11  and  C6_12 
REMARK    8  A    between atoms: C7_15  and  O4_16 
REMARK    9  A    between atoms: C8_20  and  N4_21 
REMARK   10  A    between atoms: C9_24  and  N5_25 
REMARK       I    between atoms: N5_25  and  C10_27 
REMARK   11  A    between atoms: C10_27  and  C11_29 
ROOT
HETATM    1  C4  UNL     1     -31.009   5.832 -24.897  1.00  0.00     0.068 A 
HETATM    2  C5  UNL     1     -30.769   4.492 -25.051  1.00  0.00     0.108 A 
HETATM    3  C7  UNL     1     -30.062   4.047 -26.194  1.00  0.00     0.160 A 
HETATM    4  N3  UNL     1     -29.632   4.890 -27.118  1.00  0.00    -0.321 N 
ATOM      5  H3  UNL     1     -29.128   4.521 -27.925  1.00  0.00     0.169 HD
HETATM    6  C8  UNL     1     -29.835   6.199 -27.034  1.00  0.00     0.129 A 
HETATM    7  C9  UNL     1     -30.512   6.665 -25.942  1.00  0.00     0.095 A 
ENDROOT
BRANCH   1   8
HETATM    8  C3  UNL     1     -31.742   6.481 -23.864  1.00  0.00     0.169 C 
BRANCH   8   9
HETATM    9  N2  UNL     1     -32.998   7.040 -23.720  1.00  0.00    -0.279 N 
ATOM     10  H2  UNL     1     -33.841   6.589 -24.073  1.00  0.00     0.189 HD
BRANCH   9  11
HETATM   11  N1  UNL     1     -33.029   8.322 -23.028  1.00  0.00    -0.298 N 
ATOM     12  H1  UNL     1     -32.166   8.794 -22.760  1.00  0.00     0.186 HD
BRANCH  11  13
HETATM   13  C2  UNL     1     -34.179   8.844 -22.764  1.00  0.00     0.086 C 
HETATM   14  C1  UNL     1     -35.223   9.059 -23.788  1.00  0.00     0.075 C 
BRANCH  13  15
HETATM   15  C12 UNL     1     -34.435   9.230 -21.388  1.00  0.00     0.278 C 
HETATM   16  N10 UNL     1     -35.562  10.034 -21.105  1.00  0.00    -0.056 NA
HETATM   17  O6  UNL     1     -33.678   8.866 -20.437  1.00  0.00    -0.270 OA
ENDBRANCH  13  15
ENDBRANCH  11  13
ENDBRANCH   9  11
ENDBRANCH   8   9
BRANCH   8  18
HETATM   18  O1  UNL     1     -31.034   6.555 -22.729  1.00  0.00    -0.344 OA
ATOM     19  H1  UNL     1     -30.105   6.647 -22.901  1.00  0.00     0.219 HD
ENDBRANCH   8  18
ENDBRANCH   1   8
BRANCH   2  20
HETATM   20  C6  UNL     1     -31.288   3.499 -24.181  1.00  0.00     0.214 C 
HETATM   21  O2  UNL     1     -32.062   2.568 -24.269  1.00  0.00    -0.644 OA
HETATM   22  O3  UNL     1     -30.802   3.556 -22.813  1.00  0.00    -0.644 OA
ENDBRANCH   2  20
BRANCH   7  23
HETATM   23  N5  UNL     1     -30.656   8.096 -25.903  1.00  0.00    -0.316 N 
HETATM   24  C10 UNL     1     -31.846   8.670 -26.433  1.00  0.00     0.292 C 
HETATM   25  O5  UNL     1     -32.723   7.941 -26.910  1.00  0.00    -0.264 OA
ATOM     26  H5  UNL     1     -29.923   8.684 -25.506  1.00  0.00     0.169 HD
BRANCH  24  27
HETATM   27  C11 UNL     1     -32.049  10.107 -26.422  1.00  0.00     0.200 A 
HETATM   28  N6  UNL     1     -33.148  10.779 -26.063  1.00  0.00    -0.266 N 
HETATM   29  N7  UNL     1     -32.914  12.079 -26.201  1.00  0.00    -0.007 NA
ATOM     30  H6  UNL     1     -34.021  10.362 -25.737  1.00  0.00     0.185 HD
HETATM   31  N8  UNL     1     -31.682  12.259 -26.642  1.00  0.00    -0.007 NA
HETATM   32  N9  UNL     1     -31.149  11.057 -26.779  1.00  0.00    -0.266 N 
ATOM     33  H9  UNL     1     -30.201  10.871 -27.105  1.00  0.00     0.185 HD
ENDBRANCH  24  27
ENDBRANCH   7  23
BRANCH   3  34
HETATM   34  O4  UNL     1     -29.838   2.674 -26.298  1.00  0.00    -0.345 OA
ATOM     35  H4  UNL     1     -30.535   2.156 -26.681  1.00  0.00     0.219 HD
ENDBRANCH   3  34
BRANCH   6  36
HETATM   36  N4  UNL     1     -29.404   7.009 -27.962  1.00  0.00    -0.384 N 
ATOM     37  H42 UNL     1     -29.442   6.754 -28.948  1.00  0.00     0.157 HD
ATOM     38  H41 UNL     1     -29.015   7.923 -27.726  1.00  0.00     0.157 HD
ENDBRANCH   6  36
TORSDOF 11
ENDMDL
