MODEL 1
REMARK VINA RESULT: -6.080237723      0.000      0.000
REMARK  13 active torsions:
REMARK  status: ('A' for Active; 'I' for Inactive)
REMARK    1  A    between atoms: C3_3  and  O1_4 
REMARK    2  A    between atoms: C3_3  and  C4_6 
REMARK    3  A    between atoms: C4_6  and  C5_7 
REMARK    4  A    between atoms: C4_6  and  O3_10 
REMARK    5  A    between atoms: C5_7  and  O2_8 
REMARK    6  A    between atoms: O3_10  and  C6_11 
REMARK    7  A    between atoms: C7_13  and  O4_14 
REMARK    8  A    between atoms: O4_14  and  C8_15 
REMARK    9  A    between atoms: C9_16  and  N1_17 
REMARK   10  A    between atoms: C11_22  and  N2_23 
REMARK   11  A    between atoms: C13_28  and  N3_29 
REMARK   12  A    between atoms: C14_33  and  N4_34 
REMARK   13  A    between atoms: C16_39  and  N5_40 
ROOT
HETATM    1  C1  UNL     1     -29.201   4.682 -36.821  1.00  0.00     0.100 C 
HETATM    2  C2  UNL     1     -28.212   4.820 -36.120  1.00  0.00    -0.154 C 
HETATM    3  C3  UNL     1     -27.014   4.976 -35.293  1.00  0.00     0.214 C 
ENDROOT
BRANCH   3   4
HETATM    4  O1  UNL     1     -26.036   4.141 -35.832  1.00  0.00    -0.382 OA
ATOM      5  H1  UNL     1     -25.230   4.644 -35.866  1.00  0.00     0.211 HD
ENDBRANCH   3   4
BRANCH   3   6
HETATM    6  C4  UNL     1     -27.339   4.602 -33.865  1.00  0.00     0.186 C 
BRANCH   6   7
HETATM    7  C5  UNL     1     -26.080   4.808 -33.048  1.00  0.00     0.199 C 
BRANCH   7   8
HETATM    8  O2  UNL     1     -25.371   5.841 -33.615  1.00  0.00    -0.398 OA
ATOM      9  H2  UNL     1     -24.710   6.119 -32.992  1.00  0.00     0.209 HD
ENDBRANCH   7   8
ENDBRANCH   6   7
BRANCH   6  10
HETATM   10  O3  UNL     1     -28.425   5.259 -33.360  1.00  0.00    -0.362 OA
BRANCH  10  11
HETATM   11  C6  UNL     1     -29.315   4.495 -32.654  1.00  0.00     0.216 C 
HETATM   12  S1  UNL     1     -29.149   4.849 -30.867  1.00  0.00    -0.101 SA
HETATM   13  C7  UNL     1     -30.560   5.795 -30.252  1.00  0.00     0.216 C 
HETATM   14  C14 UNL     1     -31.876   5.192 -30.788  1.00  0.00     0.224 C 
HETATM   15  C15 UNL     1     -31.613   4.226 -31.899  1.00  0.00     0.072 C 
HETATM   16  C16 UNL     1     -30.765   4.773 -33.000  1.00  0.00     0.224 C 
BRANCH  13  17
HETATM   17  O4  UNL     1     -30.629   5.720 -28.917  1.00  0.00    -0.364 OA
BRANCH  17  18
HETATM   18  C8  UNL     1     -30.505   6.824 -28.152  1.00  0.00     0.184 C 
HETATM   19  C9  UNL     1     -30.379   6.419 -26.707  1.00  0.00     0.216 C 
HETATM   20  C10 UNL     1     -30.262   7.623 -25.826  1.00  0.00     0.068 C 
HETATM   21  C11 UNL     1     -30.195   8.944 -26.499  1.00  0.00     0.187 C 
HETATM   22  C12 UNL     1     -31.140   9.125 -27.647  1.00  0.00     0.068 C 
HETATM   23  C13 UNL     1     -31.620   7.819 -28.237  1.00  0.00     0.216 C 
BRANCH  19  24
HETATM   24  N1  UNL     1     -29.235   5.530 -26.565  1.00  0.00    -0.072 N 
ATOM     25  H13 UNL     1     -29.487   4.549 -26.685  1.00  0.00     0.274 HD
ATOM     26  H12 UNL     1     -28.583   5.605 -27.347  1.00  0.00     0.274 HD
ATOM     27  H11 UNL     1     -28.787   5.710 -25.667  1.00  0.00     0.274 HD
ENDBRANCH  19  24
BRANCH  21  28
HETATM   28  N2  UNL     1     -28.838   9.293 -26.880  1.00  0.00    -0.075 N 
ATOM     29  H23 UNL     1     -28.449  10.003 -26.259  1.00  0.00     0.274 HD
ATOM     30  H22 UNL     1     -28.190   8.531 -26.679  1.00  0.00     0.274 HD
ATOM     31  H21 UNL     1     -28.776   9.583 -27.857  1.00  0.00     0.274 HD
ENDBRANCH  21  28
BRANCH  23  32
HETATM   32  N3  UNL     1     -32.808   7.427 -27.509  1.00  0.00    -0.072 N 
ATOM     33  H33 UNL     1     -32.818   6.419 -27.353  1.00  0.00     0.274 HD
ATOM     34  H32 UNL     1     -32.759   7.749 -26.542  1.00  0.00     0.274 HD
ATOM     35  H31 UNL     1     -33.678   7.732 -27.946  1.00  0.00     0.274 HD
ENDBRANCH  23  32
ENDBRANCH  17  18
ENDBRANCH  13  17
BRANCH  14  36
HETATM   36  N4  UNL     1     -32.789   6.196 -31.239  1.00  0.00    -0.072 N 
ATOM     37  H43 UNL     1     -32.879   6.946 -30.554  1.00  0.00     0.274 HD
ATOM     38  H42 UNL     1     -32.395   6.730 -32.014  1.00  0.00     0.274 HD
ATOM     39  H41 UNL     1     -33.700   5.808 -31.484  1.00  0.00     0.274 HD
ENDBRANCH  14  36
BRANCH  16  40
HETATM   40  N5  UNL     1     -30.899   6.186 -33.203  1.00  0.00    -0.072 N 
ATOM     41  H53 UNL     1     -31.598   6.610 -32.591  1.00  0.00     0.274 HD
ATOM     42  H52 UNL     1     -30.092   6.713 -32.869  1.00  0.00     0.274 HD
ATOM     43  H51 UNL     1     -31.093   6.339 -34.192  1.00  0.00     0.274 HD
ENDBRANCH  16  40
ENDBRANCH  10  11
ENDBRANCH   6  10
ENDBRANCH   3   6
TORSDOF 13
ENDMDL
MODEL 2
REMARK VINA RESULT: -5.953249227      3.328      8.106
REMARK  13 active torsions:
REMARK  status: ('A' for Active; 'I' for Inactive)
REMARK    1  A    between atoms: C3_3  and  O1_4 
REMARK    2  A    between atoms: C3_3  and  C4_6 
REMARK    3  A    between atoms: C4_6  and  C5_7 
REMARK    4  A    between atoms: C4_6  and  O3_10 
REMARK    5  A    between atoms: C5_7  and  O2_8 
REMARK    6  A    between atoms: O3_10  and  C6_11 
REMARK    7  A    between atoms: C7_13  and  O4_14 
REMARK    8  A    between atoms: O4_14  and  C8_15 
REMARK    9  A    between atoms: C9_16  and  N1_17 
REMARK   10  A    between atoms: C11_22  and  N2_23 
REMARK   11  A    between atoms: C13_28  and  N3_29 
REMARK   12  A    between atoms: C14_33  and  N4_34 
REMARK   13  A    between atoms: C16_39  and  N5_40 
ROOT
HETATM    1  C1  UNL     1     -31.578   6.873 -22.975  1.00  0.00     0.100 C 
HETATM    2  C2  UNL     1     -31.469   5.715 -23.346  1.00  0.00    -0.154 C 
HETATM    3  C3  UNL     1     -31.331   4.322 -23.773  1.00  0.00     0.214 C 
ENDROOT
BRANCH   3   4
HETATM    4  O1  UNL     1     -30.472   3.703 -22.865  1.00  0.00    -0.382 OA
ATOM      5  H1  UNL     1     -30.524   2.768 -23.028  1.00  0.00     0.211 HD
ENDBRANCH   3   4
BRANCH   3   6
HETATM    6  C4  UNL     1     -30.777   4.282 -25.178  1.00  0.00     0.186 C 
BRANCH   6   7
HETATM    7  C5  UNL     1     -30.963   2.869 -25.696  1.00  0.00     0.199 C 
BRANCH   7   8
HETATM    8  O2  UNL     1     -31.821   2.216 -24.842  1.00  0.00    -0.398 OA
ATOM      9  H2  UNL     1     -32.212   1.492 -25.318  1.00  0.00     0.209 HD
ENDBRANCH   7   8
ENDBRANCH   6   7
BRANCH   6  10
HETATM   10  O3  UNL     1     -31.306   5.233 -26.004  1.00  0.00    -0.362 OA
BRANCH  10  11
HETATM   11  C6  UNL     1     -30.407   5.967 -26.729  1.00  0.00     0.216 C 
HETATM   12  S1  UNL     1     -30.483   5.472 -28.488  1.00  0.00    -0.101 SA
HETATM   13  C7  UNL     1     -31.265   6.751 -29.496  1.00  0.00     0.216 C 
HETATM   14  C14 UNL     1     -30.702   8.139 -29.120  1.00  0.00     0.224 C 
HETATM   15  C15 UNL     1     -29.933   8.080 -27.839  1.00  0.00     0.072 C 
HETATM   16  C16 UNL     1     -30.678   7.459 -26.704  1.00  0.00     0.224 C 
BRANCH  13  17
HETATM   17  O4  UNL     1     -30.980   6.568 -30.791  1.00  0.00    -0.364 OA
BRANCH  17  18
HETATM   18  C8  UNL     1     -31.896   6.057 -31.638  1.00  0.00     0.184 C 
HETATM   19  C9  UNL     1     -31.198   5.262 -32.710  1.00  0.00     0.216 C 
HETATM   20  C10 UNL     1     -32.185   4.698 -33.683  1.00  0.00     0.068 C 
HETATM   21  C11 UNL     1     -33.622   4.923 -33.387  1.00  0.00     0.187 C 
HETATM   22  C12 UNL     1     -33.967   6.299 -32.906  1.00  0.00     0.068 C 
HETATM   23  C13 UNL     1     -32.785   7.044 -32.329  1.00  0.00     0.216 C 
BRANCH  19  24
HETATM   24  N1  UNL     1     -30.401   4.220 -32.079  1.00  0.00    -0.072 N 
ATOM     25  H13 UNL     1     -29.433   4.220 -32.402  1.00  0.00     0.274 HD
ATOM     26  H12 UNL     1     -30.222   4.409 -31.093  1.00  0.00     0.274 HD
ATOM     27  H11 UNL     1     -30.860   3.321 -32.225  1.00  0.00     0.274 HD
ENDBRANCH  19  24
BRANCH  21  28
HETATM   28  N2  UNL     1     -34.162   3.908 -32.500  1.00  0.00    -0.075 N 
ATOM     29  H23 UNL     1     -33.422   3.452 -31.966  1.00  0.00     0.274 HD
ATOM     30  H22 UNL     1     -34.681   4.329 -31.729  1.00  0.00     0.274 HD
ATOM     31  H21 UNL     1     -34.731   3.225 -33.000  1.00  0.00     0.274 HD
ENDBRANCH  21  28
BRANCH  23  32
HETATM   32  N3  UNL     1     -32.143   7.744 -33.420  1.00  0.00    -0.072 N 
ATOM     33  H33 UNL     1     -31.410   7.169 -33.835  1.00  0.00     0.274 HD
ATOM     34  H32 UNL     1     -32.773   7.820 -34.218  1.00  0.00     0.274 HD
ATOM     35  H31 UNL     1     -31.777   8.661 -33.161  1.00  0.00     0.274 HD
ENDBRANCH  23  32
ENDBRANCH  17  18
ENDBRANCH  13  17
BRANCH  14  36
HETATM   36  N4  UNL     1     -31.727   9.130 -29.012  1.00  0.00    -0.072 N 
ATOM     37  H43 UNL     1     -31.951   9.529 -29.924  1.00  0.00     0.274 HD
ATOM     38  H42 UNL     1     -32.628   8.705 -28.794  1.00  0.00     0.274 HD
ATOM     39  H41 UNL     1     -31.491   9.860 -28.339  1.00  0.00     0.274 HD
ENDBRANCH  14  36
BRANCH  16  40
HETATM   40  N5  UNL     1     -32.099   7.643 -26.760  1.00  0.00    -0.072 N 
ATOM     41  H53 UNL     1     -32.606   6.773 -26.924  1.00  0.00     0.274 HD
ATOM     42  H52 UNL     1     -32.506   7.865 -25.851  1.00  0.00     0.274 HD
ATOM     43  H51 UNL     1     -32.291   8.353 -27.466  1.00  0.00     0.274 HD
ENDBRANCH  16  40
ENDBRANCH  10  11
ENDBRANCH   6  10
ENDBRANCH   3   6
TORSDOF 13
ENDMDL
MODEL 3
REMARK VINA RESULT: -5.676327162      4.124      7.575
REMARK  13 active torsions:
REMARK  status: ('A' for Active; 'I' for Inactive)
REMARK    1  A    between atoms: C3_3  and  O1_4 
REMARK    2  A    between atoms: C3_3  and  C4_6 
REMARK    3  A    between atoms: C4_6  and  C5_7 
REMARK    4  A    between atoms: C4_6  and  O3_10 
REMARK    5  A    between atoms: C5_7  and  O2_8 
REMARK    6  A    between atoms: O3_10  and  C6_11 
REMARK    7  A    between atoms: C7_13  and  O4_14 
REMARK    8  A    between atoms: O4_14  and  C8_15 
REMARK    9  A    between atoms: C9_16  and  N1_17 
REMARK   10  A    between atoms: C11_22  and  N2_23 
REMARK   11  A    between atoms: C13_28  and  N3_29 
REMARK   12  A    between atoms: C14_33  and  N4_34 
REMARK   13  A    between atoms: C16_39  and  N5_40 
ROOT
HETATM    1  C1  UNL     1     -31.616   7.057 -23.336  1.00  0.00     0.100 C 
HETATM    2  C2  UNL     1     -31.542   5.854 -23.531  1.00  0.00    -0.154 C 
HETATM    3  C3  UNL     1     -31.448   4.410 -23.744  1.00  0.00     0.214 C 
ENDROOT
BRANCH   3   4
HETATM    4  O1  UNL     1     -30.807   3.875 -22.627  1.00  0.00    -0.382 OA
ATOM      5  H1  UNL     1     -30.141   4.499 -22.364  1.00  0.00     0.211 HD
ENDBRANCH   3   4
BRANCH   3   6
HETATM    6  C4  UNL     1     -30.670   4.141 -25.012  1.00  0.00     0.186 C 
BRANCH   6   7
HETATM    7  C5  UNL     1     -31.250   2.888 -25.638  1.00  0.00     0.199 C 
BRANCH   7   8
HETATM    8  O2  UNL     1     -31.952   2.215 -24.666  1.00  0.00    -0.398 OA
ATOM      9  H2  UNL     1     -31.566   2.429 -23.825  1.00  0.00     0.209 HD
ENDBRANCH   7   8
ENDBRANCH   6   7
BRANCH   6  10
HETATM   10  O3  UNL     1     -30.632   5.205 -25.868  1.00  0.00    -0.362 OA
BRANCH  10  11
HETATM   11  C6  UNL     1     -30.885   4.928 -27.184  1.00  0.00     0.216 C 
HETATM   12  S1  UNL     1     -31.548   6.418 -28.012  1.00  0.00    -0.101 SA
HETATM   13  C7  UNL     1     -30.329   7.141 -29.133  1.00  0.00     0.216 C 
HETATM   14  C14 UNL     1     -29.665   6.033 -29.979  1.00  0.00     0.224 C 
HETATM   15  C15 UNL     1     -29.965   4.678 -29.422  1.00  0.00     0.072 C 
HETATM   16  C16 UNL     1     -29.652   4.528 -27.969  1.00  0.00     0.224 C 
BRANCH  13  17
HETATM   17  O4  UNL     1     -30.923   7.971 -30.000  1.00  0.00    -0.364 OA
BRANCH  17  18
HETATM   18  C8  UNL     1     -32.247   8.216 -29.930  1.00  0.00     0.184 C 
HETATM   19  C9  UNL     1     -32.864   8.018 -31.290  1.00  0.00     0.216 C 
HETATM   20  C10 UNL     1     -34.332   8.303 -31.255  1.00  0.00     0.068 C 
HETATM   21  C11 UNL     1     -34.922   8.623 -29.930  1.00  0.00     0.187 C 
HETATM   22  C12 UNL     1     -34.107   9.542 -29.073  1.00  0.00     0.068 C 
HETATM   23  C13 UNL     1     -32.646   9.579 -29.459  1.00  0.00     0.216 C 
BRANCH  19  24
HETATM   24  N1  UNL     1     -32.586   6.661 -31.740  1.00  0.00    -0.072 N 
ATOM     25  H13 UNL     1     -31.744   6.606 -32.313  1.00  0.00     0.274 HD
ATOM     26  H12 UNL     1     -32.281   6.053 -30.979  1.00  0.00     0.274 HD
ATOM     27  H11 UNL     1     -33.409   6.298 -32.221  1.00  0.00     0.274 HD
ENDBRANCH  19  24
BRANCH  21  28
HETATM   28  N2  UNL     1     -35.303   7.426 -29.200  1.00  0.00    -0.075 N 
ATOM     29  H23 UNL     1     -35.945   6.850 -29.743  1.00  0.00     0.274 HD
ATOM     30  H22 UNL     1     -34.522   6.774 -29.128  1.00  0.00     0.274 HD
ATOM     31  H21 UNL     1     -35.689   7.645 -28.281  1.00  0.00     0.274 HD
ENDBRANCH  21  28
BRANCH  23  32
HETATM   32  N3  UNL     1     -32.491  10.612 -30.460  1.00  0.00    -0.072 N 
ATOM     33  H33 UNL     1     -33.172  10.491 -31.210  1.00  0.00     0.274 HD
ATOM     34  H32 UNL     1     -32.796  11.514 -30.096  1.00  0.00     0.274 HD
ATOM     35  H31 UNL     1     -31.546  10.678 -30.840  1.00  0.00     0.274 HD
ENDBRANCH  23  32
ENDBRANCH  17  18
ENDBRANCH  13  17
BRANCH  14  36
HETATM   36  N4  UNL     1     -28.249   6.202 -30.080  1.00  0.00    -0.072 N 
ATOM     37  H43 UNL     1     -27.942   6.165 -31.052  1.00  0.00     0.274 HD
ATOM     38  H42 UNL     1     -27.976   7.159 -29.858  1.00  0.00     0.274 HD
ATOM     39  H41 UNL     1     -27.737   5.531 -29.507  1.00  0.00     0.274 HD
ENDBRANCH  14  36
BRANCH  16  40
HETATM   40  N5  UNL     1     -28.563   5.342 -27.513  1.00  0.00    -0.072 N 
ATOM     41  H53 UNL     1     -28.148   5.903 -28.257  1.00  0.00     0.274 HD
ATOM     42  H52 UNL     1     -28.867   6.113 -26.918  1.00  0.00     0.274 HD
ATOM     43  H51 UNL     1     -27.890   4.729 -27.056  1.00  0.00     0.274 HD
ENDBRANCH  16  40
ENDBRANCH  10  11
ENDBRANCH   6  10
ENDBRANCH   3   6
TORSDOF 13
ENDMDL
MODEL 4
REMARK VINA RESULT: -5.645942215      6.151     10.958
REMARK  13 active torsions:
REMARK  status: ('A' for Active; 'I' for Inactive)
REMARK    1  A    between atoms: C3_3  and  O1_4 
REMARK    2  A    between atoms: C3_3  and  C4_6 
REMARK    3  A    between atoms: C4_6  and  C5_7 
REMARK    4  A    between atoms: C4_6  and  O3_10 
REMARK    5  A    between atoms: C5_7  and  O2_8 
REMARK    6  A    between atoms: O3_10  and  C6_11 
REMARK    7  A    between atoms: C7_13  and  O4_14 
REMARK    8  A    between atoms: O4_14  and  C8_15 
REMARK    9  A    between atoms: C9_16  and  N1_17 
REMARK   10  A    between atoms: C11_22  and  N2_23 
REMARK   11  A    between atoms: C13_28  and  N3_29 
REMARK   12  A    between atoms: C14_33  and  N4_34 
REMARK   13  A    between atoms: C16_39  and  N5_40 
ROOT
HETATM    1  C1  UNL     1     -34.603   9.696 -19.643  1.00  0.00     0.100 C 
HETATM    2  C2  UNL     1     -35.625   9.556 -20.295  1.00  0.00    -0.154 C 
HETATM    3  C3  UNL     1     -36.860   9.383 -21.060  1.00  0.00     0.214 C 
ENDROOT
BRANCH   3   4
HETATM    4  O1  UNL     1     -37.774   8.748 -20.219  1.00  0.00    -0.382 OA
ATOM      5  H1  UNL     1     -38.355   9.421 -19.884  1.00  0.00     0.211 HD
ENDBRANCH   3   4
BRANCH   3   6
HETATM    6  C4  UNL     1     -36.574   8.558 -22.293  1.00  0.00     0.186 C 
BRANCH   6   7
HETATM    7  C5  UNL     1     -37.599   7.442 -22.337  1.00  0.00     0.199 C 
BRANCH   7   8
HETATM    8  O2  UNL     1     -37.104   6.444 -23.142  1.00  0.00    -0.398 OA
ATOM      9  H2  UNL     1     -37.628   5.664 -22.998  1.00  0.00     0.209 HD
ENDBRANCH   7   8
ENDBRANCH   6   7
BRANCH   6  10
HETATM   10  O3  UNL     1     -36.524   9.291 -23.445  1.00  0.00    -0.362 OA
BRANCH  10  11
HETATM   11  C6  UNL     1     -35.447  10.124 -23.582  1.00  0.00     0.216 C 
HETATM   12  S1  UNL     1     -33.903   9.143 -23.570  1.00  0.00    -0.101 SA
HETATM   13  C7  UNL     1     -33.159   9.072 -25.215  1.00  0.00     0.216 C 
HETATM   14  C14 UNL     1     -33.164  10.476 -25.859  1.00  0.00     0.224 C 
HETATM   15  C15 UNL     1     -34.053  11.412 -25.105  1.00  0.00     0.072 C 
HETATM   16  C16 UNL     1     -35.439  10.899 -24.885  1.00  0.00     0.224 C 
BRANCH  13  17
HETATM   17  O4  UNL     1     -31.876   8.700 -25.134  1.00  0.00    -0.364 OA
BRANCH  17  18
HETATM   18  C8  UNL     1     -31.344   7.841 -26.027  1.00  0.00     0.184 C 
HETATM   19  C9  UNL     1     -30.703   6.692 -25.295  1.00  0.00     0.216 C 
HETATM   20  C10 UNL     1     -30.082   5.728 -26.256  1.00  0.00     0.068 C 
HETATM   21  C11 UNL     1     -30.278   6.003 -27.702  1.00  0.00     0.187 C 
HETATM   22  C12 UNL     1     -30.132   7.438 -28.105  1.00  0.00     0.068 C 
HETATM   23  C13 UNL     1     -30.314   8.403 -26.956  1.00  0.00     0.216 C 
BRANCH  19  24
HETATM   24  N1  UNL     1     -31.705   6.050 -24.455  1.00  0.00    -0.072 N 
ATOM     25  H13 UNL     1     -31.413   5.987 -23.480  1.00  0.00     0.274 HD
ATOM     26  H12 UNL     1     -32.531   6.634 -24.319  1.00  0.00     0.274 HD
ATOM     27  H11 UNL     1     -31.934   5.140 -24.853  1.00  0.00     0.274 HD
ENDBRANCH  19  24
BRANCH  21  28
HETATM   28  N2  UNL     1     -31.523   5.445 -28.199  1.00  0.00    -0.075 N 
ATOM     29  H23 UNL     1     -31.547   4.431 -28.084  1.00  0.00     0.274 HD
ATOM     30  H22 UNL     1     -32.307   5.694 -27.596  1.00  0.00     0.274 HD
ATOM     31  H21 UNL     1     -31.703   5.710 -29.168  1.00  0.00     0.274 HD
ENDBRANCH  21  28
BRANCH  23  32
HETATM   32  N3  UNL     1     -29.018   8.594 -26.343  1.00  0.00    -0.072 N 
ATOM     33  H33 UNL     1     -28.459   7.743 -26.412  1.00  0.00     0.274 HD
ATOM     34  H32 UNL     1     -28.443   9.222 -26.906  1.00  0.00     0.274 HD
ATOM     35  H31 UNL     1     -29.064   8.917 -25.376  1.00  0.00     0.274 HD
ENDBRANCH  23  32
ENDBRANCH  17  18
ENDBRANCH  13  17
BRANCH  14  36
HETATM   36  N4  UNL     1     -33.565  10.443 -27.231  1.00  0.00    -0.072 N 
ATOM     37  H43 UNL     1     -33.482   9.502 -27.616  1.00  0.00     0.274 HD
ATOM     38  H42 UNL     1     -34.573  10.567 -27.322  1.00  0.00     0.274 HD
ATOM     39  H41 UNL     1     -33.057  11.120 -27.799  1.00  0.00     0.274 HD
ENDBRANCH  14  36
BRANCH  16  40
HETATM   40  N5  UNL     1     -35.914  10.022 -25.915  1.00  0.00    -0.072 N 
ATOM     41  H53 UNL     1     -35.203   9.810 -26.615  1.00  0.00     0.274 HD
ATOM     42  H52 UNL     1     -36.065   9.068 -25.585  1.00  0.00     0.274 HD
ATOM     43  H51 UNL     1     -36.752  10.441 -26.315  1.00  0.00     0.274 HD
ENDBRANCH  16  40
ENDBRANCH  10  11
ENDBRANCH   6  10
ENDBRANCH   3   6
TORSDOF 13
ENDMDL
MODEL 5
REMARK VINA RESULT: -5.627233815      6.387     11.324
REMARK  13 active torsions:
REMARK  status: ('A' for Active; 'I' for Inactive)
REMARK    1  A    between atoms: C3_3  and  O1_4 
REMARK    2  A    between atoms: C3_3  and  C4_6 
REMARK    3  A    between atoms: C4_6  and  C5_7 
REMARK    4  A    between atoms: C4_6  and  O3_10 
REMARK    5  A    between atoms: C5_7  and  O2_8 
REMARK    6  A    between atoms: O3_10  and  C6_11 
REMARK    7  A    between atoms: C7_13  and  O4_14 
REMARK    8  A    between atoms: O4_14  and  C8_15 
REMARK    9  A    between atoms: C9_16  and  N1_17 
REMARK   10  A    between atoms: C11_22  and  N2_23 
REMARK   11  A    between atoms: C13_28  and  N3_29 
REMARK   12  A    between atoms: C14_33  and  N4_34 
REMARK   13  A    between atoms: C16_39  and  N5_40 
ROOT
HETATM    1  C1  UNL     1     -38.704   6.363 -22.376  1.00  0.00     0.100 C 
HETATM    2  C2  UNL     1     -38.266   7.183 -21.585  1.00  0.00    -0.154 C 
HETATM    3  C3  UNL     1     -37.760   8.166 -20.627  1.00  0.00     0.214 C 
ENDROOT
BRANCH   3   4
HETATM    4  O1  UNL     1     -38.868   8.700 -19.968  1.00  0.00    -0.382 OA
ATOM      5  H1  UNL     1     -38.635   8.775 -19.050  1.00  0.00     0.211 HD
ENDBRANCH   3   4
BRANCH   3   6
HETATM    6  C4  UNL     1     -36.987   9.234 -21.366  1.00  0.00     0.186 C 
BRANCH   6   7
HETATM    7  C5  UNL     1     -36.351  10.132 -20.325  1.00  0.00     0.199 C 
BRANCH   7   8
HETATM    8  O2  UNL     1     -36.397   9.478 -19.116  1.00  0.00    -0.398 OA
ATOM      9  H2  UNL     1     -36.085   8.591 -19.252  1.00  0.00     0.209 HD
ENDBRANCH   7   8
ENDBRANCH   6   7
BRANCH   6  10
HETATM   10  O3  UNL     1     -36.091   8.735 -22.269  1.00  0.00    -0.362 OA
BRANCH  10  11
HETATM   11  C6  UNL     1     -35.166   9.621 -22.751  1.00  0.00     0.216 C 
HETATM   12  S1  UNL     1     -33.537   8.799 -22.888  1.00  0.00    -0.101 SA
HETATM   13  C7  UNL     1     -33.100   8.496 -24.615  1.00  0.00     0.216 C 
HETATM   14  C14 UNL     1     -33.392   9.753 -25.463  1.00  0.00     0.224 C 
HETATM   15  C15 UNL     1     -34.237  10.728 -24.708  1.00  0.00     0.072 C 
HETATM   16  C16 UNL     1     -35.487  10.144 -24.137  1.00  0.00     0.224 C 
BRANCH  13  17
HETATM   17  O4  UNL     1     -31.788   8.259 -24.732  1.00  0.00    -0.364 OA
BRANCH  17  18
HETATM   18  C8  UNL     1     -31.303   7.528 -25.756  1.00  0.00     0.184 C 
HETATM   19  C9  UNL     1     -30.652   6.282 -25.217  1.00  0.00     0.216 C 
HETATM   20  C10 UNL     1     -30.081   5.456 -26.326  1.00  0.00     0.068 C 
HETATM   21  C11 UNL     1     -30.327   5.932 -27.711  1.00  0.00     0.187 C 
HETATM   22  C12 UNL     1     -30.174   7.408 -27.916  1.00  0.00     0.068 C 
HETATM   23  C13 UNL     1     -30.299   8.204 -26.638  1.00  0.00     0.216 C 
BRANCH  19  24
HETATM   24  N1  UNL     1     -31.631   5.539 -24.436  1.00  0.00    -0.072 N 
ATOM     25  H13 UNL     1     -31.413   5.535 -23.439  1.00  0.00     0.274 HD
ATOM     26  H12 UNL     1     -32.531   6.018 -24.382  1.00  0.00     0.274 HD
ATOM     27  H11 UNL     1     -31.714   4.598 -24.820  1.00  0.00     0.274 HD
ENDBRANCH  19  24
BRANCH  21  28
HETATM   28  N2  UNL     1     -31.598   5.460 -28.232  1.00  0.00    -0.075 N 
ATOM     29  H23 UNL     1     -31.845   4.552 -27.839  1.00  0.00     0.274 HD
ATOM     30  H22 UNL     1     -32.374   6.011 -27.866  1.00  0.00     0.274 HD
ATOM     31  H21 UNL     1     -31.609   5.437 -29.252  1.00  0.00     0.274 HD
ENDBRANCH  21  28
BRANCH  23  32
HETATM   32  N3  UNL     1     -28.979   8.295 -26.055  1.00  0.00    -0.072 N 
ATOM     33  H33 UNL     1     -28.764   9.260 -25.800  1.00  0.00     0.274 HD
ATOM     34  H32 UNL     1     -28.964   7.866 -25.130  1.00  0.00     0.274 HD
ATOM     35  H31 UNL     1     -28.241   7.906 -26.644  1.00  0.00     0.274 HD
ENDBRANCH  23  32
ENDBRANCH  17  18
ENDBRANCH  13  17
BRANCH  14  36
HETATM   36  N4  UNL     1     -34.027   9.435 -26.704  1.00  0.00    -0.072 N 
ATOM     37  H43 UNL     1     -33.612   9.959 -27.475  1.00  0.00     0.274 HD
ATOM     38  H42 UNL     1     -33.794   8.489 -27.005  1.00  0.00     0.274 HD
ATOM     39  H41 UNL     1     -35.038   9.572 -26.668  1.00  0.00     0.274 HD
ENDBRANCH  14  36
BRANCH  16  40
HETATM   40  N5  UNL     1     -36.030   9.055 -24.896  1.00  0.00    -0.072 N 
ATOM     41  H53 UNL     1     -35.587   8.162 -24.682  1.00  0.00     0.274 HD
ATOM     42  H52 UNL     1     -36.978   8.807 -24.611  1.00  0.00     0.274 HD
ATOM     43  H51 UNL     1     -35.965   9.304 -25.883  1.00  0.00     0.274 HD
ENDBRANCH  16  40
ENDBRANCH  10  11
ENDBRANCH   6  10
ENDBRANCH   3   6
TORSDOF 13
ENDMDL
