MODEL 1
REMARK VINA RESULT: -5.017850002      0.000      0.000
REMARK  0 active torsions:
REMARK  status: ('A' for Active; 'I' for Inactive)
ROOT
HETATM    1  N1  UNL     1       1.818  73.385  81.752  1.00  0.00    -0.195 NA
HETATM    2  C1  UNL     1       1.290  73.283  80.728  1.00  0.00     0.095 C 
HETATM    3  C2  UNL     1       0.600  73.173  79.421  1.00  0.00     0.328 C 
HETATM    4  N2  UNL     1      -0.407  74.244  79.378  1.00  0.00    -0.030 N 
ATOM      5  H21 UNL     1      -0.315  74.914  78.614  1.00  0.00     0.280 HD
ATOM      6  H22 UNL     1      -0.339  74.951  80.111  1.00  0.00     0.280 HD
HETATM    7  C3  UNL     1      -1.632  73.435  79.378  1.00  0.00     0.505 C 
HETATM    8  N3  UNL     1      -1.393  72.413  78.549  1.00  0.00     0.125 N 
HETATM    9  C4  UNL     1      -0.704  71.354  78.140  1.00  0.00     0.314 A 
HETATM   10  C5  UNL     1      -0.150  71.886  79.313  1.00  0.00     0.297 A 
ENDROOT
TORSDOF 0
ENDMDL
MODEL 2
REMARK VINA RESULT: -4.881630928      2.779      4.072
REMARK  0 active torsions:
REMARK  status: ('A' for Active; 'I' for Inactive)
ROOT
HETATM    1  N1  UNL     1       1.601  73.273  81.913  1.00  0.00    -0.195 NA
HETATM    2  C1  UNL     1       1.207  74.119  81.229  1.00  0.00     0.095 C 
HETATM    3  C2  UNL     1       0.712  75.190  80.332  1.00  0.00     0.328 C 
HETATM    4  N2  UNL     1       1.138  74.837  78.969  1.00  0.00    -0.030 N 
ATOM      5  H21 UNL     1       0.392  74.723  78.283  1.00  0.00     0.280 HD
ATOM      6  H22 UNL     1       1.505  73.893  78.846  1.00  0.00     0.280 HD
HETATM    7  C3  UNL     1       2.084  75.931  78.713  1.00  0.00     0.505 C 
HETATM    8  N3  UNL     1       1.505  77.034  79.200  1.00  0.00     0.125 N 
HETATM    9  C4  UNL     1       0.950  77.753  80.168  1.00  0.00     0.314 A 
HETATM   10  C5  UNL     1       1.357  76.500  80.648  1.00  0.00     0.297 A 
ENDROOT
TORSDOF 0
ENDMDL
MODEL 3
REMARK VINA RESULT: -4.823654515      4.172      4.865
REMARK  0 active torsions:
REMARK  status: ('A' for Active; 'I' for Inactive)
ROOT
HETATM    1  N1  UNL     1       4.401  78.205  77.751  1.00  0.00    -0.195 NA
HETATM    2  C1  UNL     1       3.509  77.472  77.829  1.00  0.00     0.095 C 
HETATM    3  C2  UNL     1       2.352  76.552  77.923  1.00  0.00     0.328 C 
HETATM    4  N2  UNL     1       1.154  77.334  77.578  1.00  0.00    -0.030 N 
ATOM      5  H21 UNL     1       0.615  76.997  76.781  1.00  0.00     0.280 HD
ATOM      6  H22 UNL     1       1.324  78.256  77.174  1.00  0.00     0.280 HD
HETATM    7  C3  UNL     1       0.465  77.318  78.874  1.00  0.00     0.505 C 
HETATM    8  N3  UNL     1       0.601  76.074  79.343  1.00  0.00     0.125 N 
HETATM    9  C4  UNL     1       1.317  75.021  79.722  1.00  0.00     0.314 A 
HETATM   10  C5  UNL     1       2.152  76.074  79.324  1.00  0.00     0.297 A 
ENDROOT
TORSDOF 0
ENDMDL
MODEL 4
REMARK VINA RESULT: -4.811913794      3.338      4.580
REMARK  0 active torsions:
REMARK  status: ('A' for Active; 'I' for Inactive)
ROOT
HETATM    1  N1  UNL     1       0.052  77.700  78.576  1.00  0.00    -0.195 NA
HETATM    2  C1  UNL     1       0.429  77.140  79.516  1.00  0.00     0.095 C 
HETATM    3  C2  UNL     1       0.936  76.435  80.717  1.00  0.00     0.328 C 
HETATM    4  N2  UNL     1       2.305  76.920  80.952  1.00  0.00    -0.030 N 
ATOM      5  H21 UNL     1       2.473  77.361  81.856  1.00  0.00     0.280 HD
ATOM      6  H22 UNL     1       2.588  77.738  80.411  1.00  0.00     0.280 HD
HETATM    7  C3  UNL     1       3.055  75.686  80.689  1.00  0.00     0.505 C 
HETATM    8  N3  UNL     1       2.354  74.705  81.267  1.00  0.00     0.125 N 
HETATM    9  C4  UNL     1       1.254  73.985  81.456  1.00  0.00     0.314 A 
HETATM   10  C5  UNL     1       1.046  74.965  80.475  1.00  0.00     0.297 A 
ENDROOT
TORSDOF 0
ENDMDL
MODEL 5
REMARK VINA RESULT: -4.690671970      1.607      2.523
REMARK  0 active torsions:
REMARK  status: ('A' for Active; 'I' for Inactive)
ROOT
HETATM    1  N1  UNL     1      -0.380  76.356  79.404  1.00  0.00    -0.195 NA
HETATM    2  C1  UNL     1      -0.716  75.278  79.654  1.00  0.00     0.095 C 
HETATM    3  C2  UNL     1      -1.122  73.888  79.970  1.00  0.00     0.328 C 
HETATM    4  N2  UNL     1       0.068  73.042  79.786  1.00  0.00    -0.030 N 
ATOM      5  H21 UNL     1       0.375  72.519  80.606  1.00  0.00     0.280 HD
ATOM      6  H22 UNL     1       0.953  73.536  79.670  1.00  0.00     0.280 HD
HETATM    7  C3  UNL     1      -0.373  72.239  78.639  1.00  0.00     0.505 C 
HETATM    8  N3  UNL     1      -1.650  71.925  78.884  1.00  0.00     0.125 N 
HETATM    9  C4  UNL     1      -2.916  72.228  79.147  1.00  0.00     0.314 A 
HETATM   10  C5  UNL     1      -2.145  73.390  79.002  1.00  0.00     0.297 A 
ENDROOT
TORSDOF 0
ENDMDL
