MODEL 1
REMARK VINA RESULT: -4.598754922      0.000      0.000
REMARK  1 active torsions:
REMARK  status: ('A' for Active; 'I' for Inactive)
REMARK    1  A    between atoms: C5_9  and  O1_10 
ROOT
HETATM    1  C1  UNL     1       1.046  74.370  81.431  1.00  0.00     0.312 C 
HETATM    2  N1  UNL     1       0.874  75.760  81.097  1.00  0.00     0.120 N 
HETATM    3  C2  UNL     1       2.168  76.339  80.672  1.00  0.00     0.310 C 
HETATM    4  C3  UNL     1       1.800  76.726  79.275  1.00  0.00     0.249 C 
HETATM    5  N2  UNL     1       0.998  75.596  78.797  1.00  0.00    -0.032 N 
ATOM      6  H21 UNL     1       1.377  74.655  78.689  1.00  0.00     0.280 HD
ATOM      7  H22 UNL     1       0.680  75.513  77.831  1.00  0.00     0.280 HD
HETATM    8  C4  UNL     1       0.109  75.972  79.896  1.00  0.00     0.450 C 
HETATM    9  C5  UNL     1       0.457  77.416  79.502  1.00  0.00     0.211 C 
ENDROOT
BRANCH   9  10
HETATM   10  O1  UNL     1      -0.100  77.791  78.297  1.00  0.00    -0.389 OA
ATOM     11  H1  UNL     1      -1.024  77.983  78.405  1.00  0.00     0.210 HD
ENDBRANCH   9  10
TORSDOF 1
ENDMDL
MODEL 2
REMARK VINA RESULT: -4.517735341      2.431      3.412
REMARK  1 active torsions:
REMARK  status: ('A' for Active; 'I' for Inactive)
REMARK    1  A    between atoms: C5_9  and  O1_10 
ROOT
HETATM    1  C1  UNL     1       0.457  76.962  79.220  1.00  0.00     0.312 C 
HETATM    2  N1  UNL     1       0.204  76.091  80.337  1.00  0.00     0.120 N 
HETATM    3  C2  UNL     1      -0.740  75.023  79.939  1.00  0.00     0.310 C 
HETATM    4  C3  UNL     1       0.141  73.838  80.169  1.00  0.00     0.249 C 
HETATM    5  N2  UNL     1       1.447  74.266  79.661  1.00  0.00    -0.032 N 
ATOM      6  H21 UNL     1       1.612  74.496  78.680  1.00  0.00     0.280 HD
ATOM      7  H22 UNL     1       2.245  73.635  79.584  1.00  0.00     0.280 HD
HETATM    8  C4  UNL     1       1.338  75.285  80.705  1.00  0.00     0.450 C 
HETATM    9  C5  UNL     1       0.716  74.159  81.547  1.00  0.00     0.211 C 
ENDROOT
BRANCH   9  10
HETATM   10  O1  UNL     1       1.635  73.199  81.919  1.00  0.00    -0.389 OA
ATOM     11  H1  UNL     1       1.192  72.439  82.278  1.00  0.00     0.210 HD
ENDBRANCH   9  10
TORSDOF 1
ENDMDL
MODEL 3
REMARK VINA RESULT: -4.475610420      1.526      1.917
REMARK  1 active torsions:
REMARK  status: ('A' for Active; 'I' for Inactive)
REMARK    1  A    between atoms: C5_9  and  O1_10 
ROOT
HETATM    1  C1  UNL     1       3.347  75.856  79.744  1.00  0.00     0.312 C 
HETATM    2  N1  UNL     1       1.916  75.985  79.660  1.00  0.00     0.120 N 
HETATM    3  C2  UNL     1       1.453  77.061  80.564  1.00  0.00     0.310 C 
HETATM    4  C3  UNL     1       0.850  77.975  79.546  1.00  0.00     0.249 C 
HETATM    5  N2  UNL     1       1.802  77.937  78.432  1.00  0.00    -0.032 N 
ATOM      6  H21 UNL     1       2.761  78.274  78.512  1.00  0.00     0.280 HD
ATOM      7  H22 UNL     1       1.721  78.544  77.615  1.00  0.00     0.280 HD
HETATM    8  C4  UNL     1       1.460  76.515  78.401  1.00  0.00     0.450 C 
HETATM    9  C5  UNL     1       0.033  76.992  78.712  1.00  0.00     0.211 C 
ENDROOT
BRANCH   9  10
HETATM   10  O1  UNL     1      -0.559  77.641  77.648  1.00  0.00    -0.389 OA
ATOM     11  H1  UNL     1       0.104  77.970  77.051  1.00  0.00     0.210 HD
ENDBRANCH   9  10
TORSDOF 1
ENDMDL
MODEL 4
REMARK VINA RESULT: -4.360043450      2.193      2.693
REMARK  1 active torsions:
REMARK  status: ('A' for Active; 'I' for Inactive)
REMARK    1  A    between atoms: C5_9  and  O1_10 
ROOT
HETATM    1  C1  UNL     1       1.102  77.025  80.834  1.00  0.00     0.312 C 
HETATM    2  N1  UNL     1       2.392  76.941  80.202  1.00  0.00     0.120 N 
HETATM    3  C2  UNL     1       2.993  75.613  80.457  1.00  0.00     0.310 C 
HETATM    4  C3  UNL     1       3.096  75.131  79.046  1.00  0.00     0.249 C 
HETATM    5  N2  UNL     1       1.836  75.564  78.433  1.00  0.00    -0.032 N 
ATOM      6  H21 UNL     1       0.926  75.217  78.735  1.00  0.00     0.280 HD
ATOM      7  H22 UNL     1       1.559  75.294  77.489  1.00  0.00     0.280 HD
HETATM    8  C4  UNL     1       2.325  76.903  78.764  1.00  0.00     0.450 C 
HETATM    9  C5  UNL     1       3.701  76.352  78.358  1.00  0.00     0.211 C 
ENDROOT
BRANCH   9  10
HETATM   10  O1  UNL     1       3.811  76.133  77.000  1.00  0.00    -0.389 OA
ATOM     11  H1  UNL     1       3.683  76.944  76.523  1.00  0.00     0.210 HD
ENDBRANCH   9  10
TORSDOF 1
ENDMDL
MODEL 5
REMARK VINA RESULT: -4.348463485      3.907      4.520
REMARK  1 active torsions:
REMARK  status: ('A' for Active; 'I' for Inactive)
REMARK    1  A    between atoms: C5_9  and  O1_10 
ROOT
HETATM    1  C1  UNL     1       0.620  73.450  79.193  1.00  0.00     0.312 C 
HETATM    2  N1  UNL     1      -0.633  73.004  79.745  1.00  0.00     0.120 N 
HETATM    3  C2  UNL     1      -1.297  74.121  80.452  1.00  0.00     0.310 C 
HETATM    4  C3  UNL     1      -2.542  74.208  79.628  1.00  0.00     0.249 C 
HETATM    5  N2  UNL     1      -2.068  74.029  78.253  1.00  0.00    -0.032 N 
ATOM      6  H21 UNL     1      -1.436  74.687  77.796  1.00  0.00     0.280 HD
ATOM      7  H22 UNL     1      -2.674  74.140  77.440  1.00  0.00     0.280 HD
HETATM    8  C4  UNL     1      -1.632  72.723  78.747  1.00  0.00     0.450 C 
HETATM    9  C5  UNL     1      -2.945  72.738  79.544  1.00  0.00     0.211 C 
ENDROOT
BRANCH   9  10
HETATM   10  O1  UNL     1      -4.059  72.592  78.743  1.00  0.00    -0.389 OA
ATOM     11  H1  UNL     1      -4.683  73.288  78.913  1.00  0.00     0.210 HD
ENDBRANCH   9  10
TORSDOF 1
ENDMDL
