MODEL 1
REMARK VINA RESULT: -9.702871560      0.000      0.000
REMARK  14 active torsions:
REMARK  status: ('A' for Active; 'I' for Inactive)
REMARK    1  A    between atoms: C4_4  and  C5_5 
REMARK    2  A    between atoms: C6_6  and  C7_7 
REMARK    3  A    between atoms: C7_7  and  C8_8 
REMARK    4  A    between atoms: C8_8  and  C9_9 
REMARK    5  A    between atoms: C9_9  and  C10_10 
REMARK    6  A    between atoms: C10_10  and  C11_11 
REMARK    7  A    between atoms: C11_11  and  C12_12 
REMARK    8  A    between atoms: C12_12  and  C13_13 
REMARK    9  A    between atoms: C13_13  and  C14_14 
REMARK   10  A    between atoms: C14_14  and  N1_15 
REMARK       I    between atoms: N1_15  and  C15_17 
REMARK   11  A    between atoms: C15_17  and  C16_19 
REMARK   12  A    between atoms: C16_19  and  C17_20 
REMARK   13  A    between atoms: C17_20  and  C18_21 
REMARK   14  A    between atoms: C18_21  and  N2_22 
ROOT
HETATM    1  C1  UNL     1     -21.890   8.901 -19.393  1.00  0.00     0.027 C 
HETATM    2  C2  UNL     1     -20.847   8.885 -18.800  1.00  0.00    -0.025 C 
HETATM    3  C3  UNL     1     -19.620   8.852 -18.074  1.00  0.00    -0.002 C 
HETATM    4  C4  UNL     1     -18.591   8.807 -17.449  1.00  0.00    -0.001 C 
ENDROOT
BRANCH   4   5
HETATM    5  C5  UNL     1     -17.382   8.744 -16.681  1.00  0.00    -0.014 C 
HETATM    6  C6  UNL     1     -16.380   8.674 -16.017  1.00  0.00    -0.092 C 
BRANCH   6   7
HETATM    7  C7  UNL     1     -15.193   8.571 -15.190  1.00  0.00     0.095 C 
BRANCH   7   8
HETATM    8  C8  UNL     1     -14.302   9.756 -15.335  1.00  0.00     0.012 C 
BRANCH   8   9
HETATM    9  C9  UNL     1     -14.117  10.044 -16.828  1.00  0.00     0.001 C 
BRANCH   9  10
HETATM   10  C10 UNL     1     -13.918  11.527 -17.040  1.00  0.00     0.000 C 
BRANCH  10  11
HETATM   11  C11 UNL     1     -14.942  12.097 -17.986  1.00  0.00     0.000 C 
BRANCH  11  12
HETATM   12  C12 UNL     1     -14.385  12.514 -19.311  1.00  0.00     0.002 C 
BRANCH  12  13
HETATM   13  C13 UNL     1     -15.406  12.317 -20.437  1.00  0.00     0.020 C 
BRANCH  13  14
HETATM   14  C14 UNL     1     -16.193  11.076 -20.158  1.00  0.00     0.122 C 
BRANCH  14  15
HETATM   15  N1  UNL     1     -17.516  11.181 -20.722  1.00  0.00    -0.361 N 
HETATM   16  C15 UNL     1     -18.578  11.746 -20.017  1.00  0.00     0.217 C 
HETATM   17  O1  UNL     1     -18.524  12.216 -18.875  1.00  0.00    -0.274 OA
ATOM     18  H1  UNL     1     -17.680  10.833 -21.666  1.00  0.00     0.162 HD
BRANCH  16  19
HETATM   19  C16 UNL     1     -19.935  11.785 -20.716  1.00  0.00     0.108 C 
BRANCH  19  20
HETATM   20  C17 UNL     1     -20.470  13.152 -20.622  1.00  0.00     0.056 C 
BRANCH  20  21
HETATM   21  C18 UNL     1     -20.152  14.081 -21.697  1.00  0.00     0.095 C 
BRANCH  21  22
HETATM   22  N2  UNL     1     -18.821  14.629 -21.882  1.00  0.00    -0.218 N 
HETATM   23  N3  UNL     1     -18.285  15.456 -20.837  1.00  0.00    -0.259 N 
HETATM   24  C19 UNL     1     -17.017  15.582 -20.337  1.00  0.00     0.254 C 
ATOM     25  H3  UNL     1     -18.974  16.057 -20.386  1.00  0.00     0.190 HD
HETATM   26  O2  UNL     1     -16.811  15.524 -19.055  1.00  0.00    -0.270 OA
HETATM   27  C20 UNL     1     -15.736  15.795 -21.102  1.00  0.00     0.227 C 
HETATM   28  N4  UNL     1     -15.634  17.166 -21.555  1.00  0.00    -0.351 N 
HETATM   29  C21 UNL     1     -14.460  17.722 -22.055  1.00  0.00     0.235 C 
ATOM     30  H4  UNL     1     -16.466  17.755 -21.505  1.00  0.00     0.163 HD
HETATM   31  O3  UNL     1     -14.332  18.994 -21.998  1.00  0.00    -0.272 OA
HETATM   32  C22 UNL     1     -13.335  16.972 -22.653  1.00  0.00     0.225 C 
HETATM   33  N5  UNL     1     -13.534  16.854 -24.087  1.00  0.00    -0.352 N 
HETATM   34  C23 UNL     1     -12.524  17.018 -25.045  1.00  0.00     0.217 C 
ATOM     35  H5  UNL     1     -14.473  16.637 -24.420  1.00  0.00     0.162 HD
HETATM   36  O4  UNL     1     -12.462  16.181 -26.014  1.00  0.00    -0.274 OA
HETATM   37  C24 UNL     1     -11.491  18.083 -25.061  1.00  0.00     0.103 C 
HETATM   38  C25 UNL     1     -11.836  19.240 -25.969  1.00  0.00     0.009 C 
HETATM   39  C26 UNL     1     -12.916  18.916 -26.965  1.00  0.00     0.000 C 
HETATM   40  C27 UNL     1     -13.173  20.133 -27.795  1.00  0.00     0.000 C 
HETATM   41  C28 UNL     1     -14.529  20.746 -27.513  1.00  0.00     0.000 C 
HETATM   42  C29 UNL     1     -15.648  19.788 -27.844  1.00  0.00     0.002 C 
HETATM   43  C30 UNL     1     -16.998  20.457 -27.864  1.00  0.00     0.020 C 
HETATM   44  C31 UNL     1     -18.094  19.469 -27.493  1.00  0.00     0.122 C 
HETATM   45  N6  UNL     1     -18.411  19.660 -26.103  1.00  0.00    -0.361 N 
HETATM   46  C32 UNL     1     -18.488  18.641 -25.138  1.00  0.00     0.219 C 
ATOM     47  H6  UNL     1     -18.595  20.614 -25.792  1.00  0.00     0.162 HD
HETATM   48  O5  UNL     1     -19.397  18.667 -24.254  1.00  0.00    -0.274 OA
HETATM   49  C33 UNL     1     -17.559  17.478 -25.052  1.00  0.00     0.122 C 
HETATM   50  C34 UNL     1     -18.327  16.216 -24.778  1.00  0.00     0.134 C 
HETATM   51  N7  UNL     1     -17.568  15.267 -24.018  1.00  0.00    -0.341 N 
HETATM   52  C35 UNL     1     -18.103  14.335 -23.061  1.00  0.00     0.341 C 
ATOM     53  H7  UNL     1     -16.559  15.251 -24.170  1.00  0.00     0.164 HD
HETATM   54  O6  UNL     1     -17.882  13.131 -23.353  1.00  0.00    -0.245 OA
ENDBRANCH  21  22
ENDBRANCH  20  21
ENDBRANCH  19  20
ENDBRANCH  16  19
ENDBRANCH  14  15
ENDBRANCH  13  14
ENDBRANCH  12  13
ENDBRANCH  11  12
ENDBRANCH  10  11
ENDBRANCH   9  10
ENDBRANCH   8   9
ENDBRANCH   7   8
ENDBRANCH   6   7
ENDBRANCH   4   5
TORSDOF 14
ENDMDL
MODEL 2
REMARK VINA RESULT: -8.683388308      2.728      5.571
REMARK  14 active torsions:
REMARK  status: ('A' for Active; 'I' for Inactive)
REMARK    1  A    between atoms: C4_4  and  C5_5 
REMARK    2  A    between atoms: C6_6  and  C7_7 
REMARK    3  A    between atoms: C7_7  and  C8_8 
REMARK    4  A    between atoms: C8_8  and  C9_9 
REMARK    5  A    between atoms: C9_9  and  C10_10 
REMARK    6  A    between atoms: C10_10  and  C11_11 
REMARK    7  A    between atoms: C11_11  and  C12_12 
REMARK    8  A    between atoms: C12_12  and  C13_13 
REMARK    9  A    between atoms: C13_13  and  C14_14 
REMARK   10  A    between atoms: C14_14  and  N1_15 
REMARK       I    between atoms: N1_15  and  C15_17 
REMARK   11  A    between atoms: C15_17  and  C16_19 
REMARK   12  A    between atoms: C16_19  and  C17_20 
REMARK   13  A    between atoms: C17_20  and  C18_21 
REMARK   14  A    between atoms: C18_21  and  N2_22 
ROOT
HETATM    1  C1  UNL     1     -21.797   8.822 -20.163  1.00  0.00     0.027 C 
HETATM    2  C2  UNL     1     -21.385   7.866 -19.563  1.00  0.00    -0.025 C 
HETATM    3  C3  UNL     1     -20.897   6.747 -18.828  1.00  0.00    -0.002 C 
HETATM    4  C4  UNL     1     -20.492   5.810 -18.188  1.00  0.00    -0.001 C 
ENDROOT
BRANCH   4   5
HETATM    5  C5  UNL     1     -20.006   4.713 -17.403  1.00  0.00    -0.014 C 
HETATM    6  C6  UNL     1     -19.598   3.808 -16.720  1.00  0.00    -0.092 C 
BRANCH   6   7
HETATM    7  C7  UNL     1     -19.102   2.744 -15.869  1.00  0.00     0.095 C 
BRANCH   7   8
HETATM    8  C8  UNL     1     -17.617   2.641 -15.904  1.00  0.00     0.012 C 
BRANCH   8   9
HETATM    9  C9  UNL     1     -17.053   3.333 -14.659  1.00  0.00     0.001 C 
BRANCH   9  10
HETATM   10  C10 UNL     1     -15.860   4.178 -15.042  1.00  0.00     0.000 C 
BRANCH  10  11
HETATM   11  C11 UNL     1     -16.117   4.970 -16.296  1.00  0.00     0.000 C 
BRANCH  11  12
HETATM   12  C12 UNL     1     -16.485   6.401 -16.052  1.00  0.00     0.002 C 
BRANCH  12  13
HETATM   13  C13 UNL     1     -15.243   7.294 -15.966  1.00  0.00     0.020 C 
BRANCH  13  14
HETATM   14  C14 UNL     1     -15.665   8.659 -15.525  1.00  0.00     0.122 C 
BRANCH  14  15
HETATM   15  N1  UNL     1     -15.841   9.525 -16.665  1.00  0.00    -0.361 N 
HETATM   16  C15 UNL     1     -14.771  10.200 -17.253  1.00  0.00     0.217 C 
HETATM   17  O1  UNL     1     -13.590  10.139 -16.898  1.00  0.00    -0.274 OA
ATOM     18  H1  UNL     1     -16.776   9.648 -17.053  1.00  0.00     0.162 HD
BRANCH  16  19
HETATM   19  C16 UNL     1     -15.088  11.101 -18.445  1.00  0.00     0.108 C 
BRANCH  19  20
HETATM   20  C17 UNL     1     -15.441  12.436 -17.941  1.00  0.00     0.056 C 
BRANCH  20  21
HETATM   21  C18 UNL     1     -16.833  12.853 -18.041  1.00  0.00     0.095 C 
BRANCH  21  22
HETATM   22  N2  UNL     1     -17.390  13.416 -19.257  1.00  0.00    -0.218 N 
HETATM   23  N3  UNL     1     -17.971  12.511 -20.208  1.00  0.00    -0.259 N 
HETATM   24  C19 UNL     1     -19.066  12.626 -21.022  1.00  0.00     0.254 C 
ATOM     25  H3  UNL     1     -17.478  11.622 -20.294  1.00  0.00     0.190 HD
HETATM   26  O2  UNL     1     -19.959  11.683 -21.052  1.00  0.00    -0.270 OA
HETATM   27  C20 UNL     1     -19.415  13.759 -21.953  1.00  0.00     0.227 C 
HETATM   28  N4  UNL     1     -18.601  13.705 -23.149  1.00  0.00    -0.351 N 
HETATM   29  C21 UNL     1     -18.869  14.454 -24.292  1.00  0.00     0.235 C 
ATOM     30  H4  UNL     1     -17.790  13.087 -23.155  1.00  0.00     0.163 HD
HETATM   31  O3  UNL     1     -18.407  14.026 -25.405  1.00  0.00    -0.272 OA
HETATM   32  C22 UNL     1     -19.645  15.711 -24.339  1.00  0.00     0.225 C 
HETATM   33  N5  UNL     1     -18.751  16.844 -24.172  1.00  0.00    -0.352 N 
HETATM   34  C23 UNL     1     -18.827  18.031 -24.913  1.00  0.00     0.217 C 
ATOM     35  H5  UNL     1     -18.018  16.770 -23.467  1.00  0.00     0.162 HD
HETATM   36  O4  UNL     1     -18.704  19.145 -24.293  1.00  0.00    -0.274 OA
HETATM   37  C24 UNL     1     -19.040  18.142 -26.378  1.00  0.00     0.103 C 
HETATM   38  C25 UNL     1     -17.759  18.336 -27.157  1.00  0.00     0.009 C 
HETATM   39  C26 UNL     1     -16.603  18.782 -26.304  1.00  0.00     0.000 C 
HETATM   40  C27 UNL     1     -15.401  18.931 -27.180  1.00  0.00     0.000 C 
HETATM   41  C28 UNL     1     -14.349  17.877 -26.899  1.00  0.00     0.000 C 
HETATM   42  C29 UNL     1     -13.833  17.977 -25.483  1.00  0.00     0.002 C 
HETATM   43  C30 UNL     1     -12.590  17.155 -25.260  1.00  0.00     0.020 C 
HETATM   44  C31 UNL     1     -12.500  16.697 -23.811  1.00  0.00     0.122 C 
HETATM   45  N6  UNL     1     -12.981  15.344 -23.744  1.00  0.00    -0.361 N 
HETATM   46  C32 UNL     1     -13.941  14.865 -22.835  1.00  0.00     0.219 C 
ATOM     47  H6  UNL     1     -12.595  14.676 -24.412  1.00  0.00     0.162 HD
HETATM   48  O5  UNL     1     -13.806  13.719 -22.310  1.00  0.00    -0.274 OA
HETATM   49  C33 UNL     1     -15.158  15.613 -22.411  1.00  0.00     0.122 C 
HETATM   50  C34 UNL     1     -15.364  15.477 -20.929  1.00  0.00     0.134 C 
HETATM   51  N7  UNL     1     -16.749  15.520 -20.562  1.00  0.00    -0.341 N 
HETATM   52  C35 UNL     1     -17.350  14.812 -19.462  1.00  0.00     0.341 C 
ATOM     53  H7  UNL     1     -17.362  16.103 -21.130  1.00  0.00     0.164 HD
HETATM   54  O6  UNL     1     -17.887  15.566 -18.611  1.00  0.00    -0.245 OA
ENDBRANCH  21  22
ENDBRANCH  20  21
ENDBRANCH  19  20
ENDBRANCH  16  19
ENDBRANCH  14  15
ENDBRANCH  13  14
ENDBRANCH  12  13
ENDBRANCH  11  12
ENDBRANCH  10  11
ENDBRANCH   9  10
ENDBRANCH   8   9
ENDBRANCH   7   8
ENDBRANCH   6   7
ENDBRANCH   4   5
TORSDOF 14
ENDMDL
MODEL 3
REMARK VINA RESULT: -8.564885446      2.278      3.628
REMARK  14 active torsions:
REMARK  status: ('A' for Active; 'I' for Inactive)
REMARK    1  A    between atoms: C4_4  and  C5_5 
REMARK    2  A    between atoms: C6_6  and  C7_7 
REMARK    3  A    between atoms: C7_7  and  C8_8 
REMARK    4  A    between atoms: C8_8  and  C9_9 
REMARK    5  A    between atoms: C9_9  and  C10_10 
REMARK    6  A    between atoms: C10_10  and  C11_11 
REMARK    7  A    between atoms: C11_11  and  C12_12 
REMARK    8  A    between atoms: C12_12  and  C13_13 
REMARK    9  A    between atoms: C13_13  and  C14_14 
REMARK   10  A    between atoms: C14_14  and  N1_15 
REMARK       I    between atoms: N1_15  and  C15_17 
REMARK   11  A    between atoms: C15_17  and  C16_19 
REMARK   12  A    between atoms: C16_19  and  C17_20 
REMARK   13  A    between atoms: C17_20  and  C18_21 
REMARK   14  A    between atoms: C18_21  and  N2_22 
ROOT
HETATM    1  C1  UNL     1     -16.290   2.767 -15.018  1.00  0.00     0.027 C 
HETATM    2  C2  UNL     1     -15.857   3.848 -15.313  1.00  0.00    -0.025 C 
HETATM    3  C3  UNL     1     -15.364   5.134 -15.681  1.00  0.00    -0.002 C 
HETATM    4  C4  UNL     1     -14.969   6.227 -15.998  1.00  0.00    -0.001 C 
ENDROOT
BRANCH   4   5
HETATM    5  C5  UNL     1     -14.517   7.527 -16.398  1.00  0.00    -0.014 C 
HETATM    6  C6  UNL     1     -14.119   8.608 -16.752  1.00  0.00    -0.092 C 
BRANCH   6   7
HETATM    7  C7  UNL     1     -13.610   9.891 -17.196  1.00  0.00     0.095 C 
BRANCH   7   8
HETATM    8  C8  UNL     1     -14.672  10.933 -17.243  1.00  0.00     0.012 C 
BRANCH   8   9
HETATM    9  C9  UNL     1     -15.834  10.403 -18.090  1.00  0.00     0.001 C 
BRANCH   9  10
HETATM   10  C10 UNL     1     -17.083  10.316 -17.244  1.00  0.00     0.000 C 
BRANCH  10  11
HETATM   11  C11 UNL     1     -17.767   8.983 -17.396  1.00  0.00     0.000 C 
BRANCH  11  12
HETATM   12  C12 UNL     1     -18.146   8.338 -16.100  1.00  0.00     0.002 C 
BRANCH  12  13
HETATM   13  C13 UNL     1     -19.409   7.482 -16.246  1.00  0.00     0.020 C 
BRANCH  13  14
HETATM   14  C14 UNL     1     -20.602   8.335 -15.952  1.00  0.00     0.122 C 
BRANCH  14  15
HETATM   15  N1  UNL     1     -20.783   9.322 -16.987  1.00  0.00    -0.361 N 
HETATM   16  C15 UNL     1     -21.087   8.967 -18.302  1.00  0.00     0.217 C 
HETATM   17  O1  UNL     1     -21.244   7.818 -18.727  1.00  0.00    -0.274 OA
ATOM     18  H1  UNL     1     -20.685  10.309 -16.752  1.00  0.00     0.162 HD
BRANCH  16  19
HETATM   19  C16 UNL     1     -21.238  10.103 -19.311  1.00  0.00     0.108 C 
BRANCH  19  20
HETATM   20  C17 UNL     1     -19.931  10.755 -19.481  1.00  0.00     0.056 C 
BRANCH  20  21
HETATM   21  C18 UNL     1     -19.757  11.641 -20.624  1.00  0.00     0.095 C 
BRANCH  21  22
HETATM   22  N2  UNL     1     -18.565  12.448 -20.807  1.00  0.00    -0.218 N 
HETATM   23  N3  UNL     1     -18.192  13.341 -19.746  1.00  0.00    -0.259 N 
HETATM   24  C19 UNL     1     -16.968  13.707 -19.253  1.00  0.00     0.254 C 
ATOM     25  H3  UNL     1     -18.981  13.782 -19.274  1.00  0.00     0.190 HD
HETATM   26  O2  UNL     1     -16.738  13.662 -17.975  1.00  0.00    -0.270 OA
HETATM   27  C20 UNL     1     -15.766  14.191 -20.023  1.00  0.00     0.227 C 
HETATM   28  N4  UNL     1     -15.947  15.564 -20.442  1.00  0.00    -0.351 N 
HETATM   29  C21 UNL     1     -14.914  16.356 -20.938  1.00  0.00     0.235 C 
ATOM     30  H4  UNL     1     -16.879  15.974 -20.369  1.00  0.00     0.163 HD
HETATM   31  O3  UNL     1     -15.043  17.626 -20.850  1.00  0.00    -0.272 OA
HETATM   32  C22 UNL     1     -13.671  15.861 -21.564  1.00  0.00     0.225 C 
HETATM   33  N5  UNL     1     -13.861  15.739 -22.999  1.00  0.00    -0.352 N 
HETATM   34  C23 UNL     1     -12.918  16.124 -23.961  1.00  0.00     0.217 C 
ATOM     35  H5  UNL     1     -14.743  15.345 -23.329  1.00  0.00     0.162 HD
HETATM   36  O4  UNL     1     -12.702  15.340 -24.951  1.00  0.00    -0.274 OA
HETATM   37  C24 UNL     1     -12.119  17.374 -23.958  1.00  0.00     0.103 C 
HETATM   38  C25 UNL     1     -12.701  18.460 -24.834  1.00  0.00     0.009 C 
HETATM   39  C26 UNL     1     -13.707  17.949 -25.828  1.00  0.00     0.000 C 
HETATM   40  C27 UNL     1     -14.214  19.109 -26.625  1.00  0.00     0.000 C 
HETATM   41  C28 UNL     1     -15.661  19.431 -26.316  1.00  0.00     0.000 C 
HETATM   42  C29 UNL     1     -16.570  18.275 -26.662  1.00  0.00     0.002 C 
HETATM   43  C30 UNL     1     -18.027  18.661 -26.653  1.00  0.00     0.020 C 
HETATM   44  C31 UNL     1     -18.898  17.464 -26.298  1.00  0.00     0.122 C 
HETATM   45  N6  UNL     1     -19.228  17.556 -24.902  1.00  0.00    -0.361 N 
HETATM   46  C32 UNL     1     -19.086  16.520 -23.961  1.00  0.00     0.219 C 
ATOM     47  H6  UNL     1     -19.594  18.446 -24.564  1.00  0.00     0.162 HD
HETATM   48  O5  UNL     1     -19.970  16.342 -23.069  1.00  0.00    -0.274 OA
HETATM   49  C33 UNL     1     -17.943  15.565 -23.914  1.00  0.00     0.122 C 
HETATM   50  C34 UNL     1     -18.438  14.169 -23.665  1.00  0.00     0.134 C 
HETATM   51  N7  UNL     1     -17.495  13.374 -22.936  1.00  0.00    -0.341 N 
HETATM   52  C35 UNL     1     -17.820  12.331 -21.999  1.00  0.00     0.341 C 
ATOM     53  H7  UNL     1     -16.505  13.564 -23.096  1.00  0.00     0.164 HD
HETATM   54  O6  UNL     1     -17.366  11.204 -22.323  1.00  0.00    -0.245 OA
ENDBRANCH  21  22
ENDBRANCH  20  21
ENDBRANCH  19  20
ENDBRANCH  16  19
ENDBRANCH  14  15
ENDBRANCH  13  14
ENDBRANCH  12  13
ENDBRANCH  11  12
ENDBRANCH  10  11
ENDBRANCH   9  10
ENDBRANCH   8   9
ENDBRANCH   7   8
ENDBRANCH   6   7
ENDBRANCH   4   5
TORSDOF 14
ENDMDL
MODEL 4
REMARK VINA RESULT: -8.544052071      2.786      4.589
REMARK  14 active torsions:
REMARK  status: ('A' for Active; 'I' for Inactive)
REMARK    1  A    between atoms: C4_4  and  C5_5 
REMARK    2  A    between atoms: C6_6  and  C7_7 
REMARK    3  A    between atoms: C7_7  and  C8_8 
REMARK    4  A    between atoms: C8_8  and  C9_9 
REMARK    5  A    between atoms: C9_9  and  C10_10 
REMARK    6  A    between atoms: C10_10  and  C11_11 
REMARK    7  A    between atoms: C11_11  and  C12_12 
REMARK    8  A    between atoms: C12_12  and  C13_13 
REMARK    9  A    between atoms: C13_13  and  C14_14 
REMARK   10  A    between atoms: C14_14  and  N1_15 
REMARK       I    between atoms: N1_15  and  C15_17 
REMARK   11  A    between atoms: C15_17  and  C16_19 
REMARK   12  A    between atoms: C16_19  and  C17_20 
REMARK   13  A    between atoms: C17_20  and  C18_21 
REMARK   14  A    between atoms: C18_21  and  N2_22 
ROOT
HETATM    1  C1  UNL     1     -13.589  11.476 -16.642  1.00  0.00     0.027 C 
HETATM    2  C2  UNL     1     -13.977  10.342 -16.558  1.00  0.00    -0.025 C 
HETATM    3  C3  UNL     1     -14.412   8.989 -16.450  1.00  0.00    -0.002 C 
HETATM    4  C4  UNL     1     -14.764   7.842 -16.344  1.00  0.00    -0.001 C 
ENDROOT
BRANCH   4   5
HETATM    5  C5  UNL     1     -15.153   6.468 -16.216  1.00  0.00    -0.014 C 
HETATM    6  C6  UNL     1     -15.474   5.309 -16.136  1.00  0.00    -0.092 C 
BRANCH   6   7
HETATM    7  C7  UNL     1     -15.860   3.913 -16.078  1.00  0.00     0.095 C 
BRANCH   7   8
HETATM    8  C8  UNL     1     -16.540   3.569 -14.799  1.00  0.00     0.012 C 
BRANCH   8   9
HETATM    9  C9  UNL     1     -17.955   3.079 -15.118  1.00  0.00     0.001 C 
BRANCH   9  10
HETATM   10  C10 UNL     1     -17.926   2.195 -16.343  1.00  0.00     0.000 C 
BRANCH  10  11
HETATM   11  C11 UNL     1     -18.835   2.712 -17.425  1.00  0.00     0.000 C 
BRANCH  11  12
HETATM   12  C12 UNL     1     -19.649   3.902 -17.025  1.00  0.00     0.002 C 
BRANCH  12  13
HETATM   13  C13 UNL     1     -19.213   5.162 -17.782  1.00  0.00     0.020 C 
BRANCH  13  14
HETATM   14  C14 UNL     1     -19.034   6.274 -16.799  1.00  0.00     0.122 C 
BRANCH  14  15
HETATM   15  N1  UNL     1     -18.336   7.378 -17.410  1.00  0.00    -0.361 N 
HETATM   16  C15 UNL     1     -19.006   8.509 -17.876  1.00  0.00     0.217 C 
HETATM   17  O1  UNL     1     -20.224   8.707 -17.819  1.00  0.00    -0.274 OA
ATOM     18  H1  UNL     1     -17.322   7.331 -17.504  1.00  0.00     0.162 HD
BRANCH  16  19
HETATM   19  C16 UNL     1     -18.159   9.605 -18.518  1.00  0.00     0.108 C 
BRANCH  19  20
HETATM   20  C17 UNL     1     -19.040  10.724 -18.883  1.00  0.00     0.056 C 
BRANCH  20  21
HETATM   21  C18 UNL     1     -18.867  11.325 -20.198  1.00  0.00     0.095 C 
BRANCH  21  22
HETATM   22  N2  UNL     1     -17.774  12.229 -20.502  1.00  0.00    -0.218 N 
HETATM   23  N3  UNL     1     -17.394  13.182 -19.497  1.00  0.00    -0.259 N 
HETATM   24  C19 UNL     1     -16.172  13.670 -19.121  1.00  0.00     0.254 C 
ATOM     25  H3  UNL     1     -18.177  13.564 -18.968  1.00  0.00     0.190 HD
HETATM   26  O2  UNL     1     -15.830  13.682 -17.868  1.00  0.00    -0.270 OA
HETATM   27  C20 UNL     1     -15.088  14.236 -20.004  1.00  0.00     0.227 C 
HETATM   28  N4  UNL     1     -15.429  15.575 -20.434  1.00  0.00    -0.351 N 
HETATM   29  C21 UNL     1     -14.519  16.441 -21.036  1.00  0.00     0.235 C 
ATOM     30  H4  UNL     1     -16.384  15.902 -20.290  1.00  0.00     0.163 HD
HETATM   31  O3  UNL     1     -14.754  17.696 -20.964  1.00  0.00    -0.272 OA
HETATM   32  C22 UNL     1     -13.293  16.040 -21.757  1.00  0.00     0.225 C 
HETATM   33  N5  UNL     1     -13.593  15.860 -23.168  1.00  0.00    -0.352 N 
HETATM   34  C23 UNL     1     -12.774  16.299 -24.216  1.00  0.00     0.217 C 
ATOM     35  H5  UNL     1     -14.460  15.380 -23.411  1.00  0.00     0.162 HD
HETATM   36  O4  UNL     1     -12.573  15.508 -25.205  1.00  0.00    -0.274 OA
HETATM   37  C24 UNL     1     -12.095  17.615 -24.311  1.00  0.00     0.103 C 
HETATM   38  C25 UNL     1     -12.846  18.618 -25.155  1.00  0.00     0.009 C 
HETATM   39  C26 UNL     1     -13.883  17.991 -26.046  1.00  0.00     0.000 C 
HETATM   40  C27 UNL     1     -14.559  19.077 -26.821  1.00  0.00     0.000 C 
HETATM   41  C28 UNL     1     -15.998  19.279 -26.393  1.00  0.00     0.000 C 
HETATM   42  C29 UNL     1     -16.824  18.037 -26.633  1.00  0.00     0.002 C 
HETATM   43  C30 UNL     1     -18.304  18.292 -26.505  1.00  0.00     0.020 C 
HETATM   44  C31 UNL     1     -19.029  17.033 -26.050  1.00  0.00     0.122 C 
HETATM   45  N6  UNL     1     -19.245  17.136 -24.632  1.00  0.00    -0.361 N 
HETATM   46  C32 UNL     1     -18.930  16.144 -23.686  1.00  0.00     0.219 C 
ATOM     47  H6  UNL     1     -19.662  17.999 -24.283  1.00  0.00     0.162 HD
HETATM   48  O5  UNL     1     -19.715  15.915 -22.716  1.00  0.00    -0.274 OA
HETATM   49  C33 UNL     1     -17.705  15.297 -23.718  1.00  0.00     0.122 C 
HETATM   50  C34 UNL     1     -18.048  13.870 -23.397  1.00  0.00     0.134 C 
HETATM   51  N7  UNL     1     -16.977  13.184 -22.737  1.00  0.00    -0.341 N 
HETATM   52  C35 UNL     1     -17.124  12.144 -21.752  1.00  0.00     0.341 C 
ATOM     53  H7  UNL     1     -16.026  13.456 -22.987  1.00  0.00     0.164 HD
HETATM   54  O6  UNL     1     -16.599  11.052 -22.090  1.00  0.00    -0.245 OA
ENDBRANCH  21  22
ENDBRANCH  20  21
ENDBRANCH  19  20
ENDBRANCH  16  19
ENDBRANCH  14  15
ENDBRANCH  13  14
ENDBRANCH  12  13
ENDBRANCH  11  12
ENDBRANCH  10  11
ENDBRANCH   9  10
ENDBRANCH   8   9
ENDBRANCH   7   8
ENDBRANCH   6   7
ENDBRANCH   4   5
TORSDOF 14
ENDMDL
MODEL 5
REMARK VINA RESULT: -8.412921410      2.903      6.035
REMARK  14 active torsions:
REMARK  status: ('A' for Active; 'I' for Inactive)
REMARK    1  A    between atoms: C4_4  and  C5_5 
REMARK    2  A    between atoms: C6_6  and  C7_7 
REMARK    3  A    between atoms: C7_7  and  C8_8 
REMARK    4  A    between atoms: C8_8  and  C9_9 
REMARK    5  A    between atoms: C9_9  and  C10_10 
REMARK    6  A    between atoms: C10_10  and  C11_11 
REMARK    7  A    between atoms: C11_11  and  C12_12 
REMARK    8  A    between atoms: C12_12  and  C13_13 
REMARK    9  A    between atoms: C13_13  and  C14_14 
REMARK   10  A    between atoms: C14_14  and  N1_15 
REMARK       I    between atoms: N1_15  and  C15_17 
REMARK   11  A    between atoms: C15_17  and  C16_19 
REMARK   12  A    between atoms: C16_19  and  C17_20 
REMARK   13  A    between atoms: C17_20  and  C18_21 
REMARK   14  A    between atoms: C18_21  and  N2_22 
ROOT
HETATM    1  C1  UNL     1     -15.087   8.904 -15.134  1.00  0.00     0.027 C 
HETATM    2  C2  UNL     1     -15.686   7.879 -15.313  1.00  0.00    -0.025 C 
HETATM    3  C3  UNL     1     -16.420   6.673 -15.514  1.00  0.00    -0.002 C 
HETATM    4  C4  UNL     1     -17.060   5.666 -15.682  1.00  0.00    -0.001 C 
ENDROOT
BRANCH   4   5
HETATM    5  C5  UNL     1     -17.842   4.479 -15.865  1.00  0.00    -0.014 C 
HETATM    6  C6  UNL     1     -18.480   3.471 -16.037  1.00  0.00    -0.092 C 
BRANCH   6   7
HETATM    7  C7  UNL     1     -19.225   2.250 -16.273  1.00  0.00     0.095 C 
BRANCH   7   8
HETATM    8  C8  UNL     1     -19.445   1.996 -17.723  1.00  0.00     0.012 C 
BRANCH   8   9
HETATM    9  C9  UNL     1     -18.262   2.578 -18.503  1.00  0.00     0.001 C 
BRANCH   9  10
HETATM   10  C10 UNL     1     -18.722   3.019 -19.873  1.00  0.00     0.000 C 
BRANCH  10  11
HETATM   11  C11 UNL     1     -19.768   4.099 -19.790  1.00  0.00     0.000 C 
BRANCH  11  12
HETATM   12  C12 UNL     1     -19.259   5.404 -19.263  1.00  0.00     0.002 C 
BRANCH  12  13
HETATM   13  C13 UNL     1     -20.348   6.164 -18.499  1.00  0.00     0.020 C 
BRANCH  13  14
HETATM   14  C14 UNL     1     -20.210   7.624 -18.793  1.00  0.00     0.122 C 
BRANCH  14  15
HETATM   15  N1  UNL     1     -18.853   8.057 -18.568  1.00  0.00    -0.361 N 
HETATM   16  C15 UNL     1     -18.535   9.390 -18.309  1.00  0.00     0.217 C 
HETATM   17  O1  UNL     1     -19.337  10.326 -18.233  1.00  0.00    -0.274 OA
ATOM     18  H1  UNL     1     -18.103   7.367 -18.599  1.00  0.00     0.162 HD
BRANCH  16  19
HETATM   19  C16 UNL     1     -17.060   9.726 -18.105  1.00  0.00     0.108 C 
BRANCH  19  20
HETATM   20  C17 UNL     1     -16.963  11.091 -17.567  1.00  0.00     0.056 C 
BRANCH  20  21
HETATM   21  C18 UNL     1     -16.314  12.102 -18.391  1.00  0.00     0.095 C 
BRANCH  21  22
HETATM   22  N2  UNL     1     -16.974  12.722 -19.524  1.00  0.00    -0.218 N 
HETATM   23  N3  UNL     1     -17.488  11.862 -20.553  1.00  0.00    -0.259 N 
HETATM   24  C19 UNL     1     -18.619  11.937 -21.321  1.00  0.00     0.254 C 
ATOM     25  H3  UNL     1     -16.905  11.048 -20.746  1.00  0.00     0.190 HD
HETATM   26  O2  UNL     1     -19.404  10.908 -21.430  1.00  0.00    -0.270 OA
HETATM   27  C20 UNL     1     -19.123  13.114 -22.116  1.00  0.00     0.227 C 
HETATM   28  N4  UNL     1     -18.353  13.277 -23.330  1.00  0.00    -0.351 N 
HETATM   29  C21 UNL     1     -18.744  14.106 -24.379  1.00  0.00     0.235 C 
ATOM     30  H4  UNL     1     -17.480  12.757 -23.424  1.00  0.00     0.163 HD
HETATM   31  O3  UNL     1     -18.280  13.851 -25.544  1.00  0.00    -0.272 OA
HETATM   32  C22 UNL     1     -19.654  15.265 -24.271  1.00  0.00     0.225 C 
HETATM   33  N5  UNL     1     -18.883  16.468 -24.006  1.00  0.00    -0.352 N 
HETATM   34  C23 UNL     1     -19.115  17.709 -24.613  1.00  0.00     0.217 C 
ATOM     35  H5  UNL     1     -18.120  16.404 -23.332  1.00  0.00     0.162 HD
HETATM   36  O4  UNL     1     -19.091  18.760 -23.880  1.00  0.00    -0.274 OA
HETATM   37  C24 UNL     1     -19.393  17.948 -26.051  1.00  0.00     0.103 C 
HETATM   38  C25 UNL     1     -18.171  18.364 -26.838  1.00  0.00     0.009 C 
HETATM   39  C26 UNL     1     -17.040  18.846 -25.971  1.00  0.00     0.000 C 
HETATM   40  C27 UNL     1     -15.894  19.220 -26.857  1.00  0.00     0.000 C 
HETATM   41  C28 UNL     1     -14.724  18.267 -26.718  1.00  0.00     0.000 C 
HETATM   42  C29 UNL     1     -14.169  18.276 -25.313  1.00  0.00     0.002 C 
HETATM   43  C30 UNL     1     -12.836  17.580 -25.212  1.00  0.00     0.020 C 
HETATM   44  C31 UNL     1     -12.643  16.987 -23.824  1.00  0.00     0.122 C 
HETATM   45  N6  UNL     1     -12.972  15.589 -23.890  1.00  0.00    -0.361 N 
HETATM   46  C32 UNL     1     -13.839  14.913 -23.014  1.00  0.00     0.219 C 
ATOM     47  H6  UNL     1     -12.541  15.041 -24.635  1.00  0.00     0.162 HD
HETATM   48  O5  UNL     1     -13.561  13.741 -22.618  1.00  0.00    -0.274 OA
HETATM   49  C33 UNL     1     -15.114  15.472 -22.480  1.00  0.00     0.122 C 
HETATM   50  C34 UNL     1     -15.248  15.160 -21.017  1.00  0.00     0.134 C 
HETATM   51  N7  UNL     1     -16.614  15.009 -20.612  1.00  0.00    -0.341 N 
HETATM   52  C35 UNL     1     -17.093  14.127 -19.579  1.00  0.00     0.341 C 
ATOM     53  H7  UNL     1     -17.309  15.576 -21.098  1.00  0.00     0.164 HD
HETATM   54  O6  UNL     1     -17.677  14.724 -18.638  1.00  0.00    -0.245 OA
ENDBRANCH  21  22
ENDBRANCH  20  21
ENDBRANCH  19  20
ENDBRANCH  16  19
ENDBRANCH  14  15
ENDBRANCH  13  14
ENDBRANCH  12  13
ENDBRANCH  11  12
ENDBRANCH  10  11
ENDBRANCH   9  10
ENDBRANCH   8   9
ENDBRANCH   7   8
ENDBRANCH   6   7
ENDBRANCH   4   5
TORSDOF 14
ENDMDL
