MODEL 1
REMARK VINA RESULT: -7.091262086      0.000      0.000
REMARK  13 active torsions:
REMARK  status: ('A' for Active; 'I' for Inactive)
REMARK    1  A    between atoms: C2_2  and  C3_4 
REMARK    2  A    between atoms: C3_4  and  C4_5 
REMARK    3  A    between atoms: C4_5  and  N1_7 
REMARK       I    between atoms: N1_7  and  C6_9 
REMARK    4  A    between atoms: C6_9  and  C7_11 
REMARK    5  A    between atoms: C9_16  and  C10_17 
REMARK    6  A    between atoms: C10_17  and  C11_18 
REMARK    7  A    between atoms: C15_25  and  C16_26 
REMARK    8  A    between atoms: C20_33  and  C21_34 
REMARK    9  A    between atoms: C25_41  and  C26_42 
REMARK   10  A    between atoms: C26_42  and  C27_43 
REMARK   11  A    between atoms: C30_46  and  O7_47 
REMARK   12  A    between atoms: C31_51  and  C32_52 
REMARK   13  A    between atoms: C32_52  and  C33_53 
ROOT
HETATM    1  C7  UNL     1     -17.493   5.857 -15.435  1.00  0.00     0.192 C 
HETATM    2  C8  UNL     1     -16.468   4.848 -15.583  1.00  0.00     0.233 C 
HETATM    3  O3  UNL     1     -16.063   4.551 -16.746  1.00  0.00    -0.273 OA
HETATM    4  N2  UNL     1     -15.852   4.138 -14.524  1.00  0.00    -0.347 N 
ATOM      5  H2  UNL     1     -14.832   4.107 -14.510  1.00  0.00     0.163 HD
HETATM    6  C9  UNL     1     -16.566   3.441 -13.443  1.00  0.00     0.177 C 
HETATM    7  C14 UNL     1     -15.793   2.151 -13.296  1.00  0.00     0.241 C 
HETATM    8  O4  UNL     1     -14.713   2.241 -12.635  1.00  0.00    -0.271 OA
HETATM    9  N3  UNL     1     -16.205   0.919 -13.838  1.00  0.00    -0.346 N 
ATOM     10  H3  UNL     1     -16.262   0.127 -13.199  1.00  0.00     0.163 HD
HETATM   11  C15 UNL     1     -16.554   0.676 -15.222  1.00  0.00     0.180 C 
HETATM   12  C19 UNL     1     -17.483  -0.476 -15.271  1.00  0.00     0.241 C 
HETATM   13  O5  UNL     1     -17.033  -1.604 -14.940  1.00  0.00    -0.271 OA
HETATM   14  N4  UNL     1     -18.828  -0.387 -15.660  1.00  0.00    -0.346 N 
ATOM     15  H4  UNL     1     -19.492  -1.000 -15.189  1.00  0.00     0.163 HD
HETATM   16  C20 UNL     1     -19.351   0.503 -16.676  1.00  0.00     0.180 C 
HETATM   17  C24 UNL     1     -19.866   1.743 -16.053  1.00  0.00     0.241 C 
HETATM   18  O6  UNL     1     -19.855   1.806 -14.775  1.00  0.00    -0.271 OA
HETATM   19  N5  UNL     1     -20.365   2.850 -16.796  1.00  0.00    -0.347 N 
ATOM     20  H5  UNL     1     -21.045   3.461 -16.343  1.00  0.00     0.163 HD
HETATM   21  C25 UNL     1     -19.967   3.166 -18.160  1.00  0.00     0.159 C 
HETATM   22  C30 UNL     1     -18.947   4.212 -18.284  1.00  0.00     0.135 C 
HETATM   23  N6  UNL     1     -18.694   5.365 -17.557  1.00  0.00    -0.367 N 
ATOM     24  H6  UNL     1     -18.365   6.143 -18.129  1.00  0.00     0.161 HD
HETATM   25  C31 UNL     1     -18.800   5.681 -16.173  1.00  0.00     0.105 C 
ENDROOT
BRANCH   1  26
HETATM   26  C6  UNL     1     -16.890   7.222 -15.648  1.00  0.00     0.233 C 
HETATM   27  N1  UNL     1     -16.698   7.753 -16.958  1.00  0.00    -0.356 N 
ATOM     28  H1  UNL     1     -16.979   7.187 -17.758  1.00  0.00     0.162 HD
HETATM   29  O2  UNL     1     -16.527   7.960 -14.688  1.00  0.00    -0.273 OA
BRANCH  27  30
HETATM   30  C4  UNL     1     -16.129   9.045 -17.202  1.00  0.00     0.087 C 
HETATM   31  C5  UNL     1     -16.692   9.675 -18.445  1.00  0.00     0.032 C 
BRANCH  30  32
HETATM   32  C3  UNL     1     -14.621   9.007 -17.303  1.00  0.00     0.102 C 
BRANCH  32  33
HETATM   33  C2  UNL     1     -14.067  10.048 -16.394  1.00  0.00     0.125 C 
HETATM   34  C1  UNL     1     -13.604  11.372 -16.917  1.00  0.00     0.091 C 
HETATM   35  O1  UNL     1     -13.970   9.861 -15.193  1.00  0.00    -0.298 OA
ENDBRANCH  32  33
ENDBRANCH  30  32
ENDBRANCH  27  30
ENDBRANCH   1  26
BRANCH  25  36
HETATM   36  C32 UNL     1     -19.414   7.096 -16.095  1.00  0.00     0.030 C 
BRANCH  36  37
HETATM   37  C33 UNL     1     -20.564   7.341 -16.984  1.00  0.00    -0.021 C 
HETATM   38  C34 UNL     1     -21.865   7.454 -16.262  1.00  0.00     0.009 C 
HETATM   39  C35 UNL     1     -20.306   8.715 -17.633  1.00  0.00     0.009 C 
ENDBRANCH  36  37
ENDBRANCH  25  36
BRANCH   6  40
HETATM   40  C10 UNL     1     -16.434   4.245 -12.178  1.00  0.00     0.038 C 
BRANCH  40  41
HETATM   41  C11 UNL     1     -17.320   3.923 -11.053  1.00  0.00    -0.020 C 
HETATM   42  C12 UNL     1     -18.395   2.922 -11.235  1.00  0.00     0.009 C 
HETATM   43  C13 UNL     1     -16.428   3.585  -9.855  1.00  0.00     0.009 C 
ENDBRANCH  40  41
ENDBRANCH   6  40
BRANCH  22  44
HETATM   44  O7  UNL     1     -18.118   4.020 -19.272  1.00  0.00    -0.348 OA
ATOM     45  H7  UNL     1     -18.240   4.626 -19.995  1.00  0.00     0.219 HD
ENDBRANCH  22  44
BRANCH  21  46
HETATM   46  C26 UNL     1     -21.206   3.338 -18.947  1.00  0.00     0.037 C 
BRANCH  46  47
HETATM   47  C27 UNL     1     -22.300   2.369 -18.850  1.00  0.00    -0.020 C 
HETATM   48  C28 UNL     1     -22.418   1.393 -19.976  1.00  0.00     0.009 C 
HETATM   49  C29 UNL     1     -23.602   2.993 -18.466  1.00  0.00     0.009 C 
ENDBRANCH  46  47
ENDBRANCH  21  46
BRANCH  11  50
HETATM   50  C16 UNL     1     -15.255   0.347 -15.939  1.00  0.00     0.009 C 
HETATM   51  C17 UNL     1     -14.366  -0.533 -15.128  1.00  0.00     0.012 C 
HETATM   52  C18 UNL     1     -15.521  -0.249 -17.283  1.00  0.00     0.012 C 
ENDBRANCH  11  50
BRANCH  16  53
HETATM   53  C21 UNL     1     -20.452  -0.276 -17.401  1.00  0.00     0.009 C 
HETATM   54  C22 UNL     1     -20.864  -1.432 -16.519  1.00  0.00     0.012 C 
HETATM   55  C23 UNL     1     -19.777  -0.886 -18.626  1.00  0.00     0.012 C 
ENDBRANCH  16  53
TORSDOF 13
ENDMDL
MODEL 2
REMARK VINA RESULT: -6.993102491      1.063      1.361
REMARK  13 active torsions:
REMARK  status: ('A' for Active; 'I' for Inactive)
REMARK    1  A    between atoms: C2_2  and  C3_4 
REMARK    2  A    between atoms: C3_4  and  C4_5 
REMARK    3  A    between atoms: C4_5  and  N1_7 
REMARK       I    between atoms: N1_7  and  C6_9 
REMARK    4  A    between atoms: C6_9  and  C7_11 
REMARK    5  A    between atoms: C9_16  and  C10_17 
REMARK    6  A    between atoms: C10_17  and  C11_18 
REMARK    7  A    between atoms: C15_25  and  C16_26 
REMARK    8  A    between atoms: C20_33  and  C21_34 
REMARK    9  A    between atoms: C25_41  and  C26_42 
REMARK   10  A    between atoms: C26_42  and  C27_43 
REMARK   11  A    between atoms: C30_46  and  O7_47 
REMARK   12  A    between atoms: C31_51  and  C32_52 
REMARK   13  A    between atoms: C32_52  and  C33_53 
ROOT
HETATM    1  C7  UNL     1     -16.975   5.591 -15.222  1.00  0.00     0.192 C 
HETATM    2  C8  UNL     1     -16.044   4.485 -15.238  1.00  0.00     0.233 C 
HETATM    3  O3  UNL     1     -15.571   4.098 -16.348  1.00  0.00    -0.273 OA
HETATM    4  N2  UNL     1     -15.593   3.770 -14.102  1.00  0.00    -0.347 N 
ATOM      5  H2  UNL     1     -14.586   3.645 -13.995  1.00  0.00     0.163 HD
HETATM    6  C9  UNL     1     -16.461   3.194 -13.065  1.00  0.00     0.177 C 
HETATM    7  C14 UNL     1     -15.833   1.845 -12.799  1.00  0.00     0.241 C 
HETATM    8  O4  UNL     1     -14.811   1.864 -12.049  1.00  0.00    -0.271 OA
HETATM    9  N3  UNL     1     -16.315   0.634 -13.330  1.00  0.00    -0.346 N 
ATOM     10  H3  UNL     1     -16.504  -0.120 -12.669  1.00  0.00     0.163 HD
HETATM   11  C15 UNL     1     -16.567   0.361 -14.729  1.00  0.00     0.180 C 
HETATM   12  C19 UNL     1     -17.596  -0.701 -14.817  1.00  0.00     0.241 C 
HETATM   13  O5  UNL     1     -17.287  -1.849 -14.405  1.00  0.00    -0.271 OA
HETATM   14  N4  UNL     1     -18.886  -0.504 -15.329  1.00  0.00    -0.346 N 
ATOM     15  H4  UNL     1     -19.645  -1.029 -14.897  1.00  0.00     0.163 HD
HETATM   16  C20 UNL     1     -19.231   0.383 -16.421  1.00  0.00     0.180 C 
HETATM   17  C24 UNL     1     -19.675   1.693 -15.894  1.00  0.00     0.241 C 
HETATM   18  O6  UNL     1     -19.768   1.814 -14.623  1.00  0.00    -0.271 OA
HETATM   19  N5  UNL     1     -19.998   2.807 -16.720  1.00  0.00    -0.347 N 
ATOM     20  H5  UNL     1     -20.652   3.499 -16.354  1.00  0.00     0.163 HD
HETATM   21  C25 UNL     1     -19.455   3.021 -18.054  1.00  0.00     0.159 C 
HETATM   22  C30 UNL     1     -18.332   3.960 -18.125  1.00  0.00     0.135 C 
HETATM   23  N6  UNL     1     -18.031   5.116 -17.423  1.00  0.00    -0.367 N 
ATOM     24  H6  UNL     1     -17.580   5.833 -17.992  1.00  0.00     0.161 HD
HETATM   25  C31 UNL     1     -18.224   5.505 -16.067  1.00  0.00     0.105 C 
ENDROOT
BRANCH   1  26
HETATM   26  C6  UNL     1     -16.226   6.883 -15.431  1.00  0.00     0.233 C 
HETATM   27  N1  UNL     1     -15.465   7.116 -16.615  1.00  0.00    -0.356 N 
ATOM     28  H1  UNL     1     -15.436   6.386 -17.326  1.00  0.00     0.162 HD
HETATM   29  O2  UNL     1     -16.232   7.816 -14.579  1.00  0.00    -0.273 OA
BRANCH  27  30
HETATM   30  C4  UNL     1     -14.740   8.329 -16.851  1.00  0.00     0.087 C 
HETATM   31  C5  UNL     1     -13.635   8.519 -15.850  1.00  0.00     0.032 C 
BRANCH  30  32
HETATM   32  C3  UNL     1     -15.632   9.551 -16.844  1.00  0.00     0.102 C 
BRANCH  32  33
HETATM   33  C2  UNL     1     -15.363  10.329 -18.084  1.00  0.00     0.125 C 
HETATM   34  C1  UNL     1     -14.620  11.629 -18.042  1.00  0.00     0.091 C 
HETATM   35  O1  UNL     1     -15.736   9.939 -19.178  1.00  0.00    -0.298 OA
ENDBRANCH  32  33
ENDBRANCH  30  32
ENDBRANCH  27  30
ENDBRANCH   1  26
BRANCH  25  36
HETATM   36  C32 UNL     1     -18.702   6.973 -16.098  1.00  0.00     0.030 C 
BRANCH  36  37
HETATM   37  C33 UNL     1     -19.605   7.325 -17.208  1.00  0.00    -0.021 C 
HETATM   38  C34 UNL     1     -20.987   7.675 -16.767  1.00  0.00     0.009 C 
HETATM   39  C35 UNL     1     -19.015   8.600 -17.840  1.00  0.00     0.009 C 
ENDBRANCH  36  37
ENDBRANCH  25  36
BRANCH   6  40
HETATM   40  C10 UNL     1     -16.361   4.040 -11.823  1.00  0.00     0.038 C 
BRANCH  40  41
HETATM   41  C11 UNL     1     -17.401   3.896 -10.797  1.00  0.00    -0.020 C 
HETATM   42  C12 UNL     1     -18.590   3.062 -11.077  1.00  0.00     0.009 C 
HETATM   43  C13 UNL     1     -16.704   3.474  -9.501  1.00  0.00     0.009 C 
ENDBRANCH  40  41
ENDBRANCH   6  40
BRANCH  22  44
HETATM   44  O7  UNL     1     -17.443   3.646 -19.027  1.00  0.00    -0.348 OA
ATOM     45  H7  UNL     1     -17.490   4.182 -19.811  1.00  0.00     0.219 HD
ENDBRANCH  22  44
BRANCH  21  46
HETATM   46  C26 UNL     1     -20.600   3.272 -18.956  1.00  0.00     0.037 C 
BRANCH  46  47
HETATM   47  C27 UNL     1     -21.004   2.279 -19.954  1.00  0.00    -0.020 C 
HETATM   48  C28 UNL     1     -22.240   1.497 -19.644  1.00  0.00     0.009 C 
HETATM   49  C29 UNL     1     -19.868   1.432 -20.429  1.00  0.00     0.009 C 
ENDBRANCH  46  47
ENDBRANCH  21  46
BRANCH  11  50
HETATM   50  C16 UNL     1     -15.249  -0.121 -15.313  1.00  0.00     0.009 C 
HETATM   51  C17 UNL     1     -14.568  -1.117 -14.436  1.00  0.00     0.012 C 
HETATM   52  C18 UNL     1     -15.441  -0.663 -16.692  1.00  0.00     0.012 C 
ENDBRANCH  11  50
BRANCH  16  53
HETATM   53  C21 UNL     1     -20.337  -0.322 -17.212  1.00  0.00     0.009 C 
HETATM   54  C22 UNL     1     -21.252  -1.009 -16.225  1.00  0.00     0.012 C 
HETATM   55  C23 UNL     1     -19.633  -1.429 -17.991  1.00  0.00     0.012 C 
ENDBRANCH  16  53
TORSDOF 13
ENDMDL
MODEL 3
REMARK VINA RESULT: -6.603562399      2.506      3.722
REMARK  13 active torsions:
REMARK  status: ('A' for Active; 'I' for Inactive)
REMARK    1  A    between atoms: C2_2  and  C3_4 
REMARK    2  A    between atoms: C3_4  and  C4_5 
REMARK    3  A    between atoms: C4_5  and  N1_7 
REMARK       I    between atoms: N1_7  and  C6_9 
REMARK    4  A    between atoms: C6_9  and  C7_11 
REMARK    5  A    between atoms: C9_16  and  C10_17 
REMARK    6  A    between atoms: C10_17  and  C11_18 
REMARK    7  A    between atoms: C15_25  and  C16_26 
REMARK    8  A    between atoms: C20_33  and  C21_34 
REMARK    9  A    between atoms: C25_41  and  C26_42 
REMARK   10  A    between atoms: C26_42  and  C27_43 
REMARK   11  A    between atoms: C30_46  and  O7_47 
REMARK   12  A    between atoms: C31_51  and  C32_52 
REMARK   13  A    between atoms: C32_52  and  C33_53 
ROOT
HETATM    1  C7  UNL     1     -19.370   5.631 -17.502  1.00  0.00     0.192 C 
HETATM    2  C8  UNL     1     -18.438   4.597 -17.893  1.00  0.00     0.233 C 
HETATM    3  O3  UNL     1     -18.692   3.898 -18.919  1.00  0.00    -0.273 OA
HETATM    4  N2  UNL     1     -17.229   4.280 -17.225  1.00  0.00    -0.347 N 
ATOM      5  H2  UNL     1     -16.382   4.219 -17.790  1.00  0.00     0.163 HD
HETATM    6  C9  UNL     1     -17.101   4.032 -15.781  1.00  0.00     0.177 C 
HETATM    7  C14 UNL     1     -16.164   2.848 -15.717  1.00  0.00     0.241 C 
HETATM    8  O4  UNL     1     -14.934   3.124 -15.863  1.00  0.00    -0.271 OA
HETATM    9  N3  UNL     1     -16.586   1.521 -15.516  1.00  0.00    -0.346 N 
ATOM     10  H3  UNL     1     -16.145   1.004 -14.755  1.00  0.00     0.163 HD
HETATM   11  C15 UNL     1     -17.589   0.822 -16.291  1.00  0.00     0.180 C 
HETATM   12  C19 UNL     1     -18.176  -0.240 -15.442  1.00  0.00     0.241 C 
HETATM   13  O5  UNL     1     -17.431  -1.197 -15.104  1.00  0.00    -0.271 OA
HETATM   14  N4  UNL     1     -19.505  -0.243 -14.994  1.00  0.00    -0.346 N 
ATOM     15  H4  UNL     1     -19.684  -0.627 -14.067  1.00  0.00     0.163 HD
HETATM   16  C20 UNL     1     -20.644   0.253 -15.738  1.00  0.00     0.180 C 
HETATM   17  C24 UNL     1     -20.938   1.651 -15.349  1.00  0.00     0.241 C 
HETATM   18  O6  UNL     1     -20.239   2.157 -14.404  1.00  0.00    -0.271 OA
HETATM   19  N5  UNL     1     -21.945   2.446 -15.966  1.00  0.00    -0.347 N 
ATOM     20  H5  UNL     1     -22.359   3.201 -15.419  1.00  0.00     0.163 HD
HETATM   21  C25 UNL     1     -22.422   2.250 -17.327  1.00  0.00     0.159 C 
HETATM   22  C30 UNL     1     -21.837   3.148 -18.327  1.00  0.00     0.135 C 
HETATM   23  N6  UNL     1     -21.430   4.472 -18.274  1.00  0.00    -0.367 N 
ATOM     24  H6  UNL     1     -21.610   4.989 -19.136  1.00  0.00     0.161 HD
HETATM   25  C31 UNL     1     -20.813   5.256 -17.259  1.00  0.00     0.105 C 
ENDROOT
BRANCH   1  26
HETATM   26  C6  UNL     1     -19.229   6.813 -18.428  1.00  0.00     0.233 C 
HETATM   27  N1  UNL     1     -18.566   8.006 -18.013  1.00  0.00    -0.356 N 
ATOM     28  H1  UNL     1     -18.185   8.047 -17.068  1.00  0.00     0.162 HD
HETATM   29  O2  UNL     1     -19.684   6.808 -19.607  1.00  0.00    -0.273 OA
BRANCH  27  30
HETATM   30  C4  UNL     1     -18.412   9.149 -18.863  1.00  0.00     0.087 C 
HETATM   31  C5  UNL     1     -17.046   9.761 -18.727  1.00  0.00     0.032 C 
BRANCH  30  32
HETATM   32  C3  UNL     1     -19.459  10.210 -18.609  1.00  0.00     0.102 C 
BRANCH  32  33
HETATM   33  C2  UNL     1     -20.571  10.007 -19.577  1.00  0.00     0.125 C 
HETATM   34  C1  UNL     1     -21.961   9.699 -19.113  1.00  0.00     0.091 C 
HETATM   35  O1  UNL     1     -20.392  10.084 -20.781  1.00  0.00    -0.298 OA
ENDBRANCH  32  33
ENDBRANCH  30  32
ENDBRANCH  27  30
ENDBRANCH   1  26
BRANCH  25  36
HETATM   36  C32 UNL     1     -21.517   6.631 -17.281  1.00  0.00     0.030 C 
BRANCH  36  37
HETATM   37  C33 UNL     1     -21.788   7.229 -15.961  1.00  0.00    -0.021 C 
HETATM   38  C34 UNL     1     -20.924   8.404 -15.648  1.00  0.00     0.009 C 
HETATM   39  C35 UNL     1     -23.233   7.759 -16.032  1.00  0.00     0.009 C 
ENDBRANCH  36  37
ENDBRANCH  25  36
BRANCH   6  40
HETATM   40  C10 UNL     1     -16.437   5.223 -15.142  1.00  0.00     0.038 C 
BRANCH  40  41
HETATM   41  C11 UNL     1     -16.351   6.469 -15.913  1.00  0.00    -0.020 C 
HETATM   42  C12 UNL     1     -16.945   7.708 -15.363  1.00  0.00     0.009 C 
HETATM   43  C13 UNL     1     -14.881   6.666 -16.295  1.00  0.00     0.009 C 
ENDBRANCH  40  41
ENDBRANCH   6  40
BRANCH  22  44
HETATM   44  O7  UNL     1     -21.667   2.592 -19.495  1.00  0.00    -0.348 OA
ATOM     45  H7  UNL     1     -21.724   3.204 -20.220  1.00  0.00     0.219 HD
ENDBRANCH  22  44
BRANCH  21  46
HETATM   46  C26 UNL     1     -23.898   2.181 -17.267  1.00  0.00     0.037 C 
BRANCH  46  47
HETATM   47  C27 UNL     1     -24.604   0.924 -17.523  1.00  0.00    -0.020 C 
HETATM   48  C28 UNL     1     -25.191   0.241 -16.329  1.00  0.00     0.009 C 
HETATM   49  C29 UNL     1     -23.848   0.001 -18.423  1.00  0.00     0.009 C 
ENDBRANCH  46  47
ENDBRANCH  21  46
BRANCH  11  50
HETATM   50  C16 UNL     1     -16.862   0.215 -17.481  1.00  0.00     0.009 C 
HETATM   51  C17 UNL     1     -15.555  -0.393 -17.098  1.00  0.00     0.012 C 
HETATM   52  C18 UNL     1     -17.729  -0.774 -18.190  1.00  0.00     0.012 C 
ENDBRANCH  11  50
BRANCH  16  53
HETATM   53  C21 UNL     1     -21.808  -0.689 -15.417  1.00  0.00     0.009 C 
HETATM   54  C22 UNL     1     -21.715  -1.066 -13.957  1.00  0.00     0.012 C 
HETATM   55  C23 UNL     1     -21.527  -1.962 -16.211  1.00  0.00     0.012 C 
ENDBRANCH  16  53
TORSDOF 13
ENDMDL
MODEL 4
REMARK VINA RESULT: -6.583520625     11.176     17.302
REMARK  13 active torsions:
REMARK  status: ('A' for Active; 'I' for Inactive)
REMARK    1  A    between atoms: C2_2  and  C3_4 
REMARK    2  A    between atoms: C3_4  and  C4_5 
REMARK    3  A    between atoms: C4_5  and  N1_7 
REMARK       I    between atoms: N1_7  and  C6_9 
REMARK    4  A    between atoms: C6_9  and  C7_11 
REMARK    5  A    between atoms: C9_16  and  C10_17 
REMARK    6  A    between atoms: C10_17  and  C11_18 
REMARK    7  A    between atoms: C15_25  and  C16_26 
REMARK    8  A    between atoms: C20_33  and  C21_34 
REMARK    9  A    between atoms: C25_41  and  C26_42 
REMARK   10  A    between atoms: C26_42  and  C27_43 
REMARK   11  A    between atoms: C30_46  and  O7_47 
REMARK   12  A    between atoms: C31_51  and  C32_52 
REMARK   13  A    between atoms: C32_52  and  C33_53 
ROOT
HETATM    1  C7  UNL     1     -14.393  15.435 -23.264  1.00  0.00     0.192 C 
HETATM    2  C8  UNL     1     -13.553  16.612 -23.262  1.00  0.00     0.233 C 
HETATM    3  O3  UNL     1     -13.848  17.574 -22.492  1.00  0.00    -0.273 OA
HETATM    4  N2  UNL     1     -12.397  16.802 -24.059  1.00  0.00    -0.347 N 
ATOM      5  H2  UNL     1     -11.546  17.107 -23.586  1.00  0.00     0.163 HD
HETATM    6  C9  UNL     1     -12.328  16.595 -25.513  1.00  0.00     0.177 C 
HETATM    7  C14 UNL     1     -11.510  17.773 -25.990  1.00  0.00     0.241 C 
HETATM    8  O4  UNL     1     -10.257  17.659 -25.831  1.00  0.00    -0.271 OA
HETATM    9  N3  UNL     1     -12.061  18.931 -26.570  1.00  0.00    -0.346 N 
ATOM     10  H3  UNL     1     -11.690  19.217 -27.476  1.00  0.00     0.163 HD
HETATM   11  C15 UNL     1     -13.106  19.752 -25.998  1.00  0.00     0.180 C 
HETATM   12  C19 UNL     1     -13.812  20.442 -27.101  1.00  0.00     0.241 C 
HETATM   13  O5  UNL     1     -13.170  21.303 -27.758  1.00  0.00    -0.271 OA
HETATM   14  N4  UNL     1     -15.146  20.195 -27.458  1.00  0.00    -0.346 N 
ATOM     15  H4  UNL     1     -15.384  20.253 -28.447  1.00  0.00     0.163 HD
HETATM   16  C20 UNL     1     -16.214  19.864 -26.537  1.00  0.00     0.180 C 
HETATM   17  C24 UNL     1     -16.384  18.396 -26.458  1.00  0.00     0.241 C 
HETATM   18  O6  UNL     1     -15.663  17.679 -27.236  1.00  0.00    -0.271 OA
HETATM   19  N5  UNL     1     -17.295  17.755 -25.573  1.00  0.00    -0.347 N 
ATOM     20  H5  UNL     1     -17.649  16.835 -25.836  1.00  0.00     0.163 HD
HETATM   21  C25 UNL     1     -17.755  18.327 -24.315  1.00  0.00     0.159 C 
HETATM   22  C30 UNL     1     -17.063  17.839 -23.119  1.00  0.00     0.135 C 
HETATM   23  N6  UNL     1     -16.534  16.603 -22.781  1.00  0.00    -0.367 N 
ATOM     24  H6  UNL     1     -16.642  16.369 -21.794  1.00  0.00     0.161 HD
HETATM   25  C31 UNL     1     -15.870  15.594 -23.535  1.00  0.00     0.105 C 
ENDROOT
BRANCH   1  26
HETATM   26  C6  UNL     1     -14.117  14.619 -22.026  1.00  0.00     0.233 C 
HETATM   27  N1  UNL     1     -15.088  14.496 -20.987  1.00  0.00    -0.356 N 
ATOM     28  H1  UNL     1     -15.981  14.975 -21.097  1.00  0.00     0.162 HD
HETATM   29  O2  UNL     1     -13.026  14.007 -21.846  1.00  0.00    -0.273 OA
BRANCH  27  30
HETATM   30  C4  UNL     1     -14.864  13.730 -19.798  1.00  0.00     0.087 C 
HETATM   31  C5  UNL     1     -15.101  12.264 -20.028  1.00  0.00     0.032 C 
BRANCH  30  32
HETATM   32  C3  UNL     1     -15.717  14.195 -18.637  1.00  0.00     0.102 C 
BRANCH  32  33
HETATM   33  C2  UNL     1     -17.134  14.238 -19.090  1.00  0.00     0.125 C 
HETATM   34  C1  UNL     1     -18.109  13.171 -18.700  1.00  0.00     0.091 C 
HETATM   35  O1  UNL     1     -17.553  15.142 -19.793  1.00  0.00    -0.298 OA
ENDBRANCH  32  33
ENDBRANCH  30  32
ENDBRANCH  27  30
ENDBRANCH   1  26
BRANCH  25  36
HETATM   36  C32 UNL     1     -16.440  14.243 -23.050  1.00  0.00     0.030 C 
BRANCH  36  37
HETATM   37  C33 UNL     1     -17.907  14.114 -23.106  1.00  0.00    -0.021 C 
HETATM   38  C34 UNL     1     -18.443  13.973 -24.492  1.00  0.00     0.009 C 
HETATM   39  C35 UNL     1     -18.239  12.798 -22.376  1.00  0.00     0.009 C 
ENDBRANCH  36  37
ENDBRANCH  25  36
BRANCH   6  40
HETATM   40  C10 UNL     1     -11.571  15.323 -25.786  1.00  0.00     0.038 C 
BRANCH  40  41
HETATM   41  C11 UNL     1     -11.174  15.032 -27.169  1.00  0.00    -0.020 C 
HETATM   42  C12 UNL     1      -9.749  15.131 -27.554  1.00  0.00     0.009 C 
HETATM   43  C13 UNL     1     -11.767  13.668 -27.534  1.00  0.00     0.009 C 
ENDBRANCH  40  41
ENDBRANCH   6  40
BRANCH  22  44
HETATM   44  O7  UNL     1     -16.918  18.745 -22.191  1.00  0.00    -0.348 OA
ATOM     45  H7  UNL     1     -16.989  18.400 -21.308  1.00  0.00     0.219 HD
ENDBRANCH  22  44
BRANCH  21  46
HETATM   46  C26 UNL     1     -19.232  18.252 -24.316  1.00  0.00     0.037 C 
BRANCH  46  47
HETATM   47  C27 UNL     1     -19.922  17.023 -24.716  1.00  0.00    -0.020 C 
HETATM   48  C28 UNL     1     -20.471  16.997 -26.106  1.00  0.00     0.009 C 
HETATM   49  C29 UNL     1     -20.888  16.534 -23.686  1.00  0.00     0.009 C 
ENDBRANCH  46  47
ENDBRANCH  21  46
BRANCH  11  50
HETATM   50  C16 UNL     1     -12.411  20.759 -25.095  1.00  0.00     0.009 C 
HETATM   51  C17 UNL     1     -12.396  20.326 -23.668  1.00  0.00     0.012 C 
HETATM   52  C18 UNL     1     -11.029  21.051 -25.583  1.00  0.00     0.012 C 
ENDBRANCH  11  50
BRANCH  16  53
HETATM   53  C21 UNL     1     -17.469  20.560 -27.072  1.00  0.00     0.009 C 
HETATM   54  C22 UNL     1     -17.902  19.841 -28.328  1.00  0.00     0.012 C 
HETATM   55  C23 UNL     1     -17.009  21.949 -27.505  1.00  0.00     0.012 C 
ENDBRANCH  16  53
TORSDOF 13
ENDMDL
MODEL 5
REMARK VINA RESULT: -6.520735232      0.887      1.034
REMARK  13 active torsions:
REMARK  status: ('A' for Active; 'I' for Inactive)
REMARK    1  A    between atoms: C2_2  and  C3_4 
REMARK    2  A    between atoms: C3_4  and  C4_5 
REMARK    3  A    between atoms: C4_5  and  N1_7 
REMARK       I    between atoms: N1_7  and  C6_9 
REMARK    4  A    between atoms: C6_9  and  C7_11 
REMARK    5  A    between atoms: C9_16  and  C10_17 
REMARK    6  A    between atoms: C10_17  and  C11_18 
REMARK    7  A    between atoms: C15_25  and  C16_26 
REMARK    8  A    between atoms: C20_33  and  C21_34 
REMARK    9  A    between atoms: C25_41  and  C26_42 
REMARK   10  A    between atoms: C26_42  and  C27_43 
REMARK   11  A    between atoms: C30_46  and  O7_47 
REMARK   12  A    between atoms: C31_51  and  C32_52 
REMARK   13  A    between atoms: C32_52  and  C33_53 
ROOT
HETATM    1  C7  UNL     1     -17.409   5.418 -15.393  1.00  0.00     0.192 C 
HETATM    2  C8  UNL     1     -16.313   4.475 -15.389  1.00  0.00     0.233 C 
HETATM    3  O3  UNL     1     -15.728   4.210 -16.482  1.00  0.00    -0.273 OA
HETATM    4  N2  UNL     1     -15.809   3.800 -14.250  1.00  0.00    -0.347 N 
ATOM      5  H2  UNL     1     -14.802   3.833 -14.092  1.00  0.00     0.163 HD
HETATM    6  C9  UNL     1     -16.624   3.055 -13.279  1.00  0.00     0.177 C 
HETATM    7  C14 UNL     1     -15.801   1.814 -13.018  1.00  0.00     0.241 C 
HETATM    8  O4  UNL     1     -14.833   1.969 -12.212  1.00  0.00    -0.271 OA
HETATM    9  N3  UNL     1     -16.054   0.562 -13.609  1.00  0.00    -0.346 N 
ATOM     10  H3  UNL     1     -16.151  -0.235 -12.981  1.00  0.00     0.163 HD
HETATM   11  C15 UNL     1     -16.188   0.305 -15.027  1.00  0.00     0.180 C 
HETATM   12  C19 UNL     1     -17.027  -0.904 -15.202  1.00  0.00     0.241 C 
HETATM   13  O5  UNL     1     -16.558  -2.002 -14.807  1.00  0.00    -0.271 OA
HETATM   14  N4  UNL     1     -18.305  -0.896 -15.779  1.00  0.00    -0.346 N 
ATOM     15  H4  UNL     1     -18.990  -1.552 -15.404  1.00  0.00     0.163 HD
HETATM   16  C20 UNL     1     -18.733  -0.036 -16.862  1.00  0.00     0.180 C 
HETATM   17  C24 UNL     1     -19.408   1.166 -16.324  1.00  0.00     0.241 C 
HETATM   18  O6  UNL     1     -19.583   1.223 -15.057  1.00  0.00    -0.271 OA
HETATM   19  N5  UNL     1     -19.865   2.244 -17.134  1.00  0.00    -0.347 N 
ATOM     20  H5  UNL     1     -20.639   2.809 -16.785  1.00  0.00     0.163 HD
HETATM   21  C25 UNL     1     -19.298   2.590 -18.429  1.00  0.00     0.159 C 
HETATM   22  C30 UNL     1     -18.339   3.699 -18.411  1.00  0.00     0.135 C 
HETATM   23  N6  UNL     1     -18.263   4.862 -17.661  1.00  0.00    -0.367 N 
ATOM     24  H6  UNL     1     -17.906   5.662 -18.184  1.00  0.00     0.161 HD
HETATM   25  C31 UNL     1     -18.585   5.164 -16.307  1.00  0.00     0.105 C 
ENDROOT
BRANCH   1  26
HETATM   26  C6  UNL     1     -16.868   6.819 -15.523  1.00  0.00     0.233 C 
HETATM   27  N1  UNL     1     -16.949   7.534 -16.755  1.00  0.00    -0.356 N 
ATOM     28  H1  UNL     1     -17.384   7.075 -17.556  1.00  0.00     0.162 HD
HETATM   29  O2  UNL     1     -16.322   7.427 -14.559  1.00  0.00    -0.273 OA
BRANCH  27  30
HETATM   30  C4  UNL     1     -16.448   8.866 -16.919  1.00  0.00     0.087 C 
HETATM   31  C5  UNL     1     -17.157   9.594 -18.026  1.00  0.00     0.032 C 
BRANCH  30  32
HETATM   32  C3  UNL     1     -14.958   8.900 -17.177  1.00  0.00     0.102 C 
BRANCH  32  33
HETATM   33  C2  UNL     1     -14.356   9.935 -16.293  1.00  0.00     0.125 C 
HETATM   34  C1  UNL     1     -13.621  11.110 -16.858  1.00  0.00     0.091 C 
HETATM   35  O1  UNL     1     -14.439   9.864 -15.078  1.00  0.00    -0.298 OA
ENDBRANCH  32  33
ENDBRANCH  30  32
ENDBRANCH  27  30
ENDBRANCH   1  26
BRANCH  25  36
HETATM   36  C32 UNL     1     -19.290   6.538 -16.323  1.00  0.00     0.030 C 
BRANCH  36  37
HETATM   37  C33 UNL     1     -20.482   6.631 -17.186  1.00  0.00    -0.021 C 
HETATM   38  C34 UNL     1     -21.425   5.485 -17.028  1.00  0.00     0.009 C 
HETATM   39  C35 UNL     1     -21.241   7.887 -16.715  1.00  0.00     0.009 C 
ENDBRANCH  36  37
ENDBRANCH  25  36
BRANCH   6  40
HETATM   40  C10 UNL     1     -16.724   3.859 -12.011  1.00  0.00     0.038 C 
BRANCH  40  41
HETATM   41  C11 UNL     1     -17.849   3.597 -11.107  1.00  0.00    -0.020 C 
HETATM   42  C12 UNL     1     -18.828   2.541 -11.449  1.00  0.00     0.009 C 
HETATM   43  C13 UNL     1     -17.268   3.398  -9.704  1.00  0.00     0.009 C 
ENDBRANCH  40  41
ENDBRANCH   6  40
BRANCH  22  44
HETATM   44  O7  UNL     1     -17.367   3.564 -19.272  1.00  0.00    -0.348 OA
ATOM     45  H7  UNL     1     -16.602   4.089 -19.068  1.00  0.00     0.219 HD
ENDBRANCH  22  44
BRANCH  21  46
HETATM   46  C26 UNL     1     -20.422   2.689 -19.385  1.00  0.00     0.037 C 
BRANCH  46  47
HETATM   47  C27 UNL     1     -20.666   1.634 -20.371  1.00  0.00    -0.020 C 
HETATM   48  C28 UNL     1     -19.990   1.798 -21.694  1.00  0.00     0.009 C 
HETATM   49  C29 UNL     1     -22.107   1.259 -20.483  1.00  0.00     0.009 C 
ENDBRANCH  46  47
ENDBRANCH  21  46
BRANCH  11  50
HETATM   50  C16 UNL     1     -14.782   0.061 -15.551  1.00  0.00     0.009 C 
HETATM   51  C17 UNL     1     -13.960  -0.758 -14.614  1.00  0.00     0.012 C 
HETATM   52  C18 UNL     1     -14.817  -0.553 -16.913  1.00  0.00     0.012 C 
ENDBRANCH  11  50
BRANCH  16  53
HETATM   53  C21 UNL     1     -19.670  -0.879 -17.732  1.00  0.00     0.009 C 
HETATM   54  C22 UNL     1     -19.869  -2.212 -17.049  1.00  0.00     0.012 C 
HETATM   55  C23 UNL     1     -18.887  -1.162 -19.011  1.00  0.00     0.012 C 
ENDBRANCH  16  53
TORSDOF 13
ENDMDL
