MODEL 1
REMARK VINA RESULT: -8.804668650      0.000      0.000
REMARK  14 active torsions:
REMARK  status: ('A' for Active; 'I' for Inactive)
REMARK    1  A    between atoms: O1_2  and  C2_3 
REMARK    2  A    between atoms: C4_5  and  N1_6 
REMARK    3  A    between atoms: C7_9  and  C8_10 
REMARK    4  A    between atoms: C8_10  and  C9_11 
REMARK    5  A    between atoms: C9_11  and  N2_12 
REMARK    6  A    between atoms: C17_24  and  N5_25 
REMARK    7  A    between atoms: N5_25  and  C18_27 
REMARK    8  A    between atoms: C20_31  and  O3_32 
REMARK    9  A    between atoms: O3_32  and  C21_33 
REMARK   10  A    between atoms: C21_33  and  C22_34 
REMARK   11  A    between atoms: C25_37  and  N7_38 
REMARK   12  A    between atoms: N7_38  and  C26_40 
REMARK   13  A    between atoms: C26_40  and  C28_42 
REMARK   14  A    between atoms: C28_42  and  O4_43 
ROOT
HETATM    1  C2  UNL     1     -16.415  13.458 -21.213  1.00  0.00     0.115 A 
HETATM    2  C3  UNL     1     -16.972  13.971 -22.359  1.00  0.00     0.071 A 
HETATM    3  C4  UNL     1     -18.238  14.507 -22.335  1.00  0.00     0.048 A 
HETATM    4  C16 UNL     1     -18.946  14.527 -21.148  1.00  0.00     0.119 A 
HETATM    5  N4  UNL     1     -18.355  14.012 -20.058  1.00  0.00    -0.347 N 
ATOM      6  H4  UNL     1     -18.882  14.027 -19.185  1.00  0.00     0.167 HD
HETATM    7  C17 UNL     1     -17.126  13.477 -20.028  1.00  0.00     0.154 A 
ENDROOT
BRANCH   7   8
HETATM    8  N5  UNL     1     -16.530  12.926 -18.888  1.00  0.00    -0.174 N 
ATOM      9  H5  UNL     1     -16.103  13.589 -18.241  1.00  0.00     0.186 HD
BRANCH   8  10
HETATM   10  C18 UNL     1     -16.455  11.691 -18.560  1.00  0.00     0.685 A 
HETATM   11  N6  UNL     1     -15.364  11.015 -18.969  1.00  0.00    -0.199 N 
HETATM   12  C19 UNL     1     -15.175   9.715 -18.681  1.00  0.00     0.146 A 
ATOM     13  H6  UNL     1     -14.657  11.506 -19.516  1.00  0.00     0.183 HD
HETATM   14  C20 UNL     1     -16.161   9.064 -17.928  1.00  0.00     0.129 A 
HETATM   15  C25 UNL     1     -17.287   9.760 -17.505  1.00  0.00     0.152 A 
HETATM   16  N8  UNL     1     -17.406  11.057 -17.832  1.00  0.00    -0.174 N 
ATOM     17  H8  UNL     1     -18.229  11.575 -17.525  1.00  0.00     0.186 HD
BRANCH  14  18
HETATM   18  O3  UNL     1     -16.028   7.724 -17.595  1.00  0.00    -0.346 OA
BRANCH  18  19
HETATM   19  C21 UNL     1     -14.789   7.294 -17.085  1.00  0.00     0.179 C 
BRANCH  19  20
HETATM   20  C22 UNL     1     -14.730   7.225 -15.594  1.00  0.00     0.002 C 
HETATM   21  C23 UNL     1     -16.077   6.911 -14.977  1.00  0.00     0.011 C 
HETATM   22  C24 UNL     1     -14.104   8.456 -15.033  1.00  0.00     0.011 C 
ENDBRANCH  19  20
ENDBRANCH  18  19
ENDBRANCH  14  18
BRANCH  15  23
HETATM   23  N7  UNL     1     -18.153   9.140 -16.829  1.00  0.00    -0.367 N 
ATOM     24  H7  UNL     1     -17.878   8.918 -15.872  1.00  0.00     0.161 HD
BRANCH  23  25
HETATM   25  C26 UNL     1     -19.455   8.704 -17.201  1.00  0.00     0.102 C 
HETATM   26  C27 UNL     1     -19.447   7.752 -18.380  1.00  0.00     0.034 C 
BRANCH  25  27
HETATM   27  C28 UNL     1     -20.052   7.973 -15.991  1.00  0.00     0.188 C 
BRANCH  27  28
HETATM   28  O4  UNL     1     -19.447   8.471 -14.839  1.00  0.00    -0.399 OA
ATOM     29  H4  UNL     1     -19.914   9.254 -14.572  1.00  0.00     0.209 HD
ENDBRANCH  27  28
ENDBRANCH  25  27
ENDBRANCH  23  25
ENDBRANCH  15  23
ENDBRANCH   8  10
ENDBRANCH   7   8
BRANCH   1  30
HETATM   30  O1  UNL     1     -15.132  12.930 -21.298  1.00  0.00    -0.352 OA
HETATM   31  C1  UNL     1     -13.981  13.750 -21.295  1.00  0.00     0.210 C 
ENDBRANCH   1  30
BRANCH   3  32
HETATM   32  N1  UNL     1     -18.777  15.007 -23.549  1.00  0.00    -0.380 N 
HETATM   33  C5  UNL     1     -20.145  15.415 -23.583  1.00  0.00     0.123 C 
HETATM   34  C6  UNL     1     -20.624  16.008 -24.867  1.00  0.00     0.024 C 
HETATM   35  C7  UNL     1     -19.520  16.797 -25.569  1.00  0.00    -0.010 C 
HETATM   36  C14 UNL     1     -18.416  15.824 -25.871  1.00  0.00     0.024 C 
HETATM   37  C15 UNL     1     -17.909  15.087 -24.685  1.00  0.00     0.123 C 
BRANCH  35  38
HETATM   38  C8  UNL     1     -19.126  17.903 -24.662  1.00  0.00     0.024 C 
BRANCH  38  39
HETATM   39  C9  UNL     1     -17.901  18.650 -25.101  1.00  0.00     0.128 C 
BRANCH  39  40
HETATM   40  N2  UNL     1     -16.737  18.373 -24.284  1.00  0.00    -0.333 N 
HETATM   41  C10 UNL     1     -16.590  18.128 -22.870  1.00  0.00     0.147 C 
HETATM   42  C11 UNL     1     -15.322  17.301 -22.753  1.00  0.00     0.147 C 
HETATM   43  N3  UNL     1     -14.535  17.824 -23.880  1.00  0.00    -0.337 N 
HETATM   44  C12 UNL     1     -13.097  17.837 -23.996  1.00  0.00     0.154 C 
HETATM   45  C13 UNL     1     -15.411  18.328 -24.865  1.00  0.00     0.320 C 
HETATM   46  O2  UNL     1     -15.087  18.673 -26.030  1.00  0.00    -0.247 OA
ENDBRANCH  39  40
ENDBRANCH  38  39
ENDBRANCH  35  38
ENDBRANCH   3  32
TORSDOF 14
ENDMDL
MODEL 2
REMARK VINA RESULT: -8.796327515      1.921      2.532
REMARK  14 active torsions:
REMARK  status: ('A' for Active; 'I' for Inactive)
REMARK    1  A    between atoms: O1_2  and  C2_3 
REMARK    2  A    between atoms: C4_5  and  N1_6 
REMARK    3  A    between atoms: C7_9  and  C8_10 
REMARK    4  A    between atoms: C8_10  and  C9_11 
REMARK    5  A    between atoms: C9_11  and  N2_12 
REMARK    6  A    between atoms: C17_24  and  N5_25 
REMARK    7  A    between atoms: N5_25  and  C18_27 
REMARK    8  A    between atoms: C20_31  and  O3_32 
REMARK    9  A    between atoms: O3_32  and  C21_33 
REMARK   10  A    between atoms: C21_33  and  C22_34 
REMARK   11  A    between atoms: C25_37  and  N7_38 
REMARK   12  A    between atoms: N7_38  and  C26_40 
REMARK   13  A    between atoms: C26_40  and  C28_42 
REMARK   14  A    between atoms: C28_42  and  O4_43 
ROOT
HETATM    1  C2  UNL     1     -18.865  13.496 -20.724  1.00  0.00     0.115 A 
HETATM    2  C3  UNL     1     -19.191  14.027 -21.948  1.00  0.00     0.071 A 
HETATM    3  C4  UNL     1     -18.412  15.013 -22.506  1.00  0.00     0.048 A 
HETATM    4  C16 UNL     1     -17.296  15.465 -21.827  1.00  0.00     0.119 A 
HETATM    5  N4  UNL     1     -17.024  14.912 -20.634  1.00  0.00    -0.347 N 
ATOM      6  H4  UNL     1     -16.201  15.250 -20.136  1.00  0.00     0.167 HD
HETATM    7  C17 UNL     1     -17.750  13.951 -20.046  1.00  0.00     0.154 A 
ENDROOT
BRANCH   7   8
HETATM    8  N5  UNL     1     -17.465  13.398 -18.792  1.00  0.00    -0.174 N 
ATOM      9  H5  UNL     1     -17.656  13.993 -17.986  1.00  0.00     0.186 HD
BRANCH   8  10
HETATM   10  C18 UNL     1     -16.994  12.237 -18.535  1.00  0.00     0.685 A 
HETATM   11  N6  UNL     1     -15.807  11.922 -19.090  1.00  0.00    -0.199 N 
HETATM   12  C19 UNL     1     -15.213  10.732 -18.888  1.00  0.00     0.146 A 
ATOM     13  H6  UNL     1     -15.344  12.609 -19.684  1.00  0.00     0.183 HD
HETATM   14  C20 UNL     1     -15.870   9.806 -18.067  1.00  0.00     0.129 A 
HETATM   15  C25 UNL     1     -17.094  10.129 -17.493  1.00  0.00     0.152 A 
HETATM   16  N8  UNL     1     -17.625  11.337 -17.742  1.00  0.00    -0.174 N 
ATOM     17  H8  UNL     1     -18.523  11.583 -17.324  1.00  0.00     0.186 HD
BRANCH  14  18
HETATM   18  O3  UNL     1     -15.312   8.561 -17.816  1.00  0.00    -0.346 OA
BRANCH  18  19
HETATM   19  C21 UNL     1     -14.145   8.511 -17.033  1.00  0.00     0.179 C 
BRANCH  19  20
HETATM   20  C22 UNL     1     -14.299   7.761 -15.749  1.00  0.00     0.002 C 
HETATM   21  C23 UNL     1     -15.211   6.562 -15.889  1.00  0.00     0.011 C 
HETATM   22  C24 UNL     1     -14.704   8.680 -14.647  1.00  0.00     0.011 C 
ENDBRANCH  19  20
ENDBRANCH  18  19
ENDBRANCH  14  18
BRANCH  15  23
HETATM   23  N7  UNL     1     -17.655   9.270 -16.760  1.00  0.00    -0.367 N 
ATOM     24  H7  UNL     1     -17.155   9.040 -15.901  1.00  0.00     0.161 HD
BRANCH  23  25
HETATM   25  C26 UNL     1     -18.881   8.572 -16.952  1.00  0.00     0.102 C 
HETATM   26  C27 UNL     1     -18.847   7.630 -18.138  1.00  0.00     0.034 C 
BRANCH  25  27
HETATM   27  C28 UNL     1     -19.137   7.749 -15.683  1.00  0.00     0.188 C 
BRANCH  27  28
HETATM   28  O4  UNL     1     -19.483   8.625 -14.657  1.00  0.00    -0.399 OA
ATOM     29  H4  UNL     1     -20.200   9.170 -14.960  1.00  0.00     0.209 HD
ENDBRANCH  27  28
ENDBRANCH  25  27
ENDBRANCH  23  25
ENDBRANCH  15  23
ENDBRANCH   8  10
ENDBRANCH   7   8
BRANCH   1  30
HETATM   30  O1  UNL     1     -19.689  12.502 -20.210  1.00  0.00    -0.352 OA
HETATM   31  C1  UNL     1     -19.804  11.232 -20.820  1.00  0.00     0.210 C 
ENDBRANCH   1  30
BRANCH   3  32
HETATM   32  N1  UNL     1     -18.802  15.543 -23.764  1.00  0.00    -0.380 N 
HETATM   33  C5  UNL     1     -20.038  16.250 -23.863  1.00  0.00     0.123 C 
HETATM   34  C6  UNL     1     -20.347  16.853 -25.194  1.00  0.00     0.024 C 
HETATM   35  C7  UNL     1     -19.080  17.322 -25.908  1.00  0.00    -0.010 C 
HETATM   36  C14 UNL     1     -18.226  16.104 -26.118  1.00  0.00     0.024 C 
HETATM   37  C15 UNL     1     -17.921  15.348 -24.876  1.00  0.00     0.123 C 
BRANCH  35  38
HETATM   38  C8  UNL     1     -18.456  18.364 -25.057  1.00  0.00     0.024 C 
BRANCH  38  39
HETATM   39  C9  UNL     1     -17.025  18.658 -25.396  1.00  0.00     0.128 C 
BRANCH  39  40
HETATM   40  N2  UNL     1     -16.866  19.368 -26.649  1.00  0.00    -0.333 N 
HETATM   41  C10 UNL     1     -17.694  20.345 -27.312  1.00  0.00     0.147 C 
HETATM   42  C11 UNL     1     -16.732  21.140 -28.177  1.00  0.00     0.147 C 
HETATM   43  N3  UNL     1     -15.735  20.112 -28.514  1.00  0.00    -0.337 N 
HETATM   44  C12 UNL     1     -14.890  20.080 -29.683  1.00  0.00     0.154 C 
HETATM   45  C13 UNL     1     -15.720  19.128 -27.503  1.00  0.00     0.320 C 
HETATM   46  O2  UNL     1     -14.865  18.216 -27.376  1.00  0.00    -0.247 OA
ENDBRANCH  39  40
ENDBRANCH  38  39
ENDBRANCH  35  38
ENDBRANCH   3  32
TORSDOF 14
ENDMDL
MODEL 3
REMARK VINA RESULT: -8.763814095      1.926     11.090
REMARK  14 active torsions:
REMARK  status: ('A' for Active; 'I' for Inactive)
REMARK    1  A    between atoms: O1_2  and  C2_3 
REMARK    2  A    between atoms: C4_5  and  N1_6 
REMARK    3  A    between atoms: C7_9  and  C8_10 
REMARK    4  A    between atoms: C8_10  and  C9_11 
REMARK    5  A    between atoms: C9_11  and  N2_12 
REMARK    6  A    between atoms: C17_24  and  N5_25 
REMARK    7  A    between atoms: N5_25  and  C18_27 
REMARK    8  A    between atoms: C20_31  and  O3_32 
REMARK    9  A    between atoms: O3_32  and  C21_33 
REMARK   10  A    between atoms: C21_33  and  C22_34 
REMARK   11  A    between atoms: C25_37  and  N7_38 
REMARK   12  A    between atoms: N7_38  and  C26_40 
REMARK   13  A    between atoms: C26_40  and  C28_42 
REMARK   14  A    between atoms: C28_42  and  O4_43 
ROOT
HETATM    1  C2  UNL     1     -17.917  11.676 -18.489  1.00  0.00     0.115 A 
HETATM    2  C3  UNL     1     -17.241  10.595 -17.977  1.00  0.00     0.071 A 
HETATM    3  C4  UNL     1     -15.878  10.647 -17.806  1.00  0.00     0.048 A 
HETATM    4  C16 UNL     1     -15.192  11.795 -18.153  1.00  0.00     0.119 A 
HETATM    5  N4  UNL     1     -15.902  12.821 -18.650  1.00  0.00    -0.347 N 
ATOM      6  H4  UNL     1     -15.391  13.666 -18.906  1.00  0.00     0.167 HD
HETATM    7  C17 UNL     1     -17.229  12.822 -18.836  1.00  0.00     0.154 A 
ENDROOT
BRANCH   7   8
HETATM    8  N5  UNL     1     -17.953  13.892 -19.374  1.00  0.00    -0.174 N 
ATOM      9  H5  UNL     1     -18.698  14.269 -18.787  1.00  0.00     0.186 HD
BRANCH   8  10
HETATM   10  C18 UNL     1     -17.794  14.456 -20.512  1.00  0.00     0.685 A 
HETATM   11  N6  UNL     1     -18.864  14.495 -21.329  1.00  0.00    -0.199 N 
HETATM   12  C19 UNL     1     -18.817  15.065 -22.547  1.00  0.00     0.146 A 
ATOM     13  H6  UNL     1     -19.740  14.080 -21.013  1.00  0.00     0.183 HD
HETATM   14  C20 UNL     1     -17.603  15.629 -22.956  1.00  0.00     0.129 A 
HETATM   15  C25 UNL     1     -16.497  15.590 -22.114  1.00  0.00     0.152 A 
HETATM   16  N8  UNL     1     -16.621  15.004 -20.912  1.00  0.00    -0.174 N 
ATOM     17  H8  UNL     1     -15.815  14.971 -20.288  1.00  0.00     0.186 HD
BRANCH  14  18
HETATM   18  O3  UNL     1     -17.485  16.233 -24.199  1.00  0.00    -0.346 OA
BRANCH  18  19
HETATM   19  C21 UNL     1     -18.393  15.850 -25.203  1.00  0.00     0.179 C 
BRANCH  19  20
HETATM   20  C22 UNL     1     -19.298  16.946 -25.663  1.00  0.00     0.002 C 
HETATM   21  C23 UNL     1     -18.869  18.303 -25.147  1.00  0.00     0.011 C 
HETATM   22  C24 UNL     1     -20.719  16.623 -25.348  1.00  0.00     0.011 C 
ENDBRANCH  19  20
ENDBRANCH  18  19
ENDBRANCH  14  18
BRANCH  15  23
HETATM   23  N7  UNL     1     -15.421  16.109 -22.517  1.00  0.00    -0.367 N 
ATOM     24  H7  UNL     1     -14.873  15.532 -23.156  1.00  0.00     0.161 HD
BRANCH  23  25
HETATM   25  C26 UNL     1     -14.855  17.380 -22.214  1.00  0.00     0.102 C 
HETATM   26  C27 UNL     1     -13.899  17.338 -21.039  1.00  0.00     0.034 C 
BRANCH  25  27
HETATM   27  C28 UNL     1     -14.080  17.839 -23.456  1.00  0.00     0.188 C 
BRANCH  27  28
HETATM   28  O4  UNL     1     -14.985  17.986 -24.505  1.00  0.00    -0.399 OA
ATOM     29  H4  UNL     1     -14.925  18.878 -24.827  1.00  0.00     0.209 HD
ENDBRANCH  27  28
ENDBRANCH  25  27
ENDBRANCH  23  25
ENDBRANCH  15  23
ENDBRANCH   8  10
ENDBRANCH   7   8
BRANCH   1  30
HETATM   30  O1  UNL     1     -19.295  11.565 -18.637  1.00  0.00    -0.352 OA
HETATM   31  C1  UNL     1     -19.881  10.851 -19.707  1.00  0.00     0.210 C 
ENDBRANCH   1  30
BRANCH   3  32
HETATM   32  N1  UNL     1     -15.223   9.497 -17.292  1.00  0.00    -0.380 N 
HETATM   33  C5  UNL     1     -14.358   9.640 -16.165  1.00  0.00     0.123 C 
HETATM   34  C6  UNL     1     -13.767   8.380 -15.624  1.00  0.00     0.024 C 
HETATM   35  C7  UNL     1     -14.727   7.200 -15.770  1.00  0.00    -0.010 C 
HETATM   36  C14 UNL     1     -14.975   7.022 -17.241  1.00  0.00     0.024 C 
HETATM   37  C15 UNL     1     -15.476   8.240 -17.928  1.00  0.00     0.123 C 
BRANCH  35  38
HETATM   38  C8  UNL     1     -15.942   7.522 -14.983  1.00  0.00     0.024 C 
BRANCH  38  39
HETATM   39  C9  UNL     1     -16.969   6.429 -14.963  1.00  0.00     0.128 C 
BRANCH  39  40
HETATM   40  N2  UNL     1     -18.185   6.772 -15.672  1.00  0.00    -0.333 N 
HETATM   41  C10 UNL     1     -19.100   7.878 -15.534  1.00  0.00     0.147 C 
HETATM   42  C11 UNL     1     -19.745   8.017 -16.902  1.00  0.00     0.147 C 
HETATM   43  N3  UNL     1     -19.749   6.619 -17.359  1.00  0.00    -0.337 N 
HETATM   44  C12 UNL     1     -20.661   6.023 -18.305  1.00  0.00     0.154 C 
HETATM   45  C13 UNL     1     -18.703   5.917 -16.721  1.00  0.00     0.320 C 
HETATM   46  O2  UNL     1     -18.304   4.763 -17.018  1.00  0.00    -0.247 OA
ENDBRANCH  39  40
ENDBRANCH  38  39
ENDBRANCH  35  38
ENDBRANCH   3  32
TORSDOF 14
ENDMDL
MODEL 4
REMARK VINA RESULT: -8.727401808      1.382      1.738
REMARK  14 active torsions:
REMARK  status: ('A' for Active; 'I' for Inactive)
REMARK    1  A    between atoms: O1_2  and  C2_3 
REMARK    2  A    between atoms: C4_5  and  N1_6 
REMARK    3  A    between atoms: C7_9  and  C8_10 
REMARK    4  A    between atoms: C8_10  and  C9_11 
REMARK    5  A    between atoms: C9_11  and  N2_12 
REMARK    6  A    between atoms: C17_24  and  N5_25 
REMARK    7  A    between atoms: N5_25  and  C18_27 
REMARK    8  A    between atoms: C20_31  and  O3_32 
REMARK    9  A    between atoms: O3_32  and  C21_33 
REMARK   10  A    between atoms: C21_33  and  C22_34 
REMARK   11  A    between atoms: C25_37  and  N7_38 
REMARK   12  A    between atoms: N7_38  and  C26_40 
REMARK   13  A    between atoms: C26_40  and  C28_42 
REMARK   14  A    between atoms: C28_42  and  O4_43 
ROOT
HETATM    1  C2  UNL     1     -17.036  14.428 -20.346  1.00  0.00     0.115 A 
HETATM    2  C3  UNL     1     -17.450  14.941 -21.551  1.00  0.00     0.071 A 
HETATM    3  C4  UNL     1     -18.464  14.332 -22.252  1.00  0.00     0.048 A 
HETATM    4  C16 UNL     1     -19.064  13.199 -21.735  1.00  0.00     0.119 A 
HETATM    5  N4  UNL     1     -18.619  12.740 -20.554  1.00  0.00    -0.347 N 
ATOM      6  H4  UNL     1     -19.063  11.903 -20.177  1.00  0.00     0.167 HD
HETATM    7  C17 UNL     1     -17.636  13.295 -19.831  1.00  0.00     0.154 A 
ENDROOT
BRANCH   7   8
HETATM    8  N5  UNL     1     -17.169  12.794 -18.611  1.00  0.00    -0.174 N 
ATOM      9  H5  UNL     1     -17.018  13.482 -17.873  1.00  0.00     0.186 HD
BRANCH   8  10
HETATM   10  C18 UNL     1     -16.910  11.578 -18.308  1.00  0.00     0.685 A 
HETATM   11  N6  UNL     1     -15.742  11.074 -18.749  1.00  0.00    -0.199 N 
HETATM   12  C19 UNL     1     -15.361   9.810 -18.490  1.00  0.00     0.146 A 
ATOM     13  H6  UNL     1     -15.125  11.671 -19.299  1.00  0.00     0.183 HD
HETATM   14  C20 UNL     1     -16.227   9.011 -17.733  1.00  0.00     0.129 A 
HETATM   15  C25 UNL     1     -17.433   9.530 -17.276  1.00  0.00     0.152 A 
HETATM   16  N8  UNL     1     -17.745  10.801 -17.575  1.00  0.00    -0.174 N 
ATOM     17  H8  UNL     1     -18.628  11.189 -17.244  1.00  0.00     0.186 HD
BRANCH  14  18
HETATM   18  O3  UNL     1     -15.895   7.699 -17.428  1.00  0.00    -0.346 OA
BRANCH  18  19
HETATM   19  C21 UNL     1     -14.620   7.454 -16.886  1.00  0.00     0.179 C 
BRANCH  19  20
HETATM   20  C22 UNL     1     -14.584   7.425 -15.392  1.00  0.00     0.002 C 
HETATM   21  C23 UNL     1     -15.880   6.921 -14.794  1.00  0.00     0.011 C 
HETATM   22  C24 UNL     1     -14.164   8.748 -14.849  1.00  0.00     0.011 C 
ENDBRANCH  19  20
ENDBRANCH  18  19
ENDBRANCH  14  18
BRANCH  15  23
HETATM   23  N7  UNL     1     -18.186   8.779 -16.596  1.00  0.00    -0.367 N 
ATOM     24  H7  UNL     1     -17.833   8.534 -15.671  1.00  0.00     0.161 HD
BRANCH  23  25
HETATM   25  C26 UNL     1     -19.454   8.224 -16.928  1.00  0.00     0.102 C 
HETATM   26  C27 UNL     1     -19.356   7.048 -17.878  1.00  0.00     0.034 C 
BRANCH  25  27
HETATM   27  C28 UNL     1     -20.093   7.740 -15.619  1.00  0.00     0.188 C 
BRANCH  27  28
HETATM   28  O4  UNL     1     -19.690   8.595 -14.595  1.00  0.00    -0.399 OA
ATOM     29  H4  UNL     1     -20.049   8.270 -13.778  1.00  0.00     0.209 HD
ENDBRANCH  27  28
ENDBRANCH  25  27
ENDBRANCH  23  25
ENDBRANCH  15  23
ENDBRANCH   8  10
ENDBRANCH   7   8
BRANCH   1  30
HETATM   30  O1  UNL     1     -16.008  15.088 -19.682  1.00  0.00    -0.352 OA
HETATM   31  C1  UNL     1     -14.670  15.046 -20.137  1.00  0.00     0.210 C 
ENDBRANCH   1  30
BRANCH   3  32
HETATM   32  N1  UNL     1     -18.842  14.888 -23.502  1.00  0.00    -0.380 N 
HETATM   33  C5  UNL     1     -20.080  15.594 -23.598  1.00  0.00     0.123 C 
HETATM   34  C6  UNL     1     -20.377  16.225 -24.919  1.00  0.00     0.024 C 
HETATM   35  C7  UNL     1     -19.105  16.712 -25.609  1.00  0.00    -0.010 C 
HETATM   36  C14 UNL     1     -18.245  15.502 -25.837  1.00  0.00     0.024 C 
HETATM   37  C15 UNL     1     -17.950  14.720 -24.609  1.00  0.00     0.123 C 
BRANCH  35  38
HETATM   38  C8  UNL     1     -18.492  17.737 -24.729  1.00  0.00     0.024 C 
BRANCH  38  39
HETATM   39  C9  UNL     1     -18.149  19.020 -25.427  1.00  0.00     0.128 C 
BRANCH  39  40
HETATM   40  N2  UNL     1     -17.150  18.859 -26.463  1.00  0.00    -0.333 N 
HETATM   41  C10 UNL     1     -17.252  18.821 -27.901  1.00  0.00     0.147 C 
HETATM   42  C11 UNL     1     -15.891  19.277 -28.397  1.00  0.00     0.147 C 
HETATM   43  N3  UNL     1     -15.015  18.770 -27.329  1.00  0.00    -0.337 N 
HETATM   44  C12 UNL     1     -13.620  18.420 -27.450  1.00  0.00     0.154 C 
HETATM   45  C13 UNL     1     -15.752  18.670 -26.130  1.00  0.00     0.320 C 
HETATM   46  O2  UNL     1     -15.273  18.455 -24.987  1.00  0.00    -0.247 OA
ENDBRANCH  39  40
ENDBRANCH  38  39
ENDBRANCH  35  38
ENDBRANCH   3  32
TORSDOF 14
ENDMDL
MODEL 5
REMARK VINA RESULT: -8.721183176      1.888     10.843
REMARK  14 active torsions:
REMARK  status: ('A' for Active; 'I' for Inactive)
REMARK    1  A    between atoms: O1_2  and  C2_3 
REMARK    2  A    between atoms: C4_5  and  N1_6 
REMARK    3  A    between atoms: C7_9  and  C8_10 
REMARK    4  A    between atoms: C8_10  and  C9_11 
REMARK    5  A    between atoms: C9_11  and  N2_12 
REMARK    6  A    between atoms: C17_24  and  N5_25 
REMARK    7  A    between atoms: N5_25  and  C18_27 
REMARK    8  A    between atoms: C20_31  and  O3_32 
REMARK    9  A    between atoms: O3_32  and  C21_33 
REMARK   10  A    between atoms: C21_33  and  C22_34 
REMARK   11  A    between atoms: C25_37  and  N7_38 
REMARK   12  A    between atoms: N7_38  and  C26_40 
REMARK   13  A    between atoms: C26_40  and  C28_42 
REMARK   14  A    between atoms: C28_42  and  O4_43 
ROOT
HETATM    1  C2  UNL     1     -17.887  11.903 -18.575  1.00  0.00     0.115 A 
HETATM    2  C3  UNL     1     -17.299  10.771 -18.065  1.00  0.00     0.071 A 
HETATM    3  C4  UNL     1     -15.941  10.727 -17.859  1.00  0.00     0.048 A 
HETATM    4  C16 UNL     1     -15.169  11.831 -18.168  1.00  0.00     0.119 A 
HETATM    5  N4  UNL     1     -15.795  12.911 -18.665  1.00  0.00    -0.347 N 
ATOM      6  H4  UNL     1     -15.221  13.723 -18.892  1.00  0.00     0.167 HD
HETATM    7  C17 UNL     1     -17.114  13.005 -18.885  1.00  0.00     0.154 A 
ENDROOT
BRANCH   7   8
HETATM    8  N5  UNL     1     -17.749  14.131 -19.421  1.00  0.00    -0.174 N 
ATOM      9  H5  UNL     1     -18.382  14.629 -18.795  1.00  0.00     0.186 HD
BRANCH   8  10
HETATM   10  C18 UNL     1     -17.631  14.612 -20.601  1.00  0.00     0.685 A 
HETATM   11  N6  UNL     1     -18.759  14.731 -21.328  1.00  0.00    -0.199 N 
HETATM   12  C19 UNL     1     -18.759  15.226 -22.579  1.00  0.00     0.146 A 
ATOM     13  H6  UNL     1     -19.643  14.436 -20.915  1.00  0.00     0.183 HD
HETATM   14  C20 UNL     1     -17.531  15.624 -23.121  1.00  0.00     0.129 A 
HETATM   15  C25 UNL     1     -16.365  15.502 -22.373  1.00  0.00     0.152 A 
HETATM   16  N8  UNL     1     -16.445  14.999 -21.131  1.00  0.00    -0.174 N 
ATOM     17  H8  UNL     1     -15.595  14.906 -20.575  1.00  0.00     0.186 HD
BRANCH  14  18
HETATM   18  O3  UNL     1     -17.459  16.144 -24.406  1.00  0.00    -0.346 OA
BRANCH  18  19
HETATM   19  C21 UNL     1     -18.474  15.791 -25.314  1.00  0.00     0.179 C 
BRANCH  19  20
HETATM   20  C22 UNL     1     -19.333  16.933 -25.749  1.00  0.00     0.002 C 
HETATM   21  C23 UNL     1     -18.833  18.263 -25.226  1.00  0.00     0.011 C 
HETATM   22  C24 UNL     1     -20.763  16.675 -25.415  1.00  0.00     0.011 C 
ENDBRANCH  19  20
ENDBRANCH  18  19
ENDBRANCH  14  18
BRANCH  15  23
HETATM   23  N7  UNL     1     -15.279  15.872 -22.897  1.00  0.00    -0.367 N 
ATOM     24  H7  UNL     1     -15.132  15.560 -23.857  1.00  0.00     0.161 HD
BRANCH  23  25
HETATM   25  C26 UNL     1     -14.227  16.658 -22.348  1.00  0.00     0.102 C 
HETATM   26  C27 UNL     1     -13.023  15.835 -21.939  1.00  0.00     0.034 C 
BRANCH  25  27
HETATM   27  C28 UNL     1     -13.792  17.653 -23.432  1.00  0.00     0.188 C 
BRANCH  27  28
HETATM   28  O4  UNL     1     -14.884  17.901 -24.260  1.00  0.00    -0.399 OA
ATOM     29  H4  UNL     1     -14.809  17.345 -25.027  1.00  0.00     0.209 HD
ENDBRANCH  27  28
ENDBRANCH  25  27
ENDBRANCH  23  25
ENDBRANCH  15  23
ENDBRANCH   8  10
ENDBRANCH   7   8
BRANCH   1  30
HETATM   30  O1  UNL     1     -19.264  11.889 -18.760  1.00  0.00    -0.352 OA
HETATM   31  C1  UNL     1     -19.859  11.378 -19.936  1.00  0.00     0.210 C 
ENDBRANCH   1  30
BRANCH   3  32
HETATM   32  N1  UNL     1     -15.379   9.527 -17.348  1.00  0.00    -0.380 N 
HETATM   33  C5  UNL     1     -14.896   9.506 -16.005  1.00  0.00     0.123 C 
HETATM   34  C6  UNL     1     -14.396   8.191 -15.505  1.00  0.00     0.024 C 
HETATM   35  C7  UNL     1     -15.176   7.025 -16.109  1.00  0.00    -0.010 C 
HETATM   36  C14 UNL     1     -14.967   7.086 -17.595  1.00  0.00     0.024 C 
HETATM   37  C15 UNL     1     -15.336   8.386 -18.212  1.00  0.00     0.123 C 
BRANCH  35  38
HETATM   38  C8  UNL     1     -16.590   7.177 -15.687  1.00  0.00     0.024 C 
BRANCH  38  39
HETATM   39  C9  UNL     1     -17.539   6.236 -16.369  1.00  0.00     0.128 C 
BRANCH  39  40
HETATM   40  N2  UNL     1     -18.899   6.734 -16.425  1.00  0.00    -0.333 N 
HETATM   41  C10 UNL     1     -20.014   6.589 -15.522  1.00  0.00     0.147 C 
HETATM   42  C11 UNL     1     -20.883   7.807 -15.785  1.00  0.00     0.147 C 
HETATM   43  N3  UNL     1     -20.630   8.033 -17.216  1.00  0.00    -0.337 N 
HETATM   44  C12 UNL     1     -21.515   8.677 -18.158  1.00  0.00     0.154 C 
HETATM   45  C13 UNL     1     -19.361   7.516 -17.554  1.00  0.00     0.320 C 
HETATM   46  O2  UNL     1     -18.753   7.705 -18.638  1.00  0.00    -0.247 OA
ENDBRANCH  39  40
ENDBRANCH  38  39
ENDBRANCH  35  38
ENDBRANCH   3  32
TORSDOF 14
ENDMDL
