MODEL 1
REMARK VINA RESULT: -7.880628188      0.000      0.000
REMARK  15 active torsions:
REMARK  status: ('A' for Active; 'I' for Inactive)
REMARK    1  A    between atoms: C2_2  and  C3_3 
REMARK    2  A    between atoms: C3_3  and  C4_4 
REMARK    3  A    between atoms: C4_4  and  C5_5 
REMARK    4  A    between atoms: C5_5  and  O2_7 
REMARK    5  A    between atoms: O2_7  and  C6_8 
REMARK    6  A    between atoms: C8_10  and  C9_11 
REMARK    7  A    between atoms: C9_11  and  C10_13 
REMARK       I    between atoms: N1_17  and  C14_18 
REMARK    8  A    between atoms: C14_18  and  C15_20 
REMARK    9  A    between atoms: C15_20  and  C16_21 
REMARK   10  A    between atoms: C15_20  and  N2_23 
REMARK       I    between atoms: N2_23  and  C17_25 
REMARK   11  A    between atoms: C17_25  and  O7_27 
REMARK   12  A    between atoms: O7_27  and  C18_28 
REMARK   13  A    between atoms: C22_32  and  C24_34 
REMARK   14  A    between atoms: C24_34  and  N3_35 
REMARK       I    between atoms: N3_35  and  C25_37 
REMARK       I    between atoms: C25_37  and  N4_39 
REMARK   15  A    between atoms: N4_39  and  C26_41 
ROOT
HETATM    1  C4  UNL     1     -15.994  11.656 -20.138  1.00  0.00     0.069 A 
HETATM    2  C8  UNL     1     -16.466  10.463 -19.319  1.00  0.00     0.087 A 
HETATM    3  C22 UNL     1     -16.673  11.857 -18.812  1.00  0.00     0.001 A 
HETATM    4  C23 UNL     1     -15.823  12.180 -17.625  1.00  0.00     0.019 C 
ENDROOT
BRANCH   2   5
HETATM    5  C9  UNL     1     -15.570   9.427 -18.856  1.00  0.00     0.155 C 
HETATM    6  O3  UNL     1     -14.953   8.676 -19.587  1.00  0.00    -0.295 OA
BRANCH   5   7
HETATM    7  C10 UNL     1     -15.358   9.224 -17.410  1.00  0.00     0.157 C 
HETATM    8  C11 UNL     1     -14.091   8.487 -17.038  1.00  0.00     0.035 C 
HETATM    9  C12 UNL     1     -14.207   8.560 -15.506  1.00  0.00     0.022 C 
HETATM   10  C13 UNL     1     -15.707   8.712 -15.257  1.00  0.00     0.127 C 
HETATM   11  N1  UNL     1     -16.303   8.510 -16.633  1.00  0.00    -0.338 N 
HETATM   12  C14 UNL     1     -17.444   7.734 -16.768  1.00  0.00     0.250 C 
HETATM   13  O4  UNL     1     -17.939   7.433 -17.866  1.00  0.00    -0.271 OA
BRANCH  12  14
HETATM   14  C15 UNL     1     -18.163   7.202 -15.578  1.00  0.00     0.240 C 
BRANCH  14  15
HETATM   15  C16 UNL     1     -19.537   7.780 -15.437  1.00  0.00     0.266 C 
HETATM   16  O5  UNL     1     -20.505   7.073 -15.136  1.00  0.00    -0.304 OA
ENDBRANCH  14  15
BRANCH  14  17
HETATM   17  N2  UNL     1     -18.341   5.770 -15.659  1.00  0.00    -0.317 N 
HETATM   18  C17 UNL     1     -17.363   4.843 -15.223  1.00  0.00     0.362 C 
HETATM   19  O6  UNL     1     -16.285   5.323 -14.736  1.00  0.00    -0.238 OA
ATOM     20  H2  UNL     1     -19.211   5.410 -16.049  1.00  0.00     0.166 HD
BRANCH  18  21
HETATM   21  O7  UNL     1     -17.501   3.485 -15.290  1.00  0.00    -0.294 OA
BRANCH  21  22
HETATM   22  C18 UNL     1     -16.926   2.729 -16.350  1.00  0.00     0.061 C 
HETATM   23  C19 UNL     1     -17.395   3.255 -17.686  1.00  0.00     0.046 C 
HETATM   24  C20 UNL     1     -15.432   2.712 -16.334  1.00  0.00     0.046 C 
HETATM   25  C21 UNL     1     -17.493   1.315 -16.237  1.00  0.00     0.046 C 
ENDBRANCH  21  22
ENDBRANCH  18  21
ENDBRANCH  14  17
ENDBRANCH  12  14
ENDBRANCH   5   7
ENDBRANCH   2   5
BRANCH   1  26
HETATM   26  C3  UNL     1     -14.558  12.066 -20.129  1.00  0.00     0.021 C 
BRANCH  26  27
HETATM   27  C2  UNL     1     -14.108  13.277 -20.799  1.00  0.00    -0.003 C 
HETATM   28  C1  UNL     1     -14.591  14.627 -20.511  1.00  0.00     0.005 C 
ENDBRANCH  26  27
ENDBRANCH   1  26
BRANCH   1  29
HETATM   29  C5  UNL     1     -16.745  11.725 -21.412  1.00  0.00     0.269 C 
HETATM   30  O1  UNL     1     -16.496  10.993 -22.401  1.00  0.00    -0.264 OA
BRANCH  29  31
HETATM   31  O2  UNL     1     -17.762  12.608 -21.598  1.00  0.00    -0.321 OA
BRANCH  31  32
HETATM   32  C6  UNL     1     -17.695  13.753 -22.429  1.00  0.00     0.174 C 
HETATM   33  C7  UNL     1     -18.179  14.925 -21.586  1.00  0.00     0.034 C 
ENDBRANCH  31  32
ENDBRANCH  29  31
ENDBRANCH   1  29
BRANCH   3  34
HETATM   34  C24 UNL     1     -18.090  12.373 -18.780  1.00  0.00     0.135 C 
BRANCH  34  35
HETATM   35  N3  UNL     1     -19.135  11.569 -18.262  1.00  0.00    -0.342 N 
HETATM   36  C25 UNL     1     -19.928  10.595 -18.916  1.00  0.00     0.316 C 
HETATM   37  O8  UNL     1     -19.707  10.303 -20.111  1.00  0.00    -0.247 OA
HETATM   38  N4  UNL     1     -21.001   9.916 -18.239  1.00  0.00    -0.344 N 
ATOM     39  H4  UNL     1     -21.215  10.126 -17.264  1.00  0.00     0.164 HD
ATOM     40  H3  UNL     1     -19.348  11.713 -17.275  1.00  0.00     0.164 HD
BRANCH  38  41
HETATM   41  C26 UNL     1     -21.767   8.939 -18.961  1.00  0.00     0.120 C 
HETATM   42  C27 UNL     1     -21.244   7.552 -18.760  1.00  0.00     0.026 C 
ENDBRANCH  38  41
ENDBRANCH  34  35
ENDBRANCH   3  34
TORSDOF 15
ENDMDL
MODEL 2
REMARK VINA RESULT: -7.585645962      4.018      7.505
REMARK  15 active torsions:
REMARK  status: ('A' for Active; 'I' for Inactive)
REMARK    1  A    between atoms: C2_2  and  C3_3 
REMARK    2  A    between atoms: C3_3  and  C4_4 
REMARK    3  A    between atoms: C4_4  and  C5_5 
REMARK    4  A    between atoms: C5_5  and  O2_7 
REMARK    5  A    between atoms: O2_7  and  C6_8 
REMARK    6  A    between atoms: C8_10  and  C9_11 
REMARK    7  A    between atoms: C9_11  and  C10_13 
REMARK       I    between atoms: N1_17  and  C14_18 
REMARK    8  A    between atoms: C14_18  and  C15_20 
REMARK    9  A    between atoms: C15_20  and  C16_21 
REMARK   10  A    between atoms: C15_20  and  N2_23 
REMARK       I    between atoms: N2_23  and  C17_25 
REMARK   11  A    between atoms: C17_25  and  O7_27 
REMARK   12  A    between atoms: O7_27  and  C18_28 
REMARK   13  A    between atoms: C22_32  and  C24_34 
REMARK   14  A    between atoms: C24_34  and  N3_35 
REMARK       I    between atoms: N3_35  and  C25_37 
REMARK       I    between atoms: C25_37  and  N4_39 
REMARK   15  A    between atoms: N4_39  and  C26_41 
ROOT
HETATM    1  C4  UNL     1     -17.280  15.577 -23.127  1.00  0.00     0.069 A 
HETATM    2  C8  UNL     1     -17.348  15.353 -21.623  1.00  0.00     0.087 A 
HETATM    3  C22 UNL     1     -16.107  15.000 -22.382  1.00  0.00     0.001 A 
HETATM    4  C23 UNL     1     -15.873  13.525 -22.467  1.00  0.00     0.019 C 
ENDROOT
BRANCH   2   5
HETATM    5  C9  UNL     1     -18.336  14.498 -21.002  1.00  0.00     0.155 C 
HETATM    6  O3  UNL     1     -19.262  14.900 -20.325  1.00  0.00    -0.295 OA
BRANCH   5   7
HETATM    7  C10 UNL     1     -18.257  13.034 -21.169  1.00  0.00     0.157 C 
HETATM    8  C11 UNL     1     -19.583  12.329 -21.337  1.00  0.00     0.035 C 
HETATM    9  C12 UNL     1     -19.072  10.895 -21.556  1.00  0.00     0.022 C 
HETATM   10  C13 UNL     1     -17.705  10.884 -20.873  1.00  0.00     0.127 C 
HETATM   11  N1  UNL     1     -17.664  12.223 -20.170  1.00  0.00    -0.338 N 
HETATM   12  C14 UNL     1     -17.169  12.293 -18.878  1.00  0.00     0.250 C 
HETATM   13  O4  UNL     1     -17.193  13.329 -18.193  1.00  0.00    -0.271 OA
BRANCH  12  14
HETATM   14  C15 UNL     1     -16.564  11.106 -18.215  1.00  0.00     0.240 C 
BRANCH  14  15
HETATM   15  C16 UNL     1     -15.424  11.474 -17.317  1.00  0.00     0.266 C 
HETATM   16  O5  UNL     1     -14.506  10.680 -17.083  1.00  0.00    -0.304 OA
ENDBRANCH  14  15
BRANCH  14  17
HETATM   17  N2  UNL     1     -17.521  10.416 -17.380  1.00  0.00    -0.317 N 
HETATM   18  C17 UNL     1     -17.811   9.036 -17.515  1.00  0.00     0.362 C 
HETATM   19  O6  UNL     1     -17.180   8.396 -18.422  1.00  0.00    -0.238 OA
ATOM     20  H2  UNL     1     -18.010  10.947 -16.661  1.00  0.00     0.166 HD
BRANCH  18  21
HETATM   21  O7  UNL     1     -18.713   8.358 -16.743  1.00  0.00    -0.294 OA
BRANCH  21  22
HETATM   22  C18 UNL     1     -20.030   8.081 -17.206  1.00  0.00     0.061 C 
HETATM   23  C19 UNL     1     -20.998   8.040 -16.047  1.00  0.00     0.046 C 
HETATM   24  C20 UNL     1     -20.529   9.058 -18.219  1.00  0.00     0.046 C 
HETATM   25  C21 UNL     1     -20.004   6.664 -17.777  1.00  0.00     0.046 C 
ENDBRANCH  21  22
ENDBRANCH  18  21
ENDBRANCH  14  17
ENDBRANCH  12  14
ENDBRANCH   5   7
ENDBRANCH   2   5
BRANCH   1  26
HETATM   26  C3  UNL     1     -17.909  14.606 -24.070  1.00  0.00     0.021 C 
BRANCH  26  27
HETATM   27  C2  UNL     1     -18.688  15.053 -25.215  1.00  0.00    -0.003 C 
HETATM   28  C1  UNL     1     -20.004  15.686 -25.142  1.00  0.00     0.005 C 
ENDBRANCH  26  27
ENDBRANCH   1  26
BRANCH   1  29
HETATM   29  C5  UNL     1     -17.371  17.023 -23.429  1.00  0.00     0.269 C 
HETATM   30  O1  UNL     1     -18.194  17.793 -22.877  1.00  0.00    -0.264 OA
BRANCH  29  31
HETATM   31  O2  UNL     1     -16.562  17.616 -24.348  1.00  0.00    -0.321 OA
BRANCH  31  32
HETATM   32  C6  UNL     1     -16.950  18.681 -25.196  1.00  0.00     0.174 C 
HETATM   33  C7  UNL     1     -17.189  18.071 -26.570  1.00  0.00     0.034 C 
ENDBRANCH  31  32
ENDBRANCH  29  31
ENDBRANCH   1  29
BRANCH   3  34
HETATM   34  C24 UNL     1     -14.889  15.858 -22.146  1.00  0.00     0.135 C 
BRANCH  34  35
HETATM   35  N3  UNL     1     -13.976  16.111 -23.199  1.00  0.00    -0.342 N 
HETATM   36  C25 UNL     1     -13.412  17.339 -23.625  1.00  0.00     0.316 C 
HETATM   37  O8  UNL     1     -13.664  18.395 -23.005  1.00  0.00    -0.247 OA
HETATM   38  N4  UNL     1     -12.542  17.414 -24.769  1.00  0.00    -0.344 N 
ATOM     39  H4  UNL     1     -12.312  16.576 -25.302  1.00  0.00     0.164 HD
ATOM     40  H3  UNL     1     -13.681  15.290 -23.727  1.00  0.00     0.164 HD
BRANCH  38  41
HETATM   41  C26 UNL     1     -12.005  18.692 -25.147  1.00  0.00     0.120 C 
HETATM   42  C27 UNL     1     -12.680  19.251 -26.359  1.00  0.00     0.026 C 
ENDBRANCH  38  41
ENDBRANCH  34  35
ENDBRANCH   3  34
TORSDOF 15
ENDMDL
MODEL 3
REMARK VINA RESULT: -7.522757242      2.140      4.126
REMARK  15 active torsions:
REMARK  status: ('A' for Active; 'I' for Inactive)
REMARK    1  A    between atoms: C2_2  and  C3_3 
REMARK    2  A    between atoms: C3_3  and  C4_4 
REMARK    3  A    between atoms: C4_4  and  C5_5 
REMARK    4  A    between atoms: C5_5  and  O2_7 
REMARK    5  A    between atoms: O2_7  and  C6_8 
REMARK    6  A    between atoms: C8_10  and  C9_11 
REMARK    7  A    between atoms: C9_11  and  C10_13 
REMARK       I    between atoms: N1_17  and  C14_18 
REMARK    8  A    between atoms: C14_18  and  C15_20 
REMARK    9  A    between atoms: C15_20  and  C16_21 
REMARK   10  A    between atoms: C15_20  and  N2_23 
REMARK       I    between atoms: N2_23  and  C17_25 
REMARK   11  A    between atoms: C17_25  and  O7_27 
REMARK   12  A    between atoms: O7_27  and  C18_28 
REMARK   13  A    between atoms: C22_32  and  C24_34 
REMARK   14  A    between atoms: C24_34  and  N3_35 
REMARK       I    between atoms: N3_35  and  C25_37 
REMARK       I    between atoms: C25_37  and  N4_39 
REMARK   15  A    between atoms: N4_39  and  C26_41 
ROOT
HETATM    1  C4  UNL     1     -17.236  11.509 -19.175  1.00  0.00     0.069 A 
HETATM    2  C8  UNL     1     -15.840  10.974 -18.891  1.00  0.00     0.087 A 
HETATM    3  C22 UNL     1     -16.142  11.640 -20.198  1.00  0.00     0.001 A 
HETATM    4  C23 UNL     1     -16.137  10.690 -21.353  1.00  0.00     0.019 C 
ENDROOT
BRANCH   2   5
HETATM    5  C9  UNL     1     -15.579   9.584 -18.592  1.00  0.00     0.155 C 
HETATM    6  O3  UNL     1     -15.542   8.698 -19.425  1.00  0.00    -0.295 OA
BRANCH   5   7
HETATM    7  C10 UNL     1     -15.337   9.159 -17.200  1.00  0.00     0.157 C 
HETATM    8  C11 UNL     1     -14.122   8.285 -16.991  1.00  0.00     0.035 C 
HETATM    9  C12 UNL     1     -14.181   8.144 -15.460  1.00  0.00     0.022 C 
HETATM   10  C13 UNL     1     -15.656   8.371 -15.128  1.00  0.00     0.127 C 
HETATM   11  N1  UNL     1     -16.310   8.413 -16.492  1.00  0.00    -0.338 N 
HETATM   12  C14 UNL     1     -17.513   7.752 -16.685  1.00  0.00     0.250 C 
HETATM   13  O4  UNL     1     -18.066   7.650 -17.792  1.00  0.00    -0.271 OA
BRANCH  12  14
HETATM   14  C15 UNL     1     -18.234   7.109 -15.552  1.00  0.00     0.240 C 
BRANCH  14  15
HETATM   15  C16 UNL     1     -19.608   7.669 -15.360  1.00  0.00     0.266 C 
HETATM   16  O5  UNL     1     -20.576   6.935 -15.126  1.00  0.00    -0.304 OA
ENDBRANCH  14  15
BRANCH  14  17
HETATM   17  N2  UNL     1     -18.409   5.691 -15.769  1.00  0.00    -0.317 N 
HETATM   18  C17 UNL     1     -17.487   4.719 -15.310  1.00  0.00     0.362 C 
HETATM   19  O6  UNL     1     -16.464   5.143 -14.674  1.00  0.00    -0.238 OA
ATOM     20  H2  UNL     1     -19.235   5.375 -16.276  1.00  0.00     0.166 HD
BRANCH  18  21
HETATM   21  O7  UNL     1     -17.624   3.372 -15.502  1.00  0.00    -0.294 OA
BRANCH  21  22
HETATM   22  C18 UNL     1     -16.932   2.694 -16.545  1.00  0.00     0.061 C 
HETATM   23  C19 UNL     1     -17.380   3.206 -17.893  1.00  0.00     0.046 C 
HETATM   24  C20 UNL     1     -15.445   2.809 -16.452  1.00  0.00     0.046 C 
HETATM   25  C21 UNL     1     -17.375   1.234 -16.486  1.00  0.00     0.046 C 
ENDBRANCH  21  22
ENDBRANCH  18  21
ENDBRANCH  14  17
ENDBRANCH  12  14
ENDBRANCH   5   7
ENDBRANCH   2   5
BRANCH   1  26
HETATM   26  C3  UNL     1     -18.331  10.588 -19.604  1.00  0.00     0.021 C 
BRANCH  26  27
HETATM   27  C2  UNL     1     -19.582  11.096 -20.149  1.00  0.00    -0.003 C 
HETATM   28  C1  UNL     1     -20.152  10.718 -21.442  1.00  0.00     0.005 C 
ENDBRANCH  26  27
ENDBRANCH   1  26
BRANCH   1  29
HETATM   29  C5  UNL     1     -17.558  12.609 -18.239  1.00  0.00     0.269 C 
HETATM   30  O1  UNL     1     -17.016  12.740 -17.115  1.00  0.00    -0.264 OA
BRANCH  29  31
HETATM   31  O2  UNL     1     -18.487  13.557 -18.538  1.00  0.00    -0.321 OA
BRANCH  31  32
HETATM   32  C6  UNL     1     -18.229  14.733 -19.283  1.00  0.00     0.174 C 
HETATM   33  C7  UNL     1     -18.972  14.577 -20.603  1.00  0.00     0.034 C 
ENDBRANCH  31  32
ENDBRANCH  29  31
ENDBRANCH   1  29
BRANCH   3  34
HETATM   34  C24 UNL     1     -15.518  12.992 -20.442  1.00  0.00     0.135 C 
BRANCH  34  35
HETATM   35  N3  UNL     1     -15.784  13.699 -21.640  1.00  0.00    -0.342 N 
HETATM   36  C25 UNL     1     -15.700  15.088 -21.902  1.00  0.00     0.316 C 
HETATM   37  O8  UNL     1     -15.292  15.871 -21.017  1.00  0.00    -0.247 OA
HETATM   38  N4  UNL     1     -16.077  15.640 -23.176  1.00  0.00    -0.344 N 
ATOM     39  H4  UNL     1     -16.415  15.036 -23.924  1.00  0.00     0.164 HD
ATOM     40  H3  UNL     1     -16.079  13.123 -22.429  1.00  0.00     0.164 HD
BRANCH  38  41
HETATM   41  C26 UNL     1     -15.967  17.059 -23.375  1.00  0.00     0.120 C 
HETATM   42  C27 UNL     1     -17.286  17.751 -23.235  1.00  0.00     0.026 C 
ENDBRANCH  38  41
ENDBRANCH  34  35
ENDBRANCH   3  34
TORSDOF 15
ENDMDL
MODEL 4
REMARK VINA RESULT: -7.495294303      4.379     10.340
REMARK  15 active torsions:
REMARK  status: ('A' for Active; 'I' for Inactive)
REMARK    1  A    between atoms: C2_2  and  C3_3 
REMARK    2  A    between atoms: C3_3  and  C4_4 
REMARK    3  A    between atoms: C4_4  and  C5_5 
REMARK    4  A    between atoms: C5_5  and  O2_7 
REMARK    5  A    between atoms: O2_7  and  C6_8 
REMARK    6  A    between atoms: C8_10  and  C9_11 
REMARK    7  A    between atoms: C9_11  and  C10_13 
REMARK       I    between atoms: N1_17  and  C14_18 
REMARK    8  A    between atoms: C14_18  and  C15_20 
REMARK    9  A    between atoms: C15_20  and  C16_21 
REMARK   10  A    between atoms: C15_20  and  N2_23 
REMARK       I    between atoms: N2_23  and  C17_25 
REMARK   11  A    between atoms: C17_25  and  O7_27 
REMARK   12  A    between atoms: O7_27  and  C18_28 
REMARK   13  A    between atoms: C22_32  and  C24_34 
REMARK   14  A    between atoms: C24_34  and  N3_35 
REMARK       I    between atoms: N3_35  and  C25_37 
REMARK       I    between atoms: C25_37  and  N4_39 
REMARK   15  A    between atoms: N4_39  and  C26_41 
ROOT
HETATM    1  C4  UNL     1     -17.401  12.814 -20.331  1.00  0.00     0.069 A 
HETATM    2  C8  UNL     1     -18.390  13.589 -21.190  1.00  0.00     0.087 A 
HETATM    3  C22 UNL     1     -18.726  12.210 -20.710  1.00  0.00     0.001 A 
HETATM    4  C23 UNL     1     -18.752  11.198 -21.810  1.00  0.00     0.019 C 
ENDROOT
BRANCH   2   5
HETATM    5  C9  UNL     1     -18.072  14.060 -22.519  1.00  0.00     0.155 C 
HETATM    6  O3  UNL     1     -17.801  13.336 -23.457  1.00  0.00    -0.295 OA
BRANCH   5   7
HETATM    7  C10 UNL     1     -18.060  15.507 -22.808  1.00  0.00     0.157 C 
HETATM    8  C11 UNL     1     -18.695  15.912 -24.118  1.00  0.00     0.035 C 
HETATM    9  C12 UNL     1     -18.554  17.439 -23.997  1.00  0.00     0.022 C 
HETATM   10  C13 UNL     1     -17.372  17.625 -23.047  1.00  0.00     0.127 C 
HETATM   11  N1  UNL     1     -16.837  16.218 -22.888  1.00  0.00    -0.338 N 
HETATM   12  C14 UNL     1     -15.468  16.009 -22.911  1.00  0.00     0.250 C 
HETATM   13  O4  UNL     1     -14.949  14.881 -22.890  1.00  0.00    -0.271 OA
BRANCH  12  14
HETATM   14  C15 UNL     1     -14.511  17.148 -22.964  1.00  0.00     0.240 C 
BRANCH  14  15
HETATM   15  C16 UNL     1     -14.059  17.576 -21.603  1.00  0.00     0.266 C 
HETATM   16  O5  UNL     1     -13.915  18.771 -21.317  1.00  0.00    -0.304 OA
ENDBRANCH  14  15
BRANCH  14  17
HETATM   17  N2  UNL     1     -13.311  16.803 -23.691  1.00  0.00    -0.317 N 
HETATM   18  C17 UNL     1     -12.556  17.747 -24.430  1.00  0.00     0.362 C 
HETATM   19  O6  UNL     1     -12.977  18.953 -24.432  1.00  0.00    -0.238 OA
ATOM     20  H2  UNL     1     -12.992  15.835 -23.672  1.00  0.00     0.166 HD
BRANCH  18  21
HETATM   21  O7  UNL     1     -11.420  17.450 -25.129  1.00  0.00    -0.294 OA
BRANCH  21  22
HETATM   22  C18 UNL     1     -11.423  17.355 -26.550  1.00  0.00     0.061 C 
HETATM   23  C19 UNL     1     -12.752  17.812 -27.105  1.00  0.00     0.046 C 
HETATM   24  C20 UNL     1     -10.331  18.133 -27.207  1.00  0.00     0.046 C 
HETATM   25  C21 UNL     1     -11.320  15.869 -26.888  1.00  0.00     0.046 C 
ENDBRANCH  21  22
ENDBRANCH  18  21
ENDBRANCH  14  17
ENDBRANCH  12  14
ENDBRANCH   5   7
ENDBRANCH   2   5
BRANCH   1  26
HETATM   26  C3  UNL     1     -16.239  12.112 -20.953  1.00  0.00     0.021 C 
BRANCH  26  27
HETATM   27  C2  UNL     1     -14.918  12.138 -20.341  1.00  0.00    -0.003 C 
HETATM   28  C1  UNL     1     -13.911  13.175 -20.558  1.00  0.00     0.005 C 
ENDBRANCH  26  27
ENDBRANCH   1  26
BRANCH   1  29
HETATM   29  C5  UNL     1     -17.206  13.503 -19.036  1.00  0.00     0.269 C 
HETATM   30  O1  UNL     1     -16.903  14.717 -18.939  1.00  0.00    -0.264 OA
BRANCH  29  31
HETATM   31  O2  UNL     1     -17.332  12.850 -17.849  1.00  0.00    -0.321 OA
BRANCH  31  32
HETATM   32  C6  UNL     1     -16.335  12.027 -17.270  1.00  0.00     0.174 C 
HETATM   33  C7  UNL     1     -16.806  10.591 -17.449  1.00  0.00     0.034 C 
ENDBRANCH  31  32
ENDBRANCH  29  31
ENDBRANCH   1  29
BRANCH   3  34
HETATM   34  C24 UNL     1     -19.807  12.091 -19.665  1.00  0.00     0.135 C 
BRANCH  34  35
HETATM   35  N3  UNL     1     -19.770  11.043 -18.712  1.00  0.00    -0.342 N 
HETATM   36  C25 UNL     1     -20.544   9.859 -18.646  1.00  0.00     0.316 C 
HETATM   37  O8  UNL     1     -21.369   9.596 -19.549  1.00  0.00    -0.247 OA
HETATM   38  N4  UNL     1     -20.414   8.930 -17.555  1.00  0.00    -0.344 N 
ATOM     39  H4  UNL     1     -19.754   9.108 -16.799  1.00  0.00     0.164 HD
ATOM     40  H3  UNL     1     -19.087  11.159 -17.963  1.00  0.00     0.164 HD
BRANCH  38  41
HETATM   41  C26 UNL     1     -21.230   7.748 -17.551  1.00  0.00     0.120 C 
HETATM   42  C27 UNL     1     -20.447   6.520 -17.890  1.00  0.00     0.026 C 
ENDBRANCH  38  41
ENDBRANCH  34  35
ENDBRANCH   3  34
TORSDOF 15
ENDMDL
MODEL 5
REMARK VINA RESULT: -7.482165306      0.930      1.274
REMARK  15 active torsions:
REMARK  status: ('A' for Active; 'I' for Inactive)
REMARK    1  A    between atoms: C2_2  and  C3_3 
REMARK    2  A    between atoms: C3_3  and  C4_4 
REMARK    3  A    between atoms: C4_4  and  C5_5 
REMARK    4  A    between atoms: C5_5  and  O2_7 
REMARK    5  A    between atoms: O2_7  and  C6_8 
REMARK    6  A    between atoms: C8_10  and  C9_11 
REMARK    7  A    between atoms: C9_11  and  C10_13 
REMARK       I    between atoms: N1_17  and  C14_18 
REMARK    8  A    between atoms: C14_18  and  C15_20 
REMARK    9  A    between atoms: C15_20  and  C16_21 
REMARK   10  A    between atoms: C15_20  and  N2_23 
REMARK       I    between atoms: N2_23  and  C17_25 
REMARK   11  A    between atoms: C17_25  and  O7_27 
REMARK   12  A    between atoms: O7_27  and  C18_28 
REMARK   13  A    between atoms: C22_32  and  C24_34 
REMARK   14  A    between atoms: C24_34  and  N3_35 
REMARK       I    between atoms: N3_35  and  C25_37 
REMARK       I    between atoms: C25_37  and  N4_39 
REMARK   15  A    between atoms: N4_39  and  C26_41 
ROOT
HETATM    1  C4  UNL     1     -15.966  11.600 -20.100  1.00  0.00     0.069 A 
HETATM    2  C8  UNL     1     -16.420  10.376 -19.318  1.00  0.00     0.087 A 
HETATM    3  C22 UNL     1     -16.678  11.751 -18.784  1.00  0.00     0.001 A 
HETATM    4  C23 UNL     1     -15.862  12.071 -17.573  1.00  0.00     0.019 C 
ENDROOT
BRANCH   2   5
HETATM    5  C9  UNL     1     -15.505   9.355 -18.859  1.00  0.00     0.155 C 
HETATM    6  O3  UNL     1     -14.868   8.624 -19.593  1.00  0.00    -0.295 OA
BRANCH   5   7
HETATM    7  C10 UNL     1     -15.295   9.145 -17.413  1.00  0.00     0.157 C 
HETATM    8  C11 UNL     1     -14.114   8.274 -17.050  1.00  0.00     0.035 C 
HETATM    9  C12 UNL     1     -14.197   8.375 -15.518  1.00  0.00     0.022 C 
HETATM   10  C13 UNL     1     -15.667   8.699 -15.250  1.00  0.00     0.127 C 
HETATM   11  N1  UNL     1     -16.303   8.551 -16.615  1.00  0.00    -0.338 N 
HETATM   12  C14 UNL     1     -17.526   7.908 -16.724  1.00  0.00     0.250 C 
HETATM   13  O4  UNL     1     -18.068   7.653 -17.812  1.00  0.00    -0.271 OA
BRANCH  12  14
HETATM   14  C15 UNL     1     -18.282   7.473 -15.518  1.00  0.00     0.240 C 
BRANCH  14  15
HETATM   15  C16 UNL     1     -19.412   8.399 -15.190  1.00  0.00     0.266 C 
HETATM   16  O5  UNL     1     -20.586   8.092 -15.426  1.00  0.00    -0.304 OA
ENDBRANCH  14  15
BRANCH  14  17
HETATM   17  N2  UNL     1     -18.878   6.170 -15.704  1.00  0.00    -0.317 N 
HETATM   18  C17 UNL     1     -18.145   4.963 -15.599  1.00  0.00     0.362 C 
HETATM   19  O6  UNL     1     -16.903   5.060 -15.323  1.00  0.00    -0.238 OA
ATOM     20  H2  UNL     1     -19.873   6.117 -15.921  1.00  0.00     0.166 HD
BRANCH  18  21
HETATM   21  O7  UNL     1     -18.680   3.717 -15.772  1.00  0.00    -0.294 OA
BRANCH  21  22
HETATM   22  C18 UNL     1     -19.464   3.395 -16.917  1.00  0.00     0.061 C 
HETATM   23  C19 UNL     1     -19.470   1.902 -17.148  1.00  0.00     0.046 C 
HETATM   24  C20 UNL     1     -20.875   3.878 -16.834  1.00  0.00     0.046 C 
HETATM   25  C21 UNL     1     -18.746   4.000 -18.122  1.00  0.00     0.046 C 
ENDBRANCH  21  22
ENDBRANCH  18  21
ENDBRANCH  14  17
ENDBRANCH  12  14
ENDBRANCH   5   7
ENDBRANCH   2   5
BRANCH   1  26
HETATM   26  C3  UNL     1     -14.544  12.050 -20.051  1.00  0.00     0.021 C 
BRANCH  26  27
HETATM   27  C2  UNL     1     -14.093  13.230 -20.775  1.00  0.00    -0.003 C 
HETATM   28  C1  UNL     1     -14.587  14.589 -20.561  1.00  0.00     0.005 C 
ENDBRANCH  26  27
ENDBRANCH   1  26
BRANCH   1  29
HETATM   29  C5  UNL     1     -16.692  11.676 -21.388  1.00  0.00     0.269 C 
HETATM   30  O1  UNL     1     -16.412  10.964 -22.382  1.00  0.00    -0.264 OA
BRANCH  29  31
HETATM   31  O2  UNL     1     -17.719  12.548 -21.582  1.00  0.00    -0.321 OA
BRANCH  31  32
HETATM   32  C6  UNL     1     -17.720  13.595 -22.535  1.00  0.00     0.174 C 
HETATM   33  C7  UNL     1     -18.394  14.785 -21.865  1.00  0.00     0.034 C 
ENDBRANCH  31  32
ENDBRANCH  29  31
ENDBRANCH   1  29
BRANCH   3  34
HETATM   34  C24 UNL     1     -18.110  12.226 -18.771  1.00  0.00     0.135 C 
BRANCH  34  35
HETATM   35  N3  UNL     1     -19.134  11.402 -18.245  1.00  0.00    -0.342 N 
HETATM   36  C25 UNL     1     -19.925  10.422 -18.895  1.00  0.00     0.316 C 
HETATM   37  O8  UNL     1     -19.720  10.146 -20.097  1.00  0.00    -0.247 OA
HETATM   38  N4  UNL     1     -20.976   9.722 -18.208  1.00  0.00    -0.344 N 
ATOM     39  H4  UNL     1     -21.176   9.918 -17.227  1.00  0.00     0.164 HD
ATOM     40  H3  UNL     1     -19.332  11.532 -17.252  1.00  0.00     0.164 HD
BRANCH  38  41
HETATM   41  C26 UNL     1     -21.740   8.741 -18.927  1.00  0.00     0.120 C 
HETATM   42  C27 UNL     1     -21.215   7.355 -18.721  1.00  0.00     0.026 C 
ENDBRANCH  38  41
ENDBRANCH  34  35
ENDBRANCH   3  34
TORSDOF 15
ENDMDL
