MODEL 1
REMARK VINA RESULT: -9.166500879      0.000      0.000
REMARK  13 active torsions:
REMARK  status: ('A' for Active; 'I' for Inactive)
REMARK    1  A    between atoms: C3_3  and  O1_4 
REMARK    2  A    between atoms: O1_4  and  C4_5 
REMARK    3  A    between atoms: C4_5  and  C5_6 
REMARK    4  A    between atoms: C10_12  and  N2_13 
REMARK    5  A    between atoms: N2_13  and  C11_15 
REMARK    6  A    between atoms: C14_24  and  C15_25 
REMARK    7  A    between atoms: C19_31  and  N7_32 
REMARK    8  A    between atoms: N7_32  and  C20_34 
REMARK    9  A    between atoms: C20_34  and  C21_35 
REMARK   10  A    between atoms: C24_38  and  C25_39 
REMARK   11  A    between atoms: C25_39  and  C26_40 
REMARK   12  A    between atoms: C26_40  and  C27_41 
REMARK   13  A    between atoms: C27_41  and  O2_42 
ROOT
HETATM    1  C1  UNL     1     -20.451  10.370 -21.529  1.00  0.00     0.014 C 
HETATM    2  C2  UNL     1     -20.353  10.401 -20.337  1.00  0.00    -0.091 C 
HETATM    3  C3  UNL     1     -20.220  10.446 -18.884  1.00  0.00     0.260 C 
ENDROOT
BRANCH   3   4
HETATM    4  O1  UNL     1     -19.567   9.327 -18.382  1.00  0.00    -0.379 OA
BRANCH   4   5
HETATM    5  C4  UNL     1     -20.436   8.347 -17.956  1.00  0.00     0.177 C 
BRANCH   5   6
HETATM    6  C5  UNL     1     -20.394   8.047 -16.505  1.00  0.00     0.060 C 
HETATM    7  C6  UNL     1     -21.387   6.959 -16.111  1.00  0.00     0.280 C 
HETATM    8  N1  UNL     1     -20.968   5.740 -16.727  1.00  0.00     0.084 N 
HETATM    9  C7  UNL     1     -21.968   4.706 -16.503  1.00  0.00     0.309 C 
HETATM   10  C8  UNL     1     -19.750   5.323 -16.053  1.00  0.00     0.274 C 
HETATM   11  C9  UNL     1     -18.634   6.285 -16.229  1.00  0.00     0.056 C 
HETATM   12  C10 UNL     1     -19.071   7.729 -15.913  1.00  0.00     0.092 C 
BRANCH  12  13
HETATM   13  N2  UNL     1     -18.009   8.594 -16.107  1.00  0.00    -0.369 N 
ATOM     14  H2  UNL     1     -18.378   9.415 -16.587  1.00  0.00     0.161 HD
BRANCH  13  15
HETATM   15  C11 UNL     1     -16.819   8.785 -15.943  1.00  0.00     0.133 A 
HETATM   16  N3  UNL     1     -16.047   8.265 -14.996  1.00  0.00    -0.337 N 
HETATM   17  C12 UNL     1     -14.712   8.527 -14.881  1.00  0.00     0.183 A 
ATOM     18  H3  UNL     1     -16.474   7.635 -14.317  1.00  0.00     0.168 HD
HETATM   19  N4  UNL     1     -14.101   9.349 -15.749  1.00  0.00    -0.337 N 
HETATM   20  C13 UNL     1     -14.802   9.912 -16.731  1.00  0.00     0.139 A 
ATOM     21  H4  UNL     1     -13.104   9.541 -15.658  1.00  0.00     0.168 HD
HETATM   22  N5  UNL     1     -14.476  10.757 -17.740  1.00  0.00    -0.326 N 
HETATM   23  C29 UNL     1     -16.141   9.644 -16.839  1.00  0.00     0.122 A 
HETATM   24  C14 UNL     1     -15.572  11.019 -18.467  1.00  0.00     0.118 A 
ATOM     25  H5  UNL     1     -13.545  11.134 -17.918  1.00  0.00     0.169 HD
HETATM   26  N8  UNL     1     -16.573  10.341 -17.912  1.00  0.00    -0.336 N 
ATOM     27  H8  UNL     1     -17.535  10.346 -18.251  1.00  0.00     0.168 HD
BRANCH  24  28
HETATM   28  C15 UNL     1     -15.607  11.885 -19.646  1.00  0.00     0.013 A 
HETATM   29  C16 UNL     1     -14.495  12.579 -20.037  1.00  0.00     0.040 A 
HETATM   30  C17 UNL     1     -14.568  13.391 -21.155  1.00  0.00     0.007 A 
HETATM   31  C18 UNL     1     -13.343  14.129 -21.549  1.00  0.00     0.068 C 
HETATM   32  N6  UNL     1     -15.700  13.523 -21.872  1.00  0.00    -0.347 N 
HETATM   33  C19 UNL     1     -16.817  12.864 -21.530  1.00  0.00     0.102 A 
ATOM     34  H6  UNL     1     -15.708  14.134 -22.690  1.00  0.00     0.167 HD
HETATM   35  C28 UNL     1     -16.747  12.039 -20.398  1.00  0.00     0.063 A 
BRANCH  33  36
HETATM   36  N7  UNL     1     -17.926  12.930 -22.141  1.00  0.00    -0.370 N 
ATOM     37  H7  UNL     1     -18.064  12.265 -22.902  1.00  0.00     0.161 HD
BRANCH  36  38
HETATM   38  C20 UNL     1     -19.000  13.826 -21.885  1.00  0.00     0.186 C 
BRANCH  38  39
HETATM   39  C21 UNL     1     -18.792  15.118 -22.606  1.00  0.00     0.071 A 
HETATM   40  C22 UNL     1     -19.631  15.614 -23.595  1.00  0.00     0.037 A 
HETATM   41  C23 UNL     1     -19.086  16.800 -23.985  1.00  0.00     0.035 A 
HETATM   42  C24 UNL     1     -17.950  16.983 -23.231  1.00  0.00     0.053 A 
HETATM   43  O3  UNL     1     -17.825  15.963 -22.436  1.00  0.00    -0.318 OA
BRANCH  42  44
HETATM   44  C25 UNL     1     -17.030  18.133 -23.307  1.00  0.00     0.067 C 
BRANCH  44  45
HETATM   45  C26 UNL     1     -15.609  17.655 -23.264  1.00  0.00     0.032 C 
BRANCH  45  46
HETATM   46  C27 UNL     1     -14.968  18.020 -21.932  1.00  0.00     0.164 C 
BRANCH  46  47
HETATM   47  O2  UNL     1     -15.219  17.034 -21.008  1.00  0.00    -0.401 OA
ATOM     48  H2  UNL     1     -15.655  17.407 -20.250  1.00  0.00     0.209 HD
ENDBRANCH  46  47
ENDBRANCH  45  46
ENDBRANCH  44  45
ENDBRANCH  42  44
ENDBRANCH  38  39
ENDBRANCH  36  38
ENDBRANCH  33  36
ENDBRANCH  24  28
ENDBRANCH  13  15
ENDBRANCH  12  13
ENDBRANCH   5   6
ENDBRANCH   4   5
ENDBRANCH   3   4
TORSDOF 13
ENDMDL
MODEL 2
REMARK VINA RESULT: -9.020382568      0.984      1.317
REMARK  13 active torsions:
REMARK  status: ('A' for Active; 'I' for Inactive)
REMARK    1  A    between atoms: C3_3  and  O1_4 
REMARK    2  A    between atoms: O1_4  and  C4_5 
REMARK    3  A    between atoms: C4_5  and  C5_6 
REMARK    4  A    between atoms: C10_12  and  N2_13 
REMARK    5  A    between atoms: N2_13  and  C11_15 
REMARK    6  A    between atoms: C14_24  and  C15_25 
REMARK    7  A    between atoms: C19_31  and  N7_32 
REMARK    8  A    between atoms: N7_32  and  C20_34 
REMARK    9  A    between atoms: C20_34  and  C21_35 
REMARK   10  A    between atoms: C24_38  and  C25_39 
REMARK   11  A    between atoms: C25_39  and  C26_40 
REMARK   12  A    between atoms: C26_40  and  C27_41 
REMARK   13  A    between atoms: C27_41  and  O2_42 
ROOT
HETATM    1  C1  UNL     1     -20.023  10.284 -21.593  1.00  0.00     0.014 C 
HETATM    2  C2  UNL     1     -20.210  10.348 -20.413  1.00  0.00    -0.091 C 
HETATM    3  C3  UNL     1     -20.427  10.435 -18.972  1.00  0.00     0.260 C 
ENDROOT
BRANCH   3   4
HETATM    4  O1  UNL     1     -19.704   9.476 -18.274  1.00  0.00    -0.379 OA
BRANCH   4   5
HETATM    5  C4  UNL     1     -20.477   8.407 -17.877  1.00  0.00     0.177 C 
BRANCH   5   6
HETATM    6  C5  UNL     1     -20.429   8.090 -16.429  1.00  0.00     0.060 C 
HETATM    7  C6  UNL     1     -21.437   7.015 -16.040  1.00  0.00     0.280 C 
HETATM    8  N1  UNL     1     -21.045   5.796 -16.672  1.00  0.00     0.084 N 
HETATM    9  C7  UNL     1     -22.061   4.778 -16.451  1.00  0.00     0.309 C 
HETATM   10  C8  UNL     1     -19.830   5.351 -16.012  1.00  0.00     0.274 C 
HETATM   11  C9  UNL     1     -18.698   6.295 -16.186  1.00  0.00     0.056 C 
HETATM   12  C10 UNL     1     -19.107   7.743 -15.852  1.00  0.00     0.092 C 
BRANCH  12  13
HETATM   13  N2  UNL     1     -18.032   8.592 -16.044  1.00  0.00    -0.369 N 
ATOM     14  H2  UNL     1     -18.396   9.437 -16.484  1.00  0.00     0.161 HD
BRANCH  13  15
HETATM   15  C11 UNL     1     -16.834   8.750 -15.908  1.00  0.00     0.133 A 
HETATM   16  N3  UNL     1     -16.050   8.191 -14.993  1.00  0.00    -0.337 N 
HETATM   17  C12 UNL     1     -14.707   8.419 -14.907  1.00  0.00     0.183 A 
ATOM     18  H3  UNL     1     -16.474   7.555 -14.317  1.00  0.00     0.168 HD
HETATM   19  N4  UNL     1     -14.099   9.246 -15.773  1.00  0.00    -0.337 N 
HETATM   20  C13 UNL     1     -14.811   9.848 -16.722  1.00  0.00     0.139 A 
ATOM     21  H4  UNL     1     -13.095   9.412 -15.703  1.00  0.00     0.168 HD
HETATM   22  N5  UNL     1     -14.492  10.709 -17.721  1.00  0.00    -0.326 N 
HETATM   23  C29 UNL     1     -16.159   9.614 -16.801  1.00  0.00     0.122 A 
HETATM   24  C14 UNL     1     -15.599  11.013 -18.412  1.00  0.00     0.118 A 
ATOM     25  H5  UNL     1     -13.557  11.067 -17.915  1.00  0.00     0.169 HD
HETATM   26  N8  UNL     1     -16.601  10.346 -17.847  1.00  0.00    -0.336 N 
ATOM     27  H8  UNL     1     -17.571  10.381 -18.160  1.00  0.00     0.168 HD
BRANCH  24  28
HETATM   28  C15 UNL     1     -15.644  11.907 -19.570  1.00  0.00     0.013 A 
HETATM   29  C16 UNL     1     -14.521  12.567 -19.987  1.00  0.00     0.040 A 
HETATM   30  C17 UNL     1     -14.604  13.407 -21.084  1.00  0.00     0.007 A 
HETATM   31  C18 UNL     1     -13.366  14.107 -21.507  1.00  0.00     0.068 C 
HETATM   32  N6  UNL     1     -15.755  13.598 -21.755  1.00  0.00    -0.347 N 
HETATM   33  C19 UNL     1     -16.884  12.974 -21.385  1.00  0.00     0.102 A 
ATOM     34  H6  UNL     1     -15.769  14.228 -22.558  1.00  0.00     0.167 HD
HETATM   35  C28 UNL     1     -16.804  12.122 -20.276  1.00  0.00     0.063 A 
BRANCH  33  36
HETATM   36  N7  UNL     1     -18.011  13.096 -21.953  1.00  0.00    -0.370 N 
ATOM     37  H7  UNL     1     -18.222  12.423 -22.689  1.00  0.00     0.161 HD
BRANCH  36  38
HETATM   38  C20 UNL     1     -19.014  14.066 -21.678  1.00  0.00     0.186 C 
BRANCH  38  39
HETATM   39  C21 UNL     1     -18.912  15.214 -22.630  1.00  0.00     0.071 A 
HETATM   40  C22 UNL     1     -19.783  15.443 -23.686  1.00  0.00     0.037 A 
HETATM   41  C23 UNL     1     -19.339  16.578 -24.295  1.00  0.00     0.035 A 
HETATM   42  C24 UNL     1     -18.229  16.995 -23.598  1.00  0.00     0.053 A 
HETATM   43  O3  UNL     1     -18.022  16.155 -22.628  1.00  0.00    -0.318 OA
BRANCH  42  44
HETATM   44  C25 UNL     1     -17.410  18.185 -23.894  1.00  0.00     0.067 C 
BRANCH  44  45
HETATM   45  C26 UNL     1     -17.820  18.774 -25.212  1.00  0.00     0.032 C 
BRANCH  45  46
HETATM   46  C27 UNL     1     -16.647  18.765 -26.182  1.00  0.00     0.164 C 
BRANCH  46  47
HETATM   47  O2  UNL     1     -16.592  17.557 -26.835  1.00  0.00    -0.401 OA
ATOM     48  H2  UNL     1     -15.703  17.221 -26.817  1.00  0.00     0.209 HD
ENDBRANCH  46  47
ENDBRANCH  45  46
ENDBRANCH  44  45
ENDBRANCH  42  44
ENDBRANCH  38  39
ENDBRANCH  36  38
ENDBRANCH  33  36
ENDBRANCH  24  28
ENDBRANCH  13  15
ENDBRANCH  12  13
ENDBRANCH   5   6
ENDBRANCH   4   5
ENDBRANCH   3   4
TORSDOF 13
ENDMDL
MODEL 3
REMARK VINA RESULT: -9.018146447      3.290      6.709
REMARK  13 active torsions:
REMARK  status: ('A' for Active; 'I' for Inactive)
REMARK    1  A    between atoms: C3_3  and  O1_4 
REMARK    2  A    between atoms: O1_4  and  C4_5 
REMARK    3  A    between atoms: C4_5  and  C5_6 
REMARK    4  A    between atoms: C10_12  and  N2_13 
REMARK    5  A    between atoms: N2_13  and  C11_15 
REMARK    6  A    between atoms: C14_24  and  C15_25 
REMARK    7  A    between atoms: C19_31  and  N7_32 
REMARK    8  A    between atoms: N7_32  and  C20_34 
REMARK    9  A    between atoms: C20_34  and  C21_35 
REMARK   10  A    between atoms: C24_38  and  C25_39 
REMARK   11  A    between atoms: C25_39  and  C26_40 
REMARK   12  A    between atoms: C26_40  and  C27_41 
REMARK   13  A    between atoms: C27_41  and  O2_42 
ROOT
HETATM    1  C1  UNL     1     -18.972  12.692 -21.653  1.00  0.00     0.014 C 
HETATM    2  C2  UNL     1     -18.751  13.497 -20.797  1.00  0.00    -0.091 C 
HETATM    3  C3  UNL     1     -18.473  14.488 -19.762  1.00  0.00     0.260 C 
ENDROOT
BRANCH   3   4
HETATM    4  O1  UNL     1     -17.326  14.184 -19.039  1.00  0.00    -0.379 OA
BRANCH   4   5
HETATM    5  C4  UNL     1     -17.388  12.948 -18.433  1.00  0.00     0.177 C 
BRANCH   5   6
HETATM    6  C5  UNL     1     -16.111  12.195 -18.394  1.00  0.00     0.060 C 
HETATM    7  C6  UNL     1     -16.209  10.937 -17.539  1.00  0.00     0.280 C 
HETATM    8  N1  UNL     1     -17.117  10.041 -18.181  1.00  0.00     0.084 N 
HETATM    9  C7  UNL     1     -17.359   8.888 -17.325  1.00  0.00     0.309 C 
HETATM   10  C8  UNL     1     -16.458   9.561 -19.383  1.00  0.00     0.274 C 
HETATM   11  C9  UNL     1     -16.179  10.643 -20.360  1.00  0.00     0.056 C 
HETATM   12  C10 UNL     1     -15.485  11.847 -19.694  1.00  0.00     0.092 C 
BRANCH  12  13
HETATM   13  N2  UNL     1     -15.260  12.839 -20.632  1.00  0.00    -0.369 N 
ATOM     14  H2  UNL     1     -16.111  12.919 -21.190  1.00  0.00     0.161 HD
BRANCH  13  15
HETATM   15  C11 UNL     1     -14.471  13.654 -21.069  1.00  0.00     0.133 A 
HETATM   16  N3  UNL     1     -13.162  13.703 -20.848  1.00  0.00    -0.337 N 
HETATM   17  C12 UNL     1     -12.341  14.654 -21.380  1.00  0.00     0.183 A 
ATOM     18  H3  UNL     1     -12.748  12.990 -20.248  1.00  0.00     0.168 HD
HETATM   19  N4  UNL     1     -12.836  15.615 -22.178  1.00  0.00    -0.337 N 
HETATM   20  C13 UNL     1     -14.138  15.639 -22.451  1.00  0.00     0.139 A 
ATOM     21  H4  UNL     1     -12.217  16.322 -22.572  1.00  0.00     0.168 HD
HETATM   22  N5  UNL     1     -14.915  16.455 -23.207  1.00  0.00    -0.326 N 
HETATM   23  C29 UNL     1     -14.956  14.681 -21.913  1.00  0.00     0.122 A 
HETATM   24  C14 UNL     1     -16.186  16.030 -23.151  1.00  0.00     0.118 A 
ATOM     25  H5  UNL     1     -14.585  17.263 -23.734  1.00  0.00     0.169 HD
HETATM   26  N8  UNL     1     -16.198  14.957 -22.365  1.00  0.00    -0.336 N 
ATOM     27  H8  UNL     1     -17.032  14.416 -22.135  1.00  0.00     0.168 HD
BRANCH  24  28
HETATM   28  C15 UNL     1     -17.309  16.656 -23.850  1.00  0.00     0.013 A 
HETATM   29  C16 UNL     1     -18.575  16.153 -23.730  1.00  0.00     0.040 A 
HETATM   30  C17 UNL     1     -19.610  16.769 -24.411  1.00  0.00     0.007 A 
HETATM   31  C18 UNL     1     -20.970  16.195 -24.257  1.00  0.00     0.068 C 
HETATM   32  N6  UNL     1     -19.413  17.849 -25.189  1.00  0.00    -0.347 N 
HETATM   33  C19 UNL     1     -18.191  18.381 -25.340  1.00  0.00     0.102 A 
ATOM     34  H6  UNL     1     -20.207  18.270 -25.673  1.00  0.00     0.167 HD
HETATM   35  C28 UNL     1     -17.139  17.759 -24.652  1.00  0.00     0.063 A 
BRANCH  33  36
HETATM   36  N7  UNL     1     -17.911  19.390 -26.054  1.00  0.00    -0.370 N 
ATOM     37  H7  UNL     1     -18.050  20.303 -25.621  1.00  0.00     0.161 HD
BRANCH  36  38
HETATM   38  C20 UNL     1     -17.425  19.393 -27.390  1.00  0.00     0.186 C 
BRANCH  38  39
HETATM   39  C21 UNL     1     -15.930  19.416 -27.407  1.00  0.00     0.071 A 
HETATM   40  C22 UNL     1     -15.159  20.566 -27.510  1.00  0.00     0.037 A 
HETATM   41  C23 UNL     1     -13.863  20.149 -27.490  1.00  0.00     0.035 A 
HETATM   42  C24 UNL     1     -13.888  18.778 -27.378  1.00  0.00     0.053 A 
HETATM   43  O3  UNL     1     -15.131  18.400 -27.333  1.00  0.00    -0.318 OA
BRANCH  42  44
HETATM   44  C25 UNL     1     -12.716  17.886 -27.318  1.00  0.00     0.067 C 
BRANCH  44  45
HETATM   45  C26 UNL     1     -11.721  18.413 -26.326  1.00  0.00     0.032 C 
BRANCH  45  46
HETATM   46  C27 UNL     1     -11.910  17.734 -24.977  1.00  0.00     0.164 C 
BRANCH  46  47
HETATM   47  O2  UNL     1     -12.329  16.438 -25.162  1.00  0.00    -0.401 OA
ATOM     48  H2  UNL     1     -12.492  16.029 -24.320  1.00  0.00     0.209 HD
ENDBRANCH  46  47
ENDBRANCH  45  46
ENDBRANCH  44  45
ENDBRANCH  42  44
ENDBRANCH  38  39
ENDBRANCH  36  38
ENDBRANCH  33  36
ENDBRANCH  24  28
ENDBRANCH  13  15
ENDBRANCH  12  13
ENDBRANCH   5   6
ENDBRANCH   4   5
ENDBRANCH   3   4
TORSDOF 13
ENDMDL
MODEL 4
REMARK VINA RESULT: -8.975637240      0.874      2.606
REMARK  13 active torsions:
REMARK  status: ('A' for Active; 'I' for Inactive)
REMARK    1  A    between atoms: C3_3  and  O1_4 
REMARK    2  A    between atoms: O1_4  and  C4_5 
REMARK    3  A    between atoms: C4_5  and  C5_6 
REMARK    4  A    between atoms: C10_12  and  N2_13 
REMARK    5  A    between atoms: N2_13  and  C11_15 
REMARK    6  A    between atoms: C14_24  and  C15_25 
REMARK    7  A    between atoms: C19_31  and  N7_32 
REMARK    8  A    between atoms: N7_32  and  C20_34 
REMARK    9  A    between atoms: C20_34  and  C21_35 
REMARK   10  A    between atoms: C24_38  and  C25_39 
REMARK   11  A    between atoms: C25_39  and  C26_40 
REMARK   12  A    between atoms: C26_40  and  C27_41 
REMARK   13  A    between atoms: C27_41  and  O2_42 
ROOT
HETATM    1  C1  UNL     1     -20.301  10.069 -21.530  1.00  0.00     0.014 C 
HETATM    2  C2  UNL     1     -20.333  10.173 -20.339  1.00  0.00    -0.091 C 
HETATM    3  C3  UNL     1     -20.360  10.309 -18.886  1.00  0.00     0.260 C 
ENDROOT
BRANCH   3   4
HETATM    4  O1  UNL     1     -19.680   9.278 -18.250  1.00  0.00    -0.379 OA
BRANCH   4   5
HETATM    5  C4  UNL     1     -20.514   8.260 -17.840  1.00  0.00     0.177 C 
BRANCH   5   6
HETATM    6  C5  UNL     1     -20.449   7.926 -16.398  1.00  0.00     0.060 C 
HETATM    7  C6  UNL     1     -21.393   6.789 -16.024  1.00  0.00     0.280 C 
HETATM    8  N1  UNL     1     -20.930   5.604 -16.673  1.00  0.00     0.084 N 
HETATM    9  C7  UNL     1     -21.886   4.525 -16.468  1.00  0.00     0.309 C 
HETATM   10  C8  UNL     1     -19.692   5.220 -16.017  1.00  0.00     0.274 C 
HETATM   11  C9  UNL     1     -18.616   6.231 -16.176  1.00  0.00     0.056 C 
HETATM   12  C10 UNL     1     -19.109   7.648 -15.822  1.00  0.00     0.092 C 
BRANCH  12  13
HETATM   13  N2  UNL     1     -18.085   8.561 -16.002  1.00  0.00    -0.369 N 
ATOM     14  H2  UNL     1     -18.506   9.412 -16.374  1.00  0.00     0.161 HD
BRANCH  13  15
HETATM   15  C11 UNL     1     -16.892   8.771 -15.900  1.00  0.00     0.133 A 
HETATM   16  N3  UNL     1     -16.057   8.245 -15.011  1.00  0.00    -0.337 N 
HETATM   17  C12 UNL     1     -14.724   8.531 -14.964  1.00  0.00     0.183 A 
ATOM     18  H3  UNL     1     -16.433   7.590 -14.325  1.00  0.00     0.168 HD
HETATM   19  N4  UNL     1     -14.178   9.386 -15.845  1.00  0.00    -0.337 N 
HETATM   20  C13 UNL     1     -14.944   9.958 -16.771  1.00  0.00     0.139 A 
ATOM     21  H4  UNL     1     -13.181   9.596 -15.804  1.00  0.00     0.168 HD
HETATM   22  N5  UNL     1     -14.692  10.834 -17.775  1.00  0.00    -0.326 N 
HETATM   23  C29 UNL     1     -16.281   9.665 -16.810  1.00  0.00     0.122 A 
HETATM   24  C14 UNL     1     -15.832  11.091 -18.433  1.00  0.00     0.118 A 
ATOM     25  H5  UNL     1     -13.780  11.234 -17.996  1.00  0.00     0.169 HD
HETATM   26  N8  UNL     1     -16.786  10.379 -17.840  1.00  0.00    -0.336 N 
ATOM     27  H8  UNL     1     -17.766  10.372 -18.124  1.00  0.00     0.168 HD
BRANCH  24  28
HETATM   28  C15 UNL     1     -15.950  11.984 -19.586  1.00  0.00     0.013 A 
HETATM   29  C16 UNL     1     -17.172  12.261 -20.134  1.00  0.00     0.040 A 
HETATM   30  C17 UNL     1     -17.243  13.106 -21.228  1.00  0.00     0.007 A 
HETATM   31  C18 UNL     1     -18.585  13.383 -21.795  1.00  0.00     0.068 C 
HETATM   32  N6  UNL     1     -16.146  13.665 -21.772  1.00  0.00    -0.347 N 
HETATM   33  C19 UNL     1     -14.925  13.425 -21.272  1.00  0.00     0.102 A 
ATOM     34  H6  UNL     1     -16.246  14.282 -22.579  1.00  0.00     0.167 HD
HETATM   35  C28 UNL     1     -14.849  12.570 -20.164  1.00  0.00     0.063 A 
BRANCH  33  36
HETATM   36  N7  UNL     1     -13.840  13.903 -21.721  1.00  0.00    -0.370 N 
ATOM     37  H7  UNL     1     -13.365  13.352 -22.438  1.00  0.00     0.161 HD
BRANCH  36  38
HETATM   38  C20 UNL     1     -13.209  15.118 -21.339  1.00  0.00     0.186 C 
BRANCH  38  39
HETATM   39  C21 UNL     1     -14.046  16.293 -21.730  1.00  0.00     0.071 A 
HETATM   40  C22 UNL     1     -14.003  17.534 -21.111  1.00  0.00     0.037 A 
HETATM   41  C23 UNL     1     -14.913  18.309 -21.764  1.00  0.00     0.035 A 
HETATM   42  C24 UNL     1     -15.471  17.524 -22.746  1.00  0.00     0.053 A 
HETATM   43  O3  UNL     1     -14.924  16.346 -22.680  1.00  0.00    -0.318 OA
BRANCH  42  44
HETATM   44  C25 UNL     1     -16.509  17.937 -23.708  1.00  0.00     0.067 C 
BRANCH  44  45
HETATM   45  C26 UNL     1     -17.837  17.364 -23.307  1.00  0.00     0.032 C 
BRANCH  45  46
HETATM   46  C27 UNL     1     -18.771  17.304 -24.507  1.00  0.00     0.164 C 
BRANCH  46  47
HETATM   47  O2  UNL     1     -19.744  18.267 -24.388  1.00  0.00    -0.401 OA
ATOM     48  H2  UNL     1     -20.182  18.388 -25.223  1.00  0.00     0.209 HD
ENDBRANCH  46  47
ENDBRANCH  45  46
ENDBRANCH  44  45
ENDBRANCH  42  44
ENDBRANCH  38  39
ENDBRANCH  36  38
ENDBRANCH  33  36
ENDBRANCH  24  28
ENDBRANCH  13  15
ENDBRANCH  12  13
ENDBRANCH   5   6
ENDBRANCH   4   5
ENDBRANCH   3   4
TORSDOF 13
ENDMDL
MODEL 5
REMARK VINA RESULT: -8.643679614      2.071      9.288
REMARK  13 active torsions:
REMARK  status: ('A' for Active; 'I' for Inactive)
REMARK    1  A    between atoms: C3_3  and  O1_4 
REMARK    2  A    between atoms: O1_4  and  C4_5 
REMARK    3  A    between atoms: C4_5  and  C5_6 
REMARK    4  A    between atoms: C10_12  and  N2_13 
REMARK    5  A    between atoms: N2_13  and  C11_15 
REMARK    6  A    between atoms: C14_24  and  C15_25 
REMARK    7  A    between atoms: C19_31  and  N7_32 
REMARK    8  A    between atoms: N7_32  and  C20_34 
REMARK    9  A    between atoms: C20_34  and  C21_35 
REMARK   10  A    between atoms: C24_38  and  C25_39 
REMARK   11  A    between atoms: C25_39  and  C26_40 
REMARK   12  A    between atoms: C26_40  and  C27_41 
REMARK   13  A    between atoms: C27_41  and  O2_42 
ROOT
HETATM    1  C1  UNL     1     -20.519  10.718 -21.198  1.00  0.00     0.014 C 
HETATM    2  C2  UNL     1     -19.587  11.394 -21.525  1.00  0.00    -0.091 C 
HETATM    3  C3  UNL     1     -18.442  12.213 -21.913  1.00  0.00     0.260 C 
ENDROOT
BRANCH   3   4
HETATM    4  O1  UNL     1     -18.471  13.469 -21.320  1.00  0.00    -0.379 OA
BRANCH   4   5
HETATM    5  C4  UNL     1     -19.042  14.428 -22.128  1.00  0.00     0.177 C 
BRANCH   5   6
HETATM    6  C5  UNL     1     -18.277  14.767 -23.351  1.00  0.00     0.060 C 
HETATM    7  C6  UNL     1     -19.184  15.189 -24.502  1.00  0.00     0.280 C 
HETATM    8  N1  UNL     1     -19.811  16.419 -24.137  1.00  0.00     0.084 N 
HETATM    9  C7  UNL     1     -20.801  16.783 -25.140  1.00  0.00     0.309 C 
HETATM   10  C8  UNL     1     -18.778  17.440 -24.152  1.00  0.00     0.274 C 
HETATM   11  C9  UNL     1     -17.713  17.200 -23.146  1.00  0.00     0.056 C 
HETATM   12  C10 UNL     1     -17.178  15.755 -23.216  1.00  0.00     0.092 C 
BRANCH  12  13
HETATM   13  N2  UNL     1     -16.203  15.568 -22.252  1.00  0.00    -0.369 N 
ATOM     14  H2  UNL     1     -16.640  15.750 -21.348  1.00  0.00     0.161 HD
BRANCH  13  15
HETATM   15  C11 UNL     1     -15.044  15.277 -22.034  1.00  0.00     0.133 A 
HETATM   16  N3  UNL     1     -13.961  15.920 -22.458  1.00  0.00    -0.337 N 
HETATM   17  C12 UNL     1     -12.687  15.528 -22.166  1.00  0.00     0.183 A 
ATOM     18  H3  UNL     1     -14.089  16.752 -23.034  1.00  0.00     0.168 HD
HETATM   19  N4  UNL     1     -12.463  14.440 -21.411  1.00  0.00    -0.337 N 
HETATM   20  C13 UNL     1     -13.493  13.738 -20.943  1.00  0.00     0.139 A 
ATOM     21  H4  UNL     1     -11.508  14.154 -21.196  1.00  0.00     0.168 HD
HETATM   22  N5  UNL     1     -13.587  12.628 -20.170  1.00  0.00    -0.326 N 
HETATM   23  C29 UNL     1     -14.769  14.138 -21.242  1.00  0.00     0.122 A 
HETATM   24  C14 UNL     1     -14.881  12.330 -19.982  1.00  0.00     0.118 A 
ATOM     25  H5  UNL     1     -12.799  12.104 -19.790  1.00  0.00     0.169 HD
HETATM   26  N8  UNL     1     -15.586  13.249 -20.636  1.00  0.00    -0.336 N 
ATOM     27  H8  UNL     1     -16.604  13.280 -20.674  1.00  0.00     0.168 HD
BRANCH  24  28
HETATM   28  C15 UNL     1     -15.373  11.202 -19.190  1.00  0.00     0.013 A 
HETATM   29  C16 UNL     1     -14.739  10.828 -18.038  1.00  0.00     0.040 A 
HETATM   30  C17 UNL     1     -15.232   9.753 -17.318  1.00  0.00     0.007 A 
HETATM   31  C18 UNL     1     -14.518   9.375 -16.074  1.00  0.00     0.068 C 
HETATM   32  N6  UNL     1     -16.316   9.062 -17.715  1.00  0.00    -0.347 N 
HETATM   33  C19 UNL     1     -16.974   9.390 -18.838  1.00  0.00     0.102 A 
ATOM     34  H6  UNL     1     -16.644   8.276 -17.153  1.00  0.00     0.167 HD
HETATM   35  C28 UNL     1     -16.478  10.478 -19.570  1.00  0.00     0.063 A 
BRANCH  33  36
HETATM   36  N7  UNL     1     -17.998   8.795 -19.291  1.00  0.00    -0.370 N 
ATOM     37  H7  UNL     1     -17.907   8.380 -20.218  1.00  0.00     0.161 HD
BRANCH  36  38
HETATM   38  C20 UNL     1     -19.259   8.642 -18.652  1.00  0.00     0.186 C 
BRANCH  38  39
HETATM   39  C21 UNL     1     -19.341   7.321 -17.958  1.00  0.00     0.071 A 
HETATM   40  C22 UNL     1     -20.489   6.545 -17.871  1.00  0.00     0.037 A 
HETATM   41  C23 UNL     1     -20.137   5.435 -17.164  1.00  0.00     0.035 A 
HETATM   42  C24 UNL     1     -18.805   5.572 -16.848  1.00  0.00     0.053 A 
HETATM   43  O3  UNL     1     -18.387   6.700 -17.340  1.00  0.00    -0.318 OA
BRANCH  42  44
HETATM   44  C25 UNL     1     -17.987   4.611 -16.085  1.00  0.00     0.067 C 
BRANCH  44  45
HETATM   45  C26 UNL     1     -16.723   4.307 -16.833  1.00  0.00     0.032 C 
BRANCH  45  46
HETATM   46  C27 UNL     1     -15.643   5.320 -16.479  1.00  0.00     0.164 C 
BRANCH  46  47
HETATM   47  O2  UNL     1     -15.451   6.184 -17.531  1.00  0.00    -0.401 OA
ATOM     48  H2  UNL     1     -14.629   6.647 -17.421  1.00  0.00     0.209 HD
ENDBRANCH  46  47
ENDBRANCH  45  46
ENDBRANCH  44  45
ENDBRANCH  42  44
ENDBRANCH  38  39
ENDBRANCH  36  38
ENDBRANCH  33  36
ENDBRANCH  24  28
ENDBRANCH  13  15
ENDBRANCH  12  13
ENDBRANCH   5   6
ENDBRANCH   4   5
ENDBRANCH   3   4
TORSDOF 13
ENDMDL
