MODEL 1
REMARK VINA RESULT: -9.716377438      0.000      0.000
REMARK  13 active torsions:
REMARK  status: ('A' for Active; 'I' for Inactive)
REMARK    1  A    between atoms: C2_2  and  C3_3 
REMARK    2  A    between atoms: C3_3  and  C4_4 
REMARK    3  A    between atoms: C6_8  and  N2_9 
REMARK    4  A    between atoms: N2_9  and  C7_11 
REMARK    5  A    between atoms: C9_13  and  C10_14 
REMARK    6  A    between atoms: C10_14  and  C11_15 
REMARK    7  A    between atoms: C16_26  and  C17_27 
REMARK    8  A    between atoms: C17_27  and  C18_28 
REMARK    9  A    between atoms: C18_28  and  C19_29 
REMARK   10  A    between atoms: C19_29  and  C20_30 
REMARK   11  A    between atoms: C20_30  and  N5_31 
REMARK   12  A    between atoms: C23_34  and  C24_35 
REMARK   13  A    between atoms: C24_35  and  O2_36 
ROOT
HETATM    1  C7  UNL     1     -16.983  15.265 -22.178  1.00  0.00     0.056 A 
HETATM    2  C8  UNL     1     -17.499  15.502 -23.441  1.00  0.00     0.038 A 
HETATM    3  C9  UNL     1     -18.697  14.916 -23.857  1.00  0.00    -0.050 A 
HETATM    4  C14 UNL     1     -19.406  14.081 -23.021  1.00  0.00     0.008 A 
HETATM    5  C15 UNL     1     -18.889  13.847 -21.765  1.00  0.00     0.010 A 
HETATM    6  C16 UNL     1     -17.700  14.429 -21.353  1.00  0.00    -0.031 A 
ENDROOT
BRANCH   1   7
HETATM    7  N2  UNL     1     -15.771  15.843 -21.732  1.00  0.00    -0.190 N 
ATOM      8  H2  UNL     1     -15.627  15.929 -20.726  1.00  0.00     0.184 HD
BRANCH   7   9
HETATM    9  C6  UNL     1     -14.831  16.269 -22.516  1.00  0.00     0.697 A 
HETATM   10  N1  UNL     1     -14.552  17.550 -22.729  1.00  0.00    -0.199 N 
HETATM   11  C5  UNL     1     -13.545  17.935 -23.569  1.00  0.00     0.132 A 
ATOM     12  H1  UNL     1     -15.102  18.264 -22.252  1.00  0.00     0.183 HD
HETATM   13  C4  UNL     1     -12.777  16.996 -24.231  1.00  0.00     0.042 A 
HETATM   14  N7  UNL     1     -13.093  15.700 -23.987  1.00  0.00    -0.289 N 
HETATM   15  N6  UNL     1     -14.070  15.359 -23.171  1.00  0.00    -0.132 N 
ATOM     16  H7  UNL     1     -12.558  14.965 -24.450  1.00  0.00     0.187 HD
ATOM     17  H6  UNL     1     -14.262  14.368 -23.026  1.00  0.00     0.205 HD
BRANCH  13  18
HETATM   18  C3  UNL     1     -11.672  17.353 -25.153  1.00  0.00     0.059 C 
BRANCH  18  19
HETATM   19  C2  UNL     1     -11.969  16.911 -26.571  1.00  0.00     0.002 C 
HETATM   20  C1  UNL     1     -11.115  15.729 -26.972  1.00  0.00     0.005 C 
ENDBRANCH  18  19
ENDBRANCH  13  18
ENDBRANCH   7   9
ENDBRANCH   1   7
BRANCH   6  21
HETATM   21  C17 UNL     1     -17.157  14.169 -19.972  1.00  0.00     0.041 C 
BRANCH  21  22
HETATM   22  C18 UNL     1     -16.650  12.749 -19.996  1.00  0.00     0.006 C 
BRANCH  22  23
HETATM   23  C19 UNL     1     -15.153  12.638 -19.766  1.00  0.00     0.030 C 
BRANCH  23  24
HETATM   24  C20 UNL     1     -14.805  11.238 -19.389  1.00  0.00     0.272 C 
BRANCH  24  25
HETATM   25  N5  UNL     1     -15.584  10.674 -18.347  1.00  0.00     0.088 N 
HETATM   26  C21 UNL     1     -15.144  11.183 -17.055  1.00  0.00     0.273 C 
HETATM   27  C22 UNL     1     -13.876  10.513 -16.585  1.00  0.00     0.037 C 
HETATM   28  C23 UNL     1     -14.104   9.024 -16.517  1.00  0.00     0.012 C 
HETATM   29  C25 UNL     1     -14.477   8.534 -17.886  1.00  0.00     0.037 C 
HETATM   30  C26 UNL     1     -15.711   9.265 -18.374  1.00  0.00     0.273 C 
BRANCH  28  31
HETATM   31  C24 UNL     1     -15.174   8.643 -15.525  1.00  0.00     0.168 C 
BRANCH  31  32
HETATM   32  O2  UNL     1     -14.718   8.983 -14.258  1.00  0.00    -0.400 OA
ATOM     33  H2  UNL     1     -15.143   9.794 -14.005  1.00  0.00     0.209 HD
ENDBRANCH  31  32
ENDBRANCH  28  31
ENDBRANCH  24  25
ENDBRANCH  23  24
ENDBRANCH  22  23
ENDBRANCH  21  22
ENDBRANCH   6  21
BRANCH   3  34
HETATM   34  C10 UNL     1     -19.204  15.195 -25.204  1.00  0.00     0.101 C 
BRANCH  34  35
HETATM   35  C11 UNL     1     -18.891  16.596 -25.669  1.00  0.00     0.084 A 
HETATM   36  N3  UNL     1     -18.021  16.911 -26.565  1.00  0.00    -0.332 N 
HETATM   37  C12 UNL     1     -17.946  18.301 -26.792  1.00  0.00     0.179 A 
ATOM     38  H3  UNL     1     -17.447  16.227 -27.059  1.00  0.00     0.168 HD
HETATM   39  S1  UNL     1     -16.963  19.098 -27.853  1.00  0.00    -0.040 SA
HETATM   40  N4  UNL     1     -18.886  18.936 -25.931  1.00  0.00    -0.298 N 
HETATM   41  C13 UNL     1     -19.487  17.841 -25.217  1.00  0.00     0.270 A 
ATOM     42  H4  UNL     1     -19.087  19.932 -25.843  1.00  0.00     0.171 HD
HETATM   43  O1  UNL     1     -20.387  17.973 -24.341  1.00  0.00    -0.266 OA
ENDBRANCH  34  35
ENDBRANCH   3  34
TORSDOF 13
ENDMDL
MODEL 2
REMARK VINA RESULT: -9.550854120      1.251      2.156
REMARK  13 active torsions:
REMARK  status: ('A' for Active; 'I' for Inactive)
REMARK    1  A    between atoms: C2_2  and  C3_3 
REMARK    2  A    between atoms: C3_3  and  C4_4 
REMARK    3  A    between atoms: C6_8  and  N2_9 
REMARK    4  A    between atoms: N2_9  and  C7_11 
REMARK    5  A    between atoms: C9_13  and  C10_14 
REMARK    6  A    between atoms: C10_14  and  C11_15 
REMARK    7  A    between atoms: C16_26  and  C17_27 
REMARK    8  A    between atoms: C17_27  and  C18_28 
REMARK    9  A    between atoms: C18_28  and  C19_29 
REMARK   10  A    between atoms: C19_29  and  C20_30 
REMARK   11  A    between atoms: C20_30  and  N5_31 
REMARK   12  A    between atoms: C23_34  and  C24_35 
REMARK   13  A    between atoms: C24_35  and  O2_36 
ROOT
HETATM    1  C7  UNL     1     -16.813  14.827 -22.408  1.00  0.00     0.056 A 
HETATM    2  C8  UNL     1     -17.372  15.142 -23.635  1.00  0.00     0.038 A 
HETATM    3  C9  UNL     1     -18.689  14.789 -23.944  1.00  0.00    -0.050 A 
HETATM    4  C14 UNL     1     -19.475  14.116 -23.035  1.00  0.00     0.008 A 
HETATM    5  C15 UNL     1     -18.915  13.804 -21.814  1.00  0.00     0.010 A 
HETATM    6  C16 UNL     1     -17.609  14.154 -21.509  1.00  0.00    -0.031 A 
ENDROOT
BRANCH   1   7
HETATM    7  N2  UNL     1     -15.482  15.169 -22.070  1.00  0.00    -0.190 N 
ATOM      8  H2  UNL     1     -14.901  14.449 -21.639  1.00  0.00     0.184 HD
BRANCH   7   9
HETATM    9  C6  UNL     1     -14.952  16.334 -22.270  1.00  0.00     0.697 A 
HETATM   10  N1  UNL     1     -14.264  16.671 -23.355  1.00  0.00    -0.199 N 
HETATM   11  C5  UNL     1     -13.729  17.919 -23.507  1.00  0.00     0.132 A 
ATOM     12  H1  UNL     1     -14.131  15.980 -24.094  1.00  0.00     0.183 HD
HETATM   13  C4  UNL     1     -13.889  18.881 -22.527  1.00  0.00     0.042 A 
HETATM   14  N7  UNL     1     -14.597  18.499 -21.437  1.00  0.00    -0.289 N 
HETATM   15  N6  UNL     1     -15.101  17.287 -21.319  1.00  0.00    -0.132 N 
ATOM     16  H7  UNL     1     -14.745  19.170 -20.683  1.00  0.00     0.187 HD
ATOM     17  H6  UNL     1     -15.625  17.056 -20.475  1.00  0.00     0.205 HD
BRANCH  13  18
HETATM   18  C3  UNL     1     -13.333  20.252 -22.637  1.00  0.00     0.059 C 
BRANCH  18  19
HETATM   19  C2  UNL     1     -12.937  20.798 -21.281  1.00  0.00     0.002 C 
HETATM   20  C1  UNL     1     -11.792  21.781 -21.394  1.00  0.00     0.005 C 
ENDBRANCH  18  19
ENDBRANCH  13  18
ENDBRANCH   7   9
ENDBRANCH   1   7
BRANCH   6  21
HETATM   21  C17 UNL     1     -17.018  13.813 -20.165  1.00  0.00     0.041 C 
BRANCH  21  22
HETATM   22  C18 UNL     1     -17.007  12.306 -20.097  1.00  0.00     0.006 C 
BRANCH  22  23
HETATM   23  C19 UNL     1     -15.708  11.690 -20.590  1.00  0.00     0.030 C 
BRANCH  23  24
HETATM   24  C20 UNL     1     -14.913  11.199 -19.427  1.00  0.00     0.272 C 
BRANCH  24  25
HETATM   25  N5  UNL     1     -15.664  10.600 -18.383  1.00  0.00     0.088 N 
HETATM   26  C21 UNL     1     -15.258  11.142 -17.094  1.00  0.00     0.273 C 
HETATM   27  C22 UNL     1     -13.956  10.550 -16.614  1.00  0.00     0.037 C 
HETATM   28  C23 UNL     1     -14.099   9.051 -16.535  1.00  0.00     0.012 C 
HETATM   29  C25 UNL     1     -14.437   8.530 -17.902  1.00  0.00     0.037 C 
HETATM   30  C26 UNL     1     -15.710   9.185 -18.400  1.00  0.00     0.273 C 
BRANCH  28  31
HETATM   31  C24 UNL     1     -15.150   8.616 -15.544  1.00  0.00     0.168 C 
BRANCH  31  32
HETATM   32  O2  UNL     1     -14.692   8.939 -14.273  1.00  0.00    -0.400 OA
ATOM     33  H2  UNL     1     -15.433   9.254 -13.770  1.00  0.00     0.209 HD
ENDBRANCH  31  32
ENDBRANCH  28  31
ENDBRANCH  24  25
ENDBRANCH  23  24
ENDBRANCH  22  23
ENDBRANCH  21  22
ENDBRANCH   6  21
BRANCH   3  34
HETATM   34  C10 UNL     1     -19.238  15.142 -25.257  1.00  0.00     0.101 C 
BRANCH  34  35
HETATM   35  C11 UNL     1     -18.909  16.557 -25.668  1.00  0.00     0.084 A 
HETATM   36  N3  UNL     1     -18.031  16.896 -26.546  1.00  0.00    -0.332 N 
HETATM   37  C12 UNL     1     -17.942  18.293 -26.721  1.00  0.00     0.179 A 
ATOM     38  H3  UNL     1     -17.459  16.226 -27.061  1.00  0.00     0.168 HD
HETATM   39  S1  UNL     1     -16.945  19.120 -27.745  1.00  0.00    -0.040 SA
HETATM   40  N4  UNL     1     -18.883  18.904 -25.844  1.00  0.00    -0.298 N 
HETATM   41  C13 UNL     1     -19.498  17.790 -25.174  1.00  0.00     0.270 A 
ATOM     42  H4  UNL     1     -19.077  19.898 -25.720  1.00  0.00     0.171 HD
HETATM   43  O1  UNL     1     -20.403  17.896 -24.300  1.00  0.00    -0.266 OA
ENDBRANCH  34  35
ENDBRANCH   3  34
TORSDOF 13
ENDMDL
MODEL 3
REMARK VINA RESULT: -9.390070408      2.547      3.258
REMARK  13 active torsions:
REMARK  status: ('A' for Active; 'I' for Inactive)
REMARK    1  A    between atoms: C2_2  and  C3_3 
REMARK    2  A    between atoms: C3_3  and  C4_4 
REMARK    3  A    between atoms: C6_8  and  N2_9 
REMARK    4  A    between atoms: N2_9  and  C7_11 
REMARK    5  A    between atoms: C9_13  and  C10_14 
REMARK    6  A    between atoms: C10_14  and  C11_15 
REMARK    7  A    between atoms: C16_26  and  C17_27 
REMARK    8  A    between atoms: C17_27  and  C18_28 
REMARK    9  A    between atoms: C18_28  and  C19_29 
REMARK   10  A    between atoms: C19_29  and  C20_30 
REMARK   11  A    between atoms: C20_30  and  N5_31 
REMARK   12  A    between atoms: C23_34  and  C24_35 
REMARK   13  A    between atoms: C24_35  and  O2_36 
ROOT
HETATM    1  C7  UNL     1     -16.749  15.393 -22.218  1.00  0.00     0.056 A 
HETATM    2  C8  UNL     1     -17.347  15.616 -23.447  1.00  0.00     0.038 A 
HETATM    3  C9  UNL     1     -18.538  14.977 -23.801  1.00  0.00    -0.050 A 
HETATM    4  C14 UNL     1     -19.157  14.101 -22.936  1.00  0.00     0.008 A 
HETATM    5  C15 UNL     1     -18.559  13.881 -21.713  1.00  0.00     0.010 A 
HETATM    6  C16 UNL     1     -17.377  14.516 -21.364  1.00  0.00    -0.031 A 
ENDROOT
BRANCH   1   7
HETATM    7  N2  UNL     1     -15.542  16.024 -21.835  1.00  0.00    -0.190 N 
ATOM      8  H2  UNL     1     -15.398  16.214 -20.844  1.00  0.00     0.184 HD
BRANCH   7   9
HETATM    9  C6  UNL     1     -14.607  16.378 -22.660  1.00  0.00     0.697 A 
HETATM   10  N1  UNL     1     -14.297  17.636 -22.952  1.00  0.00    -0.199 N 
HETATM   11  C5  UNL     1     -13.297  17.944 -23.831  1.00  0.00     0.132 A 
ATOM     12  H1  UNL     1     -14.818  18.392 -22.507  1.00  0.00     0.183 HD
HETATM   13  C4  UNL     1     -12.569  16.946 -24.452  1.00  0.00     0.042 A 
HETATM   14  N7  UNL     1     -12.916  15.676 -24.129  1.00  0.00    -0.289 N 
HETATM   15  N6  UNL     1     -13.885  15.411 -23.276  1.00  0.00    -0.132 N 
ATOM     16  H7  UNL     1     -12.411  14.901 -24.558  1.00  0.00     0.187 HD
ATOM     17  H6  UNL     1     -14.101  14.435 -23.071  1.00  0.00     0.205 HD
BRANCH  13  18
HETATM   18  C3  UNL     1     -11.474  17.218 -25.414  1.00  0.00     0.059 C 
BRANCH  18  19
HETATM   19  C2  UNL     1     -11.812  16.704 -26.798  1.00  0.00     0.002 C 
HETATM   20  C1  UNL     1     -11.182  15.352 -27.054  1.00  0.00     0.005 C 
ENDBRANCH  18  19
ENDBRANCH  13  18
ENDBRANCH   7   9
ENDBRANCH   1   7
BRANCH   6  21
HETATM   21  C17 UNL     1     -16.744  14.270 -20.019  1.00  0.00     0.041 C 
BRANCH  21  22
HETATM   22  C18 UNL     1     -17.887  14.197 -19.038  1.00  0.00     0.006 C 
BRANCH  22  23
HETATM   23  C19 UNL     1     -17.799  13.009 -18.096  1.00  0.00     0.030 C 
BRANCH  23  24
HETATM   24  C20 UNL     1     -17.417  11.787 -18.862  1.00  0.00     0.272 C 
BRANCH  24  25
HETATM   25  N5  UNL     1     -18.314  10.695 -18.757  1.00  0.00     0.088 N 
HETATM   26  C21 UNL     1     -18.108   9.764 -19.859  1.00  0.00     0.273 C 
HETATM   27  C22 UNL     1     -18.727  10.260 -21.143  1.00  0.00     0.037 C 
HETATM   28  C23 UNL     1     -20.200  10.495 -20.917  1.00  0.00     0.012 C 
HETATM   29  C25 UNL     1     -20.360  11.519 -19.831  1.00  0.00     0.037 C 
HETATM   30  C26 UNL     1     -19.674  11.038 -18.568  1.00  0.00     0.273 C 
BRANCH  28  31
HETATM   31  C24 UNL     1     -20.943   9.235 -20.552  1.00  0.00     0.168 C 
BRANCH  31  32
HETATM   32  O2  UNL     1     -22.146   9.237 -21.244  1.00  0.00    -0.400 OA
ATOM     33  H2  UNL     1     -21.947   9.200 -22.173  1.00  0.00     0.209 HD
ENDBRANCH  31  32
ENDBRANCH  28  31
ENDBRANCH  24  25
ENDBRANCH  23  24
ENDBRANCH  22  23
ENDBRANCH  21  22
ENDBRANCH   6  21
BRANCH   3  34
HETATM   34  C10 UNL     1     -19.134  15.243 -25.114  1.00  0.00     0.101 C 
BRANCH  34  35
HETATM   35  C11 UNL     1     -18.842  16.635 -25.618  1.00  0.00     0.084 A 
HETATM   36  N3  UNL     1     -17.975  16.938 -26.520  1.00  0.00    -0.332 N 
HETATM   37  C12 UNL     1     -17.922  18.323 -26.787  1.00  0.00     0.179 A 
ATOM     38  H3  UNL     1     -17.388  16.250 -26.992  1.00  0.00     0.168 HD
HETATM   39  S1  UNL     1     -16.948  19.105 -27.867  1.00  0.00    -0.040 SA
HETATM   40  N4  UNL     1     -18.875  18.966 -25.947  1.00  0.00    -0.298 N 
HETATM   41  C13 UNL     1     -19.460  17.883 -25.203  1.00  0.00     0.270 A 
ATOM     42  H4  UNL     1     -19.093  19.961 -25.888  1.00  0.00     0.171 HD
HETATM   43  O1  UNL     1     -20.365  18.024 -24.334  1.00  0.00    -0.266 OA
ENDBRANCH  34  35
ENDBRANCH   3  34
TORSDOF 13
ENDMDL
MODEL 4
REMARK VINA RESULT: -9.332497267      1.684      2.630
REMARK  13 active torsions:
REMARK  status: ('A' for Active; 'I' for Inactive)
REMARK    1  A    between atoms: C2_2  and  C3_3 
REMARK    2  A    between atoms: C3_3  and  C4_4 
REMARK    3  A    between atoms: C6_8  and  N2_9 
REMARK    4  A    between atoms: N2_9  and  C7_11 
REMARK    5  A    between atoms: C9_13  and  C10_14 
REMARK    6  A    between atoms: C10_14  and  C11_15 
REMARK    7  A    between atoms: C16_26  and  C17_27 
REMARK    8  A    between atoms: C17_27  and  C18_28 
REMARK    9  A    between atoms: C18_28  and  C19_29 
REMARK   10  A    between atoms: C19_29  and  C20_30 
REMARK   11  A    between atoms: C20_30  and  N5_31 
REMARK   12  A    between atoms: C23_34  and  C24_35 
REMARK   13  A    between atoms: C24_35  and  O2_36 
ROOT
HETATM    1  C7  UNL     1     -16.738  14.675 -22.541  1.00  0.00     0.056 A 
HETATM    2  C8  UNL     1     -17.375  15.035 -23.717  1.00  0.00     0.038 A 
HETATM    3  C9  UNL     1     -18.708  14.692 -23.954  1.00  0.00    -0.050 A 
HETATM    4  C14 UNL     1     -19.435  13.983 -23.022  1.00  0.00     0.008 A 
HETATM    5  C15 UNL     1     -18.798  13.626 -21.853  1.00  0.00     0.010 A 
HETATM    6  C16 UNL     1     -17.475  13.967 -21.619  1.00  0.00    -0.031 A 
ENDROOT
BRANCH   1   7
HETATM    7  N2  UNL     1     -15.388  15.006 -22.276  1.00  0.00    -0.190 N 
ATOM      8  H2  UNL     1     -14.764  14.256 -21.980  1.00  0.00     0.184 HD
BRANCH   7   9
HETATM    9  C6  UNL     1     -14.892  16.198 -22.385  1.00  0.00     0.697 A 
HETATM   10  N1  UNL     1     -14.319  16.677 -23.483  1.00  0.00    -0.199 N 
HETATM   11  C5  UNL     1     -13.814  17.946 -23.534  1.00  0.00     0.132 A 
ATOM     12  H1  UNL     1     -14.255  16.083 -24.310  1.00  0.00     0.183 HD
HETATM   13  C4  UNL     1     -13.884  18.780 -22.433  1.00  0.00     0.042 A 
HETATM   14  N7  UNL     1     -14.475  18.254 -21.333  1.00  0.00    -0.289 N 
HETATM   15  N6  UNL     1     -14.953  17.026 -21.314  1.00  0.00    -0.132 N 
ATOM     16  H7  UNL     1     -14.553  18.827 -20.492  1.00  0.00     0.187 HD
ATOM     17  H6  UNL     1     -15.388  16.684 -20.457  1.00  0.00     0.205 HD
BRANCH  13  18
HETATM   18  C3  UNL     1     -13.355  20.165 -22.429  1.00  0.00     0.059 C 
BRANCH  18  19
HETATM   19  C2  UNL     1     -13.187  20.690 -21.018  1.00  0.00     0.002 C 
HETATM   20  C1  UNL     1     -12.065  21.701 -20.934  1.00  0.00     0.005 C 
ENDBRANCH  18  19
ENDBRANCH  13  18
ENDBRANCH   7   9
ENDBRANCH   1   7
BRANCH   6  21
HETATM   21  C17 UNL     1     -16.800  13.576 -20.330  1.00  0.00     0.041 C 
BRANCH  21  22
HETATM   22  C18 UNL     1     -17.711  14.060 -19.230  1.00  0.00     0.006 C 
BRANCH  22  23
HETATM   23  C19 UNL     1     -18.047  12.987 -18.209  1.00  0.00     0.030 C 
BRANCH  23  24
HETATM   24  C20 UNL     1     -18.017  11.646 -18.861  1.00  0.00     0.272 C 
BRANCH  24  25
HETATM   25  N5  UNL     1     -17.492  10.593 -18.070  1.00  0.00     0.088 N 
HETATM   26  C21 UNL     1     -16.294  11.036 -17.370  1.00  0.00     0.273 C 
HETATM   27  C22 UNL     1     -15.088  11.072 -18.277  1.00  0.00     0.037 C 
HETATM   28  C23 UNL     1     -14.878   9.700 -18.866  1.00  0.00     0.012 C 
HETATM   29  C25 UNL     1     -16.105   9.320 -19.644  1.00  0.00     0.037 C 
HETATM   30  C26 UNL     1     -17.319   9.357 -18.737  1.00  0.00     0.273 C 
BRANCH  28  31
HETATM   31  C24 UNL     1     -14.587   8.653 -17.820  1.00  0.00     0.168 C 
BRANCH  31  32
HETATM   32  O2  UNL     1     -14.377   7.447 -18.474  1.00  0.00    -0.400 OA
ATOM     33  H2  UNL     1     -14.733   7.527 -19.351  1.00  0.00     0.209 HD
ENDBRANCH  31  32
ENDBRANCH  28  31
ENDBRANCH  24  25
ENDBRANCH  23  24
ENDBRANCH  22  23
ENDBRANCH  21  22
ENDBRANCH   6  21
BRANCH   3  34
HETATM   34  C10 UNL     1     -19.341  15.094 -25.214  1.00  0.00     0.101 C 
BRANCH  34  35
HETATM   35  C11 UNL     1     -18.986  16.502 -25.624  1.00  0.00     0.084 A 
HETATM   36  N3  UNL     1     -18.110  16.826 -26.511  1.00  0.00    -0.332 N 
HETATM   37  C12 UNL     1     -17.993  18.222 -26.682  1.00  0.00     0.179 A 
ATOM     38  H3  UNL     1     -17.558  16.145 -27.033  1.00  0.00     0.168 HD
HETATM   39  S1  UNL     1     -16.989  19.030 -27.714  1.00  0.00    -0.040 SA
HETATM   40  N4  UNL     1     -18.911  18.849 -25.793  1.00  0.00    -0.298 N 
HETATM   41  C13 UNL     1     -19.543  17.746 -25.120  1.00  0.00     0.270 A 
ATOM     42  H4  UNL     1     -19.082  19.847 -25.664  1.00  0.00     0.171 HD
HETATM   43  O1  UNL     1     -20.436  17.869 -24.236  1.00  0.00    -0.266 OA
ENDBRANCH  34  35
ENDBRANCH   3  34
TORSDOF 13
ENDMDL
MODEL 5
REMARK VINA RESULT: -9.149910812      3.670      9.178
REMARK  13 active torsions:
REMARK  status: ('A' for Active; 'I' for Inactive)
REMARK    1  A    between atoms: C2_2  and  C3_3 
REMARK    2  A    between atoms: C3_3  and  C4_4 
REMARK    3  A    between atoms: C6_8  and  N2_9 
REMARK    4  A    between atoms: N2_9  and  C7_11 
REMARK    5  A    between atoms: C9_13  and  C10_14 
REMARK    6  A    between atoms: C10_14  and  C11_15 
REMARK    7  A    between atoms: C16_26  and  C17_27 
REMARK    8  A    between atoms: C17_27  and  C18_28 
REMARK    9  A    between atoms: C18_28  and  C19_29 
REMARK   10  A    between atoms: C19_29  and  C20_30 
REMARK   11  A    between atoms: C20_30  and  N5_31 
REMARK   12  A    between atoms: C23_34  and  C24_35 
REMARK   13  A    between atoms: C24_35  and  O2_36 
ROOT
HETATM    1  C7  UNL     1     -15.847  12.335 -19.206  1.00  0.00     0.056 A 
HETATM    2  C8  UNL     1     -14.926  11.359 -18.862  1.00  0.00     0.038 A 
HETATM    3  C9  UNL     1     -15.263  10.003 -18.888  1.00  0.00    -0.050 A 
HETATM    4  C14 UNL     1     -16.525   9.592 -19.258  1.00  0.00     0.008 A 
HETATM    5  C15 UNL     1     -17.439  10.566 -19.600  1.00  0.00     0.010 A 
HETATM    6  C16 UNL     1     -17.104  11.911 -19.574  1.00  0.00    -0.031 A 
ENDROOT
BRANCH   1   7
HETATM    7  N2  UNL     1     -15.534  13.715 -19.186  1.00  0.00    -0.190 N 
ATOM      8  H2  UNL     1     -15.680  14.223 -18.314  1.00  0.00     0.184 HD
BRANCH   7   9
HETATM    9  C6  UNL     1     -15.074  14.376 -20.201  1.00  0.00     0.697 A 
HETATM   10  N1  UNL     1     -14.281  13.865 -21.135  1.00  0.00    -0.199 N 
HETATM   11  C5  UNL     1     -13.829  14.616 -22.183  1.00  0.00     0.132 A 
ATOM     12  H1  UNL     1     -14.003  12.886 -21.070  1.00  0.00     0.183 HD
HETATM   13  C4  UNL     1     -14.186  15.946 -22.306  1.00  0.00     0.042 A 
HETATM   14  N7  UNL     1     -14.996  16.431 -21.333  1.00  0.00    -0.289 N 
HETATM   15  N6  UNL     1     -15.415  15.680 -20.334  1.00  0.00    -0.132 N 
ATOM     16  H7  UNL     1     -15.290  17.407 -21.375  1.00  0.00     0.187 HD
ATOM     17  H6  UNL     1     -16.024  16.100 -19.631  1.00  0.00     0.205 HD
BRANCH  13  18
HETATM   18  C3  UNL     1     -13.728  16.810 -23.421  1.00  0.00     0.059 C 
BRANCH  18  19
HETATM   19  C2  UNL     1     -12.696  16.106 -24.279  1.00  0.00     0.002 C 
HETATM   20  C1  UNL     1     -12.217  16.994 -25.406  1.00  0.00     0.005 C 
ENDBRANCH  18  19
ENDBRANCH  13  18
ENDBRANCH   7   9
ENDBRANCH   1   7
BRANCH   6  21
HETATM   21  C17 UNL     1     -18.114  12.960 -19.961  1.00  0.00     0.041 C 
BRANCH  21  22
HETATM   22  C18 UNL     1     -18.623  12.552 -21.320  1.00  0.00     0.006 C 
BRANCH  22  23
HETATM   23  C19 UNL     1     -17.533  12.471 -22.374  1.00  0.00     0.030 C 
BRANCH  23  24
HETATM   24  C20 UNL     1     -17.380  13.796 -23.041  1.00  0.00     0.272 C 
BRANCH  24  25
HETATM   25  N5  UNL     1     -18.501  14.659 -22.949  1.00  0.00     0.088 N 
HETATM   26  C21 UNL     1     -19.405  14.434 -24.069  1.00  0.00     0.273 C 
HETATM   27  C22 UNL     1     -18.906  15.078 -25.339  1.00  0.00     0.037 C 
HETATM   28  C23 UNL     1     -18.719  16.555 -25.099  1.00  0.00     0.012 C 
HETATM   29  C25 UNL     1     -17.720  16.738 -23.993  1.00  0.00     0.037 C 
HETATM   30  C26 UNL     1     -18.202  16.027 -22.744  1.00  0.00     0.273 C 
BRANCH  28  31
HETATM   31  C24 UNL     1     -20.008  17.257 -24.750  1.00  0.00     0.168 C 
BRANCH  31  32
HETATM   32  O2  UNL     1     -19.812  18.619 -24.937  1.00  0.00    -0.400 OA
ATOM     33  H2  UNL     1     -20.113  19.065 -24.154  1.00  0.00     0.209 HD
ENDBRANCH  31  32
ENDBRANCH  28  31
ENDBRANCH  24  25
ENDBRANCH  23  24
ENDBRANCH  22  23
ENDBRANCH  21  22
ENDBRANCH   6  21
BRANCH   3  34
HETATM   34  C10 UNL     1     -14.256   9.005 -18.514  1.00  0.00     0.101 C 
BRANCH  34  35
HETATM   35  C11 UNL     1     -14.291   8.661 -17.045  1.00  0.00     0.084 A 
HETATM   36  N3  UNL     1     -14.634   7.522 -16.551  1.00  0.00    -0.332 N 
HETATM   37  C12 UNL     1     -14.570   7.495 -15.141  1.00  0.00     0.179 A 
ATOM     38  H3  UNL     1     -14.922   6.725 -17.118  1.00  0.00     0.168 HD
HETATM   39  S1  UNL     1     -14.928   6.231 -14.141  1.00  0.00    -0.040 SA
HETATM   40  N4  UNL     1     -14.131   8.776 -14.699  1.00  0.00    -0.298 N 
HETATM   41  C13 UNL     1     -13.955   9.516 -15.919  1.00  0.00     0.270 A 
ATOM     42  H4  UNL     1     -13.978   9.093 -13.742  1.00  0.00     0.171 HD
HETATM   43  O1  UNL     1     -13.567  10.716 -15.973  1.00  0.00    -0.266 OA
ENDBRANCH  34  35
ENDBRANCH   3  34
TORSDOF 13
ENDMDL
