MODEL 1
REMARK VINA RESULT: -7.592396870      0.000      0.000
REMARK  11 active torsions:
REMARK  status: ('A' for Active; 'I' for Inactive)
REMARK    1  A    between atoms: C2_2  and  C3_3 
REMARK    2  A    between atoms: C8_9  and  O2_10 
REMARK    3  A    between atoms: C9_12  and  C10_13 
REMARK    4  A    between atoms: C15_18  and  C16_19 
REMARK    5  A    between atoms: C16_19  and  N1_20 
REMARK    6  A    between atoms: N1_20  and  C17_22 
REMARK    7  A    between atoms: C23_31  and  C24_32 
REMARK    8  A    between atoms: C23_31  and  C29_38 
REMARK    9  A    between atoms: C25_33  and  C26_34 
REMARK   10  A    between atoms: C26_34  and  C28_36 
REMARK   11  A    between atoms: C29_38  and  O7_41 
ROOT
HETATM    1  C3  UNL     1      -5.239   2.619  -9.559  1.00  0.00    -0.032 C 
HETATM    2  C4  UNL     1      -5.177   3.397  -8.233  1.00  0.00     0.187 A 
HETATM    3  O1  UNL     1      -4.714   4.599  -7.942  1.00  0.00    -0.365 OA
HETATM    4  C5  UNL     1      -5.966   4.684  -8.371  1.00  0.00     0.218 A 
HETATM    5  C6  UNL     1      -7.237   4.445  -7.654  1.00  0.00     0.195 C 
HETATM    6  C7  UNL     1      -7.535   3.013  -7.392  1.00  0.00     0.104 C 
HETATM    7  C8  UNL     1      -7.212   1.962  -8.320  1.00  0.00     0.132 C 
HETATM    8  C9  UNL     1      -6.643   2.306  -9.726  1.00  0.00     0.052 C 
HETATM    9  O4  UNL     1      -7.140   5.142  -6.438  1.00  0.00    -0.350 OA
HETATM   10  C21 UNL     1      -8.373   5.643  -6.149  1.00  0.00     0.198 C 
HETATM   11  C22 UNL     1      -9.153   5.574  -7.432  1.00  0.00     0.198 C 
HETATM   12  O5  UNL     1      -8.296   5.004  -8.339  1.00  0.00    -0.350 OA
ENDROOT
BRANCH   1  13
HETATM   13  C2  UNL     1      -4.238   3.048 -10.511  1.00  0.00    -0.031 C 
HETATM   14  C1  UNL     1      -4.687   4.123 -11.281  1.00  0.00     0.024 C 
HETATM   15  C23 UNL     1      -2.949   2.609 -10.999  1.00  0.00    -0.015 C 
BRANCH  15  16
HETATM   16  C24 UNL     1      -2.991   1.458 -11.996  1.00  0.00     0.008 C 
HETATM   17  C25 UNL     1      -3.303   0.241 -11.598  1.00  0.00    -0.015 C 
BRANCH  17  18
HETATM   18  C26 UNL     1      -3.361  -0.924 -12.524  1.00  0.00     0.065 C 
HETATM   19  C27 UNL     1      -3.512  -0.422 -13.935  1.00  0.00     0.021 C 
BRANCH  18  20
HETATM   20  C28 UNL     1      -4.592  -1.697 -12.189  1.00  0.00     0.239 C 
HETATM   21  O6  UNL     1      -4.594  -2.915 -12.081  1.00  0.00    -0.306 OA
ENDBRANCH  18  20
ENDBRANCH  17  18
ENDBRANCH  15  16
BRANCH  15  22
HETATM   22  C29 UNL     1      -1.669   2.634 -10.268  1.00  0.00     0.078 C 
HETATM   23  C30 UNL     1      -1.389   3.844  -9.414  1.00  0.00     0.051 C 
HETATM   24  C31 UNL     1      -0.479   2.637 -11.277  1.00  0.00     0.051 C 
BRANCH  22  25
HETATM   25  O7  UNL     1      -1.471   1.540  -9.390  1.00  0.00    -0.386 OA
ATOM     26  H7  UNL     1      -0.711   1.621  -8.824  1.00  0.00     0.211 HD
ENDBRANCH  22  25
ENDBRANCH  15  22
ENDBRANCH   1  13
BRANCH   8  27
HETATM   27  C10 UNL     1      -7.333   1.420 -10.642  1.00  0.00     0.005 C 
HETATM   28  C11 UNL     1      -8.458   0.595 -10.063  1.00  0.00     0.007 C 
HETATM   29  C12 UNL     1      -8.879  -0.300 -11.227  1.00  0.00     0.011 C 
HETATM   30  C13 UNL     1      -8.782   0.630 -12.399  1.00  0.00    -0.031 C 
HETATM   31  C14 UNL     1     -10.138   1.195 -12.697  1.00  0.00     0.016 C 
HETATM   32  C15 UNL     1      -8.089   0.179 -13.620  1.00  0.00     0.013 C 
HETATM   33  C19 UNL     1      -7.684   1.672 -12.063  1.00  0.00    -0.032 C 
HETATM   34  C18 UNL     1      -6.879   0.932 -13.126  1.00  0.00     0.017 C 
HETATM   35  C20 UNL     1      -8.009   2.996 -12.625  1.00  0.00     0.016 C 
BRANCH  32  36
HETATM   36  C16 UNL     1      -7.774  -1.279 -13.756  1.00  0.00     0.127 C 
BRANCH  36  37
HETATM   37  N1  UNL     1      -6.864  -1.575 -14.845  1.00  0.00    -0.368 N 
ATOM     38  H1  UNL     1      -5.935  -1.155 -14.842  1.00  0.00     0.161 HD
BRANCH  37  39
HETATM   39  C17 UNL     1      -7.222  -2.420 -15.898  1.00  0.00     0.348 C 
HETATM   40  O3  UNL     1      -6.778  -2.230 -17.058  1.00  0.00    -0.284 OA
ENDBRANCH  37  39
ENDBRANCH  36  37
ENDBRANCH  32  36
ENDBRANCH   8  27
BRANCH   7  41
HETATM   41  O2  UNL     1      -6.438   0.966  -7.704  1.00  0.00    -0.395 OA
ATOM     42  H2  UNL     1      -6.886   0.129  -7.717  1.00  0.00     0.210 HD
ENDBRANCH   7  41
TORSDOF 11
ENDMDL
MODEL 2
REMARK VINA RESULT: -7.116360184      5.045     10.239
REMARK  11 active torsions:
REMARK  status: ('A' for Active; 'I' for Inactive)
REMARK    1  A    between atoms: C2_2  and  C3_3 
REMARK    2  A    between atoms: C8_9  and  O2_10 
REMARK    3  A    between atoms: C9_12  and  C10_13 
REMARK    4  A    between atoms: C15_18  and  C16_19 
REMARK    5  A    between atoms: C16_19  and  N1_20 
REMARK    6  A    between atoms: N1_20  and  C17_22 
REMARK    7  A    between atoms: C23_31  and  C24_32 
REMARK    8  A    between atoms: C23_31  and  C29_38 
REMARK    9  A    between atoms: C25_33  and  C26_34 
REMARK   10  A    between atoms: C26_34  and  C28_36 
REMARK   11  A    between atoms: C29_38  and  O7_41 
ROOT
HETATM    1  C3  UNL     1      -6.984  -3.633 -15.916  1.00  0.00    -0.032 C 
HETATM    2  C4  UNL     1      -7.294  -2.362 -15.105  1.00  0.00     0.187 A 
HETATM    3  O1  UNL     1      -7.883  -2.189 -13.936  1.00  0.00    -0.365 OA
HETATM    4  C5  UNL     1      -6.592  -2.440 -13.764  1.00  0.00     0.218 A 
HETATM    5  C6  UNL     1      -5.424  -1.540 -13.880  1.00  0.00     0.195 C 
HETATM    6  C7  UNL     1      -5.061  -1.179 -15.275  1.00  0.00     0.104 C 
HETATM    7  C8  UNL     1      -5.167  -2.099 -16.376  1.00  0.00     0.132 C 
HETATM    8  C9  UNL     1      -5.551  -3.585 -16.121  1.00  0.00     0.052 C 
HETATM    9  O4  UNL     1      -5.747  -0.380 -13.156  1.00  0.00    -0.350 OA
HETATM   10  C21 UNL     1      -4.610   0.061 -12.550  1.00  0.00     0.198 C 
HETATM   11  C22 UNL     1      -3.649  -1.095 -12.596  1.00  0.00     0.198 C 
HETATM   12  O5  UNL     1      -4.321  -2.090 -13.260  1.00  0.00    -0.350 OA
ENDROOT
BRANCH   1  13
HETATM   13  C2  UNL     1      -7.865  -4.734 -15.597  1.00  0.00    -0.031 C 
HETATM   14  C1  UNL     1      -7.559  -5.296 -14.355  1.00  0.00     0.024 C 
HETATM   15  C23 UNL     1      -8.895  -5.519 -16.242  1.00  0.00    -0.015 C 
BRANCH  15  16
HETATM   16  C24 UNL     1      -8.388  -6.580 -17.210  1.00  0.00     0.008 C 
HETATM   17  C25 UNL     1      -8.273  -7.835 -16.825  1.00  0.00    -0.015 C 
BRANCH  17  18
HETATM   18  C26 UNL     1      -7.783  -8.917 -17.725  1.00  0.00     0.065 C 
HETATM   19  C27 UNL     1      -8.218  -8.618 -19.134  1.00  0.00     0.021 C 
BRANCH  18  20
HETATM   20  C28 UNL     1      -8.454 -10.180 -17.306  1.00  0.00     0.239 C 
HETATM   21  O6  UNL     1      -8.017 -10.892 -16.412  1.00  0.00    -0.306 OA
ENDBRANCH  18  20
ENDBRANCH  17  18
ENDBRANCH  15  16
BRANCH  15  22
HETATM   22  C29 UNL     1     -10.254  -5.076 -16.600  1.00  0.00     0.078 C 
HETATM   23  C30 UNL     1     -11.053  -5.975 -17.511  1.00  0.00     0.051 C 
HETATM   24  C31 UNL     1     -10.185  -3.741 -17.402  1.00  0.00     0.051 C 
BRANCH  22  25
HETATM   25  O7  UNL     1     -11.112  -4.858 -15.495  1.00  0.00    -0.386 OA
ATOM     26  H7  UNL     1     -10.969  -4.036 -15.040  1.00  0.00     0.211 HD
ENDBRANCH  22  25
ENDBRANCH  15  22
ENDBRANCH   1  13
BRANCH   8  27
HETATM   27  C10 UNL     1      -4.672  -4.356 -16.976  1.00  0.00     0.005 C 
HETATM   28  C11 UNL     1      -3.235  -3.897 -17.056  1.00  0.00     0.007 C 
HETATM   29  C12 UNL     1      -2.624  -4.818 -18.109  1.00  0.00     0.011 C 
HETATM   30  C13 UNL     1      -3.268  -6.136 -17.797  1.00  0.00    -0.031 C 
HETATM   31  C14 UNL     1      -2.343  -6.949 -16.941  1.00  0.00     0.016 C 
HETATM   32  C15 UNL     1      -3.850  -6.931 -18.894  1.00  0.00     0.013 C 
HETATM   33  C19 UNL     1      -4.655  -5.828 -17.176  1.00  0.00    -0.032 C 
HETATM   34  C18 UNL     1      -5.190  -6.362 -18.500  1.00  0.00     0.017 C 
HETATM   35  C20 UNL     1      -5.013  -6.819 -16.143  1.00  0.00     0.016 C 
BRANCH  32  36
HETATM   36  C16 UNL     1      -3.515  -6.543 -20.301  1.00  0.00     0.127 C 
BRANCH  36  37
HETATM   37  N1  UNL     1      -4.646  -6.019 -21.042  1.00  0.00    -0.368 N 
ATOM     38  H1  UNL     1      -4.965  -5.069 -20.852  1.00  0.00     0.161 HD
BRANCH  37  39
HETATM   39  C17 UNL     1      -5.312  -6.777 -22.009  1.00  0.00     0.348 C 
HETATM   40  O3  UNL     1      -5.995  -6.223 -22.905  1.00  0.00    -0.284 OA
ENDBRANCH  37  39
ENDBRANCH  36  37
ENDBRANCH  32  36
ENDBRANCH   8  27
BRANCH   7  41
HETATM   41  O2  UNL     1      -5.947  -1.559 -17.411  1.00  0.00    -0.395 OA
ATOM     42  H2  UNL     1      -6.822  -1.927 -17.406  1.00  0.00     0.210 HD
ENDBRANCH   7  41
TORSDOF 11
ENDMDL
MODEL 3
REMARK VINA RESULT: -7.099691754      1.725      2.654
REMARK  11 active torsions:
REMARK  status: ('A' for Active; 'I' for Inactive)
REMARK    1  A    between atoms: C2_2  and  C3_3 
REMARK    2  A    between atoms: C8_9  and  O2_10 
REMARK    3  A    between atoms: C9_12  and  C10_13 
REMARK    4  A    between atoms: C15_18  and  C16_19 
REMARK    5  A    between atoms: C16_19  and  N1_20 
REMARK    6  A    between atoms: N1_20  and  C17_22 
REMARK    7  A    between atoms: C23_31  and  C24_32 
REMARK    8  A    between atoms: C23_31  and  C29_38 
REMARK    9  A    between atoms: C25_33  and  C26_34 
REMARK   10  A    between atoms: C26_34  and  C28_36 
REMARK   11  A    between atoms: C29_38  and  O7_41 
ROOT
HETATM    1  C3  UNL     1      -5.451   3.224  -8.320  1.00  0.00    -0.032 C 
HETATM    2  C4  UNL     1      -5.809   3.719  -6.907  1.00  0.00     0.187 A 
HETATM    3  O1  UNL     1      -5.704   4.907  -6.341  1.00  0.00    -0.365 OA
HETATM    4  C5  UNL     1      -6.846   4.819  -7.010  1.00  0.00     0.218 A 
HETATM    5  C6  UNL     1      -8.127   4.188  -6.627  1.00  0.00     0.195 C 
HETATM    6  C7  UNL     1      -8.115   2.702  -6.660  1.00  0.00     0.104 C 
HETATM    7  C8  UNL     1      -7.395   1.945  -7.649  1.00  0.00     0.132 C 
HETATM    8  C9  UNL     1      -6.689   2.671  -8.830  1.00  0.00     0.052 C 
HETATM    9  O4  UNL     1      -8.413   4.634  -5.326  1.00  0.00    -0.350 OA
HETATM   10  C21 UNL     1      -9.761   4.806  -5.233  1.00  0.00     0.198 C 
HETATM   11  C22 UNL     1     -10.267   4.837  -6.649  1.00  0.00     0.198 C 
HETATM   12  O5  UNL     1      -9.154   4.645  -7.428  1.00  0.00    -0.350 OA
ENDROOT
BRANCH   1  13
HETATM   13  C2  UNL     1      -4.432   4.028  -8.957  1.00  0.00    -0.031 C 
HETATM   14  C1  UNL     1      -4.827   4.445 -10.231  1.00  0.00     0.024 C 
HETATM   15  C23 UNL     1      -3.061   4.425  -8.722  1.00  0.00    -0.015 C 
BRANCH  15  16
HETATM   16  C24 UNL     1      -2.016   3.363  -9.040  1.00  0.00     0.008 C 
HETATM   17  C25 UNL     1      -1.835   2.954 -10.279  1.00  0.00    -0.015 C 
BRANCH  17  18
HETATM   18  C26 UNL     1      -0.831   1.920 -10.652  1.00  0.00     0.065 C 
HETATM   19  C27 UNL     1      -0.364   2.174 -12.060  1.00  0.00     0.021 C 
BRANCH  18  20
HETATM   20  C28 UNL     1      -1.527   0.601 -10.641  1.00  0.00     0.239 C 
HETATM   21  O6  UNL     1      -2.588   0.413 -11.220  1.00  0.00    -0.306 OA
ENDBRANCH  18  20
ENDBRANCH  17  18
ENDBRANCH  15  16
BRANCH  15  22
HETATM   22  C29 UNL     1      -2.573   5.362  -7.695  1.00  0.00     0.078 C 
HETATM   23  C30 UNL     1      -1.387   6.221  -8.054  1.00  0.00     0.051 C 
HETATM   24  C31 UNL     1      -2.066   4.572  -6.449  1.00  0.00     0.051 C 
BRANCH  22  25
HETATM   25  O7  UNL     1      -3.542   6.289  -7.236  1.00  0.00    -0.386 OA
ATOM     26  H7  UNL     1      -4.419   5.934  -7.151  1.00  0.00     0.211 HD
ENDBRANCH  22  25
ENDBRANCH  15  22
ENDBRANCH   1  13
BRANCH   8  27
HETATM   27  C10 UNL     1      -6.977   1.864  -9.998  1.00  0.00     0.005 C 
HETATM   28  C11 UNL     1      -7.975   0.745  -9.816  1.00  0.00     0.007 C 
HETATM   29  C12 UNL     1      -7.958   0.028 -11.163  1.00  0.00     0.011 C 
HETATM   30  C13 UNL     1      -7.855   1.167 -12.133  1.00  0.00    -0.031 C 
HETATM   31  C14 UNL     1      -9.224   1.512 -12.639  1.00  0.00     0.016 C 
HETATM   32  C15 UNL     1      -6.863   1.100 -13.221  1.00  0.00     0.013 C 
HETATM   33  C19 UNL     1      -7.103   2.314 -11.409  1.00  0.00    -0.032 C 
HETATM   34  C18 UNL     1      -5.968   1.959 -12.362  1.00  0.00     0.017 C 
HETATM   35  C20 UNL     1      -7.609   3.636 -11.825  1.00  0.00     0.016 C 
BRANCH  32  36
HETATM   36  C16 UNL     1      -6.208  -0.217 -13.499  1.00  0.00     0.127 C 
BRANCH  36  37
HETATM   37  N1  UNL     1      -4.767  -0.192 -13.340  1.00  0.00    -0.368 N 
ATOM     38  H1  UNL     1      -4.374  -0.031 -12.412  1.00  0.00     0.161 HD
BRANCH  37  39
HETATM   39  C17 UNL     1      -3.901  -0.382 -14.419  1.00  0.00     0.348 C 
HETATM   40  O3  UNL     1      -4.099   0.199 -15.515  1.00  0.00    -0.284 OA
ENDBRANCH  37  39
ENDBRANCH  36  37
ENDBRANCH  32  36
ENDBRANCH   8  27
BRANCH   7  41
HETATM   41  O2  UNL     1      -6.524   1.026  -7.044  1.00  0.00    -0.395 OA
ATOM     42  H2  UNL     1      -5.620   1.301  -7.137  1.00  0.00     0.210 HD
ENDBRANCH   7  41
TORSDOF 11
ENDMDL
MODEL 4
REMARK VINA RESULT: -7.004302144      7.037     13.242
REMARK  11 active torsions:
REMARK  status: ('A' for Active; 'I' for Inactive)
REMARK    1  A    between atoms: C2_2  and  C3_3 
REMARK    2  A    between atoms: C8_9  and  O2_10 
REMARK    3  A    between atoms: C9_12  and  C10_13 
REMARK    4  A    between atoms: C15_18  and  C16_19 
REMARK    5  A    between atoms: C16_19  and  N1_20 
REMARK    6  A    between atoms: N1_20  and  C17_22 
REMARK    7  A    between atoms: C23_31  and  C24_32 
REMARK    8  A    between atoms: C23_31  and  C29_38 
REMARK    9  A    between atoms: C25_33  and  C26_34 
REMARK   10  A    between atoms: C26_34  and  C28_36 
REMARK   11  A    between atoms: C29_38  and  O7_41 
ROOT
HETATM    1  C3  UNL     1      -4.890  -6.967 -19.225  1.00  0.00    -0.032 C 
HETATM    2  C4  UNL     1      -3.770  -7.410 -20.184  1.00  0.00     0.187 A 
HETATM    3  O1  UNL     1      -2.581  -7.937 -19.959  1.00  0.00    -0.365 OA
HETATM    4  C5  UNL     1      -3.502  -8.889 -19.990  1.00  0.00     0.218 A 
HETATM    5  C6  UNL     1      -4.141  -9.559 -21.144  1.00  0.00     0.195 C 
HETATM    6  C7  UNL     1      -5.132  -8.722 -21.869  1.00  0.00     0.104 C 
HETATM    7  C8  UNL     1      -6.010  -7.795 -21.206  1.00  0.00     0.132 C 
HETATM    8  C9  UNL     1      -6.048  -7.725 -19.653  1.00  0.00     0.052 C 
HETATM    9  O4  UNL     1      -3.100  -9.925 -22.013  1.00  0.00    -0.350 OA
HETATM   10  C21 UNL     1      -3.428 -11.124 -22.570  1.00  0.00     0.198 C 
HETATM   11  C22 UNL     1      -4.526 -11.687 -21.711  1.00  0.00     0.198 C 
HETATM   12  O5  UNL     1      -4.750 -10.733 -20.751  1.00  0.00    -0.350 OA
ENDROOT
BRANCH   1  13
HETATM   13  C2  UNL     1      -4.402  -6.634 -17.905  1.00  0.00    -0.031 C 
HETATM   14  C1  UNL     1      -4.266  -7.771 -17.105  1.00  0.00     0.024 C 
HETATM   15  C23 UNL     1      -4.135  -5.452 -17.116  1.00  0.00    -0.015 C 
BRANCH  15  16
HETATM   16  C24 UNL     1      -5.365  -4.782 -16.518  1.00  0.00     0.008 C 
HETATM   17  C25 UNL     1      -5.548  -4.763 -15.213  1.00  0.00    -0.015 C 
BRANCH  17  18
HETATM   18  C26 UNL     1      -6.729  -4.124 -14.569  1.00  0.00     0.065 C 
HETATM   19  C27 UNL     1      -7.435  -3.264 -15.583  1.00  0.00     0.021 C 
BRANCH  18  20
HETATM   20  C28 UNL     1      -6.218  -3.225 -13.495  1.00  0.00     0.239 C 
HETATM   21  O6  UNL     1      -5.425  -3.603 -12.644  1.00  0.00    -0.306 OA
ENDBRANCH  18  20
ENDBRANCH  17  18
ENDBRANCH  15  16
BRANCH  15  22
HETATM   22  C29 UNL     1      -3.043  -4.483 -17.312  1.00  0.00     0.078 C 
HETATM   23  C30 UNL     1      -2.162  -4.675 -18.521  1.00  0.00     0.051 C 
HETATM   24  C31 UNL     1      -2.032  -4.572 -16.128  1.00  0.00     0.051 C 
BRANCH  22  25
HETATM   25  O7  UNL     1      -3.462  -3.133 -17.403  1.00  0.00    -0.386 OA
ATOM     26  H7  UNL     1      -3.962  -2.927 -18.185  1.00  0.00     0.211 HD
ENDBRANCH  22  25
ENDBRANCH  15  22
ENDBRANCH   1  13
BRANCH   8  27
HETATM   27  C10 UNL     1      -7.452  -7.618 -19.312  1.00  0.00     0.005 C 
HETATM   28  C11 UNL     1      -8.438  -7.840 -20.434  1.00  0.00     0.007 C 
HETATM   29  C12 UNL     1      -9.788  -7.537 -19.789  1.00  0.00     0.011 C 
HETATM   30  C13 UNL     1      -9.632  -8.135 -18.422  1.00  0.00    -0.031 C 
HETATM   31  C14 UNL     1     -10.238  -9.506 -18.409  1.00  0.00     0.016 C 
HETATM   32  C15 UNL     1     -10.025  -7.344 -17.241  1.00  0.00     0.013 C 
HETATM   33  C19 UNL     1      -8.125  -8.068 -18.066  1.00  0.00    -0.032 C 
HETATM   34  C18 UNL     1      -8.567  -6.993 -17.080  1.00  0.00     0.017 C 
HETATM   35  C20 UNL     1      -7.709  -9.234 -17.263  1.00  0.00     0.016 C 
BRANCH  32  36
HETATM   36  C16 UNL     1     -10.837  -6.105 -17.460  1.00  0.00     0.127 C 
BRANCH  36  37
HETATM   37  N1  UNL     1     -10.112  -4.881 -17.182  1.00  0.00    -0.368 N 
ATOM     38  H1  UNL     1      -9.109  -4.931 -16.998  1.00  0.00     0.161 HD
BRANCH  37  39
HETATM   39  C17 UNL     1     -10.744  -3.636 -17.160  1.00  0.00     0.348 C 
HETATM   40  O3  UNL     1     -10.338  -2.692 -17.883  1.00  0.00    -0.284 OA
ENDBRANCH  37  39
ENDBRANCH  36  37
ENDBRANCH  32  36
ENDBRANCH   8  27
BRANCH   7  41
HETATM   41  O2  UNL     1      -5.891  -6.508 -21.755  1.00  0.00    -0.395 OA
ATOM     42  H2  UNL     1      -6.579  -5.936 -21.436  1.00  0.00     0.210 HD
ENDBRANCH   7  41
TORSDOF 11
ENDMDL
MODEL 5
REMARK VINA RESULT: -6.922879504      3.898      9.236
REMARK  11 active torsions:
REMARK  status: ('A' for Active; 'I' for Inactive)
REMARK    1  A    between atoms: C2_2  and  C3_3 
REMARK    2  A    between atoms: C8_9  and  O2_10 
REMARK    3  A    between atoms: C9_12  and  C10_13 
REMARK    4  A    between atoms: C15_18  and  C16_19 
REMARK    5  A    between atoms: C16_19  and  N1_20 
REMARK    6  A    between atoms: N1_20  and  C17_22 
REMARK    7  A    between atoms: C23_31  and  C24_32 
REMARK    8  A    between atoms: C23_31  and  C29_38 
REMARK    9  A    between atoms: C25_33  and  C26_34 
REMARK   10  A    between atoms: C26_34  and  C28_36 
REMARK   11  A    between atoms: C29_38  and  O7_41 
ROOT
HETATM    1  C3  UNL     1      -5.023  -3.060 -16.426  1.00  0.00    -0.032 C 
HETATM    2  C4  UNL     1      -6.085  -3.899 -17.159  1.00  0.00     0.187 A 
HETATM    3  O1  UNL     1      -6.014  -5.072 -17.760  1.00  0.00    -0.365 OA
HETATM    4  C5  UNL     1      -6.233  -5.237 -16.463  1.00  0.00     0.218 A 
HETATM    5  C6  UNL     1      -7.490  -5.141 -15.690  1.00  0.00     0.195 C 
HETATM    6  C7  UNL     1      -7.985  -3.753 -15.491  1.00  0.00     0.104 C 
HETATM    7  C8  UNL     1      -7.109  -2.632 -15.273  1.00  0.00     0.132 C 
HETATM    8  C9  UNL     1      -5.579  -2.854 -15.105  1.00  0.00     0.052 C 
HETATM    9  O4  UNL     1      -8.445  -5.890 -16.397  1.00  0.00    -0.350 OA
HETATM   10  C21 UNL     1      -9.247  -6.505 -15.483  1.00  0.00     0.198 C 
HETATM   11  C22 UNL     1      -8.508  -6.433 -14.176  1.00  0.00     0.198 C 
HETATM   12  O5  UNL     1      -7.353  -5.747 -14.459  1.00  0.00    -0.350 OA
ENDROOT
BRANCH   1  13
HETATM   13  C2  UNL     1      -3.675  -3.354 -16.858  1.00  0.00    -0.031 C 
HETATM   14  C1  UNL     1      -3.277  -2.523 -17.908  1.00  0.00     0.024 C 
HETATM   15  C23 UNL     1      -2.653  -4.349 -16.615  1.00  0.00    -0.015 C 
BRANCH  15  16
HETATM   16  C24 UNL     1      -2.865  -5.681 -17.322  1.00  0.00     0.008 C 
HETATM   17  C25 UNL     1      -2.979  -5.731 -18.633  1.00  0.00    -0.015 C 
BRANCH  17  18
HETATM   18  C26 UNL     1      -3.188  -7.002 -19.381  1.00  0.00     0.065 C 
HETATM   19  C27 UNL     1      -3.996  -6.717 -20.618  1.00  0.00     0.021 C 
BRANCH  18  20
HETATM   20  C28 UNL     1      -4.002  -7.900 -18.511  1.00  0.00     0.239 C 
HETATM   21  O6  UNL     1      -5.170  -8.169 -18.755  1.00  0.00    -0.306 OA
ENDBRANCH  18  20
ENDBRANCH  17  18
ENDBRANCH  15  16
BRANCH  15  22
HETATM   22  C29 UNL     1      -1.854  -4.517 -15.388  1.00  0.00     0.078 C 
HETATM   23  C30 UNL     1      -2.476  -5.308 -14.265  1.00  0.00     0.051 C 
HETATM   24  C31 UNL     1      -1.590  -3.128 -14.730  1.00  0.00     0.051 C 
BRANCH  22  25
HETATM   25  O7  UNL     1      -0.594  -5.133 -15.586  1.00  0.00    -0.386 OA
ATOM     26  H7  UNL     1      -0.259  -5.599 -14.828  1.00  0.00     0.211 HD
ENDBRANCH  22  25
ENDBRANCH  15  22
ENDBRANCH   1  13
BRANCH   8  27
HETATM   27  C10 UNL     1      -5.187  -1.981 -14.017  1.00  0.00     0.005 C 
HETATM   28  C11 UNL     1      -4.330  -2.595 -12.935  1.00  0.00     0.007 C 
HETATM   29  C12 UNL     1      -4.202  -1.477 -11.903  1.00  0.00     0.011 C 
HETATM   30  C13 UNL     1      -4.055  -0.259 -12.765  1.00  0.00    -0.031 C 
HETATM   31  C14 UNL     1      -2.600   0.074 -12.907  1.00  0.00     0.016 C 
HETATM   32  C15 UNL     1      -4.870   0.934 -12.472  1.00  0.00     0.013 C 
HETATM   33  C19 UNL     1      -4.807  -0.547 -14.091  1.00  0.00    -0.032 C 
HETATM   34  C18 UNL     1      -5.808   0.472 -13.560  1.00  0.00     0.017 C 
HETATM   35  C20 UNL     1      -4.130   0.083 -15.240  1.00  0.00     0.016 C 
BRANCH  32  36
HETATM   36  C16 UNL     1      -5.588   0.993 -11.159  1.00  0.00     0.127 C 
BRANCH  36  37
HETATM   37  N1  UNL     1      -5.136   2.071 -10.301  1.00  0.00    -0.368 N 
ATOM     38  H1  UNL     1      -5.436   2.087  -9.326  1.00  0.00     0.161 HD
BRANCH  37  39
HETATM   39  C17 UNL     1      -4.302   3.089 -10.770  1.00  0.00     0.348 C 
HETATM   40  O3  UNL     1      -4.768   4.212 -11.084  1.00  0.00    -0.284 OA
ENDBRANCH  37  39
ENDBRANCH  36  37
ENDBRANCH  32  36
ENDBRANCH   8  27
BRANCH   7  41
HETATM   41  O2  UNL     1      -7.360  -1.610 -16.203  1.00  0.00    -0.395 OA
ATOM     42  H2  UNL     1      -7.038  -0.775 -15.886  1.00  0.00     0.210 HD
ENDBRANCH   7  41
TORSDOF 11
ENDMDL
