MODEL 1
REMARK VINA RESULT: -9.170803729      0.000      0.000
REMARK  11 active torsions:
REMARK  status: ('A' for Active; 'I' for Inactive)
REMARK    1  A    between atoms: O1_2  and  C2_3 
REMARK    2  A    between atoms: C2_3  and  C3_4 
REMARK       I    between atoms: C3_4  and  N1_6 
REMARK    3  A    between atoms: N1_6  and  C4_8 
REMARK    4  A    between atoms: C4_8  and  C5_9 
REMARK    5  A    between atoms: C7_11  and  C8_12 
REMARK    6  A    between atoms: C11_16  and  C12_17 
REMARK       I    between atoms: C12_17  and  N3_19 
REMARK    7  A    between atoms: N3_19  and  C13_21 
REMARK    8  A    between atoms: C23_34  and  N6_35 
REMARK    9  A    between atoms: N6_35  and  C24_37 
REMARK   10  A    between atoms: C24_37  and  C25_38 
REMARK   11  A    between atoms: C25_38  and  N7_39 
ROOT
HETATM    1  C5  UNL     1      -7.200  -0.740 -12.796  1.00  0.00     0.029 A 
HETATM    2  C6  UNL     1      -7.064  -1.998 -13.405  1.00  0.00     0.039 A 
HETATM    3  C7  UNL     1      -5.944  -2.299 -14.144  1.00  0.00    -0.012 A 
HETATM    4  C21 UNL     1      -4.940  -1.374 -14.296  1.00  0.00    -0.007 A 
HETATM    5  C22 UNL     1      -3.691  -1.605 -15.058  1.00  0.00     0.053 C 
HETATM    6  C23 UNL     1      -5.098  -0.136 -13.681  1.00  0.00     0.108 A 
HETATM    7  N8  UNL     1      -6.204   0.142 -12.961  1.00  0.00    -0.344 N 
ATOM      8  H8  UNL     1      -6.287   1.061 -12.525  1.00  0.00     0.167 HD
ENDROOT
BRANCH   3   9
HETATM    9  C8  UNL     1      -5.818  -3.576 -14.833  1.00  0.00    -0.001 A 
HETATM   10  C9  UNL     1      -4.705  -4.382 -14.933  1.00  0.00     0.104 A 
HETATM   11  N2  UNL     1      -4.982  -5.478 -15.714  1.00  0.00    -0.355 N 
HETATM   12  C10 UNL     1      -3.983  -6.477 -16.028  1.00  0.00     0.156 C 
HETATM   13  C11 UNL     1      -6.244  -5.410 -16.122  1.00  0.00     0.109 A 
HETATM   14  C19 UNL     1      -6.781  -4.231 -15.585  1.00  0.00    -0.017 A 
HETATM   15  C20 UNL     1      -8.174  -3.713 -15.742  1.00  0.00     0.052 C 
BRANCH  13  16
HETATM   16  C12 UNL     1      -7.063  -6.324 -16.889  1.00  0.00     0.273 C 
HETATM   17  O3  UNL     1      -6.903  -6.428 -18.161  1.00  0.00    -0.266 OA
HETATM   18  N3  UNL     1      -8.064  -7.138 -16.351  1.00  0.00    -0.318 N 
ATOM     19  H3  UNL     1      -8.258  -7.138 -15.350  1.00  0.00     0.169 HD
BRANCH  18  20
HETATM   20  C13 UNL     1      -8.816  -7.978 -17.255  1.00  0.00     0.083 A 
HETATM   21  C14 UNL     1      -9.963  -7.725 -17.918  1.00  0.00     0.051 A 
HETATM   22  C15 UNL     1     -10.736  -6.441 -17.888  1.00  0.00     0.072 C 
HETATM   23  N4  UNL     1     -10.285  -8.849 -18.623  1.00  0.00    -0.301 N 
HETATM   24  N5  UNL     1      -9.377  -9.800 -18.421  1.00  0.00    -0.299 N 
ATOM     25  H4  UNL     1     -11.107  -8.946 -19.219  1.00  0.00     0.187 HD
HETATM   26  C16 UNL     1      -9.372 -11.161 -18.990  1.00  0.00     0.177 C 
HETATM   27  C17 UNL     1      -8.461  -9.293 -17.585  1.00  0.00     0.053 A 
HETATM   28  C18 UNL     1      -7.237  -9.946 -17.057  1.00  0.00     0.072 C 
ENDBRANCH  18  20
ENDBRANCH  13  16
ENDBRANCH   3   9
BRANCH   1  29
HETATM   29  C4  UNL     1      -8.449  -0.415 -12.018  1.00  0.00     0.179 C 
BRANCH  29  30
HETATM   30  N1  UNL     1      -8.025   0.242 -10.794  1.00  0.00    -0.354 N 
HETATM   31  C3  UNL     1      -7.985   1.640 -10.695  1.00  0.00     0.241 C 
HETATM   32  O2  UNL     1      -8.313   2.362 -11.661  1.00  0.00    -0.271 OA
ATOM     33  H1  UNL     1      -7.752  -0.325  -9.992  1.00  0.00     0.162 HD
BRANCH  31  34
HETATM   34  C2  UNL     1      -7.553   2.302  -9.449  1.00  0.00     0.269 C 
BRANCH  34  35
HETATM   35  O1  UNL     1      -6.862   1.371  -8.667  1.00  0.00    -0.387 OA
HETATM   36  C1  UNL     1      -7.139   1.656  -7.319  1.00  0.00     0.202 C 
ENDBRANCH  34  35
ENDBRANCH  31  34
ENDBRANCH  29  30
ENDBRANCH   1  29
BRANCH   6  37
HETATM   37  N6  UNL     1      -4.137   0.714 -13.808  1.00  0.00    -0.374 N 
ATOM     38  H6  UNL     1      -4.078   1.287 -14.650  1.00  0.00     0.161 HD
BRANCH  37  39
HETATM   39  C24 UNL     1      -3.141   0.864 -12.770  1.00  0.00     0.151 C 
BRANCH  39  40
HETATM   40  C25 UNL     1      -3.330   2.126 -11.983  1.00  0.00     0.292 C 
BRANCH  40  41
HETATM   41  N7  UNL     1      -2.164   2.969 -12.000  1.00  0.00     0.090 N 
HETATM   42  C26 UNL     1      -0.974   2.212 -12.224  1.00  0.00     0.272 C 
HETATM   43  C27 UNL     1      -0.281   2.072 -10.892  1.00  0.00     0.032 C 
HETATM   44  C28 UNL     1      -1.240   2.661  -9.896  1.00  0.00     0.032 C 
HETATM   45  C29 UNL     1      -1.991   3.682 -10.755  1.00  0.00     0.272 C 
ENDBRANCH  40  41
ENDBRANCH  39  40
ENDBRANCH  37  39
ENDBRANCH   6  37
TORSDOF 11
ENDMDL
MODEL 2
REMARK VINA RESULT: -9.114530478      1.817      2.741
REMARK  11 active torsions:
REMARK  status: ('A' for Active; 'I' for Inactive)
REMARK    1  A    between atoms: O1_2  and  C2_3 
REMARK    2  A    between atoms: C2_3  and  C3_4 
REMARK       I    between atoms: C3_4  and  N1_6 
REMARK    3  A    between atoms: N1_6  and  C4_8 
REMARK    4  A    between atoms: C4_8  and  C5_9 
REMARK    5  A    between atoms: C7_11  and  C8_12 
REMARK    6  A    between atoms: C11_16  and  C12_17 
REMARK       I    between atoms: C12_17  and  N3_19 
REMARK    7  A    between atoms: N3_19  and  C13_21 
REMARK    8  A    between atoms: C23_34  and  N6_35 
REMARK    9  A    between atoms: N6_35  and  C24_37 
REMARK   10  A    between atoms: C24_37  and  C25_38 
REMARK   11  A    between atoms: C25_38  and  N7_39 
ROOT
HETATM    1  C5  UNL     1      -6.863   0.843 -11.137  1.00  0.00     0.029 A 
HETATM    2  C6  UNL     1      -6.562  -0.367 -11.783  1.00  0.00     0.039 A 
HETATM    3  C7  UNL     1      -5.506  -0.446 -12.661  1.00  0.00    -0.012 A 
HETATM    4  C21 UNL     1      -4.728   0.657 -12.917  1.00  0.00    -0.007 A 
HETATM    5  C22 UNL     1      -3.563   0.671 -13.832  1.00  0.00     0.053 C 
HETATM    6  C23 UNL     1      -5.045   1.842 -12.262  1.00  0.00     0.108 A 
HETATM    7  N8  UNL     1      -6.086   1.902 -11.406  1.00  0.00    -0.344 N 
ATOM      8  H8  UNL     1      -6.290   2.789 -10.944  1.00  0.00     0.167 HD
ENDROOT
BRANCH   3   9
HETATM    9  C8  UNL     1      -5.222  -1.677 -13.386  1.00  0.00    -0.001 A 
HETATM   10  C9  UNL     1      -4.078  -2.444 -13.343  1.00  0.00     0.104 A 
HETATM   11  N2  UNL     1      -4.182  -3.500 -14.216  1.00  0.00    -0.355 N 
HETATM   12  C10 UNL     1      -3.109  -4.451 -14.412  1.00  0.00     0.156 C 
HETATM   13  C11 UNL     1      -5.363  -3.444 -14.822  1.00  0.00     0.109 A 
HETATM   14  C19 UNL     1      -6.023  -2.314 -14.320  1.00  0.00    -0.017 A 
HETATM   15  C20 UNL     1      -7.390  -1.826 -14.678  1.00  0.00     0.052 C 
BRANCH  13  16
HETATM   16  C12 UNL     1      -6.010  -4.334 -15.762  1.00  0.00     0.273 C 
HETATM   17  O3  UNL     1      -6.184  -3.974 -16.984  1.00  0.00    -0.266 OA
HETATM   18  N3  UNL     1      -6.493  -5.608 -15.446  1.00  0.00    -0.318 N 
ATOM     19  H3  UNL     1      -6.390  -5.990 -14.507  1.00  0.00     0.169 HD
BRANCH  18  20
HETATM   20  C13 UNL     1      -7.143  -6.366 -16.491  1.00  0.00     0.083 A 
HETATM   21  C14 UNL     1      -6.610  -7.163 -17.439  1.00  0.00     0.051 A 
HETATM   22  C15 UNL     1      -5.156  -7.481 -17.611  1.00  0.00     0.072 C 
HETATM   23  N4  UNL     1      -7.638  -7.629 -18.208  1.00  0.00    -0.301 N 
HETATM   24  N5  UNL     1      -8.799  -7.147 -17.773  1.00  0.00    -0.299 N 
ATOM     25  H4  UNL     1      -7.530  -8.257 -19.004  1.00  0.00     0.187 HD
HETATM   26  C16 UNL     1     -10.137  -7.402 -18.339  1.00  0.00     0.177 C 
HETATM   27  C17 UNL     1      -8.526  -6.368 -16.717  1.00  0.00     0.053 A 
HETATM   28  C18 UNL     1      -9.475  -5.608 -15.866  1.00  0.00     0.072 C 
ENDBRANCH  18  20
ENDBRANCH  13  16
ENDBRANCH   3   9
BRANCH   1  29
HETATM   29  C4  UNL     1      -8.043   0.921 -10.204  1.00  0.00     0.179 C 
BRANCH  29  30
HETATM   30  N1  UNL     1      -7.511   1.015  -8.856  1.00  0.00    -0.354 N 
HETATM   31  C3  UNL     1      -7.289   2.258  -8.246  1.00  0.00     0.241 C 
HETATM   32  O2  UNL     1      -7.544   3.323  -8.848  1.00  0.00    -0.271 OA
ATOM     33  H1  UNL     1      -7.294   0.160  -8.344  1.00  0.00     0.162 HD
BRANCH  31  34
HETATM   34  C2  UNL     1      -6.748   2.348  -6.876  1.00  0.00     0.269 C 
BRANCH  34  35
HETATM   35  O1  UNL     1      -6.877   1.096  -6.265  1.00  0.00    -0.387 OA
HETATM   36  C1  UNL     1      -7.775   1.235  -5.192  1.00  0.00     0.202 C 
ENDBRANCH  34  35
ENDBRANCH  31  34
ENDBRANCH  29  30
ENDBRANCH   1  29
BRANCH   6  37
HETATM   37  N6  UNL     1      -4.291   2.863 -12.490  1.00  0.00    -0.374 N 
ATOM     38  H6  UNL     1      -3.930   3.024 -13.431  1.00  0.00     0.161 HD
BRANCH  37  39
HETATM   39  C24 UNL     1      -3.952   3.783 -11.427  1.00  0.00     0.151 C 
BRANCH  39  40
HETATM   40  C25 UNL     1      -3.233   3.103 -10.300  1.00  0.00     0.292 C 
BRANCH  40  41
HETATM   41  N7  UNL     1      -1.812   3.329 -10.332  1.00  0.00     0.090 N 
HETATM   42  C26 UNL     1      -1.332   3.449 -11.672  1.00  0.00     0.272 C 
HETATM   43  C27 UNL     1      -0.662   2.143 -12.020  1.00  0.00     0.032 C 
HETATM   44  C28 UNL     1      -0.941   1.244 -10.849  1.00  0.00     0.032 C 
HETATM   45  C29 UNL     1      -1.077   2.255  -9.707  1.00  0.00     0.272 C 
ENDBRANCH  40  41
ENDBRANCH  39  40
ENDBRANCH  37  39
ENDBRANCH   6  37
TORSDOF 11
ENDMDL
MODEL 3
REMARK VINA RESULT: -8.986475803      2.302     10.984
REMARK  11 active torsions:
REMARK  status: ('A' for Active; 'I' for Inactive)
REMARK    1  A    between atoms: O1_2  and  C2_3 
REMARK    2  A    between atoms: C2_3  and  C3_4 
REMARK       I    between atoms: C3_4  and  N1_6 
REMARK    3  A    between atoms: N1_6  and  C4_8 
REMARK    4  A    between atoms: C4_8  and  C5_9 
REMARK    5  A    between atoms: C7_11  and  C8_12 
REMARK    6  A    between atoms: C11_16  and  C12_17 
REMARK       I    between atoms: C12_17  and  N3_19 
REMARK    7  A    between atoms: N3_19  and  C13_21 
REMARK    8  A    between atoms: C23_34  and  N6_35 
REMARK    9  A    between atoms: N6_35  and  C24_37 
REMARK   10  A    between atoms: C24_37  and  C25_38 
REMARK   11  A    between atoms: C25_38  and  N7_39 
ROOT
HETATM    1  C5  UNL     1      -7.506  -5.703 -15.371  1.00  0.00     0.029 A 
HETATM    2  C6  UNL     1      -7.547  -4.352 -14.991  1.00  0.00     0.039 A 
HETATM    3  C7  UNL     1      -6.537  -3.493 -15.354  1.00  0.00    -0.012 A 
HETATM    4  C21 UNL     1      -5.472  -3.943 -16.097  1.00  0.00    -0.007 A 
HETATM    5  C22 UNL     1      -4.344  -3.096 -16.550  1.00  0.00     0.053 C 
HETATM    6  C23 UNL     1      -5.457  -5.285 -16.464  1.00  0.00     0.108 A 
HETATM    7  N8  UNL     1      -6.456  -6.114 -16.097  1.00  0.00    -0.344 N 
ATOM      8  H8  UNL     1      -6.410  -7.092 -16.382  1.00  0.00     0.167 HD
ENDROOT
BRANCH   3   9
HETATM    9  C8  UNL     1      -6.534  -2.104 -14.913  1.00  0.00    -0.001 A 
HETATM   10  C9  UNL     1      -7.289  -1.058 -15.395  1.00  0.00     0.104 A 
HETATM   11  N2  UNL     1      -6.954   0.107 -14.747  1.00  0.00    -0.355 N 
HETATM   12  C10 UNL     1      -7.559   1.379 -15.079  1.00  0.00     0.156 C 
HETATM   13  C11 UNL     1      -6.005  -0.154 -13.855  1.00  0.00     0.109 A 
HETATM   14  C19 UNL     1      -5.729  -1.525 -13.945  1.00  0.00    -0.017 A 
HETATM   15  C20 UNL     1      -4.746  -2.309 -13.137  1.00  0.00     0.052 C 
BRANCH  13  16
HETATM   16  C12 UNL     1      -5.354   0.678 -12.866  1.00  0.00     0.273 C 
HETATM   17  O3  UNL     1      -5.786   0.707 -11.655  1.00  0.00    -0.266 OA
HETATM   18  N3  UNL     1      -4.251   1.499 -13.119  1.00  0.00    -0.318 N 
ATOM     19  H3  UNL     1      -3.825   1.535 -14.045  1.00  0.00     0.169 HD
BRANCH  18  20
HETATM   20  C13 UNL     1      -3.731   2.294 -12.030  1.00  0.00     0.083 A 
HETATM   21  C14 UNL     1      -4.120   3.504 -11.581  1.00  0.00     0.051 A 
HETATM   22  C15 UNL     1      -5.255   4.323 -12.118  1.00  0.00     0.072 C 
HETATM   23  N4  UNL     1      -3.295   3.843 -10.547  1.00  0.00    -0.301 N 
HETATM   24  N5  UNL     1      -2.399   2.883 -10.334  1.00  0.00    -0.299 N 
ATOM     25  H4  UNL     1      -3.357   4.710 -10.013  1.00  0.00     0.187 HD
HETATM   26  C16 UNL     1      -1.328   2.873  -9.319  1.00  0.00     0.177 C 
HETATM   27  C17 UNL     1      -2.643   1.917 -11.230  1.00  0.00     0.053 A 
HETATM   28  C18 UNL     1      -1.933   0.625 -11.406  1.00  0.00     0.072 C 
ENDBRANCH  18  20
ENDBRANCH  13  16
ENDBRANCH   3   9
BRANCH   1  29
HETATM   29  C4  UNL     1      -8.604  -6.638 -14.937  1.00  0.00     0.179 C 
BRANCH  29  30
HETATM   30  N1  UNL     1      -8.906  -7.492 -16.071  1.00  0.00    -0.354 N 
HETATM   31  C3  UNL     1      -9.816  -7.094 -17.061  1.00  0.00     0.241 C 
HETATM   32  O2  UNL     1     -10.396  -5.988 -16.993  1.00  0.00    -0.271 OA
ATOM     33  H1  UNL     1      -8.447  -8.399 -16.150  1.00  0.00     0.162 HD
BRANCH  31  34
HETATM   34  C2  UNL     1     -10.120  -7.966 -18.212  1.00  0.00     0.269 C 
BRANCH  34  35
HETATM   35  O1  UNL     1      -9.404  -9.159 -18.065  1.00  0.00    -0.387 OA
HETATM   36  C1  UNL     1     -10.057 -10.145 -18.825  1.00  0.00     0.202 C 
ENDBRANCH  34  35
ENDBRANCH  31  34
ENDBRANCH  29  30
ENDBRANCH   1  29
BRANCH   6  37
HETATM   37  N6  UNL     1      -4.466  -5.689 -17.184  1.00  0.00    -0.374 N 
ATOM     38  H6  UNL     1      -3.729  -5.033 -17.442  1.00  0.00     0.161 HD
BRANCH  37  39
HETATM   39  C24 UNL     1      -4.390  -7.063 -17.630  1.00  0.00     0.151 C 
BRANCH  39  40
HETATM   40  C25 UNL     1      -4.278  -7.167 -19.122  1.00  0.00     0.292 C 
BRANCH  40  41
HETATM   41  N7  UNL     1      -5.474  -6.738 -19.799  1.00  0.00     0.090 N 
HETATM   42  C26 UNL     1      -6.592  -7.559 -19.456  1.00  0.00     0.272 C 
HETATM   43  C27 UNL     1      -6.829  -8.492 -20.617  1.00  0.00     0.032 C 
HETATM   44  C28 UNL     1      -5.677  -8.243 -21.551  1.00  0.00     0.032 C 
HETATM   45  C29 UNL     1      -5.332  -6.785 -21.235  1.00  0.00     0.272 C 
ENDBRANCH  40  41
ENDBRANCH  39  40
ENDBRANCH  37  39
ENDBRANCH   6  37
TORSDOF 11
ENDMDL
MODEL 4
REMARK VINA RESULT: -8.952674391      2.367     10.029
REMARK  11 active torsions:
REMARK  status: ('A' for Active; 'I' for Inactive)
REMARK    1  A    between atoms: O1_2  and  C2_3 
REMARK    2  A    between atoms: C2_3  and  C3_4 
REMARK       I    between atoms: C3_4  and  N1_6 
REMARK    3  A    between atoms: N1_6  and  C4_8 
REMARK    4  A    between atoms: C4_8  and  C5_9 
REMARK    5  A    between atoms: C7_11  and  C8_12 
REMARK    6  A    between atoms: C11_16  and  C12_17 
REMARK       I    between atoms: C12_17  and  N3_19 
REMARK    7  A    between atoms: N3_19  and  C13_21 
REMARK    8  A    between atoms: C23_34  and  N6_35 
REMARK    9  A    between atoms: N6_35  and  C24_37 
REMARK   10  A    between atoms: C24_37  and  C25_38 
REMARK   11  A    between atoms: C25_38  and  N7_39 
ROOT
HETATM    1  C5  UNL     1      -7.694  -5.399 -15.309  1.00  0.00     0.029 A 
HETATM    2  C6  UNL     1      -7.716  -4.085 -14.815  1.00  0.00     0.039 A 
HETATM    3  C7  UNL     1      -6.860  -3.135 -15.322  1.00  0.00    -0.012 A 
HETATM    4  C21 UNL     1      -5.972  -3.457 -16.319  1.00  0.00    -0.007 A 
HETATM    5  C22 UNL     1      -5.021  -2.505 -16.939  1.00  0.00     0.053 C 
HETATM    6  C23 UNL     1      -5.973  -4.765 -16.793  1.00  0.00     0.108 A 
HETATM    7  N8  UNL     1      -6.818  -5.684 -16.283  1.00  0.00    -0.344 N 
ATOM      8  H8  UNL     1      -6.790  -6.634 -16.653  1.00  0.00     0.167 HD
ENDROOT
BRANCH   3   9
HETATM    9  C8  UNL     1      -6.827  -1.785 -14.775  1.00  0.00    -0.001 A 
HETATM   10  C9  UNL     1      -7.653  -0.725 -15.079  1.00  0.00     0.104 A 
HETATM   11  N2  UNL     1      -7.261   0.396 -14.387  1.00  0.00    -0.355 N 
HETATM   12  C10 UNL     1      -7.923   1.673 -14.543  1.00  0.00     0.156 C 
HETATM   13  C11 UNL     1      -6.206   0.093 -13.639  1.00  0.00     0.109 A 
HETATM   14  C19 UNL     1      -5.920  -1.260 -13.869  1.00  0.00    -0.017 A 
HETATM   15  C20 UNL     1      -4.832  -2.077 -13.249  1.00  0.00     0.052 C 
BRANCH  13  16
HETATM   16  C12 UNL     1      -5.453   0.864 -12.672  1.00  0.00     0.273 C 
HETATM   17  O3  UNL     1      -5.848   0.938 -11.450  1.00  0.00    -0.266 OA
HETATM   18  N3  UNL     1      -4.285   1.576 -12.960  1.00  0.00    -0.318 N 
ATOM     19  H3  UNL     1      -3.883   1.568 -13.897  1.00  0.00     0.169 HD
BRANCH  18  20
HETATM   20  C13 UNL     1      -3.664   2.323 -11.890  1.00  0.00     0.083 A 
HETATM   21  C14 UNL     1      -3.961   3.545 -11.403  1.00  0.00     0.051 A 
HETATM   22  C15 UNL     1      -5.076   4.433 -11.865  1.00  0.00     0.072 C 
HETATM   23  N4  UNL     1      -3.064   3.820 -10.412  1.00  0.00    -0.301 N 
HETATM   24  N5  UNL     1      -2.211   2.810 -10.262  1.00  0.00    -0.299 N 
ATOM     25  H4  UNL     1      -3.048   4.680  -9.863  1.00  0.00     0.187 HD
HETATM   26  C16 UNL     1      -1.090   2.725  -9.308  1.00  0.00     0.177 C 
HETATM   27  C17 UNL     1      -2.557   1.874 -11.157  1.00  0.00     0.053 A 
HETATM   28  C18 UNL     1      -1.930   0.549 -11.389  1.00  0.00     0.072 C 
ENDBRANCH  18  20
ENDBRANCH  13  16
ENDBRANCH   3   9
BRANCH   1  29
HETATM   29  C4  UNL     1      -8.616  -6.436 -14.721  1.00  0.00     0.179 C 
BRANCH  29  30
HETATM   30  N1  UNL     1      -8.988  -7.332 -15.800  1.00  0.00    -0.354 N 
HETATM   31  C3  UNL     1      -9.756  -6.886 -16.885  1.00  0.00     0.241 C 
HETATM   32  O2  UNL     1     -10.145  -5.700 -16.952  1.00  0.00    -0.271 OA
ATOM     33  H1  UNL     1      -8.684  -8.306 -15.769  1.00  0.00     0.162 HD
BRANCH  31  34
HETATM   34  C2  UNL     1     -10.132  -7.802 -17.979  1.00  0.00     0.269 C 
BRANCH  34  35
HETATM   35  O1  UNL     1     -10.061  -7.101 -19.188  1.00  0.00    -0.387 OA
HETATM   36  C1  UNL     1      -9.059  -7.700 -19.971  1.00  0.00     0.202 C 
ENDBRANCH  34  35
ENDBRANCH  31  34
ENDBRANCH  29  30
ENDBRANCH   1  29
BRANCH   6  37
HETATM   37  N6  UNL     1      -5.154  -5.048 -17.748  1.00  0.00    -0.374 N 
ATOM     38  H6  UNL     1      -5.256  -4.588 -18.653  1.00  0.00     0.161 HD
BRANCH  37  39
HETATM   39  C24 UNL     1      -4.092  -6.010 -17.549  1.00  0.00     0.151 C 
BRANCH  39  40
HETATM   40  C25 UNL     1      -2.750  -5.352 -17.421  1.00  0.00     0.292 C 
BRANCH  40  41
HETATM   41  N7  UNL     1      -2.102  -5.656 -16.172  1.00  0.00     0.090 N 
HETATM   42  C26 UNL     1      -3.037  -5.697 -15.093  1.00  0.00     0.272 C 
HETATM   43  C27 UNL     1      -2.883  -4.409 -14.325  1.00  0.00     0.032 C 
HETATM   44  C28 UNL     1      -1.920  -3.590 -15.137  1.00  0.00     0.032 C 
HETATM   45  C29 UNL     1      -1.096  -4.678 -15.830  1.00  0.00     0.272 C 
ENDBRANCH  40  41
ENDBRANCH  39  40
ENDBRANCH  37  39
ENDBRANCH   6  37
TORSDOF 11
ENDMDL
MODEL 5
REMARK VINA RESULT: -8.921772532      2.256     10.279
REMARK  11 active torsions:
REMARK  status: ('A' for Active; 'I' for Inactive)
REMARK    1  A    between atoms: O1_2  and  C2_3 
REMARK    2  A    between atoms: C2_3  and  C3_4 
REMARK       I    between atoms: C3_4  and  N1_6 
REMARK    3  A    between atoms: N1_6  and  C4_8 
REMARK    4  A    between atoms: C4_8  and  C5_9 
REMARK    5  A    between atoms: C7_11  and  C8_12 
REMARK    6  A    between atoms: C11_16  and  C12_17 
REMARK       I    between atoms: C12_17  and  N3_19 
REMARK    7  A    between atoms: N3_19  and  C13_21 
REMARK    8  A    between atoms: C23_34  and  N6_35 
REMARK    9  A    between atoms: N6_35  and  C24_37 
REMARK   10  A    between atoms: C24_37  and  C25_38 
REMARK   11  A    between atoms: C25_38  and  N7_39 
ROOT
HETATM    1  C5  UNL     1      -7.708  -5.211 -15.212  1.00  0.00     0.029 A 
HETATM    2  C6  UNL     1      -7.683  -3.938 -14.622  1.00  0.00     0.039 A 
HETATM    3  C7  UNL     1      -6.824  -2.970 -15.086  1.00  0.00    -0.012 A 
HETATM    4  C21 UNL     1      -5.978  -3.233 -16.136  1.00  0.00    -0.007 A 
HETATM    5  C22 UNL     1      -5.028  -2.257 -16.717  1.00  0.00     0.053 C 
HETATM    6  C23 UNL     1      -6.025  -4.502 -16.705  1.00  0.00     0.108 A 
HETATM    7  N8  UNL     1      -6.873  -5.440 -16.236  1.00  0.00    -0.344 N 
ATOM      8  H8  UNL     1      -6.879  -6.360 -16.676  1.00  0.00     0.167 HD
ENDROOT
BRANCH   3   9
HETATM    9  C8  UNL     1      -6.741  -1.665 -14.443  1.00  0.00    -0.001 A 
HETATM   10  C9  UNL     1      -7.566  -0.576 -14.621  1.00  0.00     0.104 A 
HETATM   11  N2  UNL     1      -7.121   0.484 -13.869  1.00  0.00    -0.355 N 
HETATM   12  C10 UNL     1      -7.771   1.777 -13.892  1.00  0.00     0.156 C 
HETATM   13  C11 UNL     1      -6.033   0.113 -13.203  1.00  0.00     0.109 A 
HETATM   14  C19 UNL     1      -5.780  -1.221 -13.549  1.00  0.00    -0.017 A 
HETATM   15  C20 UNL     1      -4.674  -2.095 -13.052  1.00  0.00     0.052 C 
BRANCH  13  16
HETATM   16  C12 UNL     1      -5.219   0.800 -12.223  1.00  0.00     0.273 C 
HETATM   17  O3  UNL     1      -5.480   0.690 -10.968  1.00  0.00    -0.266 OA
HETATM   18  N3  UNL     1      -4.127   1.619 -12.529  1.00  0.00    -0.318 N 
ATOM     19  H3  UNL     1      -3.831   1.759 -13.494  1.00  0.00     0.169 HD
BRANCH  18  20
HETATM   20  C13 UNL     1      -3.431   2.259 -11.437  1.00  0.00     0.083 A 
HETATM   21  C14 UNL     1      -2.301   1.893 -10.798  1.00  0.00     0.051 A 
HETATM   22  C15 UNL     1      -1.457   0.696 -11.114  1.00  0.00     0.072 C 
HETATM   23  N4  UNL     1      -2.068   2.813  -9.817  1.00  0.00    -0.301 N 
HETATM   24  N5  UNL     1      -3.017   3.745  -9.819  1.00  0.00    -0.299 N 
ATOM     25  H4  UNL     1      -1.277   2.789  -9.173  1.00  0.00     0.187 HD
HETATM   26  C16 UNL     1      -3.132   4.901  -8.910  1.00  0.00     0.177 C 
HETATM   27  C17 UNL     1      -3.869   3.432 -10.805  1.00  0.00     0.053 A 
HETATM   28  C18 UNL     1      -5.090   4.159 -11.231  1.00  0.00     0.072 C 
ENDBRANCH  18  20
ENDBRANCH  13  16
ENDBRANCH   3   9
BRANCH   1  29
HETATM   29  C4  UNL     1      -8.633  -6.271 -14.670  1.00  0.00     0.179 C 
BRANCH  29  30
HETATM   30  N1  UNL     1      -8.355  -7.491 -15.405  1.00  0.00    -0.354 N 
HETATM   31  C3  UNL     1      -8.963  -7.752 -16.641  1.00  0.00     0.241 C 
HETATM   32  O2  UNL     1      -9.766  -6.938 -17.146  1.00  0.00    -0.271 OA
ATOM     33  H1  UNL     1      -7.703  -8.172 -15.015  1.00  0.00     0.162 HD
BRANCH  31  34
HETATM   34  C2  UNL     1      -8.677  -8.994 -17.384  1.00  0.00     0.269 C 
BRANCH  34  35
HETATM   35  O1  UNL     1      -8.184  -9.946 -16.485  1.00  0.00    -0.387 OA
HETATM   36  C1  UNL     1      -7.055 -10.543 -17.072  1.00  0.00     0.202 C 
ENDBRANCH  34  35
ENDBRANCH  31  34
ENDBRANCH  29  30
ENDBRANCH   1  29
BRANCH   6  37
HETATM   37  N6  UNL     1      -5.246  -4.729 -17.707  1.00  0.00    -0.374 N 
ATOM     38  H6  UNL     1      -5.332  -4.164 -18.552  1.00  0.00     0.161 HD
BRANCH  37  39
HETATM   39  C24 UNL     1      -4.250  -5.777 -17.647  1.00  0.00     0.151 C 
BRANCH  39  40
HETATM   40  C25 UNL     1      -2.862  -5.229 -17.496  1.00  0.00     0.292 C 
BRANCH  40  41
HETATM   41  N7  UNL     1      -2.219  -5.674 -16.288  1.00  0.00     0.090 N 
HETATM   42  C26 UNL     1      -3.135  -5.713 -15.192  1.00  0.00     0.272 C 
HETATM   43  C27 UNL     1      -2.857  -4.500 -14.340  1.00  0.00     0.032 C 
HETATM   44  C28 UNL     1      -1.842  -3.709 -15.117  1.00  0.00     0.032 C 
HETATM   45  C29 UNL     1      -1.127  -4.811 -15.903  1.00  0.00     0.272 C 
ENDBRANCH  40  41
ENDBRANCH  39  40
ENDBRANCH  37  39
ENDBRANCH   6  37
TORSDOF 11
ENDMDL
