MODEL 1
REMARK VINA RESULT: -6.710482119      0.000      0.000
REMARK  14 active torsions:
REMARK  status: ('A' for Active; 'I' for Inactive)
REMARK    1  A    between atoms: C2_2  and  C3_3 
REMARK    2  A    between atoms: C4_4  and  C5_5 
REMARK    3  A    between atoms: C5_5  and  C6_6 
REMARK    4  A    between atoms: C6_6  and  C8_8 
REMARK    5  A    between atoms: C9_11  and  O1_12 
REMARK    6  A    between atoms: C10_14  and  C11_15 
REMARK    7  A    between atoms: C15_22  and  C16_23 
REMARK    8  A    between atoms: C16_23  and  C17_24 
REMARK    9  A    between atoms: C17_24  and  C18_25 
REMARK   10  A    between atoms: C18_25  and  N3_26 
REMARK   11  A    between atoms: C25_41  and  C26_42 
REMARK   12  A    between atoms: C26_42  and  C27_43 
REMARK   13  A    between atoms: C31_50  and  C32_51 
REMARK   14  A    between atoms: C32_51  and  C33_52 
ROOT
HETATM    1  C8  UNL     1      -2.625 -15.861  49.859  1.00  0.00     0.027 C 
HETATM    2  N1  UNL     1      -1.674 -16.695  50.533  1.00  0.00    -0.338 N 
ATOM      3  H1  UNL     1      -2.135 -17.565  50.799  1.00  0.00     0.168 HD
HETATM    4  C9  UNL     1      -0.378 -16.747  50.947  1.00  0.00     0.164 C 
HETATM    5  C10 UNL     1       0.532 -16.324  51.995  1.00  0.00     0.066 C 
HETATM    6  N2  UNL     1       1.529 -17.385  52.310  1.00  0.00    -0.325 N 
ATOM      7  H2  UNL     1       2.432 -17.337  51.836  1.00  0.00     0.169 HD
HETATM    8  C14 UNL     1       1.329 -18.441  53.201  1.00  0.00     0.244 C 
HETATM    9  O2  UNL     1       2.323 -18.801  53.896  1.00  0.00    -0.271 OA
HETATM   10  C15 UNL     1       0.078 -19.197  53.431  1.00  0.00     0.177 C 
HETATM   11  N6  UNL     1      -0.406 -18.962  54.748  1.00  0.00    -0.346 N 
ATOM     12  H6  UNL     1       0.080 -18.214  55.243  1.00  0.00     0.163 HD
HETATM   13  C20 UNL     1      -1.427 -19.569  55.488  1.00  0.00     0.240 C 
HETATM   14  O3  UNL     1      -1.158 -19.891  56.677  1.00  0.00    -0.271 OA
HETATM   15  C21 UNL     1      -2.809 -19.880  55.036  1.00  0.00     0.174 C 
HETATM   16  C22 UNL     1      -3.196 -21.172  55.755  1.00  0.00     0.042 C 
HETATM   17  N7  UNL     1      -3.761 -18.834  55.439  1.00  0.00    -0.342 N 
HETATM   18  C23 UNL     1      -4.050 -18.805  56.867  1.00  0.00     0.153 C 
HETATM   19  C24 UNL     1      -4.377 -17.904  54.592  1.00  0.00     0.243 C 
HETATM   20  O4  UNL     1      -4.821 -16.853  55.180  1.00  0.00    -0.271 OA
HETATM   21  C25 UNL     1      -4.595 -17.940  53.133  1.00  0.00     0.177 C 
HETATM   22  N8  UNL     1      -4.974 -16.613  52.694  1.00  0.00    -0.344 N 
ATOM     23  H8  UNL     1      -5.766 -16.195  53.182  1.00  0.00     0.163 HD
HETATM   24  C30 UNL     1      -4.390 -15.818  51.676  1.00  0.00     0.250 C 
HETATM   25  O5  UNL     1      -4.156 -14.587  51.973  1.00  0.00    -0.268 OA
HETATM   26  C31 UNL     1      -4.023 -16.236  50.330  1.00  0.00     0.033 C 
ENDROOT
BRANCH  10  27
HETATM   27  C16 UNL     1       0.093 -20.596  52.966  1.00  0.00     0.036 C 
BRANCH  27  28
HETATM   28  C17 UNL     1       0.292 -20.876  51.519  1.00  0.00     0.022 C 
BRANCH  28  29
HETATM   29  C18 UNL     1      -0.865 -20.253  50.720  1.00  0.00     0.122 C 
BRANCH  29  30
HETATM   30  N3  UNL     1      -0.849 -20.871  49.402  1.00  0.00    -0.367 N 
HETATM   31  C19 UNL     1      -1.312 -20.300  48.344  1.00  0.00     0.196 C 
HETATM   32  N4  UNL     1      -1.229 -21.025  47.125  1.00  0.00    -0.067 NA
HETATM   33  N5  UNL     1      -1.863 -19.019  48.451  1.00  0.00    -0.067 NA
ATOM     34  H3  UNL     1      -0.450 -21.806  49.312  1.00  0.00     0.161 HD
ENDBRANCH  29  30
ENDBRANCH  28  29
ENDBRANCH  27  28
ENDBRANCH  10  27
BRANCH   5  35
HETATM   35  C11 UNL     1       0.118 -15.615  53.212  1.00  0.00     0.032 C 
HETATM   36  C12 UNL     1       0.080 -14.093  52.977  1.00  0.00     0.016 C 
HETATM   37  C13 UNL     1      -1.335 -15.881  53.629  1.00  0.00     0.016 C 
ENDBRANCH   5  35
BRANCH   4  38
HETATM   38  O1  UNL     1       0.408 -17.450  50.107  1.00  0.00    -0.345 OA
ATOM     39  H1  UNL     1       1.120 -17.893  50.555  1.00  0.00     0.219 HD
ENDBRANCH   4  38
BRANCH   1  40
HETATM   40  C6  UNL     1      -2.285 -14.493  49.604  1.00  0.00     0.043 C 
HETATM   41  C7  UNL     1      -3.217 -13.587  48.878  1.00  0.00     0.017 C 
BRANCH  40  42
HETATM   42  C5  UNL     1      -0.993 -14.377  48.772  1.00  0.00     0.104 C 
BRANCH  42  43
HETATM   43  C4  UNL     1      -0.171 -13.338  49.396  1.00  0.00    -0.106 C 
HETATM   44  C3  UNL     1       0.524 -12.489  49.907  1.00  0.00    -0.107 C 
BRANCH  44  45
HETATM   45  C2  UNL     1       1.399 -11.457  50.519  1.00  0.00     0.089 C 
HETATM   46  C1  UNL     1       2.633 -11.408  49.641  1.00  0.00     0.018 C 
ENDBRANCH  44  45
ENDBRANCH  42  43
ENDBRANCH  40  42
ENDBRANCH   1  40
BRANCH  21  47
HETATM   47  C26 UNL     1      -5.524 -19.003  52.631  1.00  0.00     0.038 C 
BRANCH  47  48
HETATM   48  C27 UNL     1      -6.950 -18.698  52.447  1.00  0.00    -0.020 C 
HETATM   49  C28 UNL     1      -7.550 -20.022  51.873  1.00  0.00     0.009 C 
HETATM   50  C29 UNL     1      -7.737 -18.563  53.757  1.00  0.00     0.009 C 
ENDBRANCH  47  48
ENDBRANCH  21  47
BRANCH  26  51
HETATM   51  C32 UNL     1      -5.043 -16.280  49.270  1.00  0.00     0.050 C 
BRANCH  51  52
HETATM   52  C33 UNL     1      -6.340 -15.615  49.430  1.00  0.00    -0.018 C 
HETATM   53  C34 UNL     1      -6.782 -14.562  48.518  1.00  0.00     0.010 C 
HETATM   54  C35 UNL     1      -7.405 -16.734  49.425  1.00  0.00     0.010 C 
ENDBRANCH  51  52
ENDBRANCH  26  51
TORSDOF 14
ENDMDL
MODEL 2
REMARK VINA RESULT: -6.270120458      0.934      1.692
REMARK  14 active torsions:
REMARK  status: ('A' for Active; 'I' for Inactive)
REMARK    1  A    between atoms: C2_2  and  C3_3 
REMARK    2  A    between atoms: C4_4  and  C5_5 
REMARK    3  A    between atoms: C5_5  and  C6_6 
REMARK    4  A    between atoms: C6_6  and  C8_8 
REMARK    5  A    between atoms: C9_11  and  O1_12 
REMARK    6  A    between atoms: C10_14  and  C11_15 
REMARK    7  A    between atoms: C15_22  and  C16_23 
REMARK    8  A    between atoms: C16_23  and  C17_24 
REMARK    9  A    between atoms: C17_24  and  C18_25 
REMARK   10  A    between atoms: C18_25  and  N3_26 
REMARK   11  A    between atoms: C25_41  and  C26_42 
REMARK   12  A    between atoms: C26_42  and  C27_43 
REMARK   13  A    between atoms: C31_50  and  C32_51 
REMARK   14  A    between atoms: C32_51  and  C33_52 
ROOT
HETATM    1  C8  UNL     1      -2.595 -15.740  49.876  1.00  0.00     0.027 C 
HETATM    2  N1  UNL     1      -1.654 -16.594  50.539  1.00  0.00    -0.338 N 
ATOM      3  H1  UNL     1      -2.123 -17.467  50.782  1.00  0.00     0.168 HD
HETATM    4  C9  UNL     1      -0.362 -16.663  50.961  1.00  0.00     0.164 C 
HETATM    5  C10 UNL     1       0.544 -16.269  52.024  1.00  0.00     0.066 C 
HETATM    6  N2  UNL     1       1.531 -17.343  52.323  1.00  0.00    -0.325 N 
ATOM      7  H2  UNL     1       2.437 -17.291  51.857  1.00  0.00     0.169 HD
HETATM    8  C14 UNL     1       1.317 -18.417  53.190  1.00  0.00     0.244 C 
HETATM    9  O2  UNL     1       2.304 -18.798  53.884  1.00  0.00    -0.271 OA
HETATM   10  C15 UNL     1       0.060 -19.169  53.395  1.00  0.00     0.177 C 
HETATM   11  N6  UNL     1      -0.433 -18.960  54.712  1.00  0.00    -0.346 N 
ATOM     12  H6  UNL     1       0.055 -18.226  55.227  1.00  0.00     0.163 HD
HETATM   13  C20 UNL     1      -1.463 -19.575  55.432  1.00  0.00     0.240 C 
HETATM   14  O3  UNL     1      -1.204 -19.925  56.616  1.00  0.00    -0.271 OA
HETATM   15  C21 UNL     1      -2.843 -19.867  54.964  1.00  0.00     0.174 C 
HETATM   16  C22 UNL     1      -3.243 -21.172  55.651  1.00  0.00     0.042 C 
HETATM   17  N7  UNL     1      -3.792 -18.824  55.382  1.00  0.00    -0.342 N 
HETATM   18  C23 UNL     1      -4.091 -18.824  56.808  1.00  0.00     0.153 C 
HETATM   19  C24 UNL     1      -4.395 -17.873  54.550  1.00  0.00     0.243 C 
HETATM   20  O4  UNL     1      -4.836 -16.831  55.158  1.00  0.00    -0.271 OA
HETATM   21  C25 UNL     1      -4.602 -17.876  53.089  1.00  0.00     0.177 C 
HETATM   22  N8  UNL     1      -4.970 -16.537  52.677  1.00  0.00    -0.344 N 
ATOM     23  H8  UNL     1      -5.763 -16.124  53.168  1.00  0.00     0.163 HD
HETATM   24  C30 UNL     1      -4.373 -15.724  51.681  1.00  0.00     0.250 C 
HETATM   25  O5  UNL     1      -4.134 -14.501  52.005  1.00  0.00    -0.268 OA
HETATM   26  C31 UNL     1      -3.998 -16.115  50.328  1.00  0.00     0.033 C 
ENDROOT
BRANCH  10  27
HETATM   27  C16 UNL     1       0.069 -20.558  52.900  1.00  0.00     0.036 C 
BRANCH  27  28
HETATM   28  C17 UNL     1       0.231 -20.806  51.442  1.00  0.00     0.022 C 
BRANCH  28  29
HETATM   29  C18 UNL     1      -0.958 -20.185  50.690  1.00  0.00     0.122 C 
BRANCH  29  30
HETATM   30  N3  UNL     1      -0.965 -20.771  49.356  1.00  0.00    -0.367 N 
HETATM   31  C19 UNL     1      -1.397 -20.154  48.312  1.00  0.00     0.196 C 
HETATM   32  N4  UNL     1      -1.344 -20.852  47.076  1.00  0.00    -0.067 NA
HETATM   33  N5  UNL     1      -1.889 -18.851  48.449  1.00  0.00    -0.067 NA
ATOM     34  H3  UNL     1      -0.610 -21.721  49.244  1.00  0.00     0.161 HD
ENDBRANCH  29  30
ENDBRANCH  28  29
ENDBRANCH  27  28
ENDBRANCH  10  27
BRANCH   5  35
HETATM   35  C11 UNL     1       0.125 -15.584  53.253  1.00  0.00     0.032 C 
HETATM   36  C12 UNL     1       0.050 -14.061  53.036  1.00  0.00     0.016 C 
HETATM   37  C13 UNL     1      -1.318 -15.888  53.681  1.00  0.00     0.016 C 
ENDBRANCH   5  35
BRANCH   4  38
HETATM   38  O1  UNL     1       0.426 -17.354  50.111  1.00  0.00    -0.345 OA
ATOM     39  H1  UNL     1       1.336 -17.368  50.385  1.00  0.00     0.219 HD
ENDBRANCH   4  38
BRANCH   1  40
HETATM   40  C6  UNL     1      -2.245 -14.369  49.653  1.00  0.00     0.043 C 
HETATM   41  C7  UNL     1      -3.011 -13.520  48.700  1.00  0.00     0.017 C 
BRANCH  40  42
HETATM   42  C5  UNL     1      -0.800 -14.232  49.132  1.00  0.00     0.104 C 
BRANCH  42  43
HETATM   43  C4  UNL     1      -0.744 -14.909  47.835  1.00  0.00    -0.106 C 
HETATM   44  C3  UNL     1      -0.706 -15.484  46.770  1.00  0.00    -0.107 C 
BRANCH  44  45
HETATM   45  C2  UNL     1      -0.678 -16.209  45.475  1.00  0.00     0.089 C 
HETATM   46  C1  UNL     1       0.072 -17.496  45.753  1.00  0.00     0.018 C 
ENDBRANCH  44  45
ENDBRANCH  42  43
ENDBRANCH  40  42
ENDBRANCH   1  40
BRANCH  21  47
HETATM   47  C26 UNL     1      -5.535 -18.922  52.558  1.00  0.00     0.038 C 
BRANCH  47  48
HETATM   48  C27 UNL     1      -6.970 -18.627  52.439  1.00  0.00    -0.020 C 
HETATM   49  C28 UNL     1      -7.580 -19.943  51.859  1.00  0.00     0.009 C 
HETATM   50  C29 UNL     1      -7.704 -18.531  53.783  1.00  0.00     0.009 C 
ENDBRANCH  47  48
ENDBRANCH  21  47
BRANCH  26  51
HETATM   51  C32 UNL     1      -5.011 -16.130  49.261  1.00  0.00     0.050 C 
BRANCH  51  52
HETATM   52  C33 UNL     1      -6.327 -15.509  49.446  1.00  0.00    -0.018 C 
HETATM   53  C34 UNL     1      -6.763 -14.375  48.636  1.00  0.00     0.010 C 
HETATM   54  C35 UNL     1      -7.366 -16.641  49.289  1.00  0.00     0.010 C 
ENDBRANCH  51  52
ENDBRANCH  26  51
TORSDOF 14
ENDMDL
MODEL 3
REMARK VINA RESULT: -6.143696932      2.818      8.085
REMARK  14 active torsions:
REMARK  status: ('A' for Active; 'I' for Inactive)
REMARK    1  A    between atoms: C2_2  and  C3_3 
REMARK    2  A    between atoms: C4_4  and  C5_5 
REMARK    3  A    between atoms: C5_5  and  C6_6 
REMARK    4  A    between atoms: C6_6  and  C8_8 
REMARK    5  A    between atoms: C9_11  and  O1_12 
REMARK    6  A    between atoms: C10_14  and  C11_15 
REMARK    7  A    between atoms: C15_22  and  C16_23 
REMARK    8  A    between atoms: C16_23  and  C17_24 
REMARK    9  A    between atoms: C17_24  and  C18_25 
REMARK   10  A    between atoms: C18_25  and  N3_26 
REMARK   11  A    between atoms: C25_41  and  C26_42 
REMARK   12  A    between atoms: C26_42  and  C27_43 
REMARK   13  A    between atoms: C31_50  and  C32_51 
REMARK   14  A    between atoms: C32_51  and  C33_52 
ROOT
HETATM    1  C8  UNL     1      -1.679 -18.244  50.230  1.00  0.00     0.027 C 
HETATM    2  N1  UNL     1      -2.896 -17.495  50.357  1.00  0.00    -0.338 N 
ATOM      3  H1  UNL     1      -3.421 -17.578  49.486  1.00  0.00     0.168 HD
HETATM    4  C9  UNL     1      -3.604 -16.714  51.218  1.00  0.00     0.164 C 
HETATM    5  C10 UNL     1      -3.723 -15.368  51.747  1.00  0.00     0.066 C 
HETATM    6  N2  UNL     1      -5.150 -14.986  51.941  1.00  0.00    -0.325 N 
ATOM      7  H2  UNL     1      -5.552 -15.129  52.869  1.00  0.00     0.169 HD
HETATM    8  C14 UNL     1      -5.982 -14.447  50.958  1.00  0.00     0.244 C 
HETATM    9  O2  UNL     1      -6.811 -13.566  51.329  1.00  0.00    -0.271 OA
HETATM   10  C15 UNL     1      -6.009 -14.788  49.519  1.00  0.00     0.177 C 
HETATM   11  N6  UNL     1      -5.595 -13.674  48.739  1.00  0.00    -0.346 N 
ATOM     12  H6  UNL     1      -5.206 -12.904  49.285  1.00  0.00     0.163 HD
HETATM   13  C20 UNL     1      -5.621 -13.439  47.359  1.00  0.00     0.240 C 
HETATM   14  O3  UNL     1      -6.065 -12.322  46.978  1.00  0.00    -0.271 OA
HETATM   15  C21 UNL     1      -5.182 -14.359  46.277  1.00  0.00     0.174 C 
HETATM   16  C22 UNL     1      -6.120 -14.088  45.102  1.00  0.00     0.042 C 
HETATM   17  N7  UNL     1      -3.809 -14.066  45.839  1.00  0.00    -0.342 N 
HETATM   18  C23 UNL     1      -3.674 -12.831  45.079  1.00  0.00     0.153 C 
HETATM   19  C24 UNL     1      -2.675 -14.849  46.092  1.00  0.00     0.243 C 
HETATM   20  O4  UNL     1      -1.558 -14.223  45.995  1.00  0.00    -0.271 OA
HETATM   21  C25 UNL     1      -2.561 -16.275  46.453  1.00  0.00     0.177 C 
HETATM   22  N8  UNL     1      -1.213 -16.521  46.924  1.00  0.00    -0.344 N 
ATOM     23  H8  UNL     1      -0.464 -16.232  46.294  1.00  0.00     0.163 HD
HETATM   24  C30 UNL     1      -0.797 -17.111  48.143  1.00  0.00     0.250 C 
HETATM   25  O5  UNL     1       0.141 -16.503  48.784  1.00  0.00    -0.268 OA
HETATM   26  C31 UNL     1      -1.309 -18.328  48.757  1.00  0.00     0.033 C 
ENDROOT
BRANCH  10  27
HETATM   27  C16 UNL     1      -7.213 -15.509  49.065  1.00  0.00     0.036 C 
BRANCH  27  28
HETATM   28  C17 UNL     1      -7.281 -16.984  49.237  1.00  0.00     0.022 C 
BRANCH  28  29
HETATM   29  C18 UNL     1      -7.977 -17.306  50.570  1.00  0.00     0.122 C 
BRANCH  29  30
HETATM   30  N3  UNL     1      -7.273 -18.442  51.150  1.00  0.00    -0.367 N 
HETATM   31  C19 UNL     1      -7.310 -18.735  52.403  1.00  0.00     0.196 C 
HETATM   32  N4  UNL     1      -6.573 -19.873  52.826  1.00  0.00    -0.067 NA
HETATM   33  N5  UNL     1      -8.060 -17.929  53.267  1.00  0.00    -0.067 NA
ATOM     34  H3  UNL     1      -6.722 -19.036  50.530  1.00  0.00     0.161 HD
ENDBRANCH  29  30
ENDBRANCH  28  29
ENDBRANCH  27  28
ENDBRANCH  10  27
BRANCH   5  35
HETATM   35  C11 UNL     1      -2.933 -14.224  51.278  1.00  0.00     0.032 C 
HETATM   36  C12 UNL     1      -1.615 -14.105  52.067  1.00  0.00     0.016 C 
HETATM   37  C13 UNL     1      -2.401 -14.372  49.845  1.00  0.00     0.016 C 
ENDBRANCH   5  35
BRANCH   4  38
HETATM   38  O1  UNL     1      -4.587 -17.391  51.845  1.00  0.00    -0.345 OA
ATOM     39  H1  UNL     1      -5.447 -17.021  51.684  1.00  0.00     0.219 HD
ENDBRANCH   4  38
BRANCH   1  40
HETATM   40  C6  UNL     1      -0.664 -18.084  51.228  1.00  0.00     0.043 C 
HETATM   41  C7  UNL     1       0.143 -19.242  51.702  1.00  0.00     0.017 C 
BRANCH  40  42
HETATM   42  C5  UNL     1      -1.244 -17.522  52.541  1.00  0.00     0.104 C 
BRANCH  42  43
HETATM   43  C4  UNL     1      -1.555 -18.668  53.398  1.00  0.00    -0.106 C 
HETATM   44  C3  UNL     1      -1.795 -19.612  54.117  1.00  0.00    -0.107 C 
BRANCH  44  45
HETATM   45  C2  UNL     1      -2.070 -20.760  55.018  1.00  0.00     0.089 C 
HETATM   46  C1  UNL     1      -0.938 -20.759  56.025  1.00  0.00     0.018 C 
ENDBRANCH  44  45
ENDBRANCH  42  43
ENDBRANCH  40  42
ENDBRANCH   1  40
BRANCH  21  47
HETATM   47  C26 UNL     1      -2.998 -17.257  45.408  1.00  0.00     0.038 C 
BRANCH  47  48
HETATM   48  C27 UNL     1      -4.133 -18.151  45.677  1.00  0.00    -0.020 C 
HETATM   49  C28 UNL     1      -4.514 -17.843  47.161  1.00  0.00     0.009 C 
HETATM   50  C29 UNL     1      -5.426 -17.757  44.953  1.00  0.00     0.009 C 
ENDBRANCH  47  48
ENDBRANCH  21  47
BRANCH  26  51
HETATM   51  C32 UNL     1      -0.807 -19.640  48.318  1.00  0.00     0.050 C 
BRANCH  51  52
HETATM   52  C33 UNL     1      -1.166 -20.198  47.010  1.00  0.00    -0.018 C 
HETATM   53  C34 UNL     1      -0.351 -19.959  45.822  1.00  0.00     0.010 C 
HETATM   54  C35 UNL     1      -1.292 -21.724  47.209  1.00  0.00     0.010 C 
ENDBRANCH  51  52
ENDBRANCH  26  51
TORSDOF 14
ENDMDL
MODEL 4
REMARK VINA RESULT: -6.029913820      2.456      8.196
REMARK  14 active torsions:
REMARK  status: ('A' for Active; 'I' for Inactive)
REMARK    1  A    between atoms: C2_2  and  C3_3 
REMARK    2  A    between atoms: C4_4  and  C5_5 
REMARK    3  A    between atoms: C5_5  and  C6_6 
REMARK    4  A    between atoms: C6_6  and  C8_8 
REMARK    5  A    between atoms: C9_11  and  O1_12 
REMARK    6  A    between atoms: C10_14  and  C11_15 
REMARK    7  A    between atoms: C15_22  and  C16_23 
REMARK    8  A    between atoms: C16_23  and  C17_24 
REMARK    9  A    between atoms: C17_24  and  C18_25 
REMARK   10  A    between atoms: C18_25  and  N3_26 
REMARK   11  A    between atoms: C25_41  and  C26_42 
REMARK   12  A    between atoms: C26_42  and  C27_43 
REMARK   13  A    between atoms: C31_50  and  C32_51 
REMARK   14  A    between atoms: C32_51  and  C33_52 
ROOT
HETATM    1  C8  UNL     1      -1.929 -17.947  52.610  1.00  0.00     0.027 C 
HETATM    2  N1  UNL     1      -3.082 -17.347  52.006  1.00  0.00    -0.338 N 
ATOM      3  H1  UNL     1      -3.388 -17.937  51.232  1.00  0.00     0.168 HD
HETATM    4  C9  UNL     1      -3.918 -16.275  52.090  1.00  0.00     0.164 C 
HETATM    5  C10 UNL     1      -4.063 -14.875  51.737  1.00  0.00     0.066 C 
HETATM    6  N2  UNL     1      -5.463 -14.557  51.340  1.00  0.00    -0.325 N 
ATOM      7  H2  UNL     1      -6.084 -14.193  52.062  1.00  0.00     0.169 HD
HETATM    8  C14 UNL     1      -5.994 -14.718  50.059  1.00  0.00     0.244 C 
HETATM    9  O2  UNL     1      -6.821 -13.844  49.668  1.00  0.00    -0.271 OA
HETATM   10  C15 UNL     1      -5.700 -15.800  49.093  1.00  0.00     0.177 C 
HETATM   11  N6  UNL     1      -5.031 -15.277  47.953  1.00  0.00    -0.346 N 
ATOM     12  H6  UNL     1      -4.730 -14.307  48.054  1.00  0.00     0.163 HD
HETATM   13  C20 UNL     1      -4.709 -15.848  46.716  1.00  0.00     0.240 C 
HETATM   14  O3  UNL     1      -4.965 -15.167  45.687  1.00  0.00    -0.271 OA
HETATM   15  C21 UNL     1      -4.091 -17.178  46.468  1.00  0.00     0.174 C 
HETATM   16  C22 UNL     1      -4.697 -17.675  45.157  1.00  0.00     0.042 C 
HETATM   17  N7  UNL     1      -2.635 -17.075  46.285  1.00  0.00    -0.342 N 
HETATM   18  C23 UNL     1      -2.232 -16.461  45.027  1.00  0.00     0.153 C 
HETATM   19  C24 UNL     1      -1.655 -17.499  47.191  1.00  0.00     0.243 C 
HETATM   20  O4  UNL     1      -0.505 -16.950  47.034  1.00  0.00    -0.271 OA
HETATM   21  C25 UNL     1      -1.734 -18.473  48.297  1.00  0.00     0.177 C 
HETATM   22  N8  UNL     1      -0.560 -18.315  49.130  1.00  0.00    -0.344 N 
ATOM     23  H8  UNL     1       0.337 -18.368  48.647  1.00  0.00     0.163 HD
HETATM   24  C30 UNL     1      -0.492 -18.097  50.529  1.00  0.00     0.250 C 
HETATM   25  O5  UNL     1       0.307 -17.168  50.927  1.00  0.00    -0.268 OA
HETATM   26  C31 UNL     1      -1.224 -18.805  51.571  1.00  0.00     0.033 C 
ENDROOT
BRANCH  10  27
HETATM   27  C16 UNL     1      -6.809 -16.739  48.843  1.00  0.00     0.036 C 
BRANCH  27  28
HETATM   28  C17 UNL     1      -7.792 -17.003  49.927  1.00  0.00     0.022 C 
BRANCH  28  29
HETATM   29  C18 UNL     1      -7.294 -18.178  50.786  1.00  0.00     0.122 C 
BRANCH  29  30
HETATM   30  N3  UNL     1      -7.878 -18.009  52.110  1.00  0.00    -0.367 N 
HETATM   31  C19 UNL     1      -7.447 -18.620  53.158  1.00  0.00     0.196 C 
HETATM   32  N4  UNL     1      -8.115 -18.358  54.384  1.00  0.00    -0.067 NA
HETATM   33  N5  UNL     1      -6.362 -19.496  53.035  1.00  0.00    -0.067 NA
ATOM     34  H3  UNL     1      -8.669 -17.374  52.211  1.00  0.00     0.161 HD
ENDBRANCH  29  30
ENDBRANCH  28  29
ENDBRANCH  27  28
ENDBRANCH  10  27
BRANCH   5  35
HETATM   35  C11 UNL     1      -3.102 -14.127  50.918  1.00  0.00     0.032 C 
HETATM   36  C12 UNL     1      -1.910 -13.648  51.768  1.00  0.00     0.016 C 
HETATM   37  C13 UNL     1      -2.382 -14.976  49.861  1.00  0.00     0.016 C 
ENDBRANCH   5  35
BRANCH   4  38
HETATM   38  O1  UNL     1      -5.069 -16.563  52.731  1.00  0.00    -0.345 OA
ATOM     39  H1  UNL     1      -4.930 -16.836  53.630  1.00  0.00     0.219 HD
ENDBRANCH   4  38
BRANCH   1  40
HETATM   40  C6  UNL     1      -1.173 -17.185  53.560  1.00  0.00     0.043 C 
HETATM   41  C7  UNL     1       0.258 -17.492  53.832  1.00  0.00     0.017 C 
BRANCH  40  42
HETATM   42  C5  UNL     1      -1.801 -17.251  54.966  1.00  0.00     0.104 C 
BRANCH  42  43
HETATM   43  C4  UNL     1      -1.700 -18.641  55.417  1.00  0.00    -0.106 C 
HETATM   44  C3  UNL     1      -1.636 -19.790  55.791  1.00  0.00    -0.107 C 
BRANCH  44  45
HETATM   45  C2  UNL     1      -1.585 -21.204  56.241  1.00  0.00     0.089 C 
HETATM   46  C1  UNL     1      -0.871 -21.173  57.578  1.00  0.00     0.018 C 
ENDBRANCH  44  45
ENDBRANCH  42  43
ENDBRANCH  40  42
ENDBRANCH   1  40
BRANCH  21  47
HETATM   47  C26 UNL     1      -1.978 -19.898  47.904  1.00  0.00     0.038 C 
BRANCH  47  48
HETATM   48  C27 UNL     1      -0.841 -20.766  47.566  1.00  0.00    -0.020 C 
HETATM   49  C28 UNL     1      -1.480 -22.184  47.411  1.00  0.00     0.009 C 
HETATM   50  C29 UNL     1      -0.278 -20.542  46.157  1.00  0.00     0.009 C 
ENDBRANCH  47  48
ENDBRANCH  21  47
BRANCH  26  51
HETATM   51  C32 UNL     1      -0.728 -20.099  52.068  1.00  0.00     0.050 C 
BRANCH  51  52
HETATM   52  C33 UNL     1       0.704 -20.340  52.276  1.00  0.00    -0.018 C 
HETATM   53  C34 UNL     1       1.259 -20.572  53.607  1.00  0.00     0.010 C 
HETATM   54  C35 UNL     1       1.075 -21.543  51.382  1.00  0.00     0.010 C 
ENDBRANCH  51  52
ENDBRANCH  26  51
TORSDOF 14
ENDMDL
MODEL 5
REMARK VINA RESULT: -5.872800720      2.408      8.068
REMARK  14 active torsions:
REMARK  status: ('A' for Active; 'I' for Inactive)
REMARK    1  A    between atoms: C2_2  and  C3_3 
REMARK    2  A    between atoms: C4_4  and  C5_5 
REMARK    3  A    between atoms: C5_5  and  C6_6 
REMARK    4  A    between atoms: C6_6  and  C8_8 
REMARK    5  A    between atoms: C9_11  and  O1_12 
REMARK    6  A    between atoms: C10_14  and  C11_15 
REMARK    7  A    between atoms: C15_22  and  C16_23 
REMARK    8  A    between atoms: C16_23  and  C17_24 
REMARK    9  A    between atoms: C17_24  and  C18_25 
REMARK   10  A    between atoms: C18_25  and  N3_26 
REMARK   11  A    between atoms: C25_41  and  C26_42 
REMARK   12  A    between atoms: C26_42  and  C27_43 
REMARK   13  A    between atoms: C31_50  and  C32_51 
REMARK   14  A    between atoms: C32_51  and  C33_52 
ROOT
HETATM    1  C8  UNL     1      -5.021 -18.576  53.401  1.00  0.00     0.027 C 
HETATM    2  N1  UNL     1      -5.360 -18.177  52.066  1.00  0.00    -0.338 N 
ATOM      3  H1  UNL     1      -4.580 -18.404  51.450  1.00  0.00     0.168 HD
HETATM    4  C9  UNL     1      -6.348 -17.606  51.323  1.00  0.00     0.164 C 
HETATM    5  C10 UNL     1      -6.936 -16.336  50.937  1.00  0.00     0.066 C 
HETATM    6  N2  UNL     1      -7.363 -16.346  49.510  1.00  0.00    -0.325 N 
ATOM      7  H2  UNL     1      -8.335 -16.584  49.313  1.00  0.00     0.169 HD
HETATM    8  C14 UNL     1      -6.540 -16.056  48.420  1.00  0.00     0.244 C 
HETATM    9  O2  UNL     1      -7.066 -15.425  47.458  1.00  0.00    -0.271 OA
HETATM   10  C15 UNL     1      -5.111 -16.403  48.256  1.00  0.00     0.177 C 
HETATM   11  N6  UNL     1      -4.316 -15.225  48.232  1.00  0.00    -0.346 N 
ATOM     12  H6  UNL     1      -4.822 -14.376  48.485  1.00  0.00     0.163 HD
HETATM   13  C20 UNL     1      -2.966 -15.016  47.925  1.00  0.00     0.240 C 
HETATM   14  O3  UNL     1      -2.697 -14.060  47.148  1.00  0.00    -0.271 OA
HETATM   15  C21 UNL     1      -1.797 -15.794  48.414  1.00  0.00     0.174 C 
HETATM   16  C22 UNL     1      -0.792 -15.792  47.264  1.00  0.00     0.042 C 
HETATM   17  N7  UNL     1      -1.162 -15.150  49.574  1.00  0.00    -0.342 N 
HETATM   18  C23 UNL     1      -0.434 -13.929  49.256  1.00  0.00     0.153 C 
HETATM   19  C24 UNL     1      -1.208 -15.601  50.899  1.00  0.00     0.243 C 
HETATM   20  O4  UNL     1      -0.961 -14.701  51.781  1.00  0.00    -0.271 OA
HETATM   21  C25 UNL     1      -1.497 -16.942  51.442  1.00  0.00     0.177 C 
HETATM   22  N8  UNL     1      -1.744 -16.816  52.864  1.00  0.00    -0.344 N 
ATOM     23  H8  UNL     1      -1.016 -16.343  53.399  1.00  0.00     0.163 HD
HETATM   24  C30 UNL     1      -2.863 -17.265  53.609  1.00  0.00     0.250 C 
HETATM   25  O5  UNL     1      -3.371 -16.425  54.443  1.00  0.00    -0.268 OA
HETATM   26  C31 UNL     1      -3.506 -18.570  53.540  1.00  0.00     0.033 C 
ENDROOT
BRANCH  10  27
HETATM   27  C16 UNL     1      -4.825 -17.422  47.229  1.00  0.00     0.036 C 
BRANCH  27  28
HETATM   28  C17 UNL     1      -4.275 -16.992  45.916  1.00  0.00     0.022 C 
BRANCH  28  29
HETATM   29  C18 UNL     1      -3.152 -17.957  45.499  1.00  0.00     0.122 C 
BRANCH  29  30
HETATM   30  N3  UNL     1      -2.898 -18.827  46.640  1.00  0.00    -0.367 N 
HETATM   31  C19 UNL     1      -1.773 -19.419  46.844  1.00  0.00     0.196 C 
HETATM   32  N4  UNL     1      -1.671 -20.239  48.000  1.00  0.00    -0.067 NA
HETATM   33  N5  UNL     1      -0.730 -19.229  45.932  1.00  0.00    -0.067 NA
ATOM     34  H3  UNL     1      -3.651 -18.974  47.312  1.00  0.00     0.161 HD
ENDBRANCH  29  30
ENDBRANCH  28  29
ENDBRANCH  27  28
ENDBRANCH  10  27
BRANCH   5  35
HETATM   35  C11 UNL     1      -6.390 -15.027  51.313  1.00  0.00     0.032 C 
HETATM   36  C12 UNL     1      -4.850 -15.048  51.302  1.00  0.00     0.016 C 
HETATM   37  C13 UNL     1      -6.672 -13.913  50.294  1.00  0.00     0.016 C 
ENDBRANCH   5  35
BRANCH   4  38
HETATM   38  O1  UNL     1      -7.096 -18.516  50.665  1.00  0.00    -0.345 OA
ATOM     39  H1  UNL     1      -7.907 -18.150  50.331  1.00  0.00     0.219 HD
ENDBRANCH   4  38
BRANCH   1  40
HETATM   40  C6  UNL     1      -5.853 -18.144  54.483  1.00  0.00     0.043 C 
HETATM   41  C7  UNL     1      -5.282 -17.841  55.824  1.00  0.00     0.017 C 
BRANCH  40  42
HETATM   42  C5  UNL     1      -6.940 -19.187  54.812  1.00  0.00     0.104 C 
BRANCH  42  43
HETATM   43  C4  UNL     1      -6.324 -20.190  55.683  1.00  0.00    -0.106 C 
HETATM   44  C3  UNL     1      -5.816 -21.006  56.418  1.00  0.00    -0.107 C 
BRANCH  44  45
HETATM   45  C2  UNL     1      -5.204 -21.994  57.342  1.00  0.00     0.089 C 
HETATM   46  C1  UNL     1      -6.369 -22.666  58.039  1.00  0.00     0.018 C 
ENDBRANCH  44  45
ENDBRANCH  42  43
ENDBRANCH  40  42
ENDBRANCH   1  40
BRANCH  21  47
HETATM   47  C26 UNL     1      -0.499 -18.012  51.119  1.00  0.00     0.038 C 
BRANCH  47  48
HETATM   48  C27 UNL     1       0.114 -18.789  52.206  1.00  0.00    -0.020 C 
HETATM   49  C28 UNL     1       0.196 -20.241  51.635  1.00  0.00     0.009 C 
HETATM   50  C29 UNL     1       1.599 -18.479  52.437  1.00  0.00     0.009 C 
ENDBRANCH  47  48
ENDBRANCH  21  47
BRANCH  26  51
HETATM   51  C32 UNL     1      -2.948 -19.704  54.295  1.00  0.00     0.050 C 
BRANCH  51  52
HETATM   52  C33 UNL     1      -1.956 -19.503  55.356  1.00  0.00    -0.018 C 
HETATM   53  C34 UNL     1      -2.339 -19.424  56.763  1.00  0.00     0.010 C 
HETATM   54  C35 UNL     1      -0.921 -20.640  55.202  1.00  0.00     0.010 C 
ENDBRANCH  51  52
ENDBRANCH  26  51
TORSDOF 14
ENDMDL
