MODEL 1
REMARK VINA RESULT: -7.416572755      0.000      0.000
REMARK  15 active torsions:
REMARK  status: ('A' for Active; 'I' for Inactive)
REMARK    1  A    between atoms: C2_2  and  C3_3 
REMARK    2  A    between atoms: C3_3  and  C5_5 
REMARK    3  A    between atoms: C6_8  and  O1_9 
REMARK    4  A    between atoms: N2_11  and  C7_12 
REMARK    5  A    between atoms: C7_12  and  C9_14 
REMARK       I    between atoms: C9_14  and  N3_15 
REMARK    6  A    between atoms: C11_21  and  C12_22 
REMARK    7  A    between atoms: C12_22  and  C13_23 
REMARK    8  A    between atoms: C16_28  and  O4_29 
REMARK    9  A    between atoms: C17_31  and  C18_32 
REMARK   10  A    between atoms: C18_32  and  C19_33 
REMARK   11  A    between atoms: C23_40  and  C24_41 
REMARK   12  A    between atoms: C24_41  and  C25_42 
REMARK   13  A    between atoms: C29_49  and  C30_50 
REMARK   14  A    between atoms: C30_50  and  C31_51 
REMARK   15  A    between atoms: C34_56  and  O7_57 
ROOT
HETATM    1  C5  UNL     1      -5.317 -17.936  52.135  1.00  0.00     0.163 C 
HETATM    2  N1  UNL     1      -4.475 -18.886  52.792  1.00  0.00    -0.344 N 
ATOM      3  H1  UNL     1      -3.643 -19.146  52.262  1.00  0.00     0.164 HD
HETATM    4  C6  UNL     1      -4.588 -19.530  54.045  1.00  0.00     0.223 C 
HETATM    5  N2  UNL     1      -4.523 -19.029  55.376  1.00  0.00    -0.269 N 
HETATM    6  C10 UNL     1      -3.343 -18.357  55.933  1.00  0.00     0.250 C 
HETATM    7  O3  UNL     1      -3.605 -17.322  56.598  1.00  0.00    -0.271 OA
HETATM    8  C11 UNL     1      -1.962 -18.775  55.778  1.00  0.00     0.176 C 
HETATM    9  N4  UNL     1      -1.027 -17.656  55.621  1.00  0.00    -0.359 N 
ATOM     10  H4  UNL     1      -0.473 -17.492  56.461  1.00  0.00     0.162 HD
HETATM   11  C16 UNL     1      -0.723 -16.788  54.627  1.00  0.00     0.135 C 
HETATM   12  C17 UNL     1      -0.231 -16.875  53.228  1.00  0.00     0.159 C 
HETATM   13  N5  UNL     1      -0.947 -15.929  52.417  1.00  0.00    -0.347 N 
ATOM     14  H5  UNL     1      -1.816 -15.597  52.834  1.00  0.00     0.163 HD
HETATM   15  C22 UNL     1      -0.671 -15.379  51.158  1.00  0.00     0.241 C 
HETATM   16  O5  UNL     1      -0.728 -14.086  51.112  1.00  0.00    -0.271 OA
HETATM   17  C23 UNL     1      -0.335 -16.039  49.905  1.00  0.00     0.177 C 
HETATM   18  N6  UNL     1      -1.302 -16.953  49.399  1.00  0.00    -0.346 N 
ATOM     19  H6  UNL     1      -0.934 -17.684  48.790  1.00  0.00     0.163 HD
HETATM   20  C28 UNL     1      -2.701 -16.997  49.620  1.00  0.00     0.241 C 
HETATM   21  O6  UNL     1      -3.176 -18.157  49.612  1.00  0.00    -0.271 OA
HETATM   22  C29 UNL     1      -3.623 -15.879  49.842  1.00  0.00     0.175 C 
HETATM   23  N7  UNL     1      -4.329 -15.768  51.060  1.00  0.00    -0.359 N 
ATOM     24  H7  UNL     1      -4.647 -14.810  51.211  1.00  0.00     0.162 HD
HETATM   25  C34 UNL     1      -4.714 -16.584  52.108  1.00  0.00     0.135 C 
ENDROOT
BRANCH   5  26
HETATM   26  C7  UNL     1      -5.722 -19.136  56.202  1.00  0.00     0.184 C 
HETATM   27  C8  UNL     1      -6.527 -17.903  56.332  1.00  0.00     0.043 C 
BRANCH  26  28
HETATM   28  C9  UNL     1      -5.499 -19.719  57.554  1.00  0.00     0.238 C 
HETATM   29  N3  UNL     1      -5.129 -19.101  58.727  1.00  0.00    -0.368 N 
ATOM     30  H32 UNL     1      -4.980 -18.092  58.703  1.00  0.00     0.159 HD
ATOM     31  H31 UNL     1      -4.976 -19.500  59.653  1.00  0.00     0.159 HD
HETATM   32  O2  UNL     1      -5.688 -20.987  57.584  1.00  0.00    -0.271 OA
ENDBRANCH  26  28
ENDBRANCH   5  26
BRANCH   4  33
HETATM   33  O1  UNL     1      -4.792 -20.837  54.032  1.00  0.00    -0.332 OA
ATOM     34  H1  UNL     1      -4.022 -21.394  54.025  1.00  0.00     0.220 HD
ENDBRANCH   4  33
BRANCH   8  35
HETATM   35  C12 UNL     1      -1.394 -19.668  56.841  1.00  0.00     0.038 C 
BRANCH  35  36
HETATM   36  C13 UNL     1      -1.104 -21.075  56.579  1.00  0.00    -0.020 C 
HETATM   37  C14 UNL     1      -2.494 -21.809  56.552  1.00  0.00     0.009 C 
HETATM   38  C15 UNL     1      -0.268 -21.901  57.475  1.00  0.00     0.009 C 
ENDBRANCH  35  36
ENDBRANCH   8  35
BRANCH   1  39
HETATM   39  C3  UNL     1      -6.703 -17.759  52.703  1.00  0.00     0.012 C 
HETATM   40  C4  UNL     1      -7.565 -17.030  51.685  1.00  0.00     0.012 C 
BRANCH  39  41
HETATM   41  C2  UNL     1      -7.418 -19.046  52.976  1.00  0.00     0.002 C 
HETATM   42  C1  UNL     1      -7.598 -19.808  51.668  1.00  0.00     0.005 C 
ENDBRANCH  39  41
ENDBRANCH   1  39
BRANCH  25  43
HETATM   43  O7  UNL     1      -4.550 -16.147  53.328  1.00  0.00    -0.348 OA
ATOM     44  H7  UNL     1      -3.970 -15.394  53.325  1.00  0.00     0.219 HD
ENDBRANCH  25  43
BRANCH  11  45
HETATM   45  O4  UNL     1      -0.890 -15.520  54.927  1.00  0.00    -0.348 OA
ATOM     46  H4  UNL     1      -0.614 -14.908  54.255  1.00  0.00     0.219 HD
ENDBRANCH  11  45
BRANCH  12  47
HETATM   47  C18 UNL     1      -0.078 -18.231  52.664  1.00  0.00     0.037 C 
BRANCH  47  48
HETATM   48  C19 UNL     1       0.856 -19.133  53.471  1.00  0.00    -0.020 C 
HETATM   49  C20 UNL     1       2.265 -18.591  53.373  1.00  0.00     0.009 C 
HETATM   50  C21 UNL     1       0.851 -20.522  52.857  1.00  0.00     0.009 C 
ENDBRANCH  47  48
ENDBRANCH  12  47
BRANCH  22  51
HETATM   51  C30 UNL     1      -4.700 -15.886  48.726  1.00  0.00     0.038 C 
BRANCH  51  52
HETATM   52  C31 UNL     1      -5.333 -14.532  48.682  1.00  0.00    -0.020 C 
HETATM   53  C32 UNL     1      -6.574 -14.578  47.768  1.00  0.00     0.009 C 
HETATM   54  C33 UNL     1      -4.382 -13.544  48.012  1.00  0.00     0.009 C 
ENDBRANCH  51  52
ENDBRANCH  22  51
BRANCH  17  55
HETATM   55  C24 UNL     1      -0.056 -15.028  48.801  1.00  0.00     0.038 C 
BRANCH  55  56
HETATM   56  C25 UNL     1      -0.110 -15.645  47.428  1.00  0.00    -0.020 C 
HETATM   57  C26 UNL     1       1.227 -15.656  46.739  1.00  0.00     0.009 C 
HETATM   58  C27 UNL     1      -1.017 -14.751  46.584  1.00  0.00     0.009 C 
ENDBRANCH  55  56
ENDBRANCH  17  55
TORSDOF 15
ENDMDL
MODEL 2
REMARK VINA RESULT: -7.345805092      1.896      5.852
REMARK  15 active torsions:
REMARK  status: ('A' for Active; 'I' for Inactive)
REMARK    1  A    between atoms: C2_2  and  C3_3 
REMARK    2  A    between atoms: C3_3  and  C5_5 
REMARK    3  A    between atoms: C6_8  and  O1_9 
REMARK    4  A    between atoms: N2_11  and  C7_12 
REMARK    5  A    between atoms: C7_12  and  C9_14 
REMARK       I    between atoms: C9_14  and  N3_15 
REMARK    6  A    between atoms: C11_21  and  C12_22 
REMARK    7  A    between atoms: C12_22  and  C13_23 
REMARK    8  A    between atoms: C16_28  and  O4_29 
REMARK    9  A    between atoms: C17_31  and  C18_32 
REMARK   10  A    between atoms: C18_32  and  C19_33 
REMARK   11  A    between atoms: C23_40  and  C24_41 
REMARK   12  A    between atoms: C24_41  and  C25_42 
REMARK   13  A    between atoms: C29_49  and  C30_50 
REMARK   14  A    between atoms: C30_50  and  C31_51 
REMARK   15  A    between atoms: C34_56  and  O7_57 
ROOT
HETATM    1  C5  UNL     1      -1.944 -16.709  52.323  1.00  0.00     0.163 C 
HETATM    2  N1  UNL     1      -2.778 -16.700  53.485  1.00  0.00    -0.344 N 
ATOM      3  H1  UNL     1      -3.583 -16.078  53.417  1.00  0.00     0.164 HD
HETATM    4  C6  UNL     1      -2.687 -17.399  54.709  1.00  0.00     0.223 C 
HETATM    5  N2  UNL     1      -2.812 -18.783  55.020  1.00  0.00    -0.269 N 
HETATM    6  C10 UNL     1      -4.030 -19.564  54.772  1.00  0.00     0.250 C 
HETATM    7  O3  UNL     1      -3.822 -20.698  54.269  1.00  0.00    -0.271 OA
HETATM    8  C11 UNL     1      -5.391 -19.144  55.047  1.00  0.00     0.176 C 
HETATM    9  N4  UNL     1      -6.354 -19.583  54.031  1.00  0.00    -0.359 N 
ATOM     10  H4  UNL     1      -6.941 -20.350  54.359  1.00  0.00     0.162 HD
HETATM   11  C16 UNL     1      -6.651 -19.215  52.763  1.00  0.00     0.135 C 
HETATM   12  C17 UNL     1      -7.094 -17.975  52.072  1.00  0.00     0.159 C 
HETATM   13  N5  UNL     1      -6.380 -17.847  50.832  1.00  0.00    -0.347 N 
ATOM     14  H5  UNL     1      -5.537 -18.417  50.776  1.00  0.00     0.163 HD
HETATM   15  C22 UNL     1      -6.631 -17.084  49.683  1.00  0.00     0.241 C 
HETATM   16  O5  UNL     1      -6.612 -17.756  48.576  1.00  0.00    -0.271 OA
HETATM   17  C23 UNL     1      -6.905 -15.661  49.550  1.00  0.00     0.177 C 
HETATM   18  N6  UNL     1      -5.894 -14.781  50.031  1.00  0.00    -0.346 N 
ATOM     19  H6  UNL     1      -6.219 -13.855  50.311  1.00  0.00     0.163 HD
HETATM   20  C28 UNL     1      -4.502 -15.004  50.178  1.00  0.00     0.241 C 
HETATM   21  O6  UNL     1      -3.992 -14.384  51.141  1.00  0.00    -0.271 OA
HETATM   22  C29 UNL     1      -3.623 -15.843  49.358  1.00  0.00     0.175 C 
HETATM   23  N7  UNL     1      -2.961 -16.953  49.928  1.00  0.00    -0.359 N 
ATOM     24  H7  UNL     1      -2.678 -17.617  49.208  1.00  0.00     0.162 HD
HETATM   25  C34 UNL     1      -2.587 -17.399  51.182  1.00  0.00     0.135 C 
ENDROOT
BRANCH   5  26
HETATM   26  C7  UNL     1      -1.638 -19.468  55.553  1.00  0.00     0.184 C 
HETATM   27  C8  UNL     1      -0.834 -20.228  54.573  1.00  0.00     0.043 C 
BRANCH  26  28
HETATM   28  C9  UNL     1      -1.903 -20.329  56.740  1.00  0.00     0.238 C 
HETATM   29  N3  UNL     1      -2.040 -21.696  56.820  1.00  0.00    -0.368 N 
ATOM     30  H32 UNL     1      -1.950 -22.231  55.957  1.00  0.00     0.159 HD
ATOM     31  H31 UNL     1      -2.222 -22.286  57.632  1.00  0.00     0.159 HD
HETATM   32  O2  UNL     1      -2.016 -19.655  57.825  1.00  0.00    -0.271 OA
ENDBRANCH  26  28
ENDBRANCH   5  26
BRANCH   4  33
HETATM   33  O1  UNL     1      -2.443 -16.682  55.794  1.00  0.00    -0.332 OA
ATOM     34  H1  UNL     1      -2.022 -17.128  56.520  1.00  0.00     0.220 HD
ENDBRANCH   4  33
BRANCH   8  35
HETATM   35  C12 UNL     1      -5.967 -19.518  56.380  1.00  0.00     0.038 C 
BRANCH  35  36
HETATM   36  C13 UNL     1      -5.315 -20.501  57.242  1.00  0.00    -0.020 C 
HETATM   37  C14 UNL     1      -5.958 -21.890  56.883  1.00  0.00     0.009 C 
HETATM   38  C15 UNL     1      -5.375 -20.438  58.717  1.00  0.00     0.009 C 
ENDBRANCH  35  36
ENDBRANCH   8  35
BRANCH   1  39
HETATM   39  C3  UNL     1      -0.584 -17.342  52.477  1.00  0.00     0.012 C 
HETATM   40  C4  UNL     1       0.097 -17.386  51.118  1.00  0.00     0.012 C 
BRANCH  39  41
HETATM   41  C2  UNL     1       0.349 -16.574  53.360  1.00  0.00     0.002 C 
HETATM   42  C1  UNL     1       0.225 -15.086  53.051  1.00  0.00     0.005 C 
ENDBRANCH  39  41
ENDBRANCH   1  39
BRANCH  25  43
HETATM   43  O7  UNL     1      -2.805 -18.651  51.487  1.00  0.00    -0.348 OA
ATOM     44  H7  UNL     1      -3.720 -18.773  51.711  1.00  0.00     0.219 HD
ENDBRANCH  25  43
BRANCH  11  45
HETATM   45  O4  UNL     1      -6.533 -20.167  51.866  1.00  0.00    -0.348 OA
ATOM     46  H4  UNL     1      -7.273 -20.760  51.810  1.00  0.00     0.219 HD
ENDBRANCH  11  45
BRANCH  12  47
HETATM   47  C18 UNL     1      -7.186 -16.755  52.898  1.00  0.00     0.037 C 
BRANCH  47  48
HETATM   48  C19 UNL     1      -8.590 -16.482  53.440  1.00  0.00    -0.020 C 
HETATM   49  C20 UNL     1      -8.726 -17.137  54.797  1.00  0.00     0.009 C 
HETATM   50  C21 UNL     1      -9.608 -17.123  52.513  1.00  0.00     0.009 C 
ENDBRANCH  47  48
ENDBRANCH  12  47
BRANCH  22  51
HETATM   51  C30 UNL     1      -2.510 -14.954  48.745  1.00  0.00     0.038 C 
BRANCH  51  52
HETATM   52  C31 UNL     1      -1.641 -15.822  47.890  1.00  0.00    -0.020 C 
HETATM   53  C32 UNL     1      -0.179 -15.340  47.992  1.00  0.00     0.009 C 
HETATM   54  C33 UNL     1      -2.019 -15.636  46.423  1.00  0.00     0.009 C 
ENDBRANCH  51  52
ENDBRANCH  22  51
BRANCH  17  55
HETATM   55  C24 UNL     1      -7.177 -15.279  48.102  1.00  0.00     0.038 C 
BRANCH  55  56
HETATM   56  C25 UNL     1      -6.585 -13.944  47.737  1.00  0.00    -0.020 C 
HETATM   57  C26 UNL     1      -7.617 -12.955  47.267  1.00  0.00     0.009 C 
HETATM   58  C27 UNL     1      -5.658 -14.188  46.548  1.00  0.00     0.009 C 
ENDBRANCH  55  56
ENDBRANCH  17  55
TORSDOF 15
ENDMDL
MODEL 3
REMARK VINA RESULT: -7.074888881      0.942      1.290
REMARK  15 active torsions:
REMARK  status: ('A' for Active; 'I' for Inactive)
REMARK    1  A    between atoms: C2_2  and  C3_3 
REMARK    2  A    between atoms: C3_3  and  C5_5 
REMARK    3  A    between atoms: C6_8  and  O1_9 
REMARK    4  A    between atoms: N2_11  and  C7_12 
REMARK    5  A    between atoms: C7_12  and  C9_14 
REMARK       I    between atoms: C9_14  and  N3_15 
REMARK    6  A    between atoms: C11_21  and  C12_22 
REMARK    7  A    between atoms: C12_22  and  C13_23 
REMARK    8  A    between atoms: C16_28  and  O4_29 
REMARK    9  A    between atoms: C17_31  and  C18_32 
REMARK   10  A    between atoms: C18_32  and  C19_33 
REMARK   11  A    between atoms: C23_40  and  C24_41 
REMARK   12  A    between atoms: C24_41  and  C25_42 
REMARK   13  A    between atoms: C29_49  and  C30_50 
REMARK   14  A    between atoms: C30_50  and  C31_51 
REMARK   15  A    between atoms: C34_56  and  O7_57 
ROOT
HETATM    1  C5  UNL     1      -5.549 -17.228  51.789  1.00  0.00     0.163 C 
HETATM    2  N1  UNL     1      -4.818 -18.391  52.184  1.00  0.00    -0.344 N 
ATOM      3  H1  UNL     1      -4.028 -18.615  51.579  1.00  0.00     0.164 HD
HETATM    4  C6  UNL     1      -4.994 -19.287  53.263  1.00  0.00     0.223 C 
HETATM    5  N2  UNL     1      -4.858 -19.112  54.669  1.00  0.00    -0.269 N 
HETATM    6  C10 UNL     1      -3.602 -18.722  55.320  1.00  0.00     0.250 C 
HETATM    7  O3  UNL     1      -3.734 -17.843  56.211  1.00  0.00    -0.271 OA
HETATM    8  C11 UNL     1      -2.281 -19.246  55.026  1.00  0.00     0.176 C 
HETATM    9  N4  UNL     1      -1.223 -18.232  55.091  1.00  0.00    -0.359 N 
ATOM     10  H4  UNL     1      -0.645 -18.328  55.926  1.00  0.00     0.162 HD
HETATM   11  C16 UNL     1      -0.829 -17.201  54.308  1.00  0.00     0.135 C 
HETATM   12  C17 UNL     1      -0.363 -17.021  52.908  1.00  0.00     0.159 C 
HETATM   13  N5  UNL     1      -0.971 -15.841  52.358  1.00  0.00    -0.347 N 
ATOM     14  H5  UNL     1      -1.791 -15.517  52.870  1.00  0.00     0.163 HD
HETATM   15  C22 UNL     1      -0.644 -15.053  51.246  1.00  0.00     0.241 C 
HETATM   16  O5  UNL     1      -0.549 -13.786  51.494  1.00  0.00    -0.271 OA
HETATM   17  C23 UNL     1      -0.400 -15.443  49.865  1.00  0.00     0.177 C 
HETATM   18  N6  UNL     1      -1.473 -16.105  49.202  1.00  0.00    -0.346 N 
ATOM     19  H6  UNL     1      -1.199 -16.714  48.430  1.00  0.00     0.163 HD
HETATM   20  C28 UNL     1      -2.865 -16.040  49.457  1.00  0.00     0.241 C 
HETATM   21  O6  UNL     1      -3.473 -17.107  49.206  1.00  0.00    -0.271 OA
HETATM   22  C29 UNL     1      -3.647 -14.906  49.959  1.00  0.00     0.175 C 
HETATM   23  N7  UNL     1      -4.324 -14.997  51.195  1.00  0.00    -0.359 N 
ATOM     24  H7  UNL     1      -4.525 -14.069  51.568  1.00  0.00     0.162 HD
HETATM   25  C34 UNL     1      -4.792 -15.982  52.045  1.00  0.00     0.135 C 
ENDROOT
BRANCH   5  26
HETATM   26  C7  UNL     1      -6.053 -19.270  55.492  1.00  0.00     0.184 C 
HETATM   27  C8  UNL     1      -6.827 -18.036  55.748  1.00  0.00     0.043 C 
BRANCH  26  28
HETATM   28  C9  UNL     1      -5.835 -19.985  56.780  1.00  0.00     0.238 C 
HETATM   29  N3  UNL     1      -5.705 -19.481  58.054  1.00  0.00    -0.368 N 
ATOM     30  H32 UNL     1      -5.763 -18.470  58.171  1.00  0.00     0.159 HD
ATOM     31  H31 UNL     1      -5.555 -19.971  58.936  1.00  0.00     0.159 HD
HETATM   32  O2  UNL     1      -5.762 -21.258  56.633  1.00  0.00    -0.271 OA
ENDBRANCH  26  28
ENDBRANCH   5  26
BRANCH   4  33
HETATM   33  O1  UNL     1      -5.350 -20.525  52.963  1.00  0.00    -0.332 OA
ATOM     34  H1  UNL     1      -4.707 -21.208  53.115  1.00  0.00     0.220 HD
ENDBRANCH   4  33
BRANCH   8  35
HETATM   35  C12 UNL     1      -1.812 -20.415  55.839  1.00  0.00     0.038 C 
BRANCH  35  36
HETATM   36  C13 UNL     1      -1.325 -20.246  57.206  1.00  0.00    -0.020 C 
HETATM   37  C14 UNL     1      -0.422 -21.497  57.506  1.00  0.00     0.009 C 
HETATM   38  C15 UNL     1      -2.228 -20.155  58.373  1.00  0.00     0.009 C 
ENDBRANCH  35  36
ENDBRANCH   8  35
BRANCH   1  39
HETATM   39  C3  UNL     1      -6.899 -17.031  52.432  1.00  0.00     0.012 C 
HETATM   40  C4  UNL     1      -7.512 -15.741  51.908  1.00  0.00     0.012 C 
BRANCH  39  41
HETATM   41  C2  UNL     1      -7.892 -18.102  52.102  1.00  0.00     0.002 C 
HETATM   42  C1  UNL     1      -9.047 -17.492  51.315  1.00  0.00     0.005 C 
ENDBRANCH  39  41
ENDBRANCH   1  39
BRANCH  25  43
HETATM   43  O7  UNL     1      -4.566 -15.856  53.326  1.00  0.00    -0.348 OA
ATOM     44  H7  UNL     1      -3.667 -16.097  53.519  1.00  0.00     0.219 HD
ENDBRANCH  25  43
BRANCH  11  45
HETATM   45  O4  UNL     1      -0.843 -16.024  54.892  1.00  0.00    -0.348 OA
ATOM     46  H4  UNL     1      -1.689 -15.592  54.906  1.00  0.00     0.219 HD
ENDBRANCH  11  45
BRANCH  12  47
HETATM   47  C18 UNL     1      -0.376 -18.221  52.048  1.00  0.00     0.037 C 
BRANCH  47  48
HETATM   48  C19 UNL     1       0.920 -19.030  52.099  1.00  0.00    -0.020 C 
HETATM   49  C20 UNL     1       0.677 -20.296  52.893  1.00  0.00     0.009 C 
HETATM   50  C21 UNL     1       1.976 -18.221  52.832  1.00  0.00     0.009 C 
ENDBRANCH  47  48
ENDBRANCH  12  47
BRANCH  22  51
HETATM   51  C30 UNL     1      -4.728 -14.538  48.909  1.00  0.00     0.038 C 
BRANCH  51  52
HETATM   52  C31 UNL     1      -4.082 -13.701  47.850  1.00  0.00    -0.020 C 
HETATM   53  C32 UNL     1      -4.985 -12.492  47.533  1.00  0.00     0.009 C 
HETATM   54  C33 UNL     1      -4.006 -14.494  46.548  1.00  0.00     0.009 C 
ENDBRANCH  51  52
ENDBRANCH  22  51
BRANCH  17  55
HETATM   55  C24 UNL     1      -0.015 -14.246  49.008  1.00  0.00     0.038 C 
BRANCH  55  56
HETATM   56  C25 UNL     1      -0.195 -14.509  47.536  1.00  0.00    -0.020 C 
HETATM   57  C26 UNL     1       1.053 -15.033  46.879  1.00  0.00     0.009 C 
HETATM   58  C27 UNL     1      -0.484 -13.159  46.883  1.00  0.00     0.009 C 
ENDBRANCH  55  56
ENDBRANCH  17  55
TORSDOF 15
ENDMDL
MODEL 4
REMARK VINA RESULT: -7.049570491      2.073      9.264
REMARK  15 active torsions:
REMARK  status: ('A' for Active; 'I' for Inactive)
REMARK    1  A    between atoms: C2_2  and  C3_3 
REMARK    2  A    between atoms: C3_3  and  C5_5 
REMARK    3  A    between atoms: C6_8  and  O1_9 
REMARK    4  A    between atoms: N2_11  and  C7_12 
REMARK    5  A    between atoms: C7_12  and  C9_14 
REMARK       I    between atoms: C9_14  and  N3_15 
REMARK    6  A    between atoms: C11_21  and  C12_22 
REMARK    7  A    between atoms: C12_22  and  C13_23 
REMARK    8  A    between atoms: C16_28  and  O4_29 
REMARK    9  A    between atoms: C17_31  and  C18_32 
REMARK   10  A    between atoms: C18_32  and  C19_33 
REMARK   11  A    between atoms: C23_40  and  C24_41 
REMARK   12  A    between atoms: C24_41  and  C25_42 
REMARK   13  A    between atoms: C29_49  and  C30_50 
REMARK   14  A    between atoms: C30_50  and  C31_51 
REMARK   15  A    between atoms: C34_56  and  O7_57 
ROOT
HETATM    1  C5  UNL     1      -0.847 -20.246  53.908  1.00  0.00     0.163 C 
HETATM    2  N1  UNL     1      -1.849 -20.030  52.912  1.00  0.00    -0.344 N 
ATOM      3  H1  UNL     1      -2.717 -20.541  53.073  1.00  0.00     0.164 HD
HETATM    4  C6  UNL     1      -1.854 -19.234  51.744  1.00  0.00     0.223 C 
HETATM    5  N2  UNL     1      -1.819 -17.822  51.561  1.00  0.00    -0.269 N 
HETATM    6  C10 UNL     1      -2.851 -16.912  52.073  1.00  0.00     0.250 C 
HETATM    7  O3  UNL     1      -2.397 -15.870  52.613  1.00  0.00    -0.271 OA
HETATM    8  C11 UNL     1      -4.286 -17.116  52.009  1.00  0.00     0.176 C 
HETATM    9  N4  UNL     1      -4.995 -16.651  53.206  1.00  0.00    -0.359 N 
ATOM     10  H4  UNL     1      -5.506 -15.783  53.042  1.00  0.00     0.162 HD
HETATM   11  C16 UNL     1      -5.135 -17.097  54.476  1.00  0.00     0.135 C 
HETATM   12  C17 UNL     1      -5.641 -18.326  55.141  1.00  0.00     0.159 C 
HETATM   13  N5  UNL     1      -4.763 -18.669  56.227  1.00  0.00    -0.347 N 
ATOM     14  H5  UNL     1      -3.846 -18.227  56.176  1.00  0.00     0.163 HD
HETATM   15  C22 UNL     1      -4.936 -19.499  57.343  1.00  0.00     0.241 C 
HETATM   16  O5  UNL     1      -4.638 -18.946  58.475  1.00  0.00    -0.271 OA
HETATM   17  C23 UNL     1      -5.394 -20.878  57.417  1.00  0.00     0.177 C 
HETATM   18  N6  UNL     1      -4.617 -21.836  56.705  1.00  0.00    -0.346 N 
ATOM     19  H6  UNL     1      -5.118 -22.678  56.420  1.00  0.00     0.163 HD
HETATM   20  C28 UNL     1      -3.250 -21.790  56.335  1.00  0.00     0.241 C 
HETATM   21  O6  UNL     1      -3.000 -22.377  55.256  1.00  0.00    -0.271 OA
HETATM   22  C29 UNL     1      -2.135 -21.160  57.049  1.00  0.00     0.175 C 
HETATM   23  N7  UNL     1      -1.416 -20.100  56.454  1.00  0.00    -0.359 N 
ATOM     24  H7  UNL     1      -0.924 -19.553  57.161  1.00  0.00     0.162 HD
HETATM   25  C34 UNL     1      -1.186 -19.590  55.190  1.00  0.00     0.135 C 
ENDROOT
BRANCH   5  26
HETATM   26  C7  UNL     1      -0.658 -17.254  50.883  1.00  0.00     0.184 C 
HETATM   27  C8  UNL     1       0.239 -16.431  51.721  1.00  0.00     0.043 C 
BRANCH  26  28
HETATM   28  C9  UNL     1      -0.968 -16.514  49.628  1.00  0.00     0.238 C 
HETATM   29  N3  UNL     1      -0.770 -15.187  49.318  1.00  0.00    -0.368 N 
ATOM     30  H32 UNL     1      -0.348 -14.594  50.031  1.00  0.00     0.159 HD
ATOM     31  H31 UNL     1      -0.983 -14.681  48.459  1.00  0.00     0.159 HD
HETATM   32  O2  UNL     1      -1.500 -17.261  48.731  1.00  0.00    -0.271 OA
ENDBRANCH  26  28
ENDBRANCH   5  26
BRANCH   4  33
HETATM   33  O1  UNL     1      -1.898 -19.869  50.584  1.00  0.00    -0.332 OA
ATOM     34  H1  UNL     1      -2.301 -20.729  50.579  1.00  0.00     0.220 HD
ENDBRANCH   4  33
BRANCH   8  35
HETATM   35  C12 UNL     1      -5.007 -16.540  50.827  1.00  0.00     0.038 C 
BRANCH  35  36
HETATM   36  C13 UNL     1      -6.338 -15.954  50.958  1.00  0.00    -0.020 C 
HETATM   37  C14 UNL     1      -7.185 -16.522  49.762  1.00  0.00     0.009 C 
HETATM   38  C15 UNL     1      -6.579 -14.497  50.921  1.00  0.00     0.009 C 
ENDBRANCH  35  36
ENDBRANCH   8  35
BRANCH   1  39
HETATM   39  C3  UNL     1       0.550 -19.790  53.566  1.00  0.00     0.012 C 
HETATM   40  C4  UNL     1       1.543 -20.558  54.425  1.00  0.00     0.012 C 
BRANCH  39  41
HETATM   41  C2  UNL     1       0.952 -20.069  52.152  1.00  0.00     0.002 C 
HETATM   42  C1  UNL     1       1.350 -21.535  52.021  1.00  0.00     0.005 C 
ENDBRANCH  39  41
ENDBRANCH   1  39
BRANCH  25  43
HETATM   43  O7  UNL     1      -1.261 -18.296  55.020  1.00  0.00    -0.348 OA
ATOM     44  H7  UNL     1      -0.418 -17.959  54.739  1.00  0.00     0.219 HD
ENDBRANCH  25  43
BRANCH  11  45
HETATM   45  O4  UNL     1      -4.733 -16.261  55.406  1.00  0.00    -0.348 OA
ATOM     46  H4  UNL     1      -5.047 -16.452  56.282  1.00  0.00     0.219 HD
ENDBRANCH  11  45
BRANCH  12  47
HETATM   47  C18 UNL     1      -6.046 -19.437  54.258  1.00  0.00     0.037 C 
BRANCH  47  48
HETATM   48  C19 UNL     1      -7.503 -19.359  53.799  1.00  0.00    -0.020 C 
HETATM   49  C20 UNL     1      -7.533 -19.184  52.296  1.00  0.00     0.009 C 
HETATM   50  C21 UNL     1      -8.149 -18.133  54.420  1.00  0.00     0.009 C 
ENDBRANCH  47  48
ENDBRANCH  12  47
BRANCH  22  51
HETATM   51  C30 UNL     1      -1.082 -22.246  57.393  1.00  0.00     0.038 C 
BRANCH  51  52
HETATM   52  C31 UNL     1      -0.494 -21.917  58.729  1.00  0.00    -0.020 C 
HETATM   53  C32 UNL     1       0.787 -22.748  58.942  1.00  0.00     0.009 C 
HETATM   54  C33 UNL     1      -1.448 -22.367  59.832  1.00  0.00     0.009 C 
ENDBRANCH  51  52
ENDBRANCH  22  51
BRANCH  17  55
HETATM   55  C24 UNL     1      -5.483 -21.358  58.859  1.00  0.00     0.038 C 
BRANCH  55  56
HETATM   56  C25 UNL     1      -5.913 -22.797  58.962  1.00  0.00    -0.020 C 
HETATM   57  C26 UNL     1      -7.374 -22.949  59.287  1.00  0.00     0.009 C 
HETATM   58  C27 UNL     1      -5.151 -23.398  60.141  1.00  0.00     0.009 C 
ENDBRANCH  55  56
ENDBRANCH  17  55
TORSDOF 15
ENDMDL
MODEL 5
REMARK VINA RESULT: -6.684350636      2.110      7.720
REMARK  15 active torsions:
REMARK  status: ('A' for Active; 'I' for Inactive)
REMARK    1  A    between atoms: C2_2  and  C3_3 
REMARK    2  A    between atoms: C3_3  and  C5_5 
REMARK    3  A    between atoms: C6_8  and  O1_9 
REMARK    4  A    between atoms: N2_11  and  C7_12 
REMARK    5  A    between atoms: C7_12  and  C9_14 
REMARK       I    between atoms: C9_14  and  N3_15 
REMARK    6  A    between atoms: C11_21  and  C12_22 
REMARK    7  A    between atoms: C12_22  and  C13_23 
REMARK    8  A    between atoms: C16_28  and  O4_29 
REMARK    9  A    between atoms: C17_31  and  C18_32 
REMARK   10  A    between atoms: C18_32  and  C19_33 
REMARK   11  A    between atoms: C23_40  and  C24_41 
REMARK   12  A    between atoms: C24_41  and  C25_42 
REMARK   13  A    between atoms: C29_49  and  C30_50 
REMARK   14  A    between atoms: C30_50  and  C31_51 
REMARK   15  A    between atoms: C34_56  and  O7_57 
ROOT
HETATM    1  C5  UNL     1      -6.140 -17.082  52.649  1.00  0.00     0.163 C 
HETATM    2  N1  UNL     1      -5.498 -15.870  52.245  1.00  0.00    -0.344 N 
ATOM      3  H1  UNL     1      -4.786 -15.537  52.894  1.00  0.00     0.164 HD
HETATM    4  C6  UNL     1      -5.675 -15.051  51.108  1.00  0.00     0.223 C 
HETATM    5  N2  UNL     1      -5.408 -15.278  49.728  1.00  0.00    -0.269 N 
HETATM    6  C10 UNL     1      -4.071 -15.567  49.196  1.00  0.00     0.250 C 
HETATM    7  O3  UNL     1      -4.043 -16.497  48.349  1.00  0.00    -0.271 OA
HETATM    8  C11 UNL     1      -2.837 -14.896  49.560  1.00  0.00     0.176 C 
HETATM    9  N4  UNL     1      -1.682 -15.797  49.632  1.00  0.00    -0.359 N 
ATOM     10  H4  UNL     1      -1.051 -15.683  48.839  1.00  0.00     0.162 HD
HETATM   11  C16 UNL     1      -1.252 -16.744  50.499  1.00  0.00     0.135 C 
HETATM   12  C17 UNL     1      -0.886 -16.806  51.938  1.00  0.00     0.159 C 
HETATM   13  N5  UNL     1      -1.416 -18.015  52.507  1.00  0.00    -0.347 N 
ATOM     14  H5  UNL     1      -2.156 -18.446  51.953  1.00  0.00     0.163 HD
HETATM   15  C22 UNL     1      -1.104 -18.710  53.682  1.00  0.00     0.241 C 
HETATM   16  O5  UNL     1      -0.864 -19.972  53.514  1.00  0.00    -0.271 OA
HETATM   17  C23 UNL     1      -1.012 -18.231  55.054  1.00  0.00     0.177 C 
HETATM   18  N6  UNL     1      -2.195 -17.653  55.596  1.00  0.00    -0.346 N 
ATOM     19  H6  UNL     1      -2.046 -16.982  56.350  1.00  0.00     0.163 HD
HETATM   20  C28 UNL     1      -3.549 -17.873  55.240  1.00  0.00     0.241 C 
HETATM   21  O6  UNL     1      -4.278 -16.864  55.384  1.00  0.00    -0.271 OA
HETATM   22  C29 UNL     1      -4.172 -19.105  54.745  1.00  0.00     0.175 C 
HETATM   23  N7  UNL     1      -4.752 -19.143  53.459  1.00  0.00    -0.359 N 
ATOM     24  H7  UNL     1      -4.830 -20.104  53.123  1.00  0.00     0.162 HD
HETATM   25  C34 UNL     1      -5.245 -18.254  52.522  1.00  0.00     0.135 C 
ENDROOT
BRANCH   5  26
HETATM   26  C7  UNL     1      -6.543 -15.284  48.809  1.00  0.00     0.184 C 
HETATM   27  C8  UNL     1      -7.067 -16.617  48.441  1.00  0.00     0.043 C 
BRANCH  26  28
HETATM   28  C9  UNL     1      -6.350 -14.477  47.572  1.00  0.00     0.238 C 
HETATM   29  N3  UNL     1      -6.006 -14.883  46.303  1.00  0.00    -0.368 N 
ATOM     30  H32 UNL     1      -5.855 -15.880  46.150  1.00  0.00     0.159 HD
ATOM     31  H31 UNL     1      -5.873 -14.330  45.456  1.00  0.00     0.159 HD
HETATM   32  O2  UNL     1      -6.540 -13.223  47.765  1.00  0.00    -0.271 OA
ENDBRANCH  26  28
ENDBRANCH   5  26
BRANCH   4  33
HETATM   33  O1  UNL     1      -6.175 -13.842  51.309  1.00  0.00    -0.332 OA
ATOM     34  H1  UNL     1      -6.316 -13.301  50.542  1.00  0.00     0.220 HD
ENDBRANCH   4  33
BRANCH   8  35
HETATM   35  C12 UNL     1      -2.422 -13.725  48.720  1.00  0.00     0.038 C 
BRANCH  35  36
HETATM   36  C13 UNL     1      -1.043 -13.564  48.267  1.00  0.00    -0.020 C 
HETATM   37  C14 UNL     1      -0.666 -12.063  48.539  1.00  0.00     0.009 C 
HETATM   38  C15 UNL     1      -0.625 -13.801  46.869  1.00  0.00     0.009 C 
ENDBRANCH  35  36
ENDBRANCH   8  35
BRANCH   1  39
HETATM   39  C3  UNL     1      -7.408 -17.448  51.918  1.00  0.00     0.012 C 
HETATM   40  C4  UNL     1      -7.661 -18.938  52.085  1.00  0.00     0.012 C 
BRANCH  39  41
HETATM   41  C2  UNL     1      -8.634 -16.776  52.452  1.00  0.00     0.002 C 
HETATM   42  C1  UNL     1      -8.713 -16.997  53.959  1.00  0.00     0.005 C 
ENDBRANCH  39  41
ENDBRANCH   1  39
BRANCH  25  43
HETATM   43  O7  UNL     1      -4.905 -18.418  51.270  1.00  0.00    -0.348 OA
ATOM     44  H7  UNL     1      -4.337 -19.176  51.188  1.00  0.00     0.219 HD
ENDBRANCH  25  43
BRANCH  11  45
HETATM   45  O4  UNL     1      -1.102 -17.942  49.983  1.00  0.00    -0.348 OA
ATOM     46  H4  UNL     1      -0.266 -18.356  50.164  1.00  0.00     0.219 HD
ENDBRANCH  11  45
BRANCH  12  47
HETATM   47  C18 UNL     1      -1.087 -15.574  52.726  1.00  0.00     0.037 C 
BRANCH  47  48
HETATM   48  C19 UNL     1       0.158 -14.691  52.818  1.00  0.00    -0.020 C 
HETATM   49  C20 UNL     1       0.282 -14.167  54.232  1.00  0.00     0.009 C 
HETATM   50  C21 UNL     1      -0.017 -13.496  51.896  1.00  0.00     0.009 C 
ENDBRANCH  47  48
ENDBRANCH  12  47
BRANCH  22  51
HETATM   51  C30 UNL     1      -5.292 -19.531  55.729  1.00  0.00     0.038 C 
BRANCH  51  52
HETATM   52  C31 UNL     1      -5.528 -20.998  55.558  1.00  0.00    -0.020 C 
HETATM   53  C32 UNL     1      -5.775 -21.641  56.938  1.00  0.00     0.009 C 
HETATM   54  C33 UNL     1      -4.258 -21.662  55.032  1.00  0.00     0.009 C 
ENDBRANCH  51  52
ENDBRANCH  22  51
BRANCH  17  55
HETATM   55  C24 UNL     1      -0.581 -19.339  56.004  1.00  0.00     0.038 C 
BRANCH  55  56
HETATM   56  C25 UNL     1      -1.728 -19.881  56.815  1.00  0.00    -0.020 C 
HETATM   57  C26 UNL     1      -1.799 -19.288  58.196  1.00  0.00     0.009 C 
HETATM   58  C27 UNL     1      -1.461 -21.373  57.006  1.00  0.00     0.009 C 
ENDBRANCH  55  56
ENDBRANCH  17  55
TORSDOF 15
ENDMDL
