MODEL 1
REMARK VINA RESULT: -7.181894642      0.000      0.000
REMARK  13 active torsions:
REMARK  status: ('A' for Active; 'I' for Inactive)
REMARK    1  A    between atoms: C2_2  and  C3_3 
REMARK    2  A    between atoms: C3_3  and  C4_4 
REMARK    3  A    between atoms: C6_9  and  C7_10 
REMARK    4  A    between atoms: C7_10  and  C8_11 
REMARK    5  A    between atoms: C17_23  and  C18_24 
REMARK    6  A    between atoms: C18_24  and  C19_25 
REMARK    7  A    between atoms: C23_32  and  C24_33 
REMARK    8  A    between atoms: C24_33  and  C25_34 
REMARK    9  A    between atoms: C25_34  and  C26_35 
REMARK   10  A    between atoms: C26_35  and  N4_36 
REMARK   11  A    between atoms: C29_43  and  O4_44 
REMARK   12  A    between atoms: C30_46  and  C31_47 
REMARK   13  A    between atoms: C31_47  and  C33_49 
ROOT
HETATM    1  C4  UNL     1      -0.988 -15.079  52.287  1.00  0.00     0.177 C 
HETATM    2  N1  UNL     1      -1.499 -15.945  53.314  1.00  0.00    -0.346 N 
ATOM      3  H1  UNL     1      -0.915 -16.039  54.146  1.00  0.00     0.163 HD
HETATM    4  C5  UNL     1      -2.699 -16.679  53.324  1.00  0.00     0.244 C 
HETATM    5  O1  UNL     1      -3.380 -16.593  54.417  1.00  0.00    -0.271 OA
HETATM    6  C6  UNL     1      -3.174 -17.493  52.194  1.00  0.00     0.200 C 
HETATM    7  N2  UNL     1      -4.591 -17.260  51.923  1.00  0.00    -0.343 N 
ATOM      8  H2  UNL     1      -5.229 -17.801  52.507  1.00  0.00     0.163 HD
HETATM    9  C16 UNL     1      -5.206 -16.440  51.017  1.00  0.00     0.241 C 
HETATM   10  O2  UNL     1      -5.942 -15.476  51.454  1.00  0.00    -0.271 OA
HETATM   11  C17 UNL     1      -5.166 -16.480  49.506  1.00  0.00     0.177 C 
HETATM   12  N3  UNL     1      -4.226 -17.435  49.024  1.00  0.00    -0.343 N 
ATOM     13  H3  UNL     1      -4.424 -18.405  49.270  1.00  0.00     0.163 HD
HETATM   14  C22 UNL     1      -3.057 -17.233  48.256  1.00  0.00     0.265 C 
HETATM   15  O3  UNL     1      -2.141 -18.089  48.569  1.00  0.00    -0.266 OA
HETATM   16  C23 UNL     1      -2.733 -16.293  47.239  1.00  0.00     0.081 C 
HETATM   17  N7  UNL     1      -2.491 -14.919  47.417  1.00  0.00    -0.329 N 
HETATM   18  C28 UNL     1      -2.997 -14.132  46.229  1.00  0.00     0.158 C 
HETATM   19  C29 UNL     1      -1.905 -14.113  48.403  1.00  0.00     0.166 C 
HETATM   20  C30 UNL     1      -0.762 -14.141  49.270  1.00  0.00     0.067 C 
HETATM   21  N8  UNL     1      -0.349 -15.416  49.826  1.00  0.00    -0.325 N 
ATOM     22  H8  UNL     1      -0.089 -16.143  49.159  1.00  0.00     0.169 HD
HETATM   23  C35 UNL     1      -0.269 -15.757  51.201  1.00  0.00     0.244 C 
HETATM   24  O5  UNL     1       0.480 -16.730  51.581  1.00  0.00    -0.271 OA
ENDROOT
BRANCH   6  25
HETATM   25  C7  UNL     1      -2.849 -18.917  52.153  1.00  0.00     0.019 C 
BRANCH  25  26
HETATM   26  C8  UNL     1      -2.643 -19.689  53.349  1.00  0.00    -0.032 A 
HETATM   27  C9  UNL     1      -3.772 -20.156  54.034  1.00  0.00     0.012 A 
HETATM   28  C10 UNL     1      -3.703 -20.863  55.206  1.00  0.00     0.007 A 
HETATM   29  C11 UNL     1      -2.481 -21.150  55.771  1.00  0.00    -0.061 A 
HETATM   30  C12 UNL     1      -2.355 -21.917  57.045  1.00  0.00     0.048 C 
HETATM   31  C13 UNL     1      -1.355 -20.708  55.124  1.00  0.00     0.014 A 
HETATM   32  C14 UNL     1      -1.432 -19.987  53.927  1.00  0.00    -0.051 A 
HETATM   33  C15 UNL     1      -0.147 -19.606  53.288  1.00  0.00     0.049 C 
ENDBRANCH  25  26
ENDBRANCH   6  25
BRANCH   1  34
HETATM   34  C3  UNL     1       0.009 -14.112  52.948  1.00  0.00     0.034 C 
BRANCH  34  35
HETATM   35  C2  UNL     1      -0.608 -12.726  52.750  1.00  0.00    -0.002 C 
HETATM   36  C1  UNL     1      -0.922 -12.080  54.082  1.00  0.00     0.005 C 
ENDBRANCH  34  35
ENDBRANCH   1  34
BRANCH  11  37
HETATM   37  C18 UNL     1      -6.554 -17.026  49.113  1.00  0.00     0.038 C 
BRANCH  37  38
HETATM   38  C19 UNL     1      -7.122 -16.252  47.954  1.00  0.00    -0.020 C 
HETATM   39  C20 UNL     1      -6.506 -14.843  48.027  1.00  0.00     0.009 C 
HETATM   40  C21 UNL     1      -6.686 -16.859  46.626  1.00  0.00     0.009 C 
ENDBRANCH  37  38
ENDBRANCH  11  37
BRANCH  20  41
HETATM   41  C31 UNL     1       0.463 -13.361  49.006  1.00  0.00     0.036 C 
HETATM   42  C32 UNL     1       0.542 -12.088  49.886  1.00  0.00     0.016 C 
BRANCH  41  43
HETATM   43  C33 UNL     1       0.909 -12.988  47.672  1.00  0.00     0.006 C 
HETATM   44  C34 UNL     1       1.331 -14.151  46.819  1.00  0.00     0.006 C 
ENDBRANCH  41  43
ENDBRANCH  20  41
BRANCH  16  45
HETATM   45  C24 UNL     1      -1.613 -16.803  46.293  1.00  0.00     0.065 C 
BRANCH  45  46
HETATM   46  C25 UNL     1      -2.187 -17.769  45.287  1.00  0.00     0.026 C 
BRANCH  46  47
HETATM   47  C26 UNL     1      -1.302 -18.982  45.177  1.00  0.00     0.122 C 
BRANCH  47  48
HETATM   48  N4  UNL     1      -1.188 -19.767  46.354  1.00  0.00    -0.367 N 
HETATM   49  C27 UNL     1      -0.418 -20.775  46.478  1.00  0.00     0.196 C 
HETATM   50  N5  UNL     1       0.394 -21.163  45.382  1.00  0.00    -0.067 NA
HETATM   51  N6  UNL     1      -0.416 -21.459  47.730  1.00  0.00    -0.067 NA
ATOM     52  H4  UNL     1      -1.762 -19.507  47.155  1.00  0.00     0.161 HD
ENDBRANCH  47  48
ENDBRANCH  46  47
ENDBRANCH  45  46
ENDBRANCH  16  45
BRANCH  19  53
HETATM   53  O4  UNL     1      -2.633 -13.023  48.565  1.00  0.00    -0.344 OA
ATOM     54  H4  UNL     1      -2.316 -12.344  47.980  1.00  0.00     0.219 HD
ENDBRANCH  19  53
TORSDOF 13
ENDMDL
MODEL 2
REMARK VINA RESULT: -7.029354059      2.364      7.315
REMARK  13 active torsions:
REMARK  status: ('A' for Active; 'I' for Inactive)
REMARK    1  A    between atoms: C2_2  and  C3_3 
REMARK    2  A    between atoms: C3_3  and  C4_4 
REMARK    3  A    between atoms: C6_9  and  C7_10 
REMARK    4  A    between atoms: C7_10  and  C8_11 
REMARK    5  A    between atoms: C17_23  and  C18_24 
REMARK    6  A    between atoms: C18_24  and  C19_25 
REMARK    7  A    between atoms: C23_32  and  C24_33 
REMARK    8  A    between atoms: C24_33  and  C25_34 
REMARK    9  A    between atoms: C25_34  and  C26_35 
REMARK   10  A    between atoms: C26_35  and  N4_36 
REMARK   11  A    between atoms: C29_43  and  O4_44 
REMARK   12  A    between atoms: C30_46  and  C31_47 
REMARK   13  A    between atoms: C31_47  and  C33_49 
ROOT
HETATM    1  C4  UNL     1      -2.329 -18.990  54.786  1.00  0.00     0.177 C 
HETATM    2  N1  UNL     1      -0.917 -18.899  54.535  1.00  0.00    -0.346 N 
ATOM      3  H1  UNL     1      -0.314 -18.998  55.352  1.00  0.00     0.163 HD
HETATM    4  C5  UNL     1      -0.256 -18.691  53.311  1.00  0.00     0.244 C 
HETATM    5  O1  UNL     1       0.745 -19.477  53.093  1.00  0.00    -0.271 OA
HETATM    6  C6  UNL     1      -0.648 -17.667  52.329  1.00  0.00     0.200 C 
HETATM    7  N2  UNL     1      -0.680 -18.209  50.972  1.00  0.00    -0.343 N 
ATOM      8  H2  UNL     1       0.225 -18.232  50.503  1.00  0.00     0.163 HD
HETATM    9  C16 UNL     1      -1.720 -18.691  50.225  1.00  0.00     0.241 C 
HETATM   10  O2  UNL     1      -1.709 -19.932  49.874  1.00  0.00    -0.271 OA
HETATM   11  C17 UNL     1      -2.947 -17.970  49.713  1.00  0.00     0.177 C 
HETATM   12  N3  UNL     1      -3.044 -16.649  50.237  1.00  0.00    -0.343 N 
ATOM     13  H3  UNL     1      -2.287 -16.019  49.975  1.00  0.00     0.163 HD
HETATM   14  C22 UNL     1      -4.039 -16.086  51.069  1.00  0.00     0.265 C 
HETATM   15  O3  UNL     1      -3.532 -15.211  51.872  1.00  0.00    -0.266 OA
HETATM   16  C23 UNL     1      -5.441 -16.306  51.164  1.00  0.00     0.081 C 
HETATM   17  N7  UNL     1      -6.075 -17.448  51.688  1.00  0.00    -0.329 N 
HETATM   18  C28 UNL     1      -7.352 -17.739  50.934  1.00  0.00     0.158 C 
HETATM   19  C29 UNL     1      -5.821 -18.363  52.719  1.00  0.00     0.166 C 
HETATM   20  C30 UNL     1      -5.348 -18.348  54.073  1.00  0.00     0.067 C 
HETATM   21  N8  UNL     1      -4.310 -17.399  54.430  1.00  0.00    -0.325 N 
ATOM     22  H8  UNL     1      -4.530 -16.412  54.304  1.00  0.00     0.169 HD
HETATM   23  C35 UNL     1      -3.020 -17.703  54.938  1.00  0.00     0.244 C 
HETATM   24  O5  UNL     1      -2.360 -16.816  55.593  1.00  0.00    -0.271 OA
ENDROOT
BRANCH   6  25
HETATM   25  C7  UNL     1      -0.001 -16.357  52.365  1.00  0.00     0.019 C 
BRANCH  25  26
HETATM   26  C8  UNL     1      -0.136 -15.408  51.293  1.00  0.00    -0.032 A 
HETATM   27  C9  UNL     1      -0.040 -15.881  49.979  1.00  0.00     0.012 A 
HETATM   28  C10 UNL     1      -0.110 -15.067  48.878  1.00  0.00     0.007 A 
HETATM   29  C11 UNL     1      -0.282 -13.710  49.031  1.00  0.00    -0.061 A 
HETATM   30  C12 UNL     1      -0.363 -12.783  47.863  1.00  0.00     0.048 C 
HETATM   31  C13 UNL     1      -0.380 -13.214  50.305  1.00  0.00     0.014 A 
HETATM   32  C14 UNL     1      -0.310 -14.050  51.426  1.00  0.00    -0.051 A 
HETATM   33  C15 UNL     1      -0.482 -13.411  52.755  1.00  0.00     0.049 C 
ENDBRANCH  25  26
ENDBRANCH   6  25
BRANCH   1  34
HETATM   34  C3  UNL     1      -2.519 -19.759  56.105  1.00  0.00     0.034 C 
BRANCH  34  35
HETATM   35  C2  UNL     1      -1.406 -20.810  56.103  1.00  0.00    -0.002 C 
HETATM   36  C1  UNL     1      -1.019 -21.187  57.516  1.00  0.00     0.005 C 
ENDBRANCH  34  35
ENDBRANCH   1  34
BRANCH  11  37
HETATM   37  C18 UNL     1      -2.674 -17.801  48.204  1.00  0.00     0.038 C 
BRANCH  37  38
HETATM   38  C19 UNL     1      -3.518 -16.694  47.632  1.00  0.00    -0.020 C 
HETATM   39  C20 UNL     1      -2.710 -16.083  46.473  1.00  0.00     0.009 C 
HETATM   40  C21 UNL     1      -4.807 -17.243  47.034  1.00  0.00     0.009 C 
ENDBRANCH  37  38
ENDBRANCH  11  37
BRANCH  20  41
HETATM   41  C31 UNL     1      -6.248 -18.472  55.238  1.00  0.00     0.036 C 
HETATM   42  C32 UNL     1      -5.839 -19.646  56.163  1.00  0.00     0.016 C 
BRANCH  41  43
HETATM   43  C33 UNL     1      -7.699 -18.491  55.136  1.00  0.00     0.006 C 
HETATM   44  C34 UNL     1      -8.324 -17.128  55.035  1.00  0.00     0.006 C 
ENDBRANCH  41  43
ENDBRANCH  20  41
BRANCH  16  45
HETATM   45  C24 UNL     1      -6.194 -15.088  51.764  1.00  0.00     0.065 C 
BRANCH  45  46
HETATM   46  C25 UNL     1      -6.597 -14.138  50.664  1.00  0.00     0.026 C 
BRANCH  46  47
HETATM   47  C26 UNL     1      -6.257 -14.732  49.324  1.00  0.00     0.122 C 
BRANCH  47  48
HETATM   48  N4  UNL     1      -6.197 -13.813  48.243  1.00  0.00    -0.367 N 
HETATM   49  C27 UNL     1      -5.148 -13.183  47.887  1.00  0.00     0.196 C 
HETATM   50  N5  UNL     1      -3.941 -13.394  48.600  1.00  0.00    -0.067 NA
HETATM   51  N6  UNL     1      -5.252 -12.295  46.775  1.00  0.00    -0.067 NA
ATOM     52  H4  UNL     1      -7.053 -13.646  47.715  1.00  0.00     0.161 HD
ENDBRANCH  47  48
ENDBRANCH  46  47
ENDBRANCH  45  46
ENDBRANCH  16  45
BRANCH  19  53
HETATM   53  O4  UNL     1      -6.104 -19.583  52.298  1.00  0.00    -0.344 OA
ATOM     54  H4  UNL     1      -7.034 -19.643  52.111  1.00  0.00     0.219 HD
ENDBRANCH  19  53
TORSDOF 13
ENDMDL
MODEL 3
REMARK VINA RESULT: -6.988885465      2.350      7.724
REMARK  13 active torsions:
REMARK  status: ('A' for Active; 'I' for Inactive)
REMARK    1  A    between atoms: C2_2  and  C3_3 
REMARK    2  A    between atoms: C3_3  and  C4_4 
REMARK    3  A    between atoms: C6_9  and  C7_10 
REMARK    4  A    between atoms: C7_10  and  C8_11 
REMARK    5  A    between atoms: C17_23  and  C18_24 
REMARK    6  A    between atoms: C18_24  and  C19_25 
REMARK    7  A    between atoms: C23_32  and  C24_33 
REMARK    8  A    between atoms: C24_33  and  C25_34 
REMARK    9  A    between atoms: C25_34  and  C26_35 
REMARK   10  A    between atoms: C26_35  and  N4_36 
REMARK   11  A    between atoms: C29_43  and  O4_44 
REMARK   12  A    between atoms: C30_46  and  C31_47 
REMARK   13  A    between atoms: C31_47  and  C33_49 
ROOT
HETATM    1  C4  UNL     1      -6.486 -17.766  53.579  1.00  0.00     0.177 C 
HETATM    2  N1  UNL     1      -7.150 -17.157  52.459  1.00  0.00    -0.346 N 
ATOM      3  H1  UNL     1      -8.143 -17.372  52.362  1.00  0.00     0.163 HD
HETATM    4  C5  UNL     1      -6.611 -16.304  51.479  1.00  0.00     0.244 C 
HETATM    5  O1  UNL     1      -7.319 -15.256  51.222  1.00  0.00    -0.271 OA
HETATM    6  C6  UNL     1      -5.341 -16.554  50.780  1.00  0.00     0.200 C 
HETATM    7  N2  UNL     1      -4.512 -15.351  50.725  1.00  0.00    -0.343 N 
ATOM      8  H2  UNL     1      -4.741 -14.713  49.963  1.00  0.00     0.163 HD
HETATM    9  C16 UNL     1      -3.482 -14.936  51.524  1.00  0.00     0.241 C 
HETATM   10  O2  UNL     1      -3.625 -13.851  52.207  1.00  0.00    -0.271 OA
HETATM   11  C17 UNL     1      -2.129 -15.572  51.750  1.00  0.00     0.177 C 
HETATM   12  N3  UNL     1      -2.032 -16.850  51.130  1.00  0.00    -0.343 N 
ATOM     13  H3  UNL     1      -2.113 -16.850  50.114  1.00  0.00     0.163 HD
HETATM   14  C22 UNL     1      -1.840 -18.120  51.721  1.00  0.00     0.265 C 
HETATM   15  O3  UNL     1      -2.458 -19.040  51.056  1.00  0.00    -0.266 OA
HETATM   16  C23 UNL     1      -1.111 -18.540  52.867  1.00  0.00     0.081 C 
HETATM   17  N7  UNL     1      -1.454 -18.301  54.210  1.00  0.00    -0.329 N 
HETATM   18  C28 UNL     1      -0.213 -18.101  55.049  1.00  0.00     0.158 C 
HETATM   19  C29 UNL     1      -2.641 -18.207  54.950  1.00  0.00     0.166 C 
HETATM   20  C30 UNL     1      -3.905 -18.880  55.039  1.00  0.00     0.067 C 
HETATM   21  N8  UNL     1      -4.507 -19.380  53.817  1.00  0.00    -0.325 N 
ATOM     22  H8  UNL     1      -3.970 -20.070  53.292  1.00  0.00     0.169 HD
HETATM   23  C35 UNL     1      -5.766 -19.009  53.276  1.00  0.00     0.244 C 
HETATM   24  O5  UNL     1      -6.367 -19.789  52.451  1.00  0.00    -0.271 OA
ENDROOT
BRANCH   6  25
HETATM   25  C7  UNL     1      -5.356 -17.251  49.496  1.00  0.00     0.019 C 
BRANCH  25  26
HETATM   26  C8  UNL     1      -4.722 -16.709  48.324  1.00  0.00    -0.032 A 
HETATM   27  C9  UNL     1      -3.419 -17.126  48.028  1.00  0.00     0.012 A 
HETATM   28  C10 UNL     1      -2.698 -16.647  46.965  1.00  0.00     0.007 A 
HETATM   29  C11 UNL     1      -3.248 -15.708  46.122  1.00  0.00    -0.061 A 
HETATM   30  C12 UNL     1      -2.503 -15.156  44.953  1.00  0.00     0.048 C 
HETATM   31  C13 UNL     1      -4.524 -15.279  46.384  1.00  0.00     0.014 A 
HETATM   32  C14 UNL     1      -5.256 -15.772  47.471  1.00  0.00    -0.051 A 
HETATM   33  C15 UNL     1      -6.646 -15.275  47.627  1.00  0.00     0.049 C 
ENDBRANCH  25  26
ENDBRANCH   6  25
BRANCH   1  34
HETATM   34  C3  UNL     1      -7.561 -18.115  54.623  1.00  0.00     0.034 C 
BRANCH  34  35
HETATM   35  C2  UNL     1      -8.765 -17.249  54.243  1.00  0.00    -0.002 C 
HETATM   36  C1  UNL     1      -9.544 -16.840  55.473  1.00  0.00     0.005 C 
ENDBRANCH  34  35
ENDBRANCH   1  34
BRANCH  11  37
HETATM   37  C18 UNL     1      -1.157 -14.658  50.975  1.00  0.00     0.038 C 
BRANCH  37  38
HETATM   38  C19 UNL     1       0.057 -14.345  51.807  1.00  0.00    -0.020 C 
HETATM   39  C20 UNL     1       0.223 -12.815  51.779  1.00  0.00     0.009 C 
HETATM   40  C21 UNL     1      -0.162 -14.740  53.263  1.00  0.00     0.009 C 
ENDBRANCH  37  38
ENDBRANCH  11  37
BRANCH  20  41
HETATM   41  C31 UNL     1      -4.228 -19.842  56.111  1.00  0.00     0.036 C 
HETATM   42  C32 UNL     1      -3.941 -21.304  55.684  1.00  0.00     0.016 C 
BRANCH  41  43
HETATM   43  C33 UNL     1      -5.489 -19.847  56.836  1.00  0.00     0.006 C 
HETATM   44  C34 UNL     1      -5.345 -19.641  58.318  1.00  0.00     0.006 C 
ENDBRANCH  41  43
ENDBRANCH  20  41
BRANCH  16  45
HETATM   45  C24 UNL     1      -0.696 -20.034  52.793  1.00  0.00     0.065 C 
BRANCH  45  46
HETATM   46  C25 UNL     1       0.542 -20.184  51.944  1.00  0.00     0.026 C 
BRANCH  46  47
HETATM   47  C26 UNL     1       0.289 -21.175  50.840  1.00  0.00     0.122 C 
BRANCH  47  48
HETATM   48  N4  UNL     1      -0.603 -20.746  49.822  1.00  0.00    -0.367 N 
HETATM   49  C27 UNL     1      -0.672 -21.260  48.658  1.00  0.00     0.196 C 
HETATM   50  N5  UNL     1       0.188 -22.338  48.327  1.00  0.00    -0.067 NA
HETATM   51  N6  UNL     1      -1.626 -20.716  47.747  1.00  0.00    -0.067 NA
ATOM     52  H4  UNL     1      -1.231 -19.972  50.037  1.00  0.00     0.161 HD
ENDBRANCH  47  48
ENDBRANCH  46  47
ENDBRANCH  45  46
ENDBRANCH  16  45
BRANCH  19  53
HETATM   53  O4  UNL     1      -2.546 -17.202  55.802  1.00  0.00    -0.344 OA
ATOM     54  H4  UNL     1      -3.122 -17.361  56.542  1.00  0.00     0.219 HD
ENDBRANCH  19  53
TORSDOF 13
ENDMDL
MODEL 4
REMARK VINA RESULT: -6.941276930      2.400      7.316
REMARK  13 active torsions:
REMARK  status: ('A' for Active; 'I' for Inactive)
REMARK    1  A    between atoms: C2_2  and  C3_3 
REMARK    2  A    between atoms: C3_3  and  C4_4 
REMARK    3  A    between atoms: C6_9  and  C7_10 
REMARK    4  A    between atoms: C7_10  and  C8_11 
REMARK    5  A    between atoms: C17_23  and  C18_24 
REMARK    6  A    between atoms: C18_24  and  C19_25 
REMARK    7  A    between atoms: C23_32  and  C24_33 
REMARK    8  A    between atoms: C24_33  and  C25_34 
REMARK    9  A    between atoms: C25_34  and  C26_35 
REMARK   10  A    between atoms: C26_35  and  N4_36 
REMARK   11  A    between atoms: C29_43  and  O4_44 
REMARK   12  A    between atoms: C30_46  and  C31_47 
REMARK   13  A    between atoms: C31_47  and  C33_49 
ROOT
HETATM    1  C4  UNL     1      -2.460 -18.942  55.000  1.00  0.00     0.177 C 
HETATM    2  N1  UNL     1      -1.038 -18.823  54.824  1.00  0.00    -0.346 N 
ATOM      3  H1  UNL     1      -0.479 -18.890  55.675  1.00  0.00     0.163 HD
HETATM    4  C5  UNL     1      -0.316 -18.626  53.634  1.00  0.00     0.244 C 
HETATM    5  O1  UNL     1       0.713 -19.392  53.488  1.00  0.00    -0.271 OA
HETATM    6  C6  UNL     1      -0.676 -17.633  52.608  1.00  0.00     0.200 C 
HETATM    7  N2  UNL     1      -0.621 -18.206  51.264  1.00  0.00    -0.343 N 
ATOM      8  H2  UNL     1       0.309 -18.217  50.846  1.00  0.00     0.163 HD
HETATM    9  C16 UNL     1      -1.608 -18.728  50.473  1.00  0.00     0.241 C 
HETATM   10  O2  UNL     1      -1.550 -19.975  50.152  1.00  0.00    -0.271 OA
HETATM   11  C17 UNL     1      -2.821 -18.047  49.879  1.00  0.00     0.177 C 
HETATM   12  N3  UNL     1      -2.977 -16.718  50.367  1.00  0.00    -0.343 N 
ATOM     13  H3  UNL     1      -2.220 -16.076  50.131  1.00  0.00     0.163 HD
HETATM   14  C22 UNL     1      -4.028 -16.161  51.130  1.00  0.00     0.265 C 
HETATM   15  O3  UNL     1      -3.586 -15.256  51.939  1.00  0.00    -0.266 OA
HETATM   16  C23 UNL     1      -5.428 -16.412  51.154  1.00  0.00     0.081 C 
HETATM   17  N7  UNL     1      -6.063 -17.556  51.668  1.00  0.00    -0.329 N 
HETATM   18  C28 UNL     1      -7.291 -17.894  50.853  1.00  0.00     0.158 C 
HETATM   19  C29 UNL     1      -5.846 -18.443  52.732  1.00  0.00     0.166 C 
HETATM   20  C30 UNL     1      -5.449 -18.388  54.109  1.00  0.00     0.067 C 
HETATM   21  N8  UNL     1      -4.453 -17.407  54.501  1.00  0.00    -0.325 N 
ATOM     22  H8  UNL     1      -4.688 -16.428  54.340  1.00  0.00     0.169 HD
HETATM   23  C35 UNL     1      -3.186 -17.669  55.085  1.00  0.00     0.244 C 
HETATM   24  O5  UNL     1      -2.584 -16.752  55.754  1.00  0.00    -0.271 OA
ENDROOT
BRANCH   6  25
HETATM   25  C7  UNL     1      -0.061 -16.308  52.650  1.00  0.00     0.019 C 
BRANCH  25  26
HETATM   26  C8  UNL     1      -0.156 -15.387  51.549  1.00  0.00    -0.032 A 
HETATM   27  C9  UNL     1      -0.035 -15.897  50.251  1.00  0.00     0.012 A 
HETATM   28  C10 UNL     1      -0.065 -15.113  49.127  1.00  0.00     0.007 A 
HETATM   29  C11 UNL     1      -0.222 -13.750  49.238  1.00  0.00    -0.061 A 
HETATM   30  C12 UNL     1      -0.260 -12.856  48.044  1.00  0.00     0.048 C 
HETATM   31  C13 UNL     1      -0.344 -13.218  50.495  1.00  0.00     0.014 A 
HETATM   32  C14 UNL     1      -0.313 -14.024  51.640  1.00  0.00    -0.051 A 
HETATM   33  C15 UNL     1      -0.509 -13.346  52.946  1.00  0.00     0.049 C 
ENDBRANCH  25  26
ENDBRANCH   6  25
BRANCH   1  34
HETATM   34  C3  UNL     1      -2.704 -19.686  56.324  1.00  0.00     0.034 C 
BRANCH  34  35
HETATM   35  C2  UNL     1      -2.151 -21.093  56.085  1.00  0.00    -0.002 C 
HETATM   36  C1  UNL     1      -1.319 -21.552  57.261  1.00  0.00     0.005 C 
ENDBRANCH  34  35
ENDBRANCH   1  34
BRANCH  11  37
HETATM   37  C18 UNL     1      -2.469 -17.905  48.384  1.00  0.00     0.038 C 
BRANCH  37  38
HETATM   38  C19 UNL     1      -3.640 -17.359  47.612  1.00  0.00    -0.020 C 
HETATM   39  C20 UNL     1      -3.242 -15.944  47.157  1.00  0.00     0.009 C 
HETATM   40  C21 UNL     1      -3.892 -18.177  46.351  1.00  0.00     0.009 C 
ENDBRANCH  37  38
ENDBRANCH  11  37
BRANCH  20  41
HETATM   41  C31 UNL     1      -6.408 -18.507  55.226  1.00  0.00     0.036 C 
HETATM   42  C32 UNL     1      -6.061 -19.691  56.164  1.00  0.00     0.016 C 
BRANCH  41  43
HETATM   43  C33 UNL     1      -7.852 -18.508  55.051  1.00  0.00     0.006 C 
HETATM   44  C34 UNL     1      -8.475 -17.140  55.090  1.00  0.00     0.006 C 
ENDBRANCH  41  43
ENDBRANCH  20  41
BRANCH  16  45
HETATM   45  C24 UNL     1      -6.239 -15.199  51.683  1.00  0.00     0.065 C 
BRANCH  45  46
HETATM   46  C25 UNL     1      -6.522 -14.236  50.558  1.00  0.00     0.026 C 
BRANCH  46  47
HETATM   47  C26 UNL     1      -6.191 -14.879  49.238  1.00  0.00     0.122 C 
BRANCH  47  48
HETATM   48  N4  UNL     1      -7.134 -14.667  48.198  1.00  0.00    -0.367 N 
HETATM   49  C27 UNL     1      -7.529 -15.565  47.385  1.00  0.00     0.196 C 
HETATM   50  N5  UNL     1      -7.008 -16.879  47.502  1.00  0.00    -0.067 NA
HETATM   51  N6  UNL     1      -8.486 -15.192  46.396  1.00  0.00    -0.067 NA
ATOM     52  H4  UNL     1      -7.523 -13.730  48.094  1.00  0.00     0.161 HD
ENDBRANCH  47  48
ENDBRANCH  46  47
ENDBRANCH  45  46
ENDBRANCH  16  45
BRANCH  19  53
HETATM   53  O4  UNL     1      -6.078 -19.678  52.325  1.00  0.00    -0.344 OA
ATOM     54  H4  UNL     1      -6.900 -19.981  52.693  1.00  0.00     0.219 HD
ENDBRANCH  19  53
TORSDOF 13
ENDMDL
MODEL 5
REMARK VINA RESULT: -6.910159921      2.350      7.829
REMARK  13 active torsions:
REMARK  status: ('A' for Active; 'I' for Inactive)
REMARK    1  A    between atoms: C2_2  and  C3_3 
REMARK    2  A    between atoms: C3_3  and  C4_4 
REMARK    3  A    between atoms: C6_9  and  C7_10 
REMARK    4  A    between atoms: C7_10  and  C8_11 
REMARK    5  A    between atoms: C17_23  and  C18_24 
REMARK    6  A    between atoms: C18_24  and  C19_25 
REMARK    7  A    between atoms: C23_32  and  C24_33 
REMARK    8  A    between atoms: C24_33  and  C25_34 
REMARK    9  A    between atoms: C25_34  and  C26_35 
REMARK   10  A    between atoms: C26_35  and  N4_36 
REMARK   11  A    between atoms: C29_43  and  O4_44 
REMARK   12  A    between atoms: C30_46  and  C31_47 
REMARK   13  A    between atoms: C31_47  and  C33_49 
ROOT
HETATM    1  C4  UNL     1      -6.445 -17.766  53.587  1.00  0.00     0.177 C 
HETATM    2  N1  UNL     1      -7.126 -17.092  52.517  1.00  0.00    -0.346 N 
ATOM      3  H1  UNL     1      -8.123 -17.293  52.430  1.00  0.00     0.163 HD
HETATM    4  C5  UNL     1      -6.600 -16.192  51.573  1.00  0.00     0.244 C 
HETATM    5  O1  UNL     1      -7.304 -15.125  51.389  1.00  0.00    -0.271 OA
HETATM    6  C6  UNL     1      -5.347 -16.414  50.834  1.00  0.00     0.200 C 
HETATM    7  N2  UNL     1      -4.509 -15.216  50.826  1.00  0.00    -0.343 N 
ATOM      8  H2  UNL     1      -4.748 -14.536  50.105  1.00  0.00     0.163 HD
HETATM    9  C16 UNL     1      -3.458 -14.854  51.624  1.00  0.00     0.241 C 
HETATM   10  O2  UNL     1      -3.576 -13.807  52.367  1.00  0.00    -0.271 OA
HETATM   11  C17 UNL     1      -2.106 -15.512  51.786  1.00  0.00     0.177 C 
HETATM   12  N3  UNL     1      -2.035 -16.756  51.095  1.00  0.00    -0.343 N 
ATOM     13  H3  UNL     1      -2.138 -16.699  50.082  1.00  0.00     0.163 HD
HETATM   14  C22 UNL     1      -1.842 -18.058  51.612  1.00  0.00     0.265 C 
HETATM   15  O3  UNL     1      -2.483 -18.935  50.912  1.00  0.00    -0.266 OA
HETATM   16  C23 UNL     1      -1.093 -18.545  52.718  1.00  0.00     0.081 C 
HETATM   17  N7  UNL     1      -1.405 -18.376  54.079  1.00  0.00    -0.329 N 
HETATM   18  C28 UNL     1      -0.145 -18.233  54.900  1.00  0.00     0.158 C 
HETATM   19  C29 UNL     1      -2.576 -18.313  54.848  1.00  0.00     0.166 C 
HETATM   20  C30 UNL     1      -3.844 -18.979  54.928  1.00  0.00     0.067 C 
HETATM   21  N8  UNL     1      -4.476 -19.407  53.694  1.00  0.00    -0.325 N 
ATOM     22  H8  UNL     1      -3.957 -20.072  53.121  1.00  0.00     0.169 HD
HETATM   23  C35 UNL     1      -5.743 -18.997  53.202  1.00  0.00     0.244 C 
HETATM   24  O5  UNL     1      -6.369 -19.726  52.349  1.00  0.00    -0.271 OA
ENDROOT
BRANCH   6  25
HETATM   25  C7  UNL     1      -5.397 -17.040  49.515  1.00  0.00     0.019 C 
BRANCH  25  26
HETATM   26  C8  UNL     1      -5.955 -16.369  48.371  1.00  0.00    -0.032 A 
HETATM   27  C9  UNL     1      -7.337 -16.458  48.165  1.00  0.00     0.012 A 
HETATM   28  C10 UNL     1      -7.976 -15.898  47.090  1.00  0.00     0.007 A 
HETATM   29  C11 UNL     1      -7.258 -15.204  46.142  1.00  0.00    -0.061 A 
HETATM   30  C12 UNL     1      -7.909 -14.578  44.954  1.00  0.00     0.048 C 
HETATM   31  C13 UNL     1      -5.902 -15.098  46.314  1.00  0.00     0.014 A 
HETATM   32  C14 UNL     1      -5.255 -15.671  47.416  1.00  0.00    -0.051 A 
HETATM   33  C15 UNL     1      -3.791 -15.447  47.527  1.00  0.00     0.049 C 
ENDBRANCH  25  26
ENDBRANCH   6  25
BRANCH   1  34
HETATM   34  C3  UNL     1      -7.500 -18.163  54.634  1.00  0.00     0.034 C 
BRANCH  34  35
HETATM   35  C2  UNL     1      -8.727 -17.317  54.285  1.00  0.00    -0.002 C 
HETATM   36  C1  UNL     1      -9.483 -16.923  55.534  1.00  0.00     0.005 C 
ENDBRANCH  34  35
ENDBRANCH   1  34
BRANCH  11  37
HETATM   37  C18 UNL     1      -1.142 -14.566  51.040  1.00  0.00     0.038 C 
BRANCH  37  38
HETATM   38  C19 UNL     1       0.094 -14.313  51.859  1.00  0.00    -0.020 C 
HETATM   39  C20 UNL     1       0.376 -12.802  51.771  1.00  0.00     0.009 C 
HETATM   40  C21 UNL     1      -0.149 -14.634  53.329  1.00  0.00     0.009 C 
ENDBRANCH  37  38
ENDBRANCH  11  37
BRANCH  20  41
HETATM   41  C31 UNL     1      -4.152 -19.996  55.954  1.00  0.00     0.036 C 
HETATM   42  C32 UNL     1      -3.757 -21.422  55.494  1.00  0.00     0.016 C 
BRANCH  41  43
HETATM   43  C33 UNL     1      -5.441 -20.103  56.620  1.00  0.00     0.006 C 
HETATM   44  C34 UNL     1      -5.787 -21.495  57.067  1.00  0.00     0.006 C 
ENDBRANCH  41  43
ENDBRANCH  20  41
BRANCH  16  45
HETATM   45  C24 UNL     1      -0.694 -20.036  52.554  1.00  0.00     0.065 C 
BRANCH  45  46
HETATM   46  C25 UNL     1       0.453 -20.160  51.583  1.00  0.00     0.026 C 
BRANCH  46  47
HETATM   47  C26 UNL     1       0.136 -21.201  50.544  1.00  0.00     0.122 C 
BRANCH  47  48
HETATM   48  N4  UNL     1      -0.720 -20.779  49.493  1.00  0.00    -0.367 N 
HETATM   49  C27 UNL     1      -0.744 -21.297  48.328  1.00  0.00     0.196 C 
HETATM   50  N5  UNL     1       0.132 -22.373  48.033  1.00  0.00    -0.067 NA
HETATM   51  N6  UNL     1      -1.666 -20.760  47.382  1.00  0.00    -0.067 NA
ATOM     52  H4  UNL     1      -1.359 -20.008  49.682  1.00  0.00     0.161 HD
ENDBRANCH  47  48
ENDBRANCH  46  47
ENDBRANCH  45  46
ENDBRANCH  16  45
BRANCH  19  53
HETATM   53  O4  UNL     1      -2.453 -17.357  55.751  1.00  0.00    -0.344 OA
ATOM     54  H4  UNL     1      -2.788 -16.542  55.394  1.00  0.00     0.219 HD
ENDBRANCH  19  53
TORSDOF 13
ENDMDL
