MODEL 1
REMARK VINA RESULT: -6.983524948      0.000      0.000
REMARK  13 active torsions:
REMARK  status: ('A' for Active; 'I' for Inactive)
REMARK    1  A    between atoms: C2_2  and  C4_4 
REMARK    2  A    between atoms: C4_4  and  C5_5 
REMARK    3  A    between atoms: C5_5  and  C6_6 
REMARK    4  A    between atoms: C6_6  and  C7_7 
REMARK    5  A    between atoms: C6_6  and  N1_10 
REMARK    6  A    between atoms: C7_7  and  C8_8 
REMARK    7  A    between atoms: C18_29  and  C19_30 
REMARK    8  A    between atoms: C19_30  and  C20_31 
REMARK    9  A    between atoms: C23_36  and  O4_37 
REMARK   10  A    between atoms: C24_39  and  C25_40 
REMARK   11  A    between atoms: C25_40  and  C26_41 
REMARK   12  A    between atoms: C30_48  and  C31_49 
REMARK   13  A    between atoms: C31_49  and  C32_50 
ROOT
HETATM    1  N1  UNL     1      -4.257 -17.430  53.048  1.00  0.00    -0.222 N 
ATOM      2  H1  UNL     1      -3.559 -17.074  53.702  1.00  0.00     0.178 HD
HETATM    3  C10 UNL     1      -4.236 -16.905  51.856  1.00  0.00     0.677 C 
HETATM    4  N2  UNL     1      -5.203 -17.391  50.943  1.00  0.00    -0.158 N 
ATOM      5  H2  UNL     1      -5.344 -18.402  50.941  1.00  0.00     0.187 HD
HETATM    6  C11 UNL     1      -5.997 -16.658  50.036  1.00  0.00     0.258 C 
HETATM    7  O1  UNL     1      -6.330 -17.319  48.969  1.00  0.00    -0.270 OA
HETATM    8  C12 UNL     1      -6.520 -15.301  50.064  1.00  0.00     0.173 C 
HETATM    9  C13 UNL     1      -6.784 -14.721  51.437  1.00  0.00     0.042 C 
HETATM   10  N3  UNL     1      -5.738 -14.308  49.365  1.00  0.00    -0.343 N 
ATOM     11  H3  UNL     1      -4.807 -14.149  49.750  1.00  0.00     0.163 HD
HETATM   12  C14 UNL     1      -6.044 -13.535  48.255  1.00  0.00     0.264 C 
HETATM   13  O2  UNL     1      -5.976 -12.247  48.416  1.00  0.00    -0.266 OA
HETATM   14  C15 UNL     1      -6.438 -13.925  46.903  1.00  0.00     0.076 C 
HETATM   15  C16 UNL     1      -7.670 -13.172  46.399  1.00  0.00     0.074 C 
HETATM   16  N4  UNL     1      -5.905 -14.749  46.139  1.00  0.00    -0.324 N 
ATOM     17  H4  UNL     1      -6.459 -14.753  45.284  1.00  0.00     0.169 HD
HETATM   18  C17 UNL     1      -4.916 -15.633  45.959  1.00  0.00     0.244 C 
HETATM   19  O3  UNL     1      -5.189 -16.879  45.799  1.00  0.00    -0.271 OA
HETATM   20  C18 UNL     1      -3.401 -15.425  45.901  1.00  0.00     0.176 C 
HETATM   21  N5  UNL     1      -2.972 -15.841  47.220  1.00  0.00    -0.359 N 
ATOM     22  H5  UNL     1      -3.138 -15.121  47.923  1.00  0.00     0.162 HD
HETATM   23  C23 UNL     1      -2.397 -16.971  47.758  1.00  0.00     0.135 C 
HETATM   24  C24 UNL     1      -0.990 -17.393  47.959  1.00  0.00     0.159 C 
HETATM   25  N6  UNL     1      -0.727 -17.544  49.408  1.00  0.00    -0.347 N 
ATOM     26  H6  UNL     1       0.160 -17.990  49.641  1.00  0.00     0.163 HD
HETATM   27  C29 UNL     1      -1.498 -17.176  50.490  1.00  0.00     0.242 C 
HETATM   28  O5  UNL     1      -1.829 -18.138  51.297  1.00  0.00    -0.271 OA
HETATM   29  C30 UNL     1      -2.030 -15.876  50.919  1.00  0.00     0.197 C 
HETATM   30  N9  UNL     1      -3.247 -15.918  51.679  1.00  0.00    -0.213 N 
ATOM     31  H9  UNL     1      -3.434 -15.059  52.195  1.00  0.00     0.178 HD
ENDROOT
BRANCH   1  32
HETATM   32  C6  UNL     1      -5.132 -18.443  53.559  1.00  0.00     0.099 C 
BRANCH  32  33
HETATM   33  C5  UNL     1      -6.284 -17.764  54.255  1.00  0.00     0.030 C 
BRANCH  33  34
HETATM   34  C4  UNL     1      -7.607 -18.411  54.131  1.00  0.00     0.035 C 
BRANCH  34  35
HETATM   35  C2  UNL     1      -8.064 -18.553  52.742  1.00  0.00    -0.093 C 
HETATM   36  C1  UNL     1      -8.724 -17.627  52.092  1.00  0.00     0.014 C 
HETATM   37  C3  UNL     1      -7.701 -19.845  52.038  1.00  0.00     0.042 C 
ENDBRANCH  34  35
ENDBRANCH  33  34
ENDBRANCH  32  33
BRANCH  32  38
HETATM   38  C7  UNL     1      -4.287 -19.140  54.662  1.00  0.00     0.025 C 
BRANCH  38  39
HETATM   39  C8  UNL     1      -4.414 -20.653  54.539  1.00  0.00    -0.002 C 
HETATM   40  C9  UNL     1      -5.402 -21.063  55.619  1.00  0.00     0.005 C 
ENDBRANCH  38  39
ENDBRANCH  32  38
ENDBRANCH   1  32
BRANCH  29  41
HETATM   41  C31 UNL     1      -1.027 -15.123  51.807  1.00  0.00     0.093 C 
BRANCH  41  42
HETATM   42  C32 UNL     1      -0.355 -13.994  51.171  1.00  0.00     0.028 A 
HETATM   43  C33 UNL     1      -0.592 -13.574  49.855  1.00  0.00     0.114 A 
HETATM   44  N7  UNL     1       0.157 -12.493  49.591  1.00  0.00    -0.360 N 
HETATM   45  C34 UNL     1       0.862 -12.215  50.697  1.00  0.00     0.180 A 
ATOM     46  H7  UNL     1       0.184 -11.977  48.711  1.00  0.00     0.166 HD
HETATM   47  N8  UNL     1       0.549 -13.121  51.639  1.00  0.00    -0.354 N 
ATOM     48  H8  UNL     1       0.943 -13.141  52.579  1.00  0.00     0.166 HD
ENDBRANCH  41  42
ENDBRANCH  29  41
BRANCH  24  49
HETATM   49  C25 UNL     1       0.040 -16.567  47.282  1.00  0.00     0.037 C 
BRANCH  49  50
HETATM   50  C26 UNL     1       0.029 -16.834  45.793  1.00  0.00    -0.020 C 
HETATM   51  C27 UNL     1       1.313 -16.213  45.233  1.00  0.00     0.009 C 
HETATM   52  C28 UNL     1       0.126 -18.355  45.619  1.00  0.00     0.009 C 
ENDBRANCH  49  50
ENDBRANCH  24  49
BRANCH  23  53
HETATM   53  O4  UNL     1      -3.144 -17.949  48.225  1.00  0.00    -0.348 OA
ATOM     54  H4  UNL     1      -2.983 -18.314  49.087  1.00  0.00     0.219 HD
ENDBRANCH  23  53
BRANCH  20  55
HETATM   55  C19 UNL     1      -3.129 -13.975  45.601  1.00  0.00     0.038 C 
BRANCH  55  56
HETATM   56  C20 UNL     1      -2.270 -13.261  46.602  1.00  0.00    -0.020 C 
HETATM   57  C21 UNL     1      -0.873 -13.080  46.020  1.00  0.00     0.009 C 
HETATM   58  C22 UNL     1      -2.835 -11.841  46.737  1.00  0.00     0.009 C 
ENDBRANCH  55  56
ENDBRANCH  20  55
TORSDOF 13
ENDMDL
MODEL 2
REMARK VINA RESULT: -6.830748395      1.012      1.635
REMARK  13 active torsions:
REMARK  status: ('A' for Active; 'I' for Inactive)
REMARK    1  A    between atoms: C2_2  and  C4_4 
REMARK    2  A    between atoms: C4_4  and  C5_5 
REMARK    3  A    between atoms: C5_5  and  C6_6 
REMARK    4  A    between atoms: C6_6  and  C7_7 
REMARK    5  A    between atoms: C6_6  and  N1_10 
REMARK    6  A    between atoms: C7_7  and  C8_8 
REMARK    7  A    between atoms: C18_29  and  C19_30 
REMARK    8  A    between atoms: C19_30  and  C20_31 
REMARK    9  A    between atoms: C23_36  and  O4_37 
REMARK   10  A    between atoms: C24_39  and  C25_40 
REMARK   11  A    between atoms: C25_40  and  C26_41 
REMARK   12  A    between atoms: C30_48  and  C31_49 
REMARK   13  A    between atoms: C31_49  and  C32_50 
ROOT
HETATM    1  N1  UNL     1      -4.149 -17.335  53.181  1.00  0.00    -0.222 N 
ATOM      2  H1  UNL     1      -3.442 -16.934  53.797  1.00  0.00     0.178 HD
HETATM    3  C10 UNL     1      -4.191 -16.847  51.974  1.00  0.00     0.677 C 
HETATM    4  N2  UNL     1      -5.172 -17.396  51.112  1.00  0.00    -0.158 N 
ATOM      5  H2  UNL     1      -5.275 -18.410  51.145  1.00  0.00     0.187 HD
HETATM    6  C11 UNL     1      -6.024 -16.719  50.214  1.00  0.00     0.258 C 
HETATM    7  O1  UNL     1      -6.371 -17.425  49.180  1.00  0.00    -0.270 OA
HETATM    8  C12 UNL     1      -6.595 -15.382  50.220  1.00  0.00     0.173 C 
HETATM    9  C13 UNL     1      -6.831 -14.768  51.585  1.00  0.00     0.042 C 
HETATM   10  N3  UNL     1      -5.876 -14.383  49.463  1.00  0.00    -0.343 N 
ATOM     11  H3  UNL     1      -4.938 -14.179  49.809  1.00  0.00     0.163 HD
HETATM   12  C14 UNL     1      -6.250 -13.656  48.344  1.00  0.00     0.264 C 
HETATM   13  O2  UNL     1      -6.223 -12.363  48.463  1.00  0.00    -0.266 OA
HETATM   14  C15 UNL     1      -6.677 -14.103  47.020  1.00  0.00     0.076 C 
HETATM   15  C16 UNL     1      -7.953 -13.410  46.539  1.00  0.00     0.074 C 
HETATM   16  N4  UNL     1      -6.142 -14.931  46.261  1.00  0.00    -0.324 N 
ATOM     17  H4  UNL     1      -6.727 -14.981  45.427  1.00  0.00     0.169 HD
HETATM   18  C17 UNL     1      -5.129 -15.784  46.070  1.00  0.00     0.244 C 
HETATM   19  O3  UNL     1      -5.362 -17.043  45.958  1.00  0.00    -0.271 OA
HETATM   20  C18 UNL     1      -3.625 -15.524  45.950  1.00  0.00     0.176 C 
HETATM   21  N5  UNL     1      -3.135 -15.883  47.264  1.00  0.00    -0.359 N 
ATOM     22  H5  UNL     1      -3.301 -15.148  47.951  1.00  0.00     0.162 HD
HETATM   23  C23 UNL     1      -2.500 -16.975  47.813  1.00  0.00     0.135 C 
HETATM   24  C24 UNL     1      -1.072 -17.340  47.975  1.00  0.00     0.159 C 
HETATM   25  N6  UNL     1      -0.751 -17.437  49.417  1.00  0.00    -0.347 N 
ATOM     26  H6  UNL     1       0.159 -17.843  49.630  1.00  0.00     0.163 HD
HETATM   27  C29 UNL     1      -1.496 -17.063  50.516  1.00  0.00     0.242 C 
HETATM   28  O5  UNL     1      -1.762 -18.010  51.362  1.00  0.00    -0.271 OA
HETATM   29  C30 UNL     1      -2.059 -15.769  50.925  1.00  0.00     0.197 C 
HETATM   30  N9  UNL     1      -3.245 -15.832  51.730  1.00  0.00    -0.213 N 
ATOM     31  H9  UNL     1      -3.445 -14.964  52.227  1.00  0.00     0.178 HD
ENDROOT
BRANCH   1  32
HETATM   32  C6  UNL     1      -4.968 -18.362  53.754  1.00  0.00     0.099 C 
BRANCH  32  33
HETATM   33  C5  UNL     1      -5.151 -18.057  55.219  1.00  0.00     0.030 C 
BRANCH  33  34
HETATM   34  C4  UNL     1      -6.153 -18.867  55.943  1.00  0.00     0.035 C 
BRANCH  34  35
HETATM   35  C2  UNL     1      -5.562 -19.843  56.869  1.00  0.00    -0.093 C 
HETATM   36  C1  UNL     1      -4.886 -19.517  57.941  1.00  0.00     0.014 C 
HETATM   37  C3  UNL     1      -5.800 -21.306  56.551  1.00  0.00     0.042 C 
ENDBRANCH  34  35
ENDBRANCH  33  34
ENDBRANCH  32  33
BRANCH  32  38
HETATM   38  C7  UNL     1      -4.080 -19.635  53.666  1.00  0.00     0.025 C 
BRANCH  38  39
HETATM   39  C8  UNL     1      -2.760 -19.401  54.391  1.00  0.00    -0.002 C 
HETATM   40  C9  UNL     1      -2.438 -20.721  55.075  1.00  0.00     0.005 C 
ENDBRANCH  38  39
ENDBRANCH  32  38
ENDBRANCH   1  32
BRANCH  29  41
HETATM   41  C31 UNL     1      -1.053 -14.954  51.752  1.00  0.00     0.093 C 
BRANCH  41  42
HETATM   42  C32 UNL     1      -0.375 -13.882  51.030  1.00  0.00     0.028 A 
HETATM   43  C33 UNL     1      -0.613 -13.562  49.686  1.00  0.00     0.114 A 
HETATM   44  N7  UNL     1       0.142 -12.509  49.339  1.00  0.00    -0.360 N 
HETATM   45  C34 UNL     1       0.851 -12.151  50.420  1.00  0.00     0.180 A 
ATOM     46  H7  UNL     1       0.171 -12.062  48.423  1.00  0.00     0.166 HD
HETATM   47  N8  UNL     1       0.535 -12.981  51.429  1.00  0.00    -0.354 N 
ATOM     48  H8  UNL     1       0.931 -12.932  52.367  1.00  0.00     0.166 HD
ENDBRANCH  41  42
ENDBRANCH  29  41
BRANCH  24  49
HETATM   49  C25 UNL     1      -0.098 -16.500  47.236  1.00  0.00     0.037 C 
BRANCH  49  50
HETATM   50  C26 UNL     1      -0.144 -16.823  45.758  1.00  0.00    -0.020 C 
HETATM   51  C27 UNL     1       1.059 -16.115  45.124  1.00  0.00     0.009 C 
HETATM   52  C28 UNL     1       0.079 -18.335  45.632  1.00  0.00     0.009 C 
ENDBRANCH  49  50
ENDBRANCH  24  49
BRANCH  23  53
HETATM   53  O4  UNL     1      -3.193 -17.964  48.337  1.00  0.00    -0.348 OA
ATOM     54  H4  UNL     1      -3.118 -18.174  49.261  1.00  0.00     0.219 HD
ENDBRANCH  23  53
BRANCH  20  55
HETATM   55  C19 UNL     1      -3.418 -14.076  45.597  1.00  0.00     0.038 C 
BRANCH  55  56
HETATM   56  C20 UNL     1      -2.552 -13.300  46.544  1.00  0.00    -0.020 C 
HETATM   57  C21 UNL     1      -1.187 -13.079  45.903  1.00  0.00     0.009 C 
HETATM   58  C22 UNL     1      -3.169 -11.901  46.665  1.00  0.00     0.009 C 
ENDBRANCH  55  56
ENDBRANCH  20  55
TORSDOF 13
ENDMDL
MODEL 3
REMARK VINA RESULT: -6.779893132      1.585      2.554
REMARK  13 active torsions:
REMARK  status: ('A' for Active; 'I' for Inactive)
REMARK    1  A    between atoms: C2_2  and  C4_4 
REMARK    2  A    between atoms: C4_4  and  C5_5 
REMARK    3  A    between atoms: C5_5  and  C6_6 
REMARK    4  A    between atoms: C6_6  and  C7_7 
REMARK    5  A    between atoms: C6_6  and  N1_10 
REMARK    6  A    between atoms: C7_7  and  C8_8 
REMARK    7  A    between atoms: C18_29  and  C19_30 
REMARK    8  A    between atoms: C19_30  and  C20_31 
REMARK    9  A    between atoms: C23_36  and  O4_37 
REMARK   10  A    between atoms: C24_39  and  C25_40 
REMARK   11  A    between atoms: C25_40  and  C26_41 
REMARK   12  A    between atoms: C30_48  and  C31_49 
REMARK   13  A    between atoms: C31_49  and  C32_50 
ROOT
HETATM    1  N1  UNL     1      -4.509 -17.281  52.826  1.00  0.00    -0.222 N 
ATOM      2  H1  UNL     1      -3.699 -17.082  53.414  1.00  0.00     0.178 HD
HETATM    3  C10 UNL     1      -4.441 -16.845  51.601  1.00  0.00     0.677 C 
HETATM    4  N2  UNL     1      -5.563 -17.114  50.780  1.00  0.00    -0.158 N 
ATOM      5  H2  UNL     1      -5.956 -18.052  50.857  1.00  0.00     0.187 HD
HETATM    6  C11 UNL     1      -6.207 -16.250  49.868  1.00  0.00     0.258 C 
HETATM    7  O1  UNL     1      -6.773 -16.860  48.871  1.00  0.00    -0.270 OA
HETATM    8  C12 UNL     1      -6.363 -14.805  49.828  1.00  0.00     0.173 C 
HETATM    9  C13 UNL     1      -6.372 -14.102  51.169  1.00  0.00     0.042 C 
HETATM   10  N3  UNL     1      -5.406 -14.087  49.018  1.00  0.00    -0.343 N 
ATOM     11  H3  UNL     1      -4.440 -14.154  49.339  1.00  0.00     0.163 HD
HETATM   12  C14 UNL     1      -5.584 -13.323  47.875  1.00  0.00     0.264 C 
HETATM   13  O2  UNL     1      -5.179 -12.090  47.940  1.00  0.00    -0.266 OA
HETATM   14  C15 UNL     1      -6.160 -13.671  46.578  1.00  0.00     0.076 C 
HETATM   15  C16 UNL     1      -7.193 -12.653  46.090  1.00  0.00     0.074 C 
HETATM   16  N4  UNL     1      -5.911 -14.646  45.847  1.00  0.00    -0.324 N 
ATOM     17  H4  UNL     1      -6.509 -14.553  45.025  1.00  0.00     0.169 HD
HETATM   18  C17 UNL     1      -5.196 -15.764  45.675  1.00  0.00     0.244 C 
HETATM   19  O3  UNL     1      -5.788 -16.904  45.619  1.00  0.00    -0.271 OA
HETATM   20  C18 UNL     1      -3.686 -15.958  45.519  1.00  0.00     0.176 C 
HETATM   21  N5  UNL     1      -3.284 -16.399  46.838  1.00  0.00    -0.359 N 
ATOM     22  H5  UNL     1      -3.209 -15.623  47.496  1.00  0.00     0.162 HD
HETATM   23  C23 UNL     1      -2.979 -17.608  47.422  1.00  0.00     0.135 C 
HETATM   24  C24 UNL     1      -1.715 -18.368  47.575  1.00  0.00     0.159 C 
HETATM   25  N6  UNL     1      -1.396 -18.503  49.014  1.00  0.00    -0.347 N 
ATOM     26  H6  UNL     1      -0.637 -19.150  49.229  1.00  0.00     0.163 HD
HETATM   27  C29 UNL     1      -1.968 -17.890  50.109  1.00  0.00     0.242 C 
HETATM   28  O5  UNL     1      -2.474 -18.687  50.998  1.00  0.00    -0.271 OA
HETATM   29  C30 UNL     1      -2.119 -16.474  50.473  1.00  0.00     0.197 C 
HETATM   30  N9  UNL     1      -3.248 -16.159  51.299  1.00  0.00    -0.213 N 
ATOM     31  H9  UNL     1      -3.173 -15.254  51.763  1.00  0.00     0.178 HD
ENDROOT
BRANCH   1  32
HETATM   32  C6  UNL     1      -5.575 -18.004  53.456  1.00  0.00     0.099 C 
BRANCH  32  33
HETATM   33  C5  UNL     1      -5.257 -18.130  54.924  1.00  0.00     0.030 C 
BRANCH  33  34
HETATM   34  C4  UNL     1      -6.261 -18.817  55.763  1.00  0.00     0.035 C 
BRANCH  34  35
HETATM   35  C2  UNL     1      -5.705 -19.916  56.564  1.00  0.00    -0.093 C 
HETATM   36  C1  UNL     1      -5.453 -21.110  56.091  1.00  0.00     0.014 C 
HETATM   37  C3  UNL     1      -5.382 -19.601  58.012  1.00  0.00     0.042 C 
ENDBRANCH  34  35
ENDBRANCH  33  34
ENDBRANCH  32  33
BRANCH  32  38
HETATM   38  C7  UNL     1      -5.465 -19.430  52.848  1.00  0.00     0.025 C 
BRANCH  38  39
HETATM   39  C8  UNL     1      -6.854 -19.978  52.548  1.00  0.00    -0.002 C 
HETATM   40  C9  UNL     1      -7.768 -18.763  52.519  1.00  0.00     0.005 C 
ENDBRANCH  38  39
ENDBRANCH  32  38
ENDBRANCH   1  32
BRANCH  29  41
HETATM   41  C31 UNL     1      -0.896 -15.960  51.248  1.00  0.00     0.093 C 
BRANCH  41  42
HETATM   42  C32 UNL     1      -0.876 -16.286  52.670  1.00  0.00     0.028 A 
HETATM   43  C33 UNL     1      -0.776 -15.337  53.697  1.00  0.00     0.114 A 
HETATM   44  N7  UNL     1      -0.823 -15.959  54.885  1.00  0.00    -0.360 N 
HETATM   45  C34 UNL     1      -0.949 -17.272  54.644  1.00  0.00     0.180 A 
ATOM     46  H7  UNL     1      -0.773 -15.515  55.802  1.00  0.00     0.166 HD
HETATM   47  N8  UNL     1      -0.979 -17.459  53.313  1.00  0.00    -0.354 N 
ATOM     48  H8  UNL     1      -1.068 -18.366  52.856  1.00  0.00     0.166 HD
ENDBRANCH  41  42
ENDBRANCH  29  41
BRANCH  24  49
HETATM   49  C25 UNL     1      -0.560 -17.876  46.785  1.00  0.00     0.037 C 
BRANCH  49  50
HETATM   50  C26 UNL     1      -0.370 -18.728  45.549  1.00  0.00    -0.020 C 
HETATM   51  C27 UNL     1       0.986 -18.331  44.955  1.00  0.00     0.009 C 
HETATM   52  C28 UNL     1      -0.266 -20.181  46.030  1.00  0.00     0.009 C 
ENDBRANCH  49  50
ENDBRANCH  24  49
BRANCH  23  53
HETATM   53  O4  UNL     1      -3.914 -18.332  47.998  1.00  0.00    -0.348 OA
ATOM     54  H4  UNL     1      -4.832 -18.190  47.797  1.00  0.00     0.219 HD
ENDBRANCH  23  53
BRANCH  20  55
HETATM   55  C19 UNL     1      -3.076 -14.647  45.102  1.00  0.00     0.038 C 
BRANCH  55  56
HETATM   56  C20 UNL     1      -2.067 -14.075  46.053  1.00  0.00    -0.020 C 
HETATM   57  C21 UNL     1      -0.668 -14.314  45.497  1.00  0.00     0.009 C 
HETATM   58  C22 UNL     1      -2.252 -12.553  46.032  1.00  0.00     0.009 C 
ENDBRANCH  55  56
ENDBRANCH  20  55
TORSDOF 13
ENDMDL
MODEL 4
REMARK VINA RESULT: -6.768544340      1.079      2.007
REMARK  13 active torsions:
REMARK  status: ('A' for Active; 'I' for Inactive)
REMARK    1  A    between atoms: C2_2  and  C4_4 
REMARK    2  A    between atoms: C4_4  and  C5_5 
REMARK    3  A    between atoms: C5_5  and  C6_6 
REMARK    4  A    between atoms: C6_6  and  C7_7 
REMARK    5  A    between atoms: C6_6  and  N1_10 
REMARK    6  A    between atoms: C7_7  and  C8_8 
REMARK    7  A    between atoms: C18_29  and  C19_30 
REMARK    8  A    between atoms: C19_30  and  C20_31 
REMARK    9  A    between atoms: C23_36  and  O4_37 
REMARK   10  A    between atoms: C24_39  and  C25_40 
REMARK   11  A    between atoms: C25_40  and  C26_41 
REMARK   12  A    between atoms: C30_48  and  C31_49 
REMARK   13  A    between atoms: C31_49  and  C32_50 
ROOT
HETATM    1  N1  UNL     1      -4.300 -17.373  53.160  1.00  0.00    -0.222 N 
ATOM      2  H1  UNL     1      -3.552 -17.026  53.760  1.00  0.00     0.178 HD
HETATM    3  C10 UNL     1      -4.307 -16.914  51.941  1.00  0.00     0.677 C 
HETATM    4  N2  UNL     1      -5.345 -17.389  51.102  1.00  0.00    -0.158 N 
ATOM      5  H2  UNL     1      -5.543 -18.388  51.162  1.00  0.00     0.187 HD
HETATM    6  C11 UNL     1      -6.139 -16.658  50.193  1.00  0.00     0.258 C 
HETATM    7  O1  UNL     1      -6.561 -17.354  49.180  1.00  0.00    -0.270 OA
HETATM    8  C12 UNL     1      -6.579 -15.273  50.168  1.00  0.00     0.173 C 
HETATM    9  C13 UNL     1      -6.742 -14.605  51.518  1.00  0.00     0.042 C 
HETATM   10  N3  UNL     1      -5.777 -14.367  49.380  1.00  0.00    -0.343 N 
ATOM     11  H3  UNL     1      -4.820 -14.244  49.713  1.00  0.00     0.163 HD
HETATM   12  C14 UNL     1      -6.092 -13.637  48.244  1.00  0.00     0.264 C 
HETATM   13  O2  UNL     1      -5.942 -12.349  48.329  1.00  0.00    -0.266 OA
HETATM   14  C15 UNL     1      -6.573 -14.074  46.936  1.00  0.00     0.076 C 
HETATM   15  C16 UNL     1      -7.783 -13.275  46.447  1.00  0.00     0.074 C 
HETATM   16  N4  UNL     1      -6.127 -14.968  46.195  1.00  0.00    -0.324 N 
ATOM     17  H4  UNL     1      -6.723 -14.984  45.367  1.00  0.00     0.169 HD
HETATM   18  C17 UNL     1      -5.201 -15.918  46.019  1.00  0.00     0.244 C 
HETATM   19  O3  UNL     1      -5.553 -17.152  45.941  1.00  0.00    -0.271 OA
HETATM   20  C18 UNL     1      -3.681 -15.805  45.880  1.00  0.00     0.176 C 
HETATM   21  N5  UNL     1      -3.213 -16.176  47.200  1.00  0.00    -0.359 N 
ATOM     22  H5  UNL     1      -3.302 -15.411  47.868  1.00  0.00     0.162 HD
HETATM   23  C23 UNL     1      -2.679 -17.309  47.772  1.00  0.00     0.135 C 
HETATM   24  C24 UNL     1      -1.291 -17.804  47.932  1.00  0.00     0.159 C 
HETATM   25  N6  UNL     1      -0.966 -17.894  49.374  1.00  0.00    -0.347 N 
ATOM     26  H6  UNL     1      -0.096 -18.380  49.591  1.00  0.00     0.163 HD
HETATM   27  C29 UNL     1      -1.660 -17.423  50.468  1.00  0.00     0.242 C 
HETATM   28  O5  UNL     1      -2.006 -18.319  51.341  1.00  0.00    -0.271 OA
HETATM   29  C30 UNL     1      -2.094 -16.072  50.848  1.00  0.00     0.197 C 
HETATM   30  N9  UNL     1      -3.273 -16.000  51.663  1.00  0.00    -0.213 N 
ATOM     31  H9  UNL     1      -3.384 -15.105  52.139  1.00  0.00     0.178 HD
ENDROOT
BRANCH   1  32
HETATM   32  C6  UNL     1      -5.206 -18.303  53.766  1.00  0.00     0.099 C 
BRANCH  32  33
HETATM   33  C5  UNL     1      -5.208 -18.059  55.254  1.00  0.00     0.030 C 
BRANCH  33  34
HETATM   34  C4  UNL     1      -4.017 -17.387  55.816  1.00  0.00     0.035 C 
BRANCH  34  35
HETATM   35  C2  UNL     1      -3.115 -18.295  56.537  1.00  0.00    -0.093 C 
HETATM   36  C1  UNL     1      -3.405 -18.852  57.686  1.00  0.00     0.014 C 
HETATM   37  C3  UNL     1      -1.794 -18.614  55.864  1.00  0.00     0.042 C 
ENDBRANCH  34  35
ENDBRANCH  33  34
ENDBRANCH  32  33
BRANCH  32  38
HETATM   38  C7  UNL     1      -4.529 -19.683  53.538  1.00  0.00     0.025 C 
BRANCH  38  39
HETATM   39  C8  UNL     1      -5.173 -20.736  54.430  1.00  0.00    -0.002 C 
HETATM   40  C9  UNL     1      -4.016 -21.526  55.020  1.00  0.00     0.005 C 
ENDBRANCH  38  39
ENDBRANCH  32  38
ENDBRANCH   1  32
BRANCH  29  41
HETATM   41  C31 UNL     1      -1.007 -15.335  51.645  1.00  0.00     0.093 C 
BRANCH  41  42
HETATM   42  C32 UNL     1      -0.430 -14.169  50.984  1.00  0.00     0.028 A 
HETATM   43  C33 UNL     1       0.353 -13.201  51.630  1.00  0.00     0.114 A 
HETATM   44  N7  UNL     1       0.757 -12.286  50.736  1.00  0.00    -0.360 N 
HETATM   45  C34 UNL     1       0.254 -12.641  49.545  1.00  0.00     0.180 A 
ATOM     46  H7  UNL     1       1.339 -11.471  50.928  1.00  0.00     0.166 HD
HETATM   47  N8  UNL     1      -0.456 -13.771  49.703  1.00  0.00    -0.354 N 
ATOM     48  H8  UNL     1      -0.947 -14.259  48.954  1.00  0.00     0.166 HD
ENDBRANCH  41  42
ENDBRANCH  29  41
BRANCH  24  49
HETATM   49  C25 UNL     1      -0.249 -17.079  47.164  1.00  0.00     0.037 C 
BRANCH  49  50
HETATM   50  C26 UNL     1      -0.274 -17.510  45.714  1.00  0.00    -0.020 C 
HETATM   51  C27 UNL     1       1.001 -16.950  45.074  1.00  0.00     0.009 C 
HETATM   52  C28 UNL     1      -0.170 -19.041  45.708  1.00  0.00     0.009 C 
ENDBRANCH  49  50
ENDBRANCH  24  49
BRANCH  23  53
HETATM   53  O4  UNL     1      -3.457 -18.214  48.327  1.00  0.00    -0.348 OA
ATOM     54  H4  UNL     1      -3.656 -18.180  49.256  1.00  0.00     0.219 HD
ENDBRANCH  23  53
BRANCH  20  55
HETATM   55  C19 UNL     1      -3.341 -14.393  45.488  1.00  0.00     0.038 C 
BRANCH  55  56
HETATM   56  C20 UNL     1      -2.467 -13.650  46.453  1.00  0.00    -0.020 C 
HETATM   57  C21 UNL     1      -1.052 -13.577  45.890  1.00  0.00     0.009 C 
HETATM   58  C22 UNL     1      -2.964 -12.198  46.475  1.00  0.00     0.009 C 
ENDBRANCH  55  56
ENDBRANCH  20  55
TORSDOF 13
ENDMDL
MODEL 5
REMARK VINA RESULT: -6.693742952      1.371      1.788
REMARK  13 active torsions:
REMARK  status: ('A' for Active; 'I' for Inactive)
REMARK    1  A    between atoms: C2_2  and  C4_4 
REMARK    2  A    between atoms: C4_4  and  C5_5 
REMARK    3  A    between atoms: C5_5  and  C6_6 
REMARK    4  A    between atoms: C6_6  and  C7_7 
REMARK    5  A    between atoms: C6_6  and  N1_10 
REMARK    6  A    between atoms: C7_7  and  C8_8 
REMARK    7  A    between atoms: C18_29  and  C19_30 
REMARK    8  A    between atoms: C19_30  and  C20_31 
REMARK    9  A    between atoms: C23_36  and  O4_37 
REMARK   10  A    between atoms: C24_39  and  C25_40 
REMARK   11  A    between atoms: C25_40  and  C26_41 
REMARK   12  A    between atoms: C30_48  and  C31_49 
REMARK   13  A    between atoms: C31_49  and  C32_50 
ROOT
HETATM    1  N1  UNL     1      -4.287 -17.664  52.704  1.00  0.00    -0.222 N 
ATOM      2  H1  UNL     1      -3.521 -17.421  53.332  1.00  0.00     0.178 HD
HETATM    3  C10 UNL     1      -4.249 -17.115  51.524  1.00  0.00     0.677 C 
HETATM    4  N2  UNL     1      -5.311 -17.445  50.647  1.00  0.00    -0.158 N 
ATOM      5  H2  UNL     1      -5.585 -18.428  50.630  1.00  0.00     0.187 HD
HETATM    6  C11 UNL     1      -6.039 -16.589  49.794  1.00  0.00     0.258 C 
HETATM    7  O1  UNL     1      -6.504 -17.172  48.730  1.00  0.00    -0.270 OA
HETATM    8  C12 UNL     1      -6.374 -15.176  49.873  1.00  0.00     0.173 C 
HETATM    9  C13 UNL     1      -6.499 -14.603  51.269  1.00  0.00     0.042 C 
HETATM   10  N3  UNL     1      -5.498 -14.277  49.159  1.00  0.00    -0.343 N 
ATOM     11  H3  UNL     1      -4.538 -14.253  49.504  1.00  0.00     0.163 HD
HETATM   12  C14 UNL     1      -5.747 -13.441  48.082  1.00  0.00     0.264 C 
HETATM   13  O2  UNL     1      -5.501 -12.178  48.266  1.00  0.00    -0.266 OA
HETATM   14  C15 UNL     1      -6.248 -13.740  46.742  1.00  0.00     0.076 C 
HETATM   15  C16 UNL     1      -7.389 -12.817  46.311  1.00  0.00     0.074 C 
HETATM   16  N4  UNL     1      -5.863 -14.606  45.937  1.00  0.00    -0.324 N 
ATOM     17  H4  UNL     1      -6.450 -14.514  45.108  1.00  0.00     0.169 HD
HETATM   18  C17 UNL     1      -5.010 -15.608  45.692  1.00  0.00     0.244 C 
HETATM   19  O3  UNL     1      -5.453 -16.802  45.519  1.00  0.00    -0.271 OA
HETATM   20  C18 UNL     1      -3.484 -15.600  45.568  1.00  0.00     0.176 C 
HETATM   21  N5  UNL     1      -3.058 -16.104  46.857  1.00  0.00    -0.359 N 
ATOM     22  H5  UNL     1      -3.095 -15.388  47.581  1.00  0.00     0.162 HD
HETATM   23  C23 UNL     1      -2.616 -17.315  47.343  1.00  0.00     0.135 C 
HETATM   24  C24 UNL     1      -1.270 -17.924  47.470  1.00  0.00     0.159 C 
HETATM   25  N6  UNL     1      -0.967 -18.147  48.901  1.00  0.00    -0.347 N 
ATOM     26  H6  UNL     1      -0.138 -18.712  49.084  1.00  0.00     0.163 HD
HETATM   27  C29 UNL     1      -1.634 -17.710  50.026  1.00  0.00     0.242 C 
HETATM   28  O5  UNL     1      -2.054 -18.640  50.827  1.00  0.00    -0.271 OA
HETATM   29  C30 UNL     1      -1.968 -16.362  50.506  1.00  0.00     0.197 C 
HETATM   30  N9  UNL     1      -3.146 -16.264  51.320  1.00  0.00    -0.213 N 
ATOM     31  H9  UNL     1      -3.194 -15.401  51.863  1.00  0.00     0.178 HD
ENDROOT
BRANCH   1  32
HETATM   32  C6  UNL     1      -5.267 -18.566  53.235  1.00  0.00     0.099 C 
BRANCH  32  33
HETATM   33  C5  UNL     1      -6.138 -17.802  54.200  1.00  0.00     0.030 C 
BRANCH  33  34
HETATM   34  C4  UNL     1      -7.592 -18.054  54.120  1.00  0.00     0.035 C 
BRANCH  34  35
HETATM   35  C2  UNL     1      -8.076 -18.276  52.751  1.00  0.00    -0.093 C 
HETATM   36  C1  UNL     1      -8.693 -17.368  52.038  1.00  0.00     0.014 C 
HETATM   37  C3  UNL     1      -7.795 -19.638  52.146  1.00  0.00     0.042 C 
ENDBRANCH  34  35
ENDBRANCH  33  34
ENDBRANCH  32  33
BRANCH  32  38
HETATM   38  C7  UNL     1      -4.429 -19.567  54.079  1.00  0.00     0.025 C 
BRANCH  38  39
HETATM   39  C8  UNL     1      -4.930 -19.583  55.518  1.00  0.00    -0.002 C 
HETATM   40  C9  UNL     1      -5.436 -20.999  55.751  1.00  0.00     0.005 C 
ENDBRANCH  38  39
ENDBRANCH  32  38
ENDBRANCH   1  32
BRANCH  29  41
HETATM   41  C31 UNL     1      -0.836 -15.772  51.361  1.00  0.00     0.093 C 
BRANCH  41  42
HETATM   42  C32 UNL     1      -0.806 -16.219  52.751  1.00  0.00     0.028 A 
HETATM   43  C33 UNL     1      -0.751 -15.358  53.856  1.00  0.00     0.114 A 
HETATM   44  N7  UNL     1      -0.773 -16.082  54.985  1.00  0.00    -0.360 N 
HETATM   45  C34 UNL     1      -0.840 -17.373  54.631  1.00  0.00     0.180 A 
ATOM     46  H7  UNL     1      -0.745 -15.717  55.937  1.00  0.00     0.166 HD
HETATM   47  N8  UNL     1      -0.859 -17.446  53.289  1.00  0.00    -0.354 N 
ATOM     48  H8  UNL     1      -0.907 -18.313  52.755  1.00  0.00     0.166 HD
ENDBRANCH  41  42
ENDBRANCH  29  41
BRANCH  24  49
HETATM   49  C25 UNL     1      -0.170 -17.224  46.762  1.00  0.00     0.037 C 
BRANCH  49  50
HETATM   50  C26 UNL     1      -0.004 -17.785  45.367  1.00  0.00    -0.020 C 
HETATM   51  C27 UNL     1       1.443 -17.495  44.953  1.00  0.00     0.009 C 
HETATM   52  C28 UNL     1      -0.164 -19.307  45.484  1.00  0.00     0.009 C 
ENDBRANCH  49  50
ENDBRANCH  24  49
BRANCH  23  53
HETATM   53  O4  UNL     1      -3.465 -18.197  47.824  1.00  0.00    -0.348 OA
ATOM     54  H4  UNL     1      -3.644 -18.241  48.757  1.00  0.00     0.219 HD
ENDBRANCH  23  53
BRANCH  20  55
HETATM   55  C19 UNL     1      -3.035 -14.192  45.285  1.00  0.00     0.038 C 
BRANCH  55  56
HETATM   56  C20 UNL     1      -2.279 -13.523  46.394  1.00  0.00    -0.020 C 
HETATM   57  C21 UNL     1      -0.786 -13.599  46.095  1.00  0.00     0.009 C 
HETATM   58  C22 UNL     1      -2.625 -12.030  46.329  1.00  0.00     0.009 C 
ENDBRANCH  55  56
ENDBRANCH  20  55
TORSDOF 13
ENDMDL
