MODEL 1
REMARK VINA RESULT: -6.934740065      0.000      0.000
REMARK  2 active torsions:
REMARK  status: ('A' for Active; 'I' for Inactive)
REMARK    1  A    between atoms: O1_1  and  C1_3 
REMARK    2  A    between atoms: C6_10  and  C7_11 
ROOT
HETATM    1  C1  UNL     1      33.372  49.528   8.527  1.00  0.00     0.161 C 
HETATM    2  C2  UNL     1      34.876  49.659   8.421  1.00  0.00     0.098 C 
HETATM    3  C3  UNL     1      35.417  48.261   8.622  1.00  0.00     0.362 C 
HETATM    4  O2  UNL     1      36.561  48.342   9.400  1.00  0.00    -0.355 OA
HETATM    5  C4  UNL     1      36.144  48.638  10.682  1.00  0.00     0.201 C 
HETATM    6  C5  UNL     1      34.640  48.415  10.722  1.00  0.00     0.303 C 
HETATM    7  N1  UNL     1      34.398  47.674   9.509  1.00  0.00     0.131 N 
HETATM    8  C6  UNL     1      33.191  48.077   8.823  1.00  0.00     0.294 C 
ENDROOT
BRANCH   8   9
HETATM    9  C7  UNL     1      31.990  47.833   9.684  1.00  0.00     0.018 A 
HETATM   10  C8  UNL     1      30.693  48.135   9.386  1.00  0.00     0.017 A 
HETATM   11  C9  UNL     1      29.760  47.830  10.306  1.00  0.00     0.008 A 
HETATM   12  C10 UNL     1      30.183  47.244  11.464  1.00  0.00     0.050 A 
HETATM   13  S1  UNL     1      31.870  47.135  11.237  1.00  0.00    -0.104 SA
ENDBRANCH   8   9
BRANCH   1  14
HETATM   14  O1  UNL     1      32.821  49.774   7.261  1.00  0.00    -0.393 OA
ATOM     15  H1  UNL     1      32.003  50.243   7.379  1.00  0.00     0.210 HD
ENDBRANCH   1  14
TORSDOF 2
ENDMDL
MODEL 2
REMARK VINA RESULT: -6.865370318      0.826      1.050
REMARK  2 active torsions:
REMARK  status: ('A' for Active; 'I' for Inactive)
REMARK    1  A    between atoms: O1_1  and  C1_3 
REMARK    2  A    between atoms: C6_10  and  C7_11 
ROOT
HETATM    1  C1  UNL     1      33.384  49.511   8.514  1.00  0.00     0.161 C 
HETATM    2  C2  UNL     1      34.885  49.670   8.410  1.00  0.00     0.098 C 
HETATM    3  C3  UNL     1      35.451  48.279   8.584  1.00  0.00     0.362 C 
HETATM    4  O2  UNL     1      36.594  48.365   9.363  1.00  0.00    -0.355 OA
HETATM    5  C4  UNL     1      36.173  48.629  10.650  1.00  0.00     0.201 C 
HETATM    6  C5  UNL     1      34.672  48.378  10.687  1.00  0.00     0.303 C 
HETATM    7  N1  UNL     1      34.444  47.657   9.459  1.00  0.00     0.131 N 
HETATM    8  C6  UNL     1      33.229  48.052   8.781  1.00  0.00     0.294 C 
ENDROOT
BRANCH   8   9
HETATM    9  C7  UNL     1      32.032  47.769   9.638  1.00  0.00     0.018 A 
HETATM   10  C8  UNL     1      32.025  47.178  10.867  1.00  0.00     0.017 A 
HETATM   11  C9  UNL     1      30.834  47.017  11.469  1.00  0.00     0.008 A 
HETATM   12  C10 UNL     1      29.726  47.457  10.805  1.00  0.00     0.050 A 
HETATM   13  S1  UNL     1      30.378  48.082   9.358  1.00  0.00    -0.104 SA
ENDBRANCH   8   9
BRANCH   1  14
HETATM   14  O1  UNL     1      32.827  49.771   7.253  1.00  0.00    -0.393 OA
ATOM     15  H1  UNL     1      31.884  49.684   7.321  1.00  0.00     0.210 HD
ENDBRANCH   1  14
TORSDOF 2
ENDMDL
MODEL 3
REMARK VINA RESULT: -6.843810090      1.759      2.549
REMARK  2 active torsions:
REMARK  status: ('A' for Active; 'I' for Inactive)
REMARK    1  A    between atoms: O1_1  and  C1_3 
REMARK    2  A    between atoms: C6_10  and  C7_11 
ROOT
HETATM    1  C1  UNL     1      33.948  47.652  11.541  1.00  0.00     0.161 C 
HETATM    2  C2  UNL     1      35.203  48.364  11.083  1.00  0.00     0.098 C 
HETATM    3  C3  UNL     1      34.746  49.346  10.028  1.00  0.00     0.362 C 
HETATM    4  O2  UNL     1      35.681  49.356   9.005  1.00  0.00    -0.355 OA
HETATM    5  C4  UNL     1      35.531  48.165   8.324  1.00  0.00     0.201 C 
HETATM    6  C5  UNL     1      34.218  47.551   8.788  1.00  0.00     0.303 C 
HETATM    7  N1  UNL     1      33.577  48.651   9.463  1.00  0.00     0.131 N 
HETATM    8  C6  UNL     1      32.895  48.259  10.677  1.00  0.00     0.294 C 
ENDROOT
BRANCH   8   9
HETATM    9  C7  UNL     1      31.798  47.285  10.373  1.00  0.00     0.018 A 
HETATM   10  C8  UNL     1      31.086  47.187   9.213  1.00  0.00     0.017 A 
HETATM   11  C9  UNL     1      30.138  46.236   9.148  1.00  0.00     0.008 A 
HETATM   12  C10 UNL     1      29.961  45.444  10.245  1.00  0.00     0.050 A 
HETATM   13  S1  UNL     1      31.124  46.048  11.338  1.00  0.00    -0.104 SA
ENDBRANCH   8   9
BRANCH   1  14
HETATM   14  O1  UNL     1      33.684  48.038  12.864  1.00  0.00    -0.393 OA
ATOM     15  H1  UNL     1      34.508  48.274  13.274  1.00  0.00     0.210 HD
ENDBRANCH   1  14
TORSDOF 2
ENDMDL
MODEL 4
REMARK VINA RESULT: -6.816919693      2.150      4.230
REMARK  2 active torsions:
REMARK  status: ('A' for Active; 'I' for Inactive)
REMARK    1  A    between atoms: O1_1  and  C1_3 
REMARK    2  A    between atoms: C6_10  and  C7_11 
ROOT
HETATM    1  C1  UNL     1      35.388  47.880   9.392  1.00  0.00     0.161 C 
HETATM    2  C2  UNL     1      34.299  47.898   8.341  1.00  0.00     0.098 C 
HETATM    3  C3  UNL     1      33.326  48.966   8.788  1.00  0.00     0.362 C 
HETATM    4  O2  UNL     1      32.038  48.514   8.546  1.00  0.00    -0.355 OA
HETATM    5  C4  UNL     1      31.784  47.533   9.482  1.00  0.00     0.201 C 
HETATM    6  C5  UNL     1      32.879  47.628  10.534  1.00  0.00     0.303 C 
HETATM    7  N1  UNL     1      33.476  48.910  10.252  1.00  0.00     0.131 N 
HETATM    8  C6  UNL     1      34.918  48.907  10.367  1.00  0.00     0.294 C 
ENDROOT
BRANCH   8   9
HETATM    9  C7  UNL     1      35.334  48.573  11.767  1.00  0.00     0.018 A 
HETATM   10  C8  UNL     1      34.935  49.199  12.912  1.00  0.00     0.017 A 
HETATM   11  C9  UNL     1      35.432  48.739  14.073  1.00  0.00     0.008 A 
HETATM   12  C10 UNL     1      36.295  47.683  14.017  1.00  0.00     0.050 A 
HETATM   13  S1  UNL     1      36.390  47.363  12.344  1.00  0.00    -0.104 SA
ENDBRANCH   8   9
BRANCH   1  14
HETATM   14  O1  UNL     1      36.569  48.361   8.807  1.00  0.00    -0.393 OA
ATOM     15  H1  UNL     1      36.499  49.306   8.733  1.00  0.00     0.210 HD
ENDBRANCH   1  14
TORSDOF 2
ENDMDL
MODEL 5
REMARK VINA RESULT: -6.805879692      2.018      4.327
REMARK  2 active torsions:
REMARK  status: ('A' for Active; 'I' for Inactive)
REMARK    1  A    between atoms: O1_1  and  C1_3 
REMARK    2  A    between atoms: C6_10  and  C7_11 
ROOT
HETATM    1  C1  UNL     1      35.522  47.909   9.396  1.00  0.00     0.161 C 
HETATM    2  C2  UNL     1      34.432  47.991   8.347  1.00  0.00     0.098 C 
HETATM    3  C3  UNL     1      33.475  49.051   8.844  1.00  0.00     0.362 C 
HETATM    4  O2  UNL     1      32.181  48.630   8.582  1.00  0.00    -0.355 OA
HETATM    5  C4  UNL     1      31.912  47.611   9.474  1.00  0.00     0.201 C 
HETATM    6  C5  UNL     1      33.009  47.642  10.528  1.00  0.00     0.303 C 
HETATM    7  N1  UNL     1      33.625  48.927  10.303  1.00  0.00     0.131 N 
HETATM    8  C6  UNL     1      35.067  48.898  10.416  1.00  0.00     0.294 C 
ENDROOT
BRANCH   8   9
HETATM    9  C7  UNL     1      35.478  48.495  11.799  1.00  0.00     0.018 A 
HETATM   10  C8  UNL     1      36.405  47.552  12.137  1.00  0.00     0.017 A 
HETATM   11  C9  UNL     1      36.625  47.343  13.447  1.00  0.00     0.008 A 
HETATM   12  C10 UNL     1      35.906  48.089  14.335  1.00  0.00     0.050 A 
HETATM   13  S1  UNL     1      34.942  49.062  13.318  1.00  0.00    -0.104 SA
ENDBRANCH   8   9
BRANCH   1  14
HETATM   14  O1  UNL     1      36.709  48.399   8.832  1.00  0.00    -0.393 OA
ATOM     15  H1  UNL     1      37.369  47.719   8.893  1.00  0.00     0.210 HD
ENDBRANCH   1  14
TORSDOF 2
ENDMDL
