MODEL 1
REMARK VINA RESULT: -6.868932430      0.000      0.000
REMARK  1 active torsions:
REMARK  status: ('A' for Active; 'I' for Inactive)
REMARK    1  A    between atoms: C1_2  and  C2_4 
ROOT
HETATM    1  C2  UNL     1      27.982  45.629  11.053  1.00  0.00     0.157 C 
HETATM    2  C3  UNL     1      29.098  44.629  10.904  1.00  0.00     0.100 C 
HETATM    3  S1  UNL     1      30.700  45.341  11.425  1.00  0.00    -0.154 SA
HETATM    4  C4  UNL     1      30.917  46.875  10.494  1.00  0.00     0.040 C 
HETATM    5  C5  UNL     1      32.329  47.441  10.677  1.00  0.00     0.049 C 
HETATM    6  C6  UNL     1      32.377  48.298   9.407  1.00  0.00     0.169 C 
HETATM    7  O3  UNL     1      31.806  47.518   8.435  1.00  0.00    -0.389 OA
HETATM    8  C7  UNL     1      30.928  46.640   9.003  1.00  0.00     0.189 C 
HETATM    9  C8  UNL     1      29.906  47.907  10.913  1.00  0.00     0.097 C 
HETATM   10  S2  UNL     1      28.538  47.161  11.836  1.00  0.00    -0.151 SA
ENDROOT
BRANCH   1  11
HETATM   11  C1  UNL     1      26.924  45.015  11.872  1.00  0.00     0.188 C 
HETATM   12  O1  UNL     1      27.145  44.719  13.094  1.00  0.00    -0.647 OA
HETATM   13  O2  UNL     1      25.675  44.740  11.363  1.00  0.00    -0.647 OA
ENDBRANCH   1  11
TORSDOF 1
ENDMDL
MODEL 2
REMARK VINA RESULT: -5.884644391      1.621      5.315
REMARK  1 active torsions:
REMARK  status: ('A' for Active; 'I' for Inactive)
REMARK    1  A    between atoms: C1_2  and  C2_4 
ROOT
HETATM    1  C2  UNL     1      31.514  47.730   9.840  1.00  0.00     0.157 C 
HETATM    2  C3  UNL     1      31.674  47.323  11.281  1.00  0.00     0.100 C 
HETATM    3  S1  UNL     1      30.817  45.744  11.623  1.00  0.00    -0.154 SA
HETATM    4  C4  UNL     1      29.108  45.946  11.069  1.00  0.00     0.040 C 
HETATM    5  C5  UNL     1      28.237  44.768  11.515  1.00  0.00     0.049 C 
HETATM    6  C6  UNL     1      26.878  45.472  11.438  1.00  0.00     0.169 C 
HETATM    7  O3  UNL     1      27.098  46.718  11.965  1.00  0.00    -0.389 OA
HETATM    8  C7  UNL     1      28.406  47.070  11.791  1.00  0.00     0.189 C 
HETATM    9  C8  UNL     1      29.040  46.083   9.572  1.00  0.00     0.097 C 
HETATM   10  S2  UNL     1      30.662  46.469   8.865  1.00  0.00    -0.151 SA
ENDROOT
BRANCH   1  11
HETATM   11  C1  UNL     1      32.855  47.961   9.279  1.00  0.00     0.188 C 
HETATM   12  O1  UNL     1      33.895  47.774   9.996  1.00  0.00    -0.647 OA
HETATM   13  O2  UNL     1      33.041  48.381   7.981  1.00  0.00    -0.647 OA
ENDBRANCH   1  11
TORSDOF 1
ENDMDL
MODEL 3
REMARK VINA RESULT: -5.839152745      1.267      1.497
REMARK  1 active torsions:
REMARK  status: ('A' for Active; 'I' for Inactive)
REMARK    1  A    between atoms: C1_2  and  C2_4 
ROOT
HETATM    1  C2  UNL     1      28.072  46.661  12.073  1.00  0.00     0.157 C 
HETATM    2  C3  UNL     1      28.160  45.793  10.845  1.00  0.00     0.100 C 
HETATM    3  S1  UNL     1      29.900  45.451  10.398  1.00  0.00    -0.154 SA
HETATM    4  C4  UNL     1      30.729  47.051  10.265  1.00  0.00     0.040 C 
HETATM    5  C5  UNL     1      32.133  46.901   9.671  1.00  0.00     0.049 C 
HETATM    6  C6  UNL     1      32.301  48.339   9.167  1.00  0.00     0.169 C 
HETATM    7  O3  UNL     1      31.088  48.663   8.617  1.00  0.00    -0.389 OA
HETATM    8  C7  UNL     1      30.100  47.933   9.214  1.00  0.00     0.189 C 
HETATM    9  C8  UNL     1      30.823  47.722  11.608  1.00  0.00     0.097 C 
HETATM   10  S2  UNL     1      29.694  46.969  12.808  1.00  0.00    -0.151 SA
ENDROOT
BRANCH   1  11
HETATM   11  C1  UNL     1      27.210  45.981  13.053  1.00  0.00     0.188 C 
HETATM   12  O1  UNL     1      27.133  44.706  13.068  1.00  0.00    -0.647 OA
HETATM   13  O2  UNL     1      26.465  46.678  13.977  1.00  0.00    -0.647 OA
ENDBRANCH   1  11
TORSDOF 1
ENDMDL
MODEL 4
REMARK VINA RESULT: -5.824969029      2.152      2.785
REMARK  1 active torsions:
REMARK  status: ('A' for Active; 'I' for Inactive)
REMARK    1  A    between atoms: C1_2  and  C2_4 
ROOT
HETATM    1  C2  UNL     1      28.324  45.717  12.247  1.00  0.00     0.157 C 
HETATM    2  C3  UNL     1      28.394  47.209  12.055  1.00  0.00     0.100 C 
HETATM    3  S1  UNL     1      29.861  47.682  11.071  1.00  0.00    -0.154 SA
HETATM    4  C4  UNL     1      31.297  46.946  11.886  1.00  0.00     0.040 C 
HETATM    5  C5  UNL     1      32.605  47.466  11.282  1.00  0.00     0.049 C 
HETATM    6  C6  UNL     1      33.520  47.165  12.474  1.00  0.00     0.169 C 
HETATM    7  O3  UNL     1      32.794  47.534  13.576  1.00  0.00    -0.389 OA
HETATM    8  C7  UNL     1      31.459  47.437  13.304  1.00  0.00     0.189 C 
HETATM    9  C8  UNL     1      31.261  45.446  11.789  1.00  0.00     0.097 C 
HETATM   10  S2  UNL     1      29.615  44.848  11.326  1.00  0.00    -0.151 SA
ENDROOT
BRANCH   1  11
HETATM   11  C1  UNL     1      27.003  45.259  11.789  1.00  0.00     0.188 C 
HETATM   12  O1  UNL     1      26.130  46.102  11.391  1.00  0.00    -0.647 OA
HETATM   13  O2  UNL     1      26.658  43.926  11.772  1.00  0.00    -0.647 OA
ENDBRANCH   1  11
TORSDOF 1
ENDMDL
MODEL 5
REMARK VINA RESULT: -5.689817103      1.456      2.051
REMARK  1 active torsions:
REMARK  status: ('A' for Active; 'I' for Inactive)
REMARK    1  A    between atoms: C1_2  and  C2_4 
ROOT
HETATM    1  C2  UNL     1      28.510  45.539  11.879  1.00  0.00     0.157 C 
HETATM    2  C3  UNL     1      28.525  47.012  12.191  1.00  0.00     0.100 C 
HETATM    3  S1  UNL     1      29.213  47.978  10.799  1.00  0.00    -0.154 SA
HETATM    4  C4  UNL     1      30.827  47.260  10.412  1.00  0.00     0.040 C 
HETATM    5  C5  UNL     1      31.597  48.130   9.415  1.00  0.00     0.049 C 
HETATM    6  C6  UNL     1      33.007  47.629   9.746  1.00  0.00     0.169 C 
HETATM    7  O3  UNL     1      33.035  47.534  11.113  1.00  0.00    -0.389 OA
HETATM    8  C7  UNL     1      31.772  47.321  11.587  1.00  0.00     0.189 C 
HETATM    9  C8  UNL     1      30.678  45.871   9.855  1.00  0.00     0.097 C 
HETATM   10  S2  UNL     1      29.030  45.195  10.182  1.00  0.00    -0.151 SA
ENDROOT
BRANCH   1  11
HETATM   11  C1  UNL     1      27.139  45.043  12.082  1.00  0.00     0.188 C 
HETATM   12  O1  UNL     1      26.927  43.801  12.289  1.00  0.00    -0.647 OA
HETATM   13  O2  UNL     1      26.048  45.883  12.059  1.00  0.00    -0.647 OA
ENDBRANCH   1  11
TORSDOF 1
ENDMDL
