MODEL 1
REMARK VINA RESULT: -7.758709449      0.000      0.000
REMARK  3 active torsions:
REMARK  status: ('A' for Active; 'I' for Inactive)
REMARK    1  A    between atoms: C2_2  and  O2_4 
REMARK    2  A    between atoms: O2_4  and  C3_5 
REMARK    3  A    between atoms: C7_9  and  O3_10 
ROOT
HETATM    1  C3  UNL     1      30.519  47.270   9.253  1.00  0.00     0.157 C 
HETATM    2  C4  UNL     1      29.854  45.985   9.163  1.00  0.00     0.001 C 
HETATM    3  C5  UNL     1      29.423  44.927   9.878  1.00  0.00    -0.025 C 
HETATM    4  C6  UNL     1      29.506  44.666  11.335  1.00  0.00     0.067 C 
HETATM    5  C7  UNL     1      28.750  45.560  12.250  1.00  0.00     0.084 C 
HETATM    6  C8  UNL     1      29.646  46.221  13.321  1.00  0.00     0.206 C 
HETATM    7  O4  UNL     1      29.893  47.555  12.862  1.00  0.00    -0.383 OA
HETATM    8  C9  UNL     1      29.854  47.290  11.517  1.00  0.00     0.127 C 
HETATM    9  C10 UNL     1      30.158  48.148  10.441  1.00  0.00     0.068 C 
HETATM   10  C11 UNL     1      28.444  46.799  11.476  1.00  0.00     0.072 C 
ENDROOT
BRANCH   1  11
HETATM   11  O2  UNL     1      31.928  47.046   9.266  1.00  0.00    -0.312 OA
BRANCH  11  12
HETATM   12  C2  UNL     1      32.835  48.042   8.927  1.00  0.00     0.255 C 
HETATM   13  C1  UNL     1      33.838  48.586   9.880  1.00  0.00     0.126 C 
HETATM   14  O1  UNL     1      32.758  48.472   7.733  1.00  0.00    -0.266 OA
ENDBRANCH  11  12
ENDBRANCH   1  11
BRANCH   5  15
HETATM   15  O3  UNL     1      27.636  44.981  12.833  1.00  0.00    -0.387 OA
ATOM     16  H3  UNL     1      27.532  45.166  13.759  1.00  0.00     0.210 HD
ENDBRANCH   5  15
TORSDOF 3
ENDMDL
MODEL 2
REMARK VINA RESULT: -7.674013245      1.719      2.409
REMARK  3 active torsions:
REMARK  status: ('A' for Active; 'I' for Inactive)
REMARK    1  A    between atoms: C2_2  and  O2_4 
REMARK    2  A    between atoms: O2_4  and  C3_5 
REMARK    3  A    between atoms: C7_9  and  O3_10 
ROOT
HETATM    1  C3  UNL     1      32.920  48.080  10.194  1.00  0.00     0.157 C 
HETATM    2  C4  UNL     1      31.794  48.177   9.286  1.00  0.00     0.001 C 
HETATM    3  C5  UNL     1      30.673  47.557   8.868  1.00  0.00    -0.025 C 
HETATM    4  C6  UNL     1      30.081  46.269   9.301  1.00  0.00     0.067 C 
HETATM    5  C7  UNL     1      29.590  46.159  10.699  1.00  0.00     0.084 C 
HETATM    6  C8  UNL     1      30.235  44.987  11.471  1.00  0.00     0.206 C 
HETATM    7  O4  UNL     1      31.254  45.567  12.293  1.00  0.00    -0.383 OA
HETATM    8  C9  UNL     1      31.581  46.608  11.462  1.00  0.00     0.127 C 
HETATM    9  C10 UNL     1      32.636  47.535  11.585  1.00  0.00     0.068 C 
HETATM   10  C11 UNL     1      30.239  47.263  11.464  1.00  0.00     0.072 C 
ENDROOT
BRANCH   1  11
HETATM   11  O2  UNL     1      33.920  47.265   9.583  1.00  0.00    -0.312 OA
BRANCH  11  12
HETATM   12  C2  UNL     1      34.915  47.803   8.776  1.00  0.00     0.255 C 
HETATM   13  C1  UNL     1      35.835  48.878   9.230  1.00  0.00     0.126 C 
HETATM   14  O1  UNL     1      34.997  47.314   7.606  1.00  0.00    -0.266 OA
ENDBRANCH  11  12
ENDBRANCH   1  11
BRANCH   5  15
HETATM   15  O3  UNL     1      28.213  46.130  10.827  1.00  0.00    -0.387 OA
ATOM     16  H3  UNL     1      27.768  46.905  10.505  1.00  0.00     0.210 HD
ENDBRANCH   5  15
TORSDOF 3
ENDMDL
MODEL 3
REMARK VINA RESULT: -7.499964585      1.315      2.182
REMARK  3 active torsions:
REMARK  status: ('A' for Active; 'I' for Inactive)
REMARK    1  A    between atoms: C2_2  and  O2_4 
REMARK    2  A    between atoms: O2_4  and  C3_5 
REMARK    3  A    between atoms: C7_9  and  O3_10 
ROOT
HETATM    1  C3  UNL     1      31.520  46.672  10.197  1.00  0.00     0.157 C 
HETATM    2  C4  UNL     1      31.683  46.768  11.635  1.00  0.00     0.001 C 
HETATM    3  C5  UNL     1      31.025  46.947  12.797  1.00  0.00    -0.025 C 
HETATM    4  C6  UNL     1      29.580  47.157  13.050  1.00  0.00     0.067 C 
HETATM    5  C7  UNL     1      28.645  46.050  12.722  1.00  0.00     0.084 C 
HETATM    6  C8  UNL     1      27.525  46.478  11.748  1.00  0.00     0.206 C 
HETATM    7  O4  UNL     1      27.918  45.999  10.457  1.00  0.00    -0.383 OA
HETATM    8  C9  UNL     1      29.274  46.099  10.637  1.00  0.00     0.127 C 
HETATM    9  C10 UNL     1      30.304  45.913   9.692  1.00  0.00     0.068 C 
HETATM   10  C11 UNL     1      29.370  45.146  11.783  1.00  0.00     0.072 C 
ENDROOT
BRANCH   1  11
HETATM   11  O2  UNL     1      31.485  47.995   9.662  1.00  0.00    -0.312 OA
BRANCH  11  12
HETATM   12  C2  UNL     1      32.597  48.579   9.068  1.00  0.00     0.255 C 
HETATM   13  C1  UNL     1      33.892  48.763   9.774  1.00  0.00     0.126 C 
HETATM   14  O1  UNL     1      32.442  48.955   7.864  1.00  0.00    -0.266 OA
ENDBRANCH  11  12
ENDBRANCH   1  11
BRANCH   5  15
HETATM   15  O3  UNL     1      28.114  45.397  13.821  1.00  0.00    -0.387 OA
ATOM     16  H3  UNL     1      27.280  45.741  14.122  1.00  0.00     0.210 HD
ENDBRANCH   5  15
TORSDOF 3
ENDMDL
MODEL 4
REMARK VINA RESULT: -7.185664275      1.654      2.377
REMARK  3 active torsions:
REMARK  status: ('A' for Active; 'I' for Inactive)
REMARK    1  A    between atoms: C2_2  and  O2_4 
REMARK    2  A    between atoms: O2_4  and  C3_5 
REMARK    3  A    between atoms: C7_9  and  O3_10 
ROOT
HETATM    1  C3  UNL     1      32.234  47.347   9.538  1.00  0.00     0.157 C 
HETATM    2  C4  UNL     1      32.807  47.102  10.846  1.00  0.00     0.001 C 
HETATM    3  C5  UNL     1      32.543  47.085  12.168  1.00  0.00    -0.025 C 
HETATM    4  C6  UNL     1      31.283  47.382  12.889  1.00  0.00     0.067 C 
HETATM    5  C7  UNL     1      30.123  46.480  12.672  1.00  0.00     0.084 C 
HETATM    6  C8  UNL     1      28.862  47.229  12.187  1.00  0.00     0.206 C 
HETATM    7  O4  UNL     1      28.791  47.012  10.774  1.00  0.00    -0.383 OA
HETATM    8  C9  UNL     1      30.140  46.926  10.539  1.00  0.00     0.127 C 
HETATM    9  C10 UNL     1      30.816  46.850   9.305  1.00  0.00     0.068 C 
HETATM   10  C11 UNL     1      30.394  45.737  11.407  1.00  0.00     0.072 C 
ENDROOT
BRANCH   1  11
HETATM   11  O2  UNL     1      32.270  48.752   9.290  1.00  0.00    -0.312 OA
BRANCH  11  12
HETATM   12  C2  UNL     1      33.245  49.333   8.488  1.00  0.00     0.255 C 
HETATM   13  C1  UNL     1      34.609  49.661   8.979  1.00  0.00     0.126 C 
HETATM   14  O1  UNL     1      32.899  49.574   7.290  1.00  0.00    -0.266 OA
ENDBRANCH  11  12
ENDBRANCH   1  11
BRANCH   5  15
HETATM   15  O3  UNL     1      29.822  45.658  13.744  1.00  0.00    -0.387 OA
ATOM     16  H3  UNL     1      29.159  45.001  13.566  1.00  0.00     0.210 HD
ENDBRANCH   5  15
TORSDOF 3
ENDMDL
MODEL 5
REMARK VINA RESULT: -7.160731113      1.768      5.718
REMARK  3 active torsions:
REMARK  status: ('A' for Active; 'I' for Inactive)
REMARK    1  A    between atoms: C2_2  and  O2_4 
REMARK    2  A    between atoms: O2_4  and  C3_5 
REMARK    3  A    between atoms: C7_9  and  O3_10 
ROOT
HETATM    1  C3  UNL     1      31.468  47.362  10.949  1.00  0.00     0.157 C 
HETATM    2  C4  UNL     1      32.629  47.698  11.749  1.00  0.00     0.001 C 
HETATM    3  C5  UNL     1      33.973  47.793  11.734  1.00  0.00    -0.025 C 
HETATM    4  C6  UNL     1      34.935  47.519  10.640  1.00  0.00     0.067 C 
HETATM    5  C7  UNL     1      34.887  48.387   9.434  1.00  0.00     0.084 C 
HETATM    6  C8  UNL     1      34.691  47.587   8.127  1.00  0.00     0.206 C 
HETATM    7  O4  UNL     1      33.306  47.715   7.788  1.00  0.00    -0.383 OA
HETATM    8  C9  UNL     1      32.818  47.808   9.066  1.00  0.00     0.127 C 
HETATM    9  C10 UNL     1      31.477  47.819   9.499  1.00  0.00     0.068 C 
HETATM   10  C11 UNL     1      33.552  49.053   9.444  1.00  0.00     0.072 C 
ENDROOT
BRANCH   1  11
HETATM   11  O2  UNL     1      31.299  45.945  10.978  1.00  0.00    -0.312 OA
BRANCH  11  12
HETATM   12  C2  UNL     1      30.050  45.356  11.134  1.00  0.00     0.255 C 
HETATM   13  C1  UNL     1      29.178  44.987   9.989  1.00  0.00     0.126 C 
HETATM   14  O1  UNL     1      29.689  45.146  12.334  1.00  0.00    -0.266 OA
ENDBRANCH  11  12
ENDBRANCH   1  11
BRANCH   5  15
HETATM   15  O3  UNL     1      35.947  49.269   9.315  1.00  0.00    -0.387 OA
ATOM     16  H3  UNL     1      36.793  48.856   9.191  1.00  0.00     0.210 HD
ENDBRANCH   5  15
TORSDOF 3
ENDMDL
