MODEL 1
REMARK VINA RESULT: -5.908391664      0.000      0.000
REMARK  9 active torsions:
REMARK  status: ('A' for Active; 'I' for Inactive)
REMARK    1  A    between atoms: C2_2  and  C3_4 
REMARK    2  A    between atoms: C5_10  and  N3_11 
REMARK    3  A    between atoms: C8_14  and  O2_15 
REMARK    4  A    between atoms: O2_15  and  C9_16 
REMARK    5  A    between atoms: C9_16  and  C10_17 
REMARK    6  A    between atoms: C11_18  and  C12_19 
REMARK    7  A    between atoms: C12_19  and  N4_20 
REMARK    8  A    between atoms: N4_20  and  C13_21 
REMARK    9  A    between atoms: N4_20  and  C19_31 
ROOT
HETATM    1  C3  UNL     1      13.727  13.169  20.244  1.00  0.00     0.051 A 
HETATM    2  C4  UNL     1      14.865  12.662  19.666  1.00  0.00     0.124 A 
HETATM    3  N1  UNL     1      15.729  13.500  19.090  1.00  0.00    -0.309 N 
ATOM      4  H1  UNL     1      16.572  13.115  18.664  1.00  0.00     0.186 HD
HETATM    5  N2  UNL     1      15.541  14.804  19.047  1.00  0.00    -0.285 N 
ATOM      6  H2  UNL     1      16.228  15.408  18.596  1.00  0.00     0.188 HD
HETATM    7  C5  UNL     1      14.430  15.334  19.608  1.00  0.00     0.140 A 
HETATM    8  C24 UNL     1      13.507  14.527  20.213  1.00  0.00     0.105 A 
HETATM    9  C25 UNL     1      12.334  15.116  20.804  1.00  0.00     0.104 C 
HETATM   10  N5  UNL     1      11.390  15.610  21.297  1.00  0.00    -0.191 NA
ENDROOT
BRANCH   1  11
HETATM   11  C2  UNL     1      12.772  12.265  20.878  1.00  0.00     0.158 C 
HETATM   12  C1  UNL     1      11.562  11.842  20.094  1.00  0.00     0.097 C 
HETATM   13  O1  UNL     1      12.904  11.818  22.043  1.00  0.00    -0.293 OA
ENDBRANCH   1  11
BRANCH   7  14
HETATM   14  N3  UNL     1      14.247  16.758  19.547  1.00  0.00    -0.365 N 
HETATM   15  C6  UNL     1      13.825  17.452  18.351  1.00  0.00     0.127 C 
HETATM   16  C7  UNL     1      14.818  18.573  17.998  1.00  0.00     0.052 C 
HETATM   17  C8  UNL     1      15.246  19.317  19.199  1.00  0.00     0.125 C 
HETATM   18  C22 UNL     1      14.213  19.021  20.301  1.00  0.00     0.052 C 
HETATM   19  C23 UNL     1      14.488  17.587  20.731  1.00  0.00     0.127 C 
BRANCH  17  20
HETATM   20  O2  UNL     1      16.446  19.098  19.727  1.00  0.00    -0.374 OA
BRANCH  20  21
HETATM   21  C9  UNL     1      17.186  20.142  20.202  1.00  0.00     0.261 C 
BRANCH  21  22
HETATM   22  C10 UNL     1      18.561  19.700  20.448  1.00  0.00    -0.079 C 
HETATM   23  C11 UNL     1      19.699  19.325  20.631  1.00  0.00    -0.085 C 
BRANCH  23  24
HETATM   24  C12 UNL     1      21.092  18.857  20.827  1.00  0.00     0.218 C 
BRANCH  24  25
HETATM   25  N4  UNL     1      21.156  17.402  20.880  1.00  0.00    -0.360 N 
BRANCH  25  26
HETATM   26  C13 UNL     1      20.788  16.618  19.736  1.00  0.00     0.113 A 
HETATM   27  C14 UNL     1      19.562  15.986  19.698  1.00  0.00     0.149 A 
HETATM   28  F1  UNL     1      18.731  16.137  20.779  1.00  0.00    -0.203 F 
HETATM   29  C15 UNL     1      19.157  15.219  18.621  1.00  0.00     0.090 A 
HETATM   30  C16 UNL     1      19.981  15.064  17.540  1.00  0.00     0.161 A 
HETATM   31  F2  UNL     1      19.630  14.323  16.460  1.00  0.00    -0.203 F 
HETATM   32  C17 UNL     1      21.217  15.698  17.570  1.00  0.00     0.195 A 
HETATM   33  F3  UNL     1      22.013  15.532  16.494  1.00  0.00    -0.199 F 
HETATM   34  C18 UNL     1      21.614  16.464  18.654  1.00  0.00     0.187 A 
HETATM   35  F4  UNL     1      22.826  17.079  18.672  1.00  0.00    -0.200 F 
ENDBRANCH  25  26
BRANCH  25  36
HETATM   36  C19 UNL     1      21.586  16.700  22.055  1.00  0.00     0.085 A 
HETATM   37  C20 UNL     1      23.106  16.494  22.096  1.00  0.00     0.027 A 
HETATM   38  C21 UNL     1      22.425  17.336  23.097  1.00  0.00     0.027 A 
ENDBRANCH  25  36
ENDBRANCH  24  25
ENDBRANCH  23  24
ENDBRANCH  21  22
ENDBRANCH  20  21
ENDBRANCH  17  20
ENDBRANCH   7  14
TORSDOF 9
ENDMDL
MODEL 2
REMARK VINA RESULT: -5.711782317      4.302      7.780
REMARK  9 active torsions:
REMARK  status: ('A' for Active; 'I' for Inactive)
REMARK    1  A    between atoms: C2_2  and  C3_4 
REMARK    2  A    between atoms: C5_10  and  N3_11 
REMARK    3  A    between atoms: C8_14  and  O2_15 
REMARK    4  A    between atoms: O2_15  and  C9_16 
REMARK    5  A    between atoms: C9_16  and  C10_17 
REMARK    6  A    between atoms: C11_18  and  C12_19 
REMARK    7  A    between atoms: C12_19  and  N4_20 
REMARK    8  A    between atoms: N4_20  and  C13_21 
REMARK    9  A    between atoms: N4_20  and  C19_31 
ROOT
HETATM    1  C3  UNL     1      19.040  17.251  20.134  1.00  0.00     0.051 A 
HETATM    2  C4  UNL     1      19.139  18.620  20.158  1.00  0.00     0.124 A 
HETATM    3  N1  UNL     1      18.029  19.353  20.047  1.00  0.00    -0.309 N 
ATOM      4  H1  UNL     1      18.112  20.370  20.066  1.00  0.00     0.186 HD
HETATM    5  N2  UNL     1      16.830  18.822  19.913  1.00  0.00    -0.285 N 
ATOM      6  H2  UNL     1      16.009  19.419  19.831  1.00  0.00     0.188 HD
HETATM    7  C5  UNL     1      16.701  17.475  19.887  1.00  0.00     0.140 A 
HETATM    8  C24 UNL     1      17.800  16.670  19.997  1.00  0.00     0.105 A 
HETATM    9  C25 UNL     1      17.634  15.241  19.967  1.00  0.00     0.104 C 
HETATM   10  N5  UNL     1      17.485  14.076  19.959  1.00  0.00    -0.191 NA
ENDROOT
BRANCH   1  11
HETATM   11  C2  UNL     1      20.245  16.437  20.255  1.00  0.00     0.158 C 
HETATM   12  C1  UNL     1      21.094  16.597  21.484  1.00  0.00     0.097 C 
HETATM   13  O1  UNL     1      20.615  15.606  19.389  1.00  0.00    -0.293 OA
ENDBRANCH   1  11
BRANCH   7  14
HETATM   14  N3  UNL     1      15.383  16.919  19.739  1.00  0.00    -0.365 N 
HETATM   15  C6  UNL     1      14.819  16.548  18.460  1.00  0.00     0.127 C 
HETATM   16  C7  UNL     1      13.461  17.239  18.248  1.00  0.00     0.052 C 
HETATM   17  C8  UNL     1      12.643  17.216  19.476  1.00  0.00     0.125 C 
HETATM   18  C22 UNL     1      13.230  16.121  20.386  1.00  0.00     0.052 C 
HETATM   19  C23 UNL     1      14.536  16.699  20.913  1.00  0.00     0.127 C 
BRANCH  17  20
HETATM   20  O2  UNL     1      12.524  18.311  20.220  1.00  0.00    -0.374 OA
BRANCH  20  21
HETATM   21  C9  UNL     1      12.780  19.537  19.679  1.00  0.00     0.261 C 
BRANCH  21  22
HETATM   22  C10 UNL     1      13.228  20.456  20.728  1.00  0.00    -0.079 C 
HETATM   23  C11 UNL     1      13.592  21.202  21.612  1.00  0.00    -0.085 C 
BRANCH  23  24
HETATM   24  C12 UNL     1      14.032  22.092  22.712  1.00  0.00     0.218 C 
BRANCH  24  25
HETATM   25  N4  UNL     1      14.842  23.193  22.206  1.00  0.00    -0.360 N 
BRANCH  25  26
HETATM   26  C13 UNL     1      16.254  23.232  22.462  1.00  0.00     0.113 A 
HETATM   27  C14 UNL     1      17.139  22.740  21.526  1.00  0.00     0.149 A 
HETATM   28  F1  UNL     1      16.620  22.223  20.365  1.00  0.00    -0.203 F 
HETATM   29  C15 UNL     1      18.507  22.753  21.721  1.00  0.00     0.090 A 
HETATM   30  C16 UNL     1      19.032  23.267  22.875  1.00  0.00     0.161 A 
HETATM   31  F2  UNL     1      20.366  23.304  23.114  1.00  0.00    -0.203 F 
HETATM   32  C17 UNL     1      18.147  23.766  23.824  1.00  0.00     0.195 A 
HETATM   33  F3  UNL     1      18.684  24.267  24.954  1.00  0.00    -0.199 F 
HETATM   34  C18 UNL     1      16.776  23.748  23.618  1.00  0.00     0.187 A 
HETATM   35  F4  UNL     1      15.921  24.238  24.554  1.00  0.00    -0.200 F 
ENDBRANCH  25  26
BRANCH  25  36
HETATM   36  C19 UNL     1      14.277  24.268  21.441  1.00  0.00     0.085 A 
HETATM   37  C20 UNL     1      13.604  25.328  22.322  1.00  0.00     0.027 A 
HETATM   38  C21 UNL     1      14.796  25.653  21.516  1.00  0.00     0.027 A 
ENDBRANCH  25  36
ENDBRANCH  24  25
ENDBRANCH  23  24
ENDBRANCH  21  22
ENDBRANCH  20  21
ENDBRANCH  17  20
ENDBRANCH   7  14
TORSDOF 9
ENDMDL
MODEL 3
REMARK VINA RESULT: -5.626947667      1.522      2.274
REMARK  9 active torsions:
REMARK  status: ('A' for Active; 'I' for Inactive)
REMARK    1  A    between atoms: C2_2  and  C3_4 
REMARK    2  A    between atoms: C5_10  and  N3_11 
REMARK    3  A    between atoms: C8_14  and  O2_15 
REMARK    4  A    between atoms: O2_15  and  C9_16 
REMARK    5  A    between atoms: C9_16  and  C10_17 
REMARK    6  A    between atoms: C11_18  and  C12_19 
REMARK    7  A    between atoms: C12_19  and  N4_20 
REMARK    8  A    between atoms: N4_20  and  C13_21 
REMARK    9  A    between atoms: N4_20  and  C19_31 
ROOT
HETATM    1  C3  UNL     1      14.091  13.221  17.906  1.00  0.00     0.051 A 
HETATM    2  C4  UNL     1      14.889  13.365  16.797  1.00  0.00     0.124 A 
HETATM    3  N1  UNL     1      15.377  14.572  16.501  1.00  0.00    -0.309 N 
ATOM      4  H1  UNL     1      15.969  14.669  15.676  1.00  0.00     0.186 HD
HETATM    5  N2  UNL     1      15.127  15.643  17.227  1.00  0.00    -0.285 N 
ATOM      6  H2  UNL     1      15.520  16.546  16.964  1.00  0.00     0.188 HD
HETATM    7  C5  UNL     1      14.344  15.533  18.325  1.00  0.00     0.140 A 
HETATM    8  C24 UNL     1      13.815  14.324  18.681  1.00  0.00     0.105 A 
HETATM    9  C25 UNL     1      12.988  14.234  19.855  1.00  0.00     0.104 C 
HETATM   10  N5  UNL     1      12.327  14.170  20.825  1.00  0.00    -0.191 NA
ENDROOT
BRANCH   1  11
HETATM   11  C2  UNL     1      13.550  11.908  18.243  1.00  0.00     0.158 C 
HETATM   12  C1  UNL     1      12.261  11.482  17.601  1.00  0.00     0.097 C 
HETATM   13  O1  UNL     1      14.102  11.111  19.040  1.00  0.00    -0.293 OA
ENDBRANCH   1  11
BRANCH   7  14
HETATM   14  N3  UNL     1      14.085  16.716  19.100  1.00  0.00    -0.365 N 
HETATM   15  C6  UNL     1      13.037  17.660  18.779  1.00  0.00     0.127 C 
HETATM   16  C7  UNL     1      13.612  19.082  18.654  1.00  0.00     0.052 C 
HETATM   17  C8  UNL     1      14.592  19.367  19.719  1.00  0.00     0.125 C 
HETATM   18  C22 UNL     1      14.356  18.332  20.834  1.00  0.00     0.052 C 
HETATM   19  C23 UNL     1      14.896  17.020  20.282  1.00  0.00     0.127 C 
BRANCH  17  20
HETATM   20  O2  UNL     1      15.894  19.352  19.450  1.00  0.00    -0.374 OA
BRANCH  20  21
HETATM   21  C9  UNL     1      16.744  20.169  20.136  1.00  0.00     0.261 C 
BRANCH  21  22
HETATM   22  C10 UNL     1      18.090  19.590  20.138  1.00  0.00    -0.079 C 
HETATM   23  C11 UNL     1      19.205  19.116  20.118  1.00  0.00    -0.085 C 
BRANCH  23  24
HETATM   24  C12 UNL     1      20.573  18.546  20.066  1.00  0.00     0.218 C 
BRANCH  24  25
HETATM   25  N4  UNL     1      20.572  17.140  20.453  1.00  0.00    -0.360 N 
BRANCH  25  26
HETATM   26  C13 UNL     1      19.958  16.156  19.607  1.00  0.00     0.113 A 
HETATM   27  C14 UNL     1      20.588  15.751  18.450  1.00  0.00     0.149 A 
HETATM   28  F1  UNL     1      21.800  16.318  18.149  1.00  0.00    -0.203 F 
HETATM   29  C15 UNL     1      20.041  14.807  17.601  1.00  0.00     0.090 A 
HETATM   30  C16 UNL     1      18.832  14.237  17.894  1.00  0.00     0.161 A 
HETATM   31  F2  UNL     1      18.255  13.306  17.094  1.00  0.00    -0.203 F 
HETATM   32  C17 UNL     1      18.191  14.639  19.059  1.00  0.00     0.195 A 
HETATM   33  F3  UNL     1      17.002  14.066  19.329  1.00  0.00    -0.199 F 
HETATM   34  C18 UNL     1      18.748  15.587  19.904  1.00  0.00     0.187 A 
HETATM   35  F4  UNL     1      18.111  15.973  21.040  1.00  0.00    -0.200 F 
ENDBRANCH  25  26
BRANCH  25  36
HETATM   36  C19 UNL     1      21.177  16.683  21.671  1.00  0.00     0.085 A 
HETATM   37  C20 UNL     1      22.652  16.304  21.490  1.00  0.00     0.027 A 
HETATM   38  C21 UNL     1      22.258  17.435  22.349  1.00  0.00     0.027 A 
ENDBRANCH  25  36
ENDBRANCH  24  25
ENDBRANCH  23  24
ENDBRANCH  21  22
ENDBRANCH  20  21
ENDBRANCH  17  20
ENDBRANCH   7  14
TORSDOF 9
ENDMDL
MODEL 4
REMARK VINA RESULT: -5.620678056      2.398      4.317
REMARK  9 active torsions:
REMARK  status: ('A' for Active; 'I' for Inactive)
REMARK    1  A    between atoms: C2_2  and  C3_4 
REMARK    2  A    between atoms: C5_10  and  N3_11 
REMARK    3  A    between atoms: C8_14  and  O2_15 
REMARK    4  A    between atoms: O2_15  and  C9_16 
REMARK    5  A    between atoms: C9_16  and  C10_17 
REMARK    6  A    between atoms: C11_18  and  C12_19 
REMARK    7  A    between atoms: C12_19  and  N4_20 
REMARK    8  A    between atoms: N4_20  and  C13_21 
REMARK    9  A    between atoms: N4_20  and  C19_31 
ROOT
HETATM    1  C3  UNL     1      13.419  13.833  20.244  1.00  0.00     0.051 A 
HETATM    2  C4  UNL     1      12.583  14.856  20.618  1.00  0.00     0.124 A 
HETATM    3  N1  UNL     1      13.020  16.115  20.533  1.00  0.00    -0.309 N 
ATOM      4  H1  UNL     1      12.392  16.868  20.813  1.00  0.00     0.186 HD
HETATM    5  N2  UNL     1      14.227  16.426  20.105  1.00  0.00    -0.285 N 
ATOM      6  H2  UNL     1      14.520  17.401  20.058  1.00  0.00     0.188 HD
HETATM    7  C5  UNL     1      15.073  15.440  19.730  1.00  0.00     0.140 A 
HETATM    8  C24 UNL     1      14.685  14.131  19.793  1.00  0.00     0.105 A 
HETATM    9  C25 UNL     1      15.604  13.101  19.386  1.00  0.00     0.104 C 
HETATM   10  N5  UNL     1      16.356  12.271  19.035  1.00  0.00    -0.191 NA
ENDROOT
BRANCH   1  11
HETATM   11  C2  UNL     1      12.955  12.451  20.331  1.00  0.00     0.158 C 
HETATM   12  C1  UNL     1      12.230  11.868  19.152  1.00  0.00     0.097 C 
HETATM   13  O1  UNL     1      13.128  11.720  21.336  1.00  0.00    -0.293 OA
ENDBRANCH   1  11
BRANCH   7  14
HETATM   14  N3  UNL     1      16.385  15.805  19.268  1.00  0.00    -0.365 N 
HETATM   15  C6  UNL     1      17.590  15.560  20.031  1.00  0.00     0.127 C 
HETATM   16  C7  UNL     1      18.387  16.864  20.214  1.00  0.00     0.052 C 
HETATM   17  C8  UNL     1      18.420  17.658  18.971  1.00  0.00     0.125 C 
HETATM   18  C22 UNL     1      18.053  16.705  17.819  1.00  0.00     0.052 C 
HETATM   19  C23 UNL     1      16.558  16.458  17.968  1.00  0.00     0.127 C 
BRANCH  17  20
HETATM   20  O2  UNL     1      17.647  18.732  18.843  1.00  0.00    -0.374 OA
BRANCH  20  21
HETATM   21  C9  UNL     1      17.210  19.396  19.952  1.00  0.00     0.261 C 
BRANCH  21  22
HETATM   22  C10 UNL     1      18.309  20.176  20.526  1.00  0.00    -0.079 C 
HETATM   23  C11 UNL     1      19.229  20.802  21.007  1.00  0.00    -0.085 C 
BRANCH  23  24
HETATM   24  C12 UNL     1      20.370  21.542  21.597  1.00  0.00     0.218 C 
BRANCH  24  25
HETATM   25  N4  UNL     1      21.637  20.900  21.274  1.00  0.00    -0.360 N 
BRANCH  25  26
HETATM   26  C13 UNL     1      22.060  19.729  21.989  1.00  0.00     0.113 A 
HETATM   27  C14 UNL     1      22.654  19.853  23.227  1.00  0.00     0.149 A 
HETATM   28  F1  UNL     1      22.819  21.118  23.733  1.00  0.00    -0.203 F 
HETATM   29  C15 UNL     1      23.079  18.760  23.957  1.00  0.00     0.090 A 
HETATM   30  C16 UNL     1      22.918  17.496  23.460  1.00  0.00     0.161 A 
HETATM   31  F2  UNL     1      23.317  16.391  24.137  1.00  0.00    -0.203 F 
HETATM   32  C17 UNL     1      22.320  17.362  22.212  1.00  0.00     0.195 A 
HETATM   33  F3  UNL     1      22.171  16.108  21.740  1.00  0.00    -0.199 F 
HETATM   34  C18 UNL     1      21.897  18.465  21.488  1.00  0.00     0.187 A 
HETATM   35  F4  UNL     1      21.314  18.321  20.268  1.00  0.00    -0.200 F 
ENDBRANCH  25  26
BRANCH  25  36
HETATM   36  C19 UNL     1      22.504  21.397  20.244  1.00  0.00     0.085 A 
HETATM   37  C20 UNL     1      23.335  22.602  20.704  1.00  0.00     0.027 A 
HETATM   38  C21 UNL     1      23.980  21.325  20.346  1.00  0.00     0.027 A 
ENDBRANCH  25  36
ENDBRANCH  24  25
ENDBRANCH  23  24
ENDBRANCH  21  22
ENDBRANCH  20  21
ENDBRANCH  17  20
ENDBRANCH   7  14
TORSDOF 9
ENDMDL
MODEL 5
REMARK VINA RESULT: -5.618135906      2.141      3.770
REMARK  9 active torsions:
REMARK  status: ('A' for Active; 'I' for Inactive)
REMARK    1  A    between atoms: C2_2  and  C3_4 
REMARK    2  A    between atoms: C5_10  and  N3_11 
REMARK    3  A    between atoms: C8_14  and  O2_15 
REMARK    4  A    between atoms: O2_15  and  C9_16 
REMARK    5  A    between atoms: C9_16  and  C10_17 
REMARK    6  A    between atoms: C11_18  and  C12_19 
REMARK    7  A    between atoms: C12_19  and  N4_20 
REMARK    8  A    between atoms: N4_20  and  C13_21 
REMARK    9  A    between atoms: N4_20  and  C19_31 
ROOT
HETATM    1  C3  UNL     1      14.626  13.768  20.216  1.00  0.00     0.051 A 
HETATM    2  C4  UNL     1      15.990  13.605  20.209  1.00  0.00     0.124 A 
HETATM    3  N1  UNL     1      16.771  14.678  20.063  1.00  0.00    -0.309 N 
ATOM      4  H1  UNL     1      17.782  14.548  20.059  1.00  0.00     0.186 HD
HETATM    5  N2  UNL     1      16.292  15.898  19.922  1.00  0.00    -0.285 N 
ATOM      6  H2  UNL     1      16.925  16.689  19.813  1.00  0.00     0.188 HD
HETATM    7  C5  UNL     1      14.953  16.091  19.925  1.00  0.00     0.140 A 
HETATM    8  C24 UNL     1      14.101  15.032  20.072  1.00  0.00     0.105 A 
HETATM    9  C25 UNL     1      12.681  15.265  20.073  1.00  0.00     0.104 C 
HETATM   10  N5  UNL     1      11.524  15.469  20.090  1.00  0.00    -0.191 NA
ENDROOT
BRANCH   1  11
HETATM   11  C2  UNL     1      13.759  12.605  20.375  1.00  0.00     0.158 C 
HETATM   12  C1  UNL     1      13.369  11.833  19.147  1.00  0.00     0.097 C 
HETATM   13  O1  UNL     1      13.319  12.210  21.482  1.00  0.00    -0.293 OA
ENDBRANCH   1  11
BRANCH   7  14
HETATM   14  N3  UNL     1      14.456  17.430  19.769  1.00  0.00    -0.365 N 
HETATM   15  C6  UNL     1      14.257  18.056  18.480  1.00  0.00     0.127 C 
HETATM   16  C7  UNL     1      15.006  19.399  18.411  1.00  0.00     0.052 C 
HETATM   17  C8  UNL     1      14.859  20.167  19.661  1.00  0.00     0.125 C 
HETATM   18  C22 UNL     1      13.646  19.581  20.408  1.00  0.00     0.052 C 
HETATM   19  C23 UNL     1      14.120  18.238  20.944  1.00  0.00     0.127 C 
BRANCH  17  20
HETATM   20  O2  UNL     1      15.860  20.221  20.534  1.00  0.00    -0.374 OA
BRANCH  20  21
HETATM   21  C9  UNL     1      17.097  20.629  20.133  1.00  0.00     0.261 C 
BRANCH  21  22
HETATM   22  C10 UNL     1      18.016  19.487  20.125  1.00  0.00    -0.079 C 
HETATM   23  C11 UNL     1      18.788  18.554  20.133  1.00  0.00    -0.085 C 
BRANCH  23  24
HETATM   24  C12 UNL     1      19.747  17.423  20.166  1.00  0.00     0.218 C 
BRANCH  24  25
HETATM   25  N4  UNL     1      21.124  17.901  20.192  1.00  0.00    -0.360 N 
BRANCH  25  26
HETATM   26  C13 UNL     1      21.727  18.309  21.429  1.00  0.00     0.113 A 
HETATM   27  C14 UNL     1      22.195  17.360  22.314  1.00  0.00     0.149 A 
HETATM   28  F1  UNL     1      22.061  16.040  21.966  1.00  0.00    -0.203 F 
HETATM   29  C15 UNL     1      22.784  17.698  23.518  1.00  0.00     0.090 A 
HETATM   30  C16 UNL     1      22.922  19.012  23.872  1.00  0.00     0.161 A 
HETATM   31  F2  UNL     1      23.493  19.394  25.041  1.00  0.00    -0.203 F 
HETATM   32  C17 UNL     1      22.453  19.974  22.985  1.00  0.00     0.195 A 
HETATM   33  F3  UNL     1      22.598  21.263  23.353  1.00  0.00    -0.199 F 
HETATM   34  C18 UNL     1      21.863  19.626  21.780  1.00  0.00     0.187 A 
HETATM   35  F4  UNL     1      21.408  20.576  20.922  1.00  0.00    -0.200 F 
ENDBRANCH  25  26
BRANCH  25  36
HETATM   36  C19 UNL     1      21.926  17.983  19.005  1.00  0.00     0.085 A 
HETATM   37  C20 UNL     1      22.529  16.629  18.608  1.00  0.00     0.027 A 
HETATM   38  C21 UNL     1      21.545  17.306  17.744  1.00  0.00     0.027 A 
ENDBRANCH  25  36
ENDBRANCH  24  25
ENDBRANCH  23  24
ENDBRANCH  21  22
ENDBRANCH  20  21
ENDBRANCH  17  20
ENDBRANCH   7  14
TORSDOF 9
ENDMDL
