MODEL 1
REMARK VINA RESULT: -5.553122425      0.000      0.000
REMARK  10 active torsions:
REMARK  status: ('A' for Active; 'I' for Inactive)
REMARK    1  A    between atoms: C5_6  and  C6_7 
REMARK    2  A    between atoms: C5_6  and  C21_28 
REMARK    3  A    between atoms: C6_7  and  O3_9 
REMARK    4  A    between atoms: O3_9  and  C7_10 
REMARK    5  A    between atoms: C10_13  and  C11_14 
REMARK    6  A    between atoms: C11_14  and  O5_16 
REMARK    7  A    between atoms: O5_16  and  C12_17 
REMARK    8  A    between atoms: C12_17  and  C13_18 
REMARK    9  A    between atoms: C13_18  and  C14_19 
REMARK   10  A    between atoms: C14_19  and  N1_20 
ROOT
HETATM    1  C7  UNL     1      22.837  17.330  21.368  1.00  0.00     0.132 C 
HETATM    2  C8  UNL     1      23.503  16.241  20.574  1.00  0.00     0.033 C 
HETATM    3  C9  UNL     1      22.413  15.380  19.962  1.00  0.00     0.017 C 
HETATM    4  C10 UNL     1      21.221  16.268  19.670  1.00  0.00     0.085 C 
HETATM    5  C19 UNL     1      20.529  16.689  20.954  1.00  0.00     0.017 C 
HETATM    6  C20 UNL     1      21.617  16.732  22.036  1.00  0.00     0.033 C 
ENDROOT
BRANCH   1   7
HETATM    7  O3  UNL     1      23.688  17.989  22.258  1.00  0.00    -0.313 OA
BRANCH   7   8
HETATM    8  C6  UNL     1      24.127  19.295  22.088  1.00  0.00     0.306 C 
HETATM    9  O2  UNL     1      24.725  19.535  21.008  1.00  0.00    -0.261 OA
BRANCH   8  10
HETATM   10  C5  UNL     1      23.895  20.356  23.139  1.00  0.00     0.277 C 
HETATM   11  O1  UNL     1      25.048  21.081  23.217  1.00  0.00    -0.359 OA
HETATM   12  C4  UNL     1      25.176  21.961  24.233  1.00  0.00     0.178 C 
HETATM   13  C2  UNL     1      24.759  21.450  25.586  1.00  0.00    -0.023 C 
HETATM   14  C1  UNL     1      25.905  20.674  26.213  1.00  0.00     0.017 C 
HETATM   15  C3  UNL     1      24.552  22.678  26.475  1.00  0.00     0.017 C 
HETATM   16  C23 UNL     1      23.556  20.575  25.552  1.00  0.00     0.052 C 
HETATM   17  C22 UNL     1      23.624  19.616  24.415  1.00  0.00     0.225 C 
HETATM   18  F4  UNL     1      22.480  18.869  24.376  1.00  0.00    -0.245 F 
BRANCH  10  19
HETATM   19  C21 UNL     1      22.708  21.151  22.648  1.00  0.00     0.431 C 
HETATM   20  F1  UNL     1      23.186  21.961  21.608  1.00  0.00    -0.167 F 
HETATM   21  F2  UNL     1      21.769  20.316  22.119  1.00  0.00    -0.167 F 
HETATM   22  F3  UNL     1      22.159  21.969  23.569  1.00  0.00    -0.167 F 
ENDBRANCH  10  19
ENDBRANCH   8  10
ENDBRANCH   7   8
ENDBRANCH   1   7
BRANCH   4  23
HETATM   23  C11 UNL     1      20.217  15.554  18.854  1.00  0.00     0.263 C 
HETATM   24  O4  UNL     1      20.594  14.653  18.069  1.00  0.00    -0.265 OA
BRANCH  23  25
HETATM   25  O5  UNL     1      18.861  15.822  18.905  1.00  0.00    -0.321 OA
BRANCH  25  26
HETATM   26  C12 UNL     1      17.880  14.817  18.613  1.00  0.00     0.180 C 
BRANCH  26  27
HETATM   27  C13 UNL     1      17.092  14.501  19.865  1.00  0.00     0.057 C 
BRANCH  27  28
HETATM   28  C14 UNL     1      16.342  13.230  19.630  1.00  0.00     0.274 C 
BRANCH  28  29
HETATM   29  N1  UNL     1      15.025  13.262  20.174  1.00  0.00     0.092 N 
HETATM   30  C15 UNL     1      14.388  14.560  20.021  1.00  0.00     0.298 C 
HETATM   31  C16 UNL     1      12.920  14.540  20.292  1.00  0.00     0.198 C 
HETATM   32  O6  UNL     1      12.497  13.420  20.996  1.00  0.00    -0.388 OA
HETATM   33  C17 UNL     1      12.820  12.234  20.393  1.00  0.00     0.198 C 
HETATM   34  C18 UNL     1      14.126  12.296  19.626  1.00  0.00     0.298 C 
ENDBRANCH  28  29
ENDBRANCH  27  28
ENDBRANCH  26  27
ENDBRANCH  25  26
ENDBRANCH  23  25
ENDBRANCH   4  23
TORSDOF 10
ENDMDL
MODEL 2
REMARK VINA RESULT: -5.433446832      5.911      8.957
REMARK  10 active torsions:
REMARK  status: ('A' for Active; 'I' for Inactive)
REMARK    1  A    between atoms: C5_6  and  C6_7 
REMARK    2  A    between atoms: C5_6  and  C21_28 
REMARK    3  A    between atoms: C6_7  and  O3_9 
REMARK    4  A    between atoms: O3_9  and  C7_10 
REMARK    5  A    between atoms: C10_13  and  C11_14 
REMARK    6  A    between atoms: C11_14  and  O5_16 
REMARK    7  A    between atoms: O5_16  and  C12_17 
REMARK    8  A    between atoms: C12_17  and  C13_18 
REMARK    9  A    between atoms: C13_18  and  C14_19 
REMARK   10  A    between atoms: C14_19  and  N1_20 
ROOT
HETATM    1  C7  UNL     1      17.724  21.569  20.734  1.00  0.00     0.132 C 
HETATM    2  C8  UNL     1      17.162  20.697  19.646  1.00  0.00     0.033 C 
HETATM    3  C9  UNL     1      18.188  19.621  19.337  1.00  0.00     0.017 C 
HETATM    4  C10 UNL     1      18.930  19.299  20.617  1.00  0.00     0.085 C 
HETATM    5  C19 UNL     1      19.856  20.436  21.010  1.00  0.00     0.017 C 
HETATM    6  C20 UNL     1      19.208  21.723  20.480  1.00  0.00     0.033 C 
ENDROOT
BRANCH   1   7
HETATM    7  O3  UNL     1      17.059  22.788  20.889  1.00  0.00    -0.313 OA
BRANCH   7   8
HETATM    8  C6  UNL     1      16.367  23.154  22.034  1.00  0.00     0.306 C 
HETATM    9  O2  UNL     1      15.519  22.323  22.450  1.00  0.00    -0.261 OA
BRANCH   8  10
HETATM   10  C5  UNL     1      16.622  24.469  22.733  1.00  0.00     0.277 C 
HETATM   11  O1  UNL     1      15.402  24.951  23.109  1.00  0.00    -0.359 OA
HETATM   12  C4  UNL     1      15.336  26.218  23.569  1.00  0.00     0.178 C 
HETATM   13  C2  UNL     1      16.103  27.237  22.769  1.00  0.00    -0.023 C 
HETATM   14  C1  UNL     1      15.261  27.699  21.592  1.00  0.00     0.017 C 
HETATM   15  C3  UNL     1      16.274  28.464  23.667  1.00  0.00     0.017 C 
HETATM   16  C23 UNL     1      17.406  26.736  22.253  1.00  0.00     0.052 C 
HETATM   17  C22 UNL     1      17.272  25.355  21.713  1.00  0.00     0.225 C 
HETATM   18  F4  UNL     1      18.495  24.904  21.303  1.00  0.00    -0.245 F 
BRANCH  10  19
HETATM   19  C21 UNL     1      17.528  24.133  23.894  1.00  0.00     0.431 C 
HETATM   20  F1  UNL     1      16.733  23.448  24.824  1.00  0.00    -0.167 F 
HETATM   21  F2  UNL     1      18.514  23.283  23.492  1.00  0.00    -0.167 F 
HETATM   22  F3  UNL     1      18.048  25.204  24.530  1.00  0.00    -0.167 F 
ENDBRANCH  10  19
ENDBRANCH   8  10
ENDBRANCH   7   8
ENDBRANCH   1   7
BRANCH   4  23
HETATM   23  C11 UNL     1      19.773  18.096  20.451  1.00  0.00     0.263 C 
HETATM   24  O4  UNL     1      19.305  17.099  19.855  1.00  0.00    -0.265 OA
BRANCH  23  25
HETATM   25  O5  UNL     1      21.069  18.001  20.922  1.00  0.00    -0.321 OA
BRANCH  25  26
HETATM   26  C12 UNL     1      21.495  16.912  21.753  1.00  0.00     0.180 C 
BRANCH  26  27
HETATM   27  C13 UNL     1      22.295  17.449  22.919  1.00  0.00     0.057 C 
BRANCH  27  28
HETATM   28  C14 UNL     1      22.886  18.758  22.508  1.00  0.00     0.274 C 
BRANCH  28  29
HETATM   29  N1  UNL     1      22.900  19.711  23.568  1.00  0.00     0.092 N 
HETATM   30  C15 UNL     1      23.703  19.276  24.700  1.00  0.00     0.298 C 
HETATM   31  C16 UNL     1      23.992  20.364  25.680  1.00  0.00     0.198 C 
HETATM   32  O6  UNL     1      23.154  21.465  25.556  1.00  0.00    -0.388 OA
HETATM   33  C17 UNL     1      23.159  22.025  24.307  1.00  0.00     0.198 C 
HETATM   34  C18 UNL     1      23.374  21.008  23.203  1.00  0.00     0.298 C 
ENDBRANCH  28  29
ENDBRANCH  27  28
ENDBRANCH  26  27
ENDBRANCH  25  26
ENDBRANCH  23  25
ENDBRANCH   4  23
TORSDOF 10
ENDMDL
MODEL 3
REMARK VINA RESULT: -5.402983810      4.475     11.113
REMARK  10 active torsions:
REMARK  status: ('A' for Active; 'I' for Inactive)
REMARK    1  A    between atoms: C5_6  and  C6_7 
REMARK    2  A    between atoms: C5_6  and  C21_28 
REMARK    3  A    between atoms: C6_7  and  O3_9 
REMARK    4  A    between atoms: O3_9  and  C7_10 
REMARK    5  A    between atoms: C10_13  and  C11_14 
REMARK    6  A    between atoms: C11_14  and  O5_16 
REMARK    7  A    between atoms: O5_16  and  C12_17 
REMARK    8  A    between atoms: C12_17  and  C13_18 
REMARK    9  A    between atoms: C13_18  and  C14_19 
REMARK   10  A    between atoms: C14_19  and  N1_20 
ROOT
HETATM    1  C7  UNL     1      18.086  15.742  19.874  1.00  0.00     0.132 C 
HETATM    2  C8  UNL     1      18.985  15.082  18.866  1.00  0.00     0.033 C 
HETATM    3  C9  UNL     1      20.315  15.815  18.880  1.00  0.00     0.017 C 
HETATM    4  C10 UNL     1      20.559  16.317  20.288  1.00  0.00     0.085 C 
HETATM    5  C19 UNL     1      19.625  17.465  20.627  1.00  0.00     0.017 C 
HETATM    6  C20 UNL     1      18.344  17.232  19.815  1.00  0.00     0.033 C 
ENDROOT
BRANCH   1   7
HETATM    7  O3  UNL     1      16.736  15.408  19.738  1.00  0.00    -0.313 OA
BRANCH   7   8
HETATM    8  C6  UNL     1      16.236  14.123  19.893  1.00  0.00     0.306 C 
HETATM    9  O2  UNL     1      16.986  13.312  20.494  1.00  0.00    -0.261 OA
BRANCH   8  10
HETATM   10  C5  UNL     1      14.873  13.731  19.370  1.00  0.00     0.277 C 
HETATM   11  O1  UNL     1      13.959  14.293  20.212  1.00  0.00    -0.359 OA
HETATM   12  C4  UNL     1      12.667  13.921  20.085  1.00  0.00     0.178 C 
HETATM   13  C2  UNL     1      12.434  12.441  19.935  1.00  0.00    -0.023 C 
HETATM   14  C1  UNL     1      12.411  11.786  21.306  1.00  0.00     0.017 C 
HETATM   15  C3  UNL     1      11.022  12.273  19.370  1.00  0.00     0.017 C 
HETATM   16  C23 UNL     1      13.457  11.755  19.098  1.00  0.00     0.052 C 
HETATM   17  C22 UNL     1      14.827  12.233  19.429  1.00  0.00     0.225 C 
HETATM   18  F4  UNL     1      15.734  11.629  18.605  1.00  0.00    -0.245 F 
BRANCH  10  19
HETATM   19  C21 UNL     1      14.817  14.273  17.960  1.00  0.00     0.431 C 
HETATM   20  F1  UNL     1      14.460  15.623  18.076  1.00  0.00    -0.167 F 
HETATM   21  F2  UNL     1      16.052  14.222  17.386  1.00  0.00    -0.167 F 
HETATM   22  F3  UNL     1      13.895  13.686  17.169  1.00  0.00    -0.167 F 
ENDBRANCH  10  19
ENDBRANCH   8  10
ENDBRANCH   7   8
ENDBRANCH   1   7
BRANCH   4  23
HETATM   23  C11 UNL     1      21.939  16.826  20.436  1.00  0.00     0.263 C 
HETATM   24  O4  UNL     1      22.421  17.554  19.538  1.00  0.00    -0.265 OA
BRANCH  23  25
HETATM   25  O5  UNL     1      22.745  16.545  21.523  1.00  0.00    -0.321 OA
BRANCH  25  26
HETATM   26  C12 UNL     1      22.423  17.005  22.843  1.00  0.00     0.180 C 
BRANCH  26  27
HETATM   27  C13 UNL     1      22.645  18.500  22.926  1.00  0.00     0.057 C 
BRANCH  27  28
HETATM   28  C14 UNL     1      23.546  18.768  24.087  1.00  0.00     0.274 C 
BRANCH  28  29
HETATM   29  N1  UNL     1      23.301  20.036  24.690  1.00  0.00     0.092 N 
HETATM   30  C15 UNL     1      24.072  20.235  25.907  1.00  0.00     0.298 C 
HETATM   31  C16 UNL     1      24.080  21.649  26.385  1.00  0.00     0.198 C 
HETATM   32  O6  UNL     1      23.072  22.430  25.834  1.00  0.00    -0.388 OA
HETATM   33  C17 UNL     1      23.080  22.459  24.465  1.00  0.00     0.198 C 
HETATM   34  C18 UNL     1      23.564  21.161  23.849  1.00  0.00     0.298 C 
ENDBRANCH  28  29
ENDBRANCH  27  28
ENDBRANCH  26  27
ENDBRANCH  25  26
ENDBRANCH  23  25
ENDBRANCH   4  23
TORSDOF 10
ENDMDL
MODEL 4
REMARK VINA RESULT: -5.362714364      4.569     11.486
REMARK  10 active torsions:
REMARK  status: ('A' for Active; 'I' for Inactive)
REMARK    1  A    between atoms: C5_6  and  C6_7 
REMARK    2  A    between atoms: C5_6  and  C21_28 
REMARK    3  A    between atoms: C6_7  and  O3_9 
REMARK    4  A    between atoms: O3_9  and  C7_10 
REMARK    5  A    between atoms: C10_13  and  C11_14 
REMARK    6  A    between atoms: C11_14  and  O5_16 
REMARK    7  A    between atoms: O5_16  and  C12_17 
REMARK    8  A    between atoms: C12_17  and  C13_18 
REMARK    9  A    between atoms: C13_18  and  C14_19 
REMARK   10  A    between atoms: C14_19  and  N1_20 
ROOT
HETATM    1  C7  UNL     1      17.416  15.822  19.167  1.00  0.00     0.132 C 
HETATM    2  C8  UNL     1      18.559  15.001  18.638  1.00  0.00     0.033 C 
HETATM    3  C9  UNL     1      19.850  15.711  19.008  1.00  0.00     0.017 C 
HETATM    4  C10 UNL     1      19.633  16.423  20.327  1.00  0.00     0.085 C 
HETATM    5  C19 UNL     1      18.717  17.622  20.155  1.00  0.00     0.017 C 
HETATM    6  C20 UNL     1      17.777  17.282  18.990  1.00  0.00     0.033 C 
ENDROOT
BRANCH   1   7
HETATM    7  O3  UNL     1      16.174  15.489  18.620  1.00  0.00    -0.313 OA
BRANCH   7   8
HETATM    8  C6  UNL     1      15.171  14.833  19.319  1.00  0.00     0.306 C 
HETATM    9  O2  UNL     1      14.793  15.386  20.384  1.00  0.00    -0.261 OA
BRANCH   8  10
HETATM   10  C5  UNL     1      14.573  13.536  18.824  1.00  0.00     0.277 C 
HETATM   11  O1  UNL     1      14.093  13.785  17.571  1.00  0.00    -0.359 OA
HETATM   12  C4  UNL     1      13.322  12.841  16.989  1.00  0.00     0.178 C 
HETATM   13  C2  UNL     1      12.261  12.240  17.872  1.00  0.00    -0.023 C 
HETATM   14  C1  UNL     1      11.033  13.135  17.876  1.00  0.00     0.017 C 
HETATM   15  C3  UNL     1      11.823  10.934  17.206  1.00  0.00     0.017 C 
HETATM   16  C23 UNL     1      12.700  12.030  19.279  1.00  0.00     0.052 C 
HETATM   17  C22 UNL     1      13.467  13.203  19.780  1.00  0.00     0.225 C 
HETATM   18  F4  UNL     1      13.905  12.954  21.051  1.00  0.00    -0.245 F 
BRANCH  10  19
HETATM   19  C21 UNL     1      15.707  12.538  18.854  1.00  0.00     0.431 C 
HETATM   20  F1  UNL     1      16.431  12.736  17.670  1.00  0.00    -0.167 F 
HETATM   21  F2  UNL     1      16.543  12.807  19.897  1.00  0.00    -0.167 F 
HETATM   22  F3  UNL     1      15.320  11.246  18.871  1.00  0.00    -0.167 F 
ENDBRANCH  10  19
ENDBRANCH   8  10
ENDBRANCH   7   8
ENDBRANCH   1   7
BRANCH   4  23
HETATM   23  C11 UNL     1      20.910  16.931  20.870  1.00  0.00     0.263 C 
HETATM   24  O4  UNL     1      21.570  17.762  20.204  1.00  0.00    -0.265 OA
BRANCH  23  25
HETATM   25  O5  UNL     1      21.431  16.541  22.090  1.00  0.00    -0.321 OA
BRANCH  25  26
HETATM   26  C12 UNL     1      22.774  16.864  22.477  1.00  0.00     0.180 C 
BRANCH  26  27
HETATM   27  C13 UNL     1      22.745  17.843  23.630  1.00  0.00     0.057 C 
BRANCH  27  28
HETATM   28  C14 UNL     1      23.189  19.174  23.115  1.00  0.00     0.274 C 
BRANCH  28  29
HETATM   29  N1  UNL     1      23.074  20.206  24.090  1.00  0.00     0.092 N 
HETATM   30  C15 UNL     1      23.861  19.938  25.284  1.00  0.00     0.298 C 
HETATM   31  C16 UNL     1      24.011  21.123  26.179  1.00  0.00     0.198 C 
HETATM   32  O6  UNL     1      23.088  22.131  25.931  1.00  0.00    -0.388 OA
HETATM   33  C17 UNL     1      23.100  22.586  24.640  1.00  0.00     0.198 C 
HETATM   34  C18 UNL     1      23.450  21.508  23.635  1.00  0.00     0.298 C 
ENDBRANCH  28  29
ENDBRANCH  27  28
ENDBRANCH  26  27
ENDBRANCH  25  26
ENDBRANCH  23  25
ENDBRANCH   4  23
TORSDOF 10
ENDMDL
MODEL 5
REMARK VINA RESULT: -5.329322210      0.995      1.294
REMARK  10 active torsions:
REMARK  status: ('A' for Active; 'I' for Inactive)
REMARK    1  A    between atoms: C5_6  and  C6_7 
REMARK    2  A    between atoms: C5_6  and  C21_28 
REMARK    3  A    between atoms: C6_7  and  O3_9 
REMARK    4  A    between atoms: O3_9  and  C7_10 
REMARK    5  A    between atoms: C10_13  and  C11_14 
REMARK    6  A    between atoms: C11_14  and  O5_16 
REMARK    7  A    between atoms: O5_16  and  C12_17 
REMARK    8  A    between atoms: C12_17  and  C13_18 
REMARK    9  A    between atoms: C13_18  and  C14_19 
REMARK   10  A    between atoms: C14_19  and  N1_20 
ROOT
HETATM    1  C7  UNL     1      23.098  17.428  21.580  1.00  0.00     0.132 C 
HETATM    2  C8  UNL     1      23.762  16.342  20.782  1.00  0.00     0.033 C 
HETATM    3  C9  UNL     1      22.672  15.464  20.195  1.00  0.00     0.017 C 
HETATM    4  C10 UNL     1      21.465  16.337  19.918  1.00  0.00     0.085 C 
HETATM    5  C19 UNL     1      20.791  16.759  21.211  1.00  0.00     0.017 C 
HETATM    6  C20 UNL     1      21.897  16.822  22.273  1.00  0.00     0.033 C 
ENDROOT
BRANCH   1   7
HETATM    7  O3  UNL     1      23.957  18.103  22.451  1.00  0.00    -0.313 OA
BRANCH   7   8
HETATM    8  C6  UNL     1      24.379  19.412  22.264  1.00  0.00     0.306 C 
HETATM    9  O2  UNL     1      25.026  19.633  21.209  1.00  0.00    -0.261 OA
BRANCH   8  10
HETATM   10  C5  UNL     1      24.073  20.498  23.270  1.00  0.00     0.277 C 
HETATM   11  O1  UNL     1      25.210  21.243  23.391  1.00  0.00    -0.359 OA
HETATM   12  C4  UNL     1      25.268  22.153  24.387  1.00  0.00     0.178 C 
HETATM   13  C2  UNL     1      24.783  21.673  25.729  1.00  0.00    -0.023 C 
HETATM   14  C1  UNL     1      25.902  20.933  26.441  1.00  0.00     0.017 C 
HETATM   15  C3  UNL     1      24.508  22.922  26.570  1.00  0.00     0.017 C 
HETATM   16  C23 UNL     1      23.596  20.778  25.653  1.00  0.00     0.052 C 
HETATM   17  C22 UNL     1      23.741  19.790  24.550  1.00  0.00     0.225 C 
HETATM   18  F4  UNL     1      22.612  19.025  24.468  1.00  0.00    -0.245 F 
BRANCH  10  19
HETATM   19  C21 UNL     1      22.905  21.260  22.691  1.00  0.00     0.431 C 
HETATM   20  F1  UNL     1      23.435  22.079  21.683  1.00  0.00    -0.167 F 
HETATM   21  F2  UNL     1      22.027  20.400  22.102  1.00  0.00    -0.167 F 
HETATM   22  F3  UNL     1      22.271  22.068  23.565  1.00  0.00    -0.167 F 
ENDBRANCH  10  19
ENDBRANCH   8  10
ENDBRANCH   7   8
ENDBRANCH   1   7
BRANCH   4  23
HETATM   23  C11 UNL     1      20.455  15.606  19.124  1.00  0.00     0.263 C 
HETATM   24  O4  UNL     1      20.802  15.046  18.059  1.00  0.00    -0.265 OA
BRANCH  23  25
HETATM   25  O5  UNL     1      19.126  15.500  19.491  1.00  0.00    -0.321 OA
BRANCH  25  26
HETATM   26  C12 UNL     1      18.075  16.081  18.705  1.00  0.00     0.180 C 
BRANCH  26  27
HETATM   27  C13 UNL     1      16.749  15.476  19.111  1.00  0.00     0.057 C 
BRANCH  27  28
HETATM   28  C14 UNL     1      17.026  14.330  20.029  1.00  0.00     0.274 C 
BRANCH  28  29
HETATM   29  N1  UNL     1      16.303  13.154  19.672  1.00  0.00     0.092 N 
HETATM   30  C15 UNL     1      14.883  13.260  19.969  1.00  0.00     0.298 C 
HETATM   31  C16 UNL     1      14.058  12.192  19.332  1.00  0.00     0.198 C 
HETATM   32  O6  UNL     1      14.797  11.096  18.905  1.00  0.00    -0.388 OA
HETATM   33  C17 UNL     1      15.804  11.414  18.033  1.00  0.00     0.198 C 
HETATM   34  C18 UNL     1      16.408  12.779  18.298  1.00  0.00     0.298 C 
ENDBRANCH  28  29
ENDBRANCH  27  28
ENDBRANCH  26  27
ENDBRANCH  25  26
ENDBRANCH  23  25
ENDBRANCH   4  23
TORSDOF 10
ENDMDL
