MODEL 1
REMARK VINA RESULT: -5.297611923      0.000      0.000
REMARK  8 active torsions:
REMARK  status: ('A' for Active; 'I' for Inactive)
REMARK    1  A    between atoms: N1_6  and  C6_7 
REMARK    2  A    between atoms: C7_10  and  N3_11 
REMARK    3  A    between atoms: C12_22  and  C13_23 
REMARK    4  A    between atoms: C13_23  and  C14_24 
REMARK    5  A    between atoms: C14_24  and  C17_27 
REMARK    6  A    between atoms: C17_27  and  N6_28 
REMARK    7  A    between atoms: N6_28  and  C19_30 
REMARK    8  A    between atoms: C19_30  and  C20_31 
ROOT
HETATM    1  C6  UNL     1      22.238  21.264  22.407  1.00  0.00     0.150 A 
HETATM    2  N2  UNL     1      23.125  21.567  23.401  1.00  0.00    -0.174 N 
ATOM      3  H2  UNL     1      23.840  20.877  23.635  1.00  0.00     0.186 HD
HETATM    4  C7  UNL     1      23.109  22.714  24.084  1.00  0.00     0.683 A 
HETATM    5  N4  UNL     1      22.168  23.611  23.770  1.00  0.00    -0.174 N 
ATOM      6  H4  UNL     1      22.127  24.499  24.270  1.00  0.00     0.186 HD
HETATM    7  C11 UNL     1      21.260  23.344  22.781  1.00  0.00     0.153 A 
HETATM    8  N5  UNL     1      20.232  24.053  22.296  1.00  0.00    -0.330 N 
ATOM      9  H5  UNL     1      19.969  24.982  22.624  1.00  0.00     0.168 HD
HETATM   10  C12 UNL     1      19.590  23.381  21.320  1.00  0.00     0.086 A 
HETATM   11  N7  UNL     1      20.250  22.216  21.202  1.00  0.00    -0.335 N 
HETATM   12  C22 UNL     1      19.886  21.130  20.277  1.00  0.00     0.158 C 
HETATM   13  C23 UNL     1      21.276  22.154  22.072  1.00  0.00     0.125 A 
ENDROOT
BRANCH  10  14
HETATM   14  C13 UNL     1      18.414  23.889  20.622  1.00  0.00     0.087 C 
BRANCH  14  15
HETATM   15  C14 UNL     1      17.109  23.748  21.430  1.00  0.00    -0.015 C 
HETATM   16  C15 UNL     1      16.680  22.344  21.551  1.00  0.00     0.017 C 
HETATM   17  C16 UNL     1      16.013  24.438  20.562  1.00  0.00     0.017 C 
BRANCH  15  18
HETATM   18  C17 UNL     1      17.300  24.575  22.637  1.00  0.00     0.281 C 
BRANCH  18  19
HETATM   19  N6  UNL     1      16.710  24.186  23.866  1.00  0.00     0.090 N 
HETATM   20  C18 UNL     1      17.714  23.944  24.860  1.00  0.00     0.310 C 
BRANCH  19  21
HETATM   21  C19 UNL     1      15.773  25.183  24.286  1.00  0.00     0.349 C 
BRANCH  21  22
HETATM   22  C20 UNL     1      14.338  24.926  24.040  1.00  0.00     0.266 C 
HETATM   23  C21 UNL     1      13.866  26.046  23.086  1.00  0.00     0.092 C 
HETATM   24  F3  UNL     1      13.555  24.989  25.159  1.00  0.00    -0.205 F 
HETATM   25  F4  UNL     1      14.131  23.716  23.376  1.00  0.00    -0.205 F 
ENDBRANCH  21  22
ENDBRANCH  19  21
ENDBRANCH  18  19
ENDBRANCH  15  18
ENDBRANCH  14  15
ENDBRANCH  10  14
BRANCH   1  26
HETATM   26  N1  UNL     1      22.429  20.033  21.767  1.00  0.00    -0.360 N 
HETATM   27  C4  UNL     1      23.095  19.813  20.514  1.00  0.00     0.082 C 
HETATM   28  C3  UNL     1      22.950  18.355  20.180  1.00  0.00     0.031 C 
HETATM   29  C5  UNL     1      24.619  20.020  20.746  1.00  0.00     0.032 C 
HETATM   30  C2  UNL     1      21.864  17.889  21.112  1.00  0.00     0.001 C 
HETATM   31  C1  UNL     1      22.042  16.438  21.525  1.00  0.00     0.011 C 
HETATM   32  C24 UNL     1      22.017  18.757  22.307  1.00  0.00     0.129 C 
ENDBRANCH   1  26
BRANCH   4  33
HETATM   33  N3  UNL     1      24.065  22.969  25.125  1.00  0.00    -0.206 N 
HETATM   34  C8  UNL     1      25.417  23.517  25.106  1.00  0.00     0.222 C 
HETATM   35  C9  UNL     1      25.308  23.728  26.601  1.00  0.00     0.276 C 
HETATM   36  F1  UNL     1      25.057  25.031  26.963  1.00  0.00    -0.203 F 
HETATM   37  F2  UNL     1      26.322  23.108  27.313  1.00  0.00    -0.203 F 
HETATM   38  C10 UNL     1      24.105  22.810  26.565  1.00  0.00     0.222 C 
ENDBRANCH   4  33
TORSDOF 8
ENDMDL
MODEL 2
REMARK VINA RESULT: -5.127886020      0.796      1.009
REMARK  8 active torsions:
REMARK  status: ('A' for Active; 'I' for Inactive)
REMARK    1  A    between atoms: N1_6  and  C6_7 
REMARK    2  A    between atoms: C7_10  and  N3_11 
REMARK    3  A    between atoms: C12_22  and  C13_23 
REMARK    4  A    between atoms: C13_23  and  C14_24 
REMARK    5  A    between atoms: C14_24  and  C17_27 
REMARK    6  A    between atoms: C17_27  and  N6_28 
REMARK    7  A    between atoms: N6_28  and  C19_30 
REMARK    8  A    between atoms: C19_30  and  C20_31 
ROOT
HETATM    1  C6  UNL     1      22.416  20.919  22.454  1.00  0.00     0.150 A 
HETATM    2  N2  UNL     1      23.268  21.005  23.519  1.00  0.00    -0.174 N 
ATOM      3  H2  UNL     1      23.901  20.225  23.694  1.00  0.00     0.186 HD
HETATM    4  C7  UNL     1      23.318  22.054  24.345  1.00  0.00     0.683 A 
HETATM    5  N4  UNL     1      22.484  23.073  24.106  1.00  0.00    -0.174 N 
ATOM      6  H4  UNL     1      22.496  23.891  24.716  1.00  0.00     0.186 HD
HETATM    7  C11 UNL     1      21.615  23.023  23.049  1.00  0.00     0.153 A 
HETATM    8  N5  UNL     1      20.688  23.886  22.614  1.00  0.00    -0.330 N 
ATOM      9  H5  UNL     1      20.493  24.788  23.047  1.00  0.00     0.168 HD
HETATM   10  C12 UNL     1      20.045  23.409  21.530  1.00  0.00     0.086 A 
HETATM   11  N7  UNL     1      20.600  22.208  21.291  1.00  0.00    -0.335 N 
HETATM   12  C22 UNL     1      20.193  21.288  20.216  1.00  0.00     0.158 C 
HETATM   13  C23 UNL     1      21.563  21.936  22.193  1.00  0.00     0.125 A 
ENDROOT
BRANCH  10  14
HETATM   14  C13 UNL     1      18.965  24.115  20.849  1.00  0.00     0.087 C 
BRANCH  14  15
HETATM   15  C14 UNL     1      17.595  23.955  21.539  1.00  0.00    -0.015 C 
HETATM   16  C15 UNL     1      17.163  22.548  21.594  1.00  0.00     0.017 C 
HETATM   17  C16 UNL     1      16.577  24.660  20.592  1.00  0.00     0.017 C 
BRANCH  15  18
HETATM   18  C17 UNL     1      17.678  24.758  22.773  1.00  0.00     0.281 C 
BRANCH  18  19
HETATM   19  N6  UNL     1      17.044  24.306  23.958  1.00  0.00     0.090 N 
HETATM   20  C18 UNL     1      18.010  24.046  24.986  1.00  0.00     0.310 C 
BRANCH  19  21
HETATM   21  C19 UNL     1      16.067  25.265  24.376  1.00  0.00     0.349 C 
BRANCH  21  22
HETATM   22  C20 UNL     1      14.651  24.988  24.054  1.00  0.00     0.266 C 
HETATM   23  C21 UNL     1      14.216  26.101  23.075  1.00  0.00     0.092 C 
HETATM   24  F3  UNL     1      13.808  25.042  25.129  1.00  0.00    -0.205 F 
HETATM   25  F4  UNL     1      14.495  23.775  23.382  1.00  0.00    -0.205 F 
ENDBRANCH  21  22
ENDBRANCH  19  21
ENDBRANCH  18  19
ENDBRANCH  15  18
ENDBRANCH  14  15
ENDBRANCH  10  14
BRANCH   1  26
HETATM   26  N1  UNL     1      22.530  19.765  21.668  1.00  0.00    -0.360 N 
HETATM   27  C4  UNL     1      23.239  19.641  20.426  1.00  0.00     0.082 C 
HETATM   28  C3  UNL     1      22.982  18.257  19.901  1.00  0.00     0.031 C 
HETATM   29  C5  UNL     1      24.761  19.671  20.745  1.00  0.00     0.032 C 
HETATM   30  C2  UNL     1      21.811  17.784  20.719  1.00  0.00     0.001 C 
HETATM   31  C1  UNL     1      21.836  16.282  20.948  1.00  0.00     0.011 C 
HETATM   32  C24 UNL     1      21.978  18.477  22.021  1.00  0.00     0.129 C 
ENDBRANCH   1  26
BRANCH   4  33
HETATM   33  N3  UNL     1      24.231  22.080  25.453  1.00  0.00    -0.206 N 
HETATM   34  C8  UNL     1      24.375  22.987  26.586  1.00  0.00     0.222 C 
HETATM   35  C9  UNL     1      25.235  21.940  27.261  1.00  0.00     0.276 C 
HETATM   36  F1  UNL     1      24.582  21.228  28.239  1.00  0.00    -0.203 F 
HETATM   37  F2  UNL     1      26.487  22.414  27.620  1.00  0.00    -0.203 F 
HETATM   38  C10 UNL     1      25.338  21.265  25.911  1.00  0.00     0.222 C 
ENDBRANCH   4  33
TORSDOF 8
ENDMDL
MODEL 3
REMARK VINA RESULT: -5.127089932      6.881     11.780
REMARK  8 active torsions:
REMARK  status: ('A' for Active; 'I' for Inactive)
REMARK    1  A    between atoms: N1_6  and  C6_7 
REMARK    2  A    between atoms: C7_10  and  N3_11 
REMARK    3  A    between atoms: C12_22  and  C13_23 
REMARK    4  A    between atoms: C13_23  and  C14_24 
REMARK    5  A    between atoms: C14_24  and  C17_27 
REMARK    6  A    between atoms: C17_27  and  N6_28 
REMARK    7  A    between atoms: N6_28  and  C19_30 
REMARK    8  A    between atoms: C19_30  and  C20_31 
ROOT
HETATM    1  C6  UNL     1      15.028  16.865  19.963  1.00  0.00     0.150 A 
HETATM    2  N2  UNL     1      14.105  15.858  20.020  1.00  0.00    -0.174 N 
ATOM      3  H2  UNL     1      13.117  16.109  19.984  1.00  0.00     0.186 HD
HETATM    4  C7  UNL     1      14.425  14.565  20.120  1.00  0.00     0.683 A 
HETATM    5  N4  UNL     1      15.724  14.248  20.167  1.00  0.00    -0.174 N 
ATOM      6  H4  UNL     1      16.004  13.271  20.243  1.00  0.00     0.186 HD
HETATM    7  C11 UNL     1      16.678  15.228  20.114  1.00  0.00     0.153 A 
HETATM    8  N5  UNL     1      18.015  15.177  20.158  1.00  0.00    -0.330 N 
ATOM      9  H5  UNL     1      18.555  14.315  20.233  1.00  0.00     0.168 HD
HETATM   10  C12 UNL     1      18.557  16.409  20.090  1.00  0.00     0.086 A 
HETATM   11  N7  UNL     1      17.510  17.249  20.001  1.00  0.00    -0.335 N 
HETATM   12  C22 UNL     1      17.609  18.716  19.940  1.00  0.00     0.158 C 
HETATM   13  C23 UNL     1      16.347  16.569  20.010  1.00  0.00     0.125 A 
ENDROOT
BRANCH  10  14
HETATM   14  C13 UNL     1      19.991  16.671  20.142  1.00  0.00     0.087 C 
BRANCH  14  15
HETATM   15  C14 UNL     1      20.671  16.654  18.759  1.00  0.00    -0.015 C 
HETATM   16  C15 UNL     1      19.702  16.827  17.663  1.00  0.00     0.017 C 
HETATM   17  C16 UNL     1      21.223  15.206  18.593  1.00  0.00     0.017 C 
BRANCH  15  18
HETATM   18  C17 UNL     1      21.831  17.558  18.877  1.00  0.00     0.281 C 
BRANCH  18  19
HETATM   19  N6  UNL     1      23.109  17.035  19.196  1.00  0.00     0.090 N 
HETATM   20  C18 UNL     1      24.098  17.505  18.270  1.00  0.00     0.310 C 
BRANCH  19  21
HETATM   21  C19 UNL     1      23.442  17.369  20.547  1.00  0.00     0.349 C 
BRANCH  21  22
HETATM   22  C20 UNL     1      23.398  16.288  21.554  1.00  0.00     0.266 C 
HETATM   23  C21 UNL     1      24.642  16.494  22.447  1.00  0.00     0.092 C 
HETATM   24  F3  UNL     1      23.479  15.027  21.031  1.00  0.00    -0.205 F 
HETATM   25  F4  UNL     1      22.282  16.393  22.385  1.00  0.00    -0.205 F 
ENDBRANCH  21  22
ENDBRANCH  19  21
ENDBRANCH  18  19
ENDBRANCH  15  18
ENDBRANCH  14  15
ENDBRANCH  10  14
BRANCH   1  26
HETATM   26  N1  UNL     1      14.515  18.160  19.814  1.00  0.00    -0.360 N 
HETATM   27  C4  UNL     1      14.310  18.863  18.579  1.00  0.00     0.082 C 
HETATM   28  C3  UNL     1      13.856  20.253  18.926  1.00  0.00     0.031 C 
HETATM   29  C5  UNL     1      13.092  18.213  17.862  1.00  0.00     0.032 C 
HETATM   30  C2  UNL     1      14.191  20.375  20.388  1.00  0.00     0.001 C 
HETATM   31  C1  UNL     1      13.218  21.278  21.128  1.00  0.00     0.011 C 
HETATM   32  C24 UNL     1      14.059  18.990  20.906  1.00  0.00     0.129 C 
ENDBRANCH   1  26
BRANCH   4  33
HETATM   33  N3  UNL     1      13.407  13.555  20.184  1.00  0.00    -0.206 N 
HETATM   34  C8  UNL     1      13.416  12.129  19.875  1.00  0.00     0.222 C 
HETATM   35  C9  UNL     1      12.116  11.998  20.639  1.00  0.00     0.276 C 
HETATM   36  F1  UNL     1      12.261  11.467  21.899  1.00  0.00    -0.203 F 
HETATM   37  F2  UNL     1      11.095  11.442  19.884  1.00  0.00    -0.203 F 
HETATM   38  C10 UNL     1      12.010  13.506  20.567  1.00  0.00     0.222 C 
ENDBRANCH   4  33
TORSDOF 8
ENDMDL
MODEL 4
REMARK VINA RESULT: -5.111592580      6.251      8.783
REMARK  8 active torsions:
REMARK  status: ('A' for Active; 'I' for Inactive)
REMARK    1  A    between atoms: N1_6  and  C6_7 
REMARK    2  A    between atoms: C7_10  and  N3_11 
REMARK    3  A    between atoms: C12_22  and  C13_23 
REMARK    4  A    between atoms: C13_23  and  C14_24 
REMARK    5  A    between atoms: C14_24  and  C17_27 
REMARK    6  A    between atoms: C17_27  and  N6_28 
REMARK    7  A    between atoms: N6_28  and  C19_30 
REMARK    8  A    between atoms: C19_30  and  C20_31 
ROOT
HETATM    1  C6  UNL     1      19.247  18.158  20.043  1.00  0.00     0.150 A 
HETATM    2  N2  UNL     1      18.980  19.426  20.479  1.00  0.00    -0.174 N 
ATOM      3  H2  UNL     1      19.739  19.959  20.905  1.00  0.00     0.186 HD
HETATM    4  C7  UNL     1      17.782  20.007  20.378  1.00  0.00     0.683 A 
HETATM    5  N4  UNL     1      16.794  19.300  19.818  1.00  0.00    -0.174 N 
ATOM      6  H4  UNL     1      15.866  19.712  19.724  1.00  0.00     0.186 HD
HETATM    7  C11 UNL     1      17.022  18.026  19.371  1.00  0.00     0.153 A 
HETATM    8  N5  UNL     1      16.215  17.122  18.799  1.00  0.00    -0.330 N 
ATOM      9  H5  UNL     1      15.230  17.281  18.591  1.00  0.00     0.168 HD
HETATM   10  C12 UNL     1      16.873  15.976  18.535  1.00  0.00     0.086 A 
HETATM   11  N7  UNL     1      18.131  16.186  18.961  1.00  0.00    -0.335 N 
HETATM   12  C22 UNL     1      19.215  15.191  18.913  1.00  0.00     0.158 C 
HETATM   13  C23 UNL     1      18.264  17.424  19.475  1.00  0.00     0.125 A 
ENDROOT
BRANCH  10  14
HETATM   14  C13 UNL     1      16.249  14.800  17.938  1.00  0.00     0.087 C 
BRANCH  14  15
HETATM   15  C14 UNL     1      15.457  13.944  18.947  1.00  0.00    -0.015 C 
HETATM   16  C15 UNL     1      16.199  13.738  20.202  1.00  0.00     0.017 C 
HETATM   17  C16 UNL     1      15.355  12.532  18.293  1.00  0.00     0.017 C 
BRANCH  15  18
HETATM   18  C17 UNL     1      14.098  14.518  18.971  1.00  0.00     0.281 C 
BRANCH  18  19
HETATM   19  N6  UNL     1      13.423  14.694  20.204  1.00  0.00     0.090 N 
HETATM   20  C18 UNL     1      13.158  16.083  20.448  1.00  0.00     0.310 C 
BRANCH  19  21
HETATM   21  C19 UNL     1      12.224  13.914  20.212  1.00  0.00     0.349 C 
BRANCH  21  22
HETATM   22  C20 UNL     1      12.341  12.474  20.526  1.00  0.00     0.266 C 
HETATM   23  C21 UNL     1      11.064  12.109  21.314  1.00  0.00     0.092 C 
HETATM   24  F3  UNL     1      13.410  12.155  21.316  1.00  0.00    -0.205 F 
HETATM   25  F4  UNL     1      12.343  11.687  19.373  1.00  0.00    -0.205 F 
ENDBRANCH  21  22
ENDBRANCH  19  21
ENDBRANCH  18  19
ENDBRANCH  15  18
ENDBRANCH  14  15
ENDBRANCH  10  14
BRANCH   1  26
HETATM   26  N1  UNL     1      20.572  17.726  20.188  1.00  0.00    -0.360 N 
HETATM   27  C4  UNL     1      21.584  17.710  19.170  1.00  0.00     0.082 C 
HETATM   28  C3  UNL     1      22.802  17.056  19.761  1.00  0.00     0.031 C 
HETATM   29  C5  UNL     1      22.010  19.183  18.906  1.00  0.00     0.032 C 
HETATM   30  C2  UNL     1      22.273  16.390  21.002  1.00  0.00     0.001 C 
HETATM   31  C1  UNL     1      23.309  16.334  22.112  1.00  0.00     0.011 C 
HETATM   32  C24 UNL     1      21.149  17.260  21.429  1.00  0.00     0.129 C 
ENDBRANCH   1  26
BRANCH   4  33
HETATM   33  N3  UNL     1      17.563  21.341  20.864  1.00  0.00    -0.206 N 
HETATM   34  C8  UNL     1      16.447  22.269  20.720  1.00  0.00     0.222 C 
HETATM   35  C9  UNL     1      17.026  23.077  21.861  1.00  0.00     0.276 C 
HETATM   36  F1  UNL     1      16.383  22.887  23.062  1.00  0.00    -0.203 F 
HETATM   37  F2  UNL     1      17.259  24.401  21.526  1.00  0.00    -0.203 F 
HETATM   38  C10 UNL     1      18.305  22.292  21.666  1.00  0.00     0.222 C 
ENDBRANCH   4  33
TORSDOF 8
ENDMDL
MODEL 5
REMARK VINA RESULT: -5.079119675      1.482      2.024
REMARK  8 active torsions:
REMARK  status: ('A' for Active; 'I' for Inactive)
REMARK    1  A    between atoms: N1_6  and  C6_7 
REMARK    2  A    between atoms: C7_10  and  N3_11 
REMARK    3  A    between atoms: C12_22  and  C13_23 
REMARK    4  A    between atoms: C13_23  and  C14_24 
REMARK    5  A    between atoms: C14_24  and  C17_27 
REMARK    6  A    between atoms: C17_27  and  N6_28 
REMARK    7  A    between atoms: N6_28  and  C19_30 
REMARK    8  A    between atoms: C19_30  and  C20_31 
ROOT
HETATM    1  C6  UNL     1      23.113  20.795  23.289  1.00  0.00     0.150 A 
HETATM    2  N2  UNL     1      23.946  20.838  24.372  1.00  0.00    -0.174 N 
ATOM      3  H2  UNL     1      24.563  20.042  24.537  1.00  0.00     0.186 HD
HETATM    4  C7  UNL     1      23.998  21.864  25.226  1.00  0.00     0.683 A 
HETATM    5  N4  UNL     1      23.185  22.902  25.000  1.00  0.00    -0.174 N 
ATOM      6  H4  UNL     1      23.199  23.702  25.632  1.00  0.00     0.186 HD
HETATM    7  C11 UNL     1      22.336  22.895  23.927  1.00  0.00     0.153 A 
HETATM    8  N5  UNL     1      21.431  23.785  23.498  1.00  0.00    -0.330 N 
ATOM      9  H5  UNL     1      21.243  24.678  23.953  1.00  0.00     0.168 HD
HETATM   10  C12 UNL     1      20.801  23.348  22.390  1.00  0.00     0.086 A 
HETATM   11  N7  UNL     1      21.341  22.145  22.129  1.00  0.00    -0.335 N 
HETATM   12  C22 UNL     1      20.938  21.261  21.022  1.00  0.00     0.158 C 
HETATM   13  C23 UNL     1      22.282  21.832  23.041  1.00  0.00     0.125 A 
ENDROOT
BRANCH  10  14
HETATM   14  C13 UNL     1      19.744  24.090  21.710  1.00  0.00     0.087 C 
BRANCH  14  15
HETATM   15  C14 UNL     1      18.366  23.962  22.390  1.00  0.00    -0.015 C 
HETATM   16  C15 UNL     1      18.483  23.644  23.823  1.00  0.00     0.017 C 
HETATM   17  C16 UNL     1      17.706  22.707  21.743  1.00  0.00     0.017 C 
BRANCH  15  18
HETATM   18  C17 UNL     1      17.597  25.142  21.949  1.00  0.00     0.281 C 
BRANCH  18  19
HETATM   19  N6  UNL     1      17.038  26.023  22.907  1.00  0.00     0.090 N 
HETATM   20  C18 UNL     1      17.423  27.379  22.640  1.00  0.00     0.310 C 
BRANCH  19  21
HETATM   21  C19 UNL     1      15.615  25.868  22.929  1.00  0.00     0.349 C 
BRANCH  21  22
HETATM   22  C20 UNL     1      15.041  24.922  23.910  1.00  0.00     0.266 C 
HETATM   23  C21 UNL     1      13.582  25.378  24.131  1.00  0.00     0.092 C 
HETATM   24  F3  UNL     1      15.658  24.932  25.130  1.00  0.00    -0.205 F 
HETATM   25  F4  UNL     1      14.986  23.621  23.409  1.00  0.00    -0.205 F 
ENDBRANCH  21  22
ENDBRANCH  19  21
ENDBRANCH  18  19
ENDBRANCH  15  18
ENDBRANCH  14  15
ENDBRANCH  10  14
BRANCH   1  26
HETATM   26  N1  UNL     1      23.224  19.661  22.474  1.00  0.00    -0.360 N 
HETATM   27  C4  UNL     1      24.049  19.521  21.308  1.00  0.00     0.082 C 
HETATM   28  C3  UNL     1      23.746  18.178  20.705  1.00  0.00     0.031 C 
HETATM   29  C5  UNL     1      25.527  19.420  21.785  1.00  0.00     0.032 C 
HETATM   30  C2  UNL     1      22.463  17.774  21.378  1.00  0.00     0.001 C 
HETATM   31  C1  UNL     1      22.350  16.268  21.548  1.00  0.00     0.011 C 
HETATM   32  C24 UNL     1      22.541  18.410  22.716  1.00  0.00     0.129 C 
ENDBRANCH   1  26
BRANCH   4  33
HETATM   33  N3  UNL     1      24.890  21.844  26.351  1.00  0.00    -0.206 N 
HETATM   34  C8  UNL     1      24.842  21.149  27.633  1.00  0.00     0.222 C 
HETATM   35  C9  UNL     1      26.313  21.461  27.810  1.00  0.00     0.276 C 
HETATM   36  F1  UNL     1      27.143  20.396  27.551  1.00  0.00    -0.203 F 
HETATM   37  F2  UNL     1      26.585  22.143  28.985  1.00  0.00    -0.203 F 
HETATM   38  C10 UNL     1      26.156  22.464  26.688  1.00  0.00     0.222 C 
ENDBRANCH   4  33
TORSDOF 8
ENDMDL
