MODEL 1
REMARK VINA RESULT: -5.946923384      0.000      0.000
REMARK  7 active torsions:
REMARK  status: ('A' for Active; 'I' for Inactive)
REMARK    1  A    between atoms: C2_2  and  C4_4 
REMARK    2  A    between atoms: C5_5  and  C6_6 
REMARK    3  A    between atoms: C6_6  and  O1_7 
REMARK    4  A    between atoms: O1_7  and  C7_8 
REMARK    5  A    between atoms: C8_11  and  C9_12 
REMARK    6  A    between atoms: C12_17  and  N2_18 
REMARK    7  A    between atoms: C23_34  and  N5_35 
ROOT
HETATM    1  C7  UNL     1      20.721  22.130  21.984  1.00  0.00     0.170 A 
HETATM    2  N1  UNL     1      19.972  21.222  21.313  1.00  0.00    -0.334 N 
ATOM      3  H1  UNL     1      19.061  21.523  20.966  1.00  0.00     0.168 HD
HETATM    4  C8  UNL     1      20.343  19.958  21.075  1.00  0.00     0.076 A 
HETATM    5  C10 UNL     1      21.569  19.537  21.538  1.00  0.00     0.033 A 
HETATM    6  C11 UNL     1      22.373  20.414  22.227  1.00  0.00     0.036 A 
HETATM    7  C12 UNL     1      21.945  21.731  22.454  1.00  0.00     0.082 A 
ENDROOT
BRANCH   1   8
HETATM    8  O1  UNL     1      20.290  23.429  22.202  1.00  0.00    -0.334 OA
BRANCH   8   9
HETATM    9  C6  UNL     1      19.061  23.780  21.583  1.00  0.00     0.182 C 
BRANCH   9  10
HETATM   10  C5  UNL     1      18.063  24.258  22.545  1.00  0.00     0.022 C 
HETATM   11  C4  UNL     1      16.649  23.973  22.315  1.00  0.00     0.035 C 
HETATM   12  C23 UNL     1      16.017  24.449  23.604  1.00  0.00     0.298 C 
HETATM   13  C22 UNL     1      17.102  24.571  24.622  1.00  0.00     0.275 C 
HETATM   14  C21 UNL     1      18.332  23.900  23.989  1.00  0.00     0.088 C 
HETATM   15  F3  UNL     1      17.467  25.838  24.948  1.00  0.00    -0.204 F 
HETATM   16  F4  UNL     1      16.784  23.944  25.828  1.00  0.00    -0.204 F 
BRANCH  11  17
HETATM   17  C2  UNL     1      16.183  22.648  21.899  1.00  0.00    -0.016 C 
HETATM   18  C1  UNL     1      16.116  22.414  20.403  1.00  0.00     0.010 C 
HETATM   19  C3  UNL     1      14.922  22.141  22.480  1.00  0.00     0.010 C 
ENDBRANCH  11  17
BRANCH  12  20
HETATM   20  N5  UNL     1      15.142  25.540  23.472  1.00  0.00     0.090 N 
HETATM   21  C24 UNL     1      14.824  26.072  22.222  1.00  0.00     0.310 C 
HETATM   22  C25 UNL     1      13.926  25.277  24.219  1.00  0.00     0.310 C 
ENDBRANCH  12  20
ENDBRANCH   9  10
ENDBRANCH   8   9
ENDBRANCH   1   8
BRANCH   7  23
HETATM   23  N2  UNL     1      22.770  22.593  23.184  1.00  0.00    -0.373 N 
HETATM   24  C13 UNL     1      23.778  23.272  22.386  1.00  0.00     0.124 C 
HETATM   25  C14 UNL     1      23.826  24.715  22.930  1.00  0.00     0.026 C 
HETATM   26  C15 UNL     1      25.040  24.750  23.833  1.00  0.00     0.061 C 
HETATM   27  C16 UNL     1      24.871  23.938  25.031  1.00  0.00     0.037 A 
HETATM   28  C17 UNL     1      23.848  23.095  25.338  1.00  0.00     0.001 A 
HETATM   29  N4  UNL     1      25.750  23.921  26.037  1.00  0.00    -0.300 N 
HETATM   30  C18 UNL     1      24.131  22.553  26.582  1.00  0.00     0.118 A 
HETATM   31  C20 UNL     1      22.633  22.742  24.595  1.00  0.00     0.165 C 
HETATM   32  N3  UNL     1      25.314  23.083  26.989  1.00  0.00    -0.309 N 
ATOM     33  H3  UNL     1      25.788  22.878  27.868  1.00  0.00     0.186 HD
HETATM   34  C19 UNL     1      26.977  24.694  26.078  1.00  0.00     0.177 C 
ENDBRANCH   7  23
BRANCH   4  35
HETATM   35  C9  UNL     1      19.465  19.013  20.328  1.00  0.00     0.403 C 
HETATM   36  F1  UNL     1      18.146  19.333  20.620  1.00  0.00    -0.208 F 
HETATM   37  F2  UNL     1      19.742  17.720  20.744  1.00  0.00    -0.208 F 
ENDBRANCH   4  35
TORSDOF 7
ENDMDL
MODEL 2
REMARK VINA RESULT: -5.840266557      0.981      1.591
REMARK  7 active torsions:
REMARK  status: ('A' for Active; 'I' for Inactive)
REMARK    1  A    between atoms: C2_2  and  C4_4 
REMARK    2  A    between atoms: C5_5  and  C6_6 
REMARK    3  A    between atoms: C6_6  and  O1_7 
REMARK    4  A    between atoms: O1_7  and  C7_8 
REMARK    5  A    between atoms: C8_11  and  C9_12 
REMARK    6  A    between atoms: C12_17  and  N2_18 
REMARK    7  A    between atoms: C23_34  and  N5_35 
ROOT
HETATM    1  C7  UNL     1      20.432  21.767  21.867  1.00  0.00     0.170 A 
HETATM    2  N1  UNL     1      19.460  21.091  21.209  1.00  0.00    -0.334 N 
ATOM      3  H1  UNL     1      18.573  21.570  21.050  1.00  0.00     0.168 HD
HETATM    4  C8  UNL     1      19.581  19.838  20.751  1.00  0.00     0.076 A 
HETATM    5  C10 UNL     1      20.772  19.178  20.958  1.00  0.00     0.033 A 
HETATM    6  C11 UNL     1      21.794  19.813  21.621  1.00  0.00     0.036 A 
HETATM    7  C12 UNL     1      21.624  21.128  22.083  1.00  0.00     0.082 A 
ENDROOT
BRANCH   1   8
HETATM    8  O1  UNL     1      20.255  23.066  22.318  1.00  0.00    -0.334 OA
BRANCH   8   9
HETATM    9  C6  UNL     1      19.217  23.799  21.684  1.00  0.00     0.182 C 
BRANCH   9  10
HETATM   10  C5  UNL     1      18.197  24.262  22.630  1.00  0.00     0.022 C 
HETATM   11  C4  UNL     1      16.786  24.035  22.332  1.00  0.00     0.035 C 
HETATM   12  C23 UNL     1      16.118  24.469  23.619  1.00  0.00     0.298 C 
HETATM   13  C22 UNL     1      17.165  24.505  24.681  1.00  0.00     0.275 C 
HETATM   14  C21 UNL     1      18.397  23.826  24.063  1.00  0.00     0.088 C 
HETATM   15  F3  UNL     1      17.556  25.743  25.084  1.00  0.00    -0.204 F 
HETATM   16  F4  UNL     1      16.780  23.831  25.842  1.00  0.00    -0.204 F 
BRANCH  11  17
HETATM   17  C2  UNL     1      16.295  22.748  21.834  1.00  0.00    -0.016 C 
HETATM   18  C1  UNL     1      16.118  22.649  20.331  1.00  0.00     0.010 C 
HETATM   19  C3  UNL     1      15.084  22.176  22.458  1.00  0.00     0.010 C 
ENDBRANCH  11  17
BRANCH  12  20
HETATM   20  N5  UNL     1      15.283  25.592  23.508  1.00  0.00     0.090 N 
HETATM   21  C24 UNL     1      15.043  26.204  22.276  1.00  0.00     0.310 C 
HETATM   22  C25 UNL     1      14.024  25.326  24.179  1.00  0.00     0.310 C 
ENDBRANCH  12  20
ENDBRANCH   9  10
ENDBRANCH   8   9
ENDBRANCH   1   8
BRANCH   7  23
HETATM   23  N2  UNL     1      22.671  21.739  22.781  1.00  0.00    -0.373 N 
HETATM   24  C13 UNL     1      23.022  21.079  24.028  1.00  0.00     0.124 C 
HETATM   25  C14 UNL     1      24.563  21.117  24.090  1.00  0.00     0.026 C 
HETATM   26  C15 UNL     1      24.886  22.261  25.028  1.00  0.00     0.061 C 
HETATM   27  C16 UNL     1      24.534  23.560  24.469  1.00  0.00     0.037 A 
HETATM   28  C17 UNL     1      23.861  23.824  23.316  1.00  0.00     0.001 A 
HETATM   29  N4  UNL     1      24.849  24.720  25.053  1.00  0.00    -0.300 N 
HETATM   30  C18 UNL     1      23.772  25.204  23.209  1.00  0.00     0.118 A 
HETATM   31  C20 UNL     1      23.294  22.928  22.303  1.00  0.00     0.165 C 
HETATM   32  N3  UNL     1      24.392  25.731  24.297  1.00  0.00    -0.309 N 
ATOM     33  H3  UNL     1      24.492  26.724  24.505  1.00  0.00     0.186 HD
HETATM   34  C19 UNL     1      25.571  24.849  26.304  1.00  0.00     0.177 C 
ENDBRANCH   7  23
BRANCH   4  35
HETATM   35  C9  UNL     1      18.466  19.156  20.035  1.00  0.00     0.403 C 
HETATM   36  F1  UNL     1      17.270  19.598  20.583  1.00  0.00    -0.208 F 
HETATM   37  F2  UNL     1      18.591  17.786  20.211  1.00  0.00    -0.208 F 
ENDBRANCH   4  35
TORSDOF 7
ENDMDL
MODEL 3
REMARK VINA RESULT: -5.737332291      4.964     10.491
REMARK  7 active torsions:
REMARK  status: ('A' for Active; 'I' for Inactive)
REMARK    1  A    between atoms: C2_2  and  C4_4 
REMARK    2  A    between atoms: C5_5  and  C6_6 
REMARK    3  A    between atoms: C6_6  and  O1_7 
REMARK    4  A    between atoms: O1_7  and  C7_8 
REMARK    5  A    between atoms: C8_11  and  C9_12 
REMARK    6  A    between atoms: C12_17  and  N2_18 
REMARK    7  A    between atoms: C23_34  and  N5_35 
ROOT
HETATM    1  C7  UNL     1      19.492  18.230  20.209  1.00  0.00     0.170 A 
HETATM    2  N1  UNL     1      19.404  19.520  20.615  1.00  0.00    -0.334 N 
ATOM      3  H1  UNL     1      20.250  19.963  20.973  1.00  0.00     0.168 HD
HETATM    4  C8  UNL     1      18.285  20.254  20.578  1.00  0.00     0.076 A 
HETATM    5  C10 UNL     1      17.135  19.670  20.096  1.00  0.00     0.033 A 
HETATM    6  C11 UNL     1      17.162  18.364  19.672  1.00  0.00     0.036 A 
HETATM    7  C12 UNL     1      18.358  17.630  19.728  1.00  0.00     0.082 A 
ENDROOT
BRANCH   1   8
HETATM    8  O1  UNL     1      20.678  17.515  20.267  1.00  0.00    -0.334 OA
BRANCH   8   9
HETATM    9  C6  UNL     1      20.850  16.704  21.420  1.00  0.00     0.182 C 
BRANCH   9  10
HETATM   10  C5  UNL     1      21.982  17.134  22.246  1.00  0.00     0.022 C 
HETATM   11  C4  UNL     1      23.274  16.472  22.094  1.00  0.00     0.035 C 
HETATM   12  C23 UNL     1      24.173  17.333  22.955  1.00  0.00     0.298 C 
HETATM   13  C22 UNL     1      23.469  18.627  23.191  1.00  0.00     0.275 C 
HETATM   14  C21 UNL     1      22.267  18.618  22.232  1.00  0.00     0.088 C 
HETATM   15  F3  UNL     1      22.974  18.812  24.442  1.00  0.00    -0.204 F 
HETATM   16  F4  UNL     1      24.277  19.736  22.932  1.00  0.00    -0.204 F 
BRANCH  11  17
HETATM   17  C2  UNL     1      23.846  16.180  20.777  1.00  0.00    -0.016 C 
HETATM   18  C1  UNL     1      23.873  14.716  20.383  1.00  0.00     0.010 C 
HETATM   19  C3  UNL     1      25.171  16.748  20.453  1.00  0.00     0.010 C 
ENDBRANCH  11  17
BRANCH  12  20
HETATM   20  N5  UNL     1      24.716  16.689  24.079  1.00  0.00     0.090 N 
HETATM   21  C24 UNL     1      24.985  15.319  24.076  1.00  0.00     0.310 C 
HETATM   22  C25 UNL     1      25.884  17.419  24.536  1.00  0.00     0.310 C 
ENDBRANCH  12  20
ENDBRANCH   9  10
ENDBRANCH   8   9
ENDBRANCH   1   8
BRANCH   7  23
HETATM   23  N2  UNL     1      18.350  16.293  19.317  1.00  0.00    -0.373 N 
HETATM   24  C13 UNL     1      18.880  16.076  17.981  1.00  0.00     0.124 C 
HETATM   25  C14 UNL     1      19.718  14.785  18.078  1.00  0.00     0.026 C 
HETATM   26  C15 UNL     1      18.830  13.700  17.507  1.00  0.00     0.061 C 
HETATM   27  C16 UNL     1      17.674  13.423  18.349  1.00  0.00     0.037 A 
HETATM   28  C17 UNL     1      17.263  14.091  19.461  1.00  0.00     0.001 A 
HETATM   29  N4  UNL     1      16.825  12.417  18.121  1.00  0.00    -0.300 N 
HETATM   30  C18 UNL     1      16.119  13.454  19.916  1.00  0.00     0.118 A 
HETATM   31  C20 UNL     1      17.826  15.260  20.147  1.00  0.00     0.165 C 
HETATM   32  N3  UNL     1      15.872  12.422  19.067  1.00  0.00    -0.309 N 
ATOM     33  H3  UNL     1      15.096  11.764  19.136  1.00  0.00     0.186 HD
HETATM   34  C19 UNL     1      16.930  11.476  17.022  1.00  0.00     0.177 C 
ENDBRANCH   7  23
BRANCH   4  35
HETATM   35  C9  UNL     1      18.263  21.670  21.042  1.00  0.00     0.403 C 
HETATM   36  F1  UNL     1      19.254  21.822  22.001  1.00  0.00    -0.208 F 
HETATM   37  F2  UNL     1      17.022  21.942  21.596  1.00  0.00    -0.208 F 
ENDBRANCH   4  35
TORSDOF 7
ENDMDL
MODEL 4
REMARK VINA RESULT: -5.678530553      4.872     10.525
REMARK  7 active torsions:
REMARK  status: ('A' for Active; 'I' for Inactive)
REMARK    1  A    between atoms: C2_2  and  C4_4 
REMARK    2  A    between atoms: C5_5  and  C6_6 
REMARK    3  A    between atoms: C6_6  and  O1_7 
REMARK    4  A    between atoms: O1_7  and  C7_8 
REMARK    5  A    between atoms: C8_11  and  C9_12 
REMARK    6  A    between atoms: C12_17  and  N2_18 
REMARK    7  A    between atoms: C23_34  and  N5_35 
ROOT
HETATM    1  C7  UNL     1      19.104  17.861  20.156  1.00  0.00     0.170 A 
HETATM    2  N1  UNL     1      19.124  19.160  20.537  1.00  0.00    -0.334 N 
ATOM      3  H1  UNL     1      19.997  19.529  20.916  1.00  0.00     0.168 HD
HETATM    4  C8  UNL     1      18.080  19.994  20.453  1.00  0.00     0.076 A 
HETATM    5  C10 UNL     1      16.896  19.510  19.944  1.00  0.00     0.033 A 
HETATM    6  C11 UNL     1      16.814  18.199  19.541  1.00  0.00     0.036 A 
HETATM    7  C12 UNL     1      17.935  17.359  19.647  1.00  0.00     0.082 A 
ENDROOT
BRANCH   1   8
HETATM    8  O1  UNL     1      20.216  17.040  20.263  1.00  0.00    -0.334 OA
BRANCH   8   9
HETATM    9  C6  UNL     1      21.442  17.607  19.826  1.00  0.00     0.182 C 
BRANCH   9  10
HETATM   10  C5  UNL     1      22.517  17.448  20.810  1.00  0.00     0.022 C 
HETATM   11  C4  UNL     1      23.205  18.631  21.320  1.00  0.00     0.035 C 
HETATM   12  C23 UNL     1      24.064  18.047  22.420  1.00  0.00     0.298 C 
HETATM   13  C22 UNL     1      23.520  16.697  22.749  1.00  0.00     0.275 C 
HETATM   14  C21 UNL     1      22.170  16.611  22.019  1.00  0.00     0.088 C 
HETATM   15  F3  UNL     1      24.264  15.641  22.328  1.00  0.00    -0.204 F 
HETATM   16  F4  UNL     1      23.334  16.509  24.121  1.00  0.00    -0.204 F 
BRANCH  11  17
HETATM   17  C2  UNL     1      22.476  19.833  21.734  1.00  0.00    -0.016 C 
HETATM   18  C1  UNL     1      22.558  21.011  20.783  1.00  0.00     0.010 C 
HETATM   19  C3  UNL     1      22.709  20.351  23.098  1.00  0.00     0.010 C 
ENDBRANCH  11  17
BRANCH  12  20
HETATM   20  N5  UNL     1      25.449  18.142  22.209  1.00  0.00     0.090 N 
HETATM   21  C24 UNL     1      25.976  18.880  21.148  1.00  0.00     0.310 C 
HETATM   22  C25 UNL     1      26.101  18.527  23.448  1.00  0.00     0.310 C 
ENDBRANCH  12  20
ENDBRANCH   9  10
ENDBRANCH   8   9
ENDBRANCH   1   8
BRANCH   7  23
HETATM   23  N2  UNL     1      17.815  16.021  19.258  1.00  0.00    -0.373 N 
HETATM   24  C13 UNL     1      18.242  15.756  17.893  1.00  0.00     0.124 C 
HETATM   25  C14 UNL     1      19.000  14.415  17.956  1.00  0.00     0.026 C 
HETATM   26  C15 UNL     1      18.010  13.384  17.459  1.00  0.00     0.061 C 
HETATM   27  C16 UNL     1      16.895  13.191  18.378  1.00  0.00     0.037 A 
HETATM   28  C17 UNL     1      16.601  13.896  19.503  1.00  0.00     0.001 A 
HETATM   29  N4  UNL     1      15.970  12.239  18.219  1.00  0.00    -0.300 N 
HETATM   30  C18 UNL     1      15.450  13.339  20.040  1.00  0.00     0.118 A 
HETATM   31  C20 UNL     1      17.280  15.033  20.134  1.00  0.00     0.165 C 
HETATM   32  N3  UNL     1      15.083  12.316  19.224  1.00  0.00    -0.309 N 
ATOM     33  H3  UNL     1      14.273  11.711  19.352  1.00  0.00     0.186 HD
HETATM   34  C19 UNL     1      15.944  11.282  17.130  1.00  0.00     0.177 C 
ENDBRANCH   7  23
BRANCH   4  35
HETATM   35  C9  UNL     1      18.176  21.415  20.894  1.00  0.00     0.403 C 
HETATM   36  F1  UNL     1      19.240  21.517  21.780  1.00  0.00    -0.208 F 
HETATM   37  F2  UNL     1      16.995  21.768  21.528  1.00  0.00    -0.208 F 
ENDBRANCH   4  35
TORSDOF 7
ENDMDL
MODEL 5
REMARK VINA RESULT: -5.597436045      8.728     12.396
REMARK  7 active torsions:
REMARK  status: ('A' for Active; 'I' for Inactive)
REMARK    1  A    between atoms: C2_2  and  C4_4 
REMARK    2  A    between atoms: C5_5  and  C6_6 
REMARK    3  A    between atoms: C6_6  and  O1_7 
REMARK    4  A    between atoms: O1_7  and  C7_8 
REMARK    5  A    between atoms: C8_11  and  C9_12 
REMARK    6  A    between atoms: C12_17  and  N2_18 
REMARK    7  A    between atoms: C23_34  and  N5_35 
ROOT
HETATM    1  C7  UNL     1      15.238  13.493  19.952  1.00  0.00     0.170 A 
HETATM    2  N1  UNL     1      14.213  12.688  20.321  1.00  0.00    -0.334 N 
ATOM      3  H1  UNL     1      14.404  11.691  20.420  1.00  0.00     0.168 HD
HETATM    4  C8  UNL     1      12.965  13.110  20.565  1.00  0.00     0.076 A 
HETATM    5  C10 UNL     1      12.691  14.453  20.436  1.00  0.00     0.033 A 
HETATM    6  C11 UNL     1      13.692  15.318  20.063  1.00  0.00     0.036 A 
HETATM    7  C12 UNL     1      14.987  14.833  19.816  1.00  0.00     0.082 A 
ENDROOT
BRANCH   1   8
HETATM    8  O1  UNL     1      16.513  13.004  19.712  1.00  0.00    -0.334 OA
BRANCH   8   9
HETATM    9  C6  UNL     1      16.697  12.354  18.463  1.00  0.00     0.182 C 
BRANCH   9  10
HETATM   10  C5  UNL     1      18.069  12.479  17.961  1.00  0.00     0.022 C 
HETATM   11  C4  UNL     1      18.649  11.392  17.179  1.00  0.00     0.035 C 
HETATM   12  C23 UNL     1      19.951  12.002  16.707  1.00  0.00     0.298 C 
HETATM   13  C22 UNL     1      19.845  13.480  16.877  1.00  0.00     0.275 C 
HETATM   14  C21 UNL     1      18.366  13.749  17.198  1.00  0.00     0.088 C 
HETATM   15  F3  UNL     1      20.572  14.013  17.894  1.00  0.00    -0.204 F 
HETATM   16  F4  UNL     1      20.221  14.184  15.731  1.00  0.00    -0.204 F 
BRANCH  11  17
HETATM   17  C2  UNL     1      17.904  10.724  16.108  1.00  0.00    -0.016 C 
HETATM   18  C1  UNL     1      17.485   9.295  16.391  1.00  0.00     0.010 C 
HETATM   19  C3  UNL     1      18.472  10.754  14.743  1.00  0.00     0.010 C 
ENDBRANCH  11  17
BRANCH  12  20
HETATM   20  N5  UNL     1      21.112  11.385  17.202  1.00  0.00     0.090 N 
HETATM   21  C24 UNL     1      21.098  10.067  17.661  1.00  0.00     0.310 C 
HETATM   22  C25 UNL     1      22.196  11.565  16.253  1.00  0.00     0.310 C 
ENDBRANCH  12  20
ENDBRANCH   9  10
ENDBRANCH   8   9
ENDBRANCH   1   8
BRANCH   7  23
HETATM   23  N2  UNL     1      15.978  15.731  19.409  1.00  0.00    -0.373 N 
HETATM   24  C13 UNL     1      15.898  16.113  18.008  1.00  0.00     0.124 C 
HETATM   25  C14 UNL     1      16.212  17.623  17.978  1.00  0.00     0.026 C 
HETATM   26  C15 UNL     1      17.659  17.711  17.542  1.00  0.00     0.061 C 
HETATM   27  C16 UNL     1      18.578  17.189  18.546  1.00  0.00     0.037 A 
HETATM   28  C17 UNL     1      18.280  16.547  19.707  1.00  0.00     0.001 A 
HETATM   29  N4  UNL     1      19.907  17.285  18.444  1.00  0.00    -0.300 N 
HETATM   30  C18 UNL     1      19.484  16.248  20.325  1.00  0.00     0.118 A 
HETATM   31  C20 UNL     1      16.990  16.184  20.305  1.00  0.00     0.165 C 
HETATM   32  N3  UNL     1      20.473  16.717  19.520  1.00  0.00    -0.309 N 
ATOM     33  H3  UNL     1      21.474  16.648  19.702  1.00  0.00     0.186 HD
HETATM   34  C19 UNL     1      20.611  17.909  17.339  1.00  0.00     0.177 C 
ENDBRANCH   7  23
BRANCH   4  35
HETATM   35  C9  UNL     1      11.885  12.165  20.968  1.00  0.00     0.403 C 
HETATM   36  F1  UNL     1      12.431  11.240  21.846  1.00  0.00    -0.208 F 
HETATM   37  F2  UNL     1      11.408  11.521  19.837  1.00  0.00    -0.208 F 
ENDBRANCH   4  35
TORSDOF 7
ENDMDL
