MODEL 1
REMARK VINA RESULT: -5.536885512      0.000      0.000
REMARK  9 active torsions:
REMARK  status: ('A' for Active; 'I' for Inactive)
REMARK    1  A    between atoms: C2_2  and  O2_4 
REMARK    2  A    between atoms: O2_4  and  C3_5 
REMARK    3  A    between atoms: C5_7  and  C6_8 
REMARK    4  A    between atoms: C6_8  and  O3_9 
REMARK    5  A    between atoms: O3_9  and  C7_10 
REMARK    6  A    between atoms: N1_19  and  S1_20 
REMARK    7  A    between atoms: S1_20  and  C14_22 
REMARK    8  A    between atoms: C15_25  and  O5_26 
REMARK    9  A    between atoms: O5_26  and  C16_27 
ROOT
HETATM    1  C3  UNL     1      14.103  14.310  19.280  1.00  0.00     0.182 C 
HETATM    2  C4  UNL     1      15.038  15.141  18.463  1.00  0.00     0.045 C 
HETATM    3  C5  UNL     1      16.471  15.088  18.923  1.00  0.00     0.031 C 
HETATM    4  C13 UNL     1      16.950  13.693  19.209  1.00  0.00     0.142 C 
HETATM    5  N1  UNL     1      15.909  12.723  19.291  1.00  0.00    -0.299 N 
HETATM    6  C15 UNL     1      14.739  13.155  19.982  1.00  0.00     0.270 C 
ENDROOT
BRANCH   3   7
HETATM    7  C6  UNL     1      16.705  15.982  20.119  1.00  0.00     0.182 C 
BRANCH   7   8
HETATM    8  O3  UNL     1      17.481  17.085  19.894  1.00  0.00    -0.351 OA
BRANCH   8   9
HETATM    9  C7  UNL     1      18.707  17.510  20.270  1.00  0.00     0.070 A 
HETATM   10  C8  UNL     1      18.878  18.909  20.337  1.00  0.00     0.038 A 
HETATM   11  C9  UNL     1      20.069  19.421  20.701  1.00  0.00     0.028 A 
HETATM   12  C10 UNL     1      21.163  18.646  21.021  1.00  0.00     0.056 A 
HETATM   13 CL1  UNL     1      22.700  19.348  21.492  1.00  0.00    -0.083 Cl
HETATM   14  C11 UNL     1      20.967  17.284  20.946  1.00  0.00     0.058 A 
HETATM   15 CL2  UNL     1      22.304  16.219  21.336  1.00  0.00    -0.082 Cl
HETATM   16  C12 UNL     1      19.770  16.712  20.579  1.00  0.00     0.062 A 
ENDBRANCH   8   9
ENDBRANCH   7   8
ENDBRANCH   3   7
BRANCH   1  17
HETATM   17  O2  UNL     1      13.482  15.163  20.223  1.00  0.00    -0.312 OA
BRANCH  17  18
HETATM   18  C2  UNL     1      12.136  15.401  20.247  1.00  0.00     0.255 C 
HETATM   19  C1  UNL     1      11.418  15.693  18.989  1.00  0.00     0.126 C 
HETATM   20  O1  UNL     1      11.537  15.364  21.357  1.00  0.00    -0.266 OA
ENDBRANCH  17  18
ENDBRANCH   1  17
BRANCH   5  21
HETATM   21  S1  UNL     1      15.620  11.853  17.859  1.00  0.00     0.148 S 
HETATM   22  O4  UNL     1      15.894  12.792  16.470  1.00  0.00    -0.233 OA
BRANCH  21  23
HETATM   23  C14 UNL     1      16.751  10.462  17.720  1.00  0.00     0.292 C 
HETATM   24 CL3  UNL     1      18.441  11.063  17.596  1.00  0.00    -0.092 Cl
HETATM   25 CL4  UNL     1      16.419   9.587  16.210  1.00  0.00    -0.092 Cl
ENDBRANCH  21  23
ENDBRANCH   5  21
BRANCH   6  26
HETATM   26  O5  UNL     1      13.845  12.068  20.068  1.00  0.00    -0.292 OA
BRANCH  26  27
HETATM   27  C16 UNL     1      12.881  11.908  21.024  1.00  0.00     0.256 C 
HETATM   28  C17 UNL     1      11.418  11.877  20.742  1.00  0.00     0.126 C 
HETATM   29  O6  UNL     1      13.237  11.778  22.223  1.00  0.00    -0.266 OA
ENDBRANCH  26  27
ENDBRANCH   6  26
TORSDOF 9
ENDMDL
MODEL 2
REMARK VINA RESULT: -5.479514454      0.518      1.260
REMARK  9 active torsions:
REMARK  status: ('A' for Active; 'I' for Inactive)
REMARK    1  A    between atoms: C2_2  and  O2_4 
REMARK    2  A    between atoms: O2_4  and  C3_5 
REMARK    3  A    between atoms: C5_7  and  C6_8 
REMARK    4  A    between atoms: C6_8  and  O3_9 
REMARK    5  A    between atoms: O3_9  and  C7_10 
REMARK    6  A    between atoms: N1_19  and  S1_20 
REMARK    7  A    between atoms: S1_20  and  C14_22 
REMARK    8  A    between atoms: C15_25  and  O5_26 
REMARK    9  A    between atoms: O5_26  and  C16_27 
ROOT
HETATM    1  C3  UNL     1      14.030  14.337  19.320  1.00  0.00     0.182 C 
HETATM    2  C4  UNL     1      14.940  15.191  18.500  1.00  0.00     0.045 C 
HETATM    3  C5  UNL     1      16.378  15.166  18.948  1.00  0.00     0.031 C 
HETATM    4  C13 UNL     1      16.889  13.779  19.222  1.00  0.00     0.142 C 
HETATM    5  N1  UNL     1      15.868  12.788  19.307  1.00  0.00    -0.299 N 
HETATM    6  C15 UNL     1      14.696  13.192  20.010  1.00  0.00     0.270 C 
ENDROOT
BRANCH   3   7
HETATM    7  C6  UNL     1      16.604  16.058  20.146  1.00  0.00     0.182 C 
BRANCH   7   8
HETATM    8  O3  UNL     1      17.411  17.142  19.938  1.00  0.00    -0.351 OA
BRANCH   8   9
HETATM    9  C7  UNL     1      18.673  17.497  20.263  1.00  0.00     0.070 A 
HETATM   10  C8  UNL     1      19.581  16.433  20.448  1.00  0.00     0.038 A 
HETATM   11  C9  UNL     1      20.861  16.695  20.778  1.00  0.00     0.028 A 
HETATM   12  C10 UNL     1      21.354  17.970  20.951  1.00  0.00     0.056 A 
HETATM   13 CL1  UNL     1      23.028  18.274  21.380  1.00  0.00    -0.083 Cl
HETATM   14  C11 UNL     1      20.444  18.988  20.765  1.00  0.00     0.058 A 
HETATM   15 CL2  UNL     1      20.983  20.645  20.965  1.00  0.00    -0.082 Cl
HETATM   16  C12 UNL     1      19.127  18.773  20.429  1.00  0.00     0.062 A 
ENDBRANCH   8   9
ENDBRANCH   7   8
ENDBRANCH   3   7
BRANCH   1  17
HETATM   17  O2  UNL     1      13.399  15.172  20.273  1.00  0.00    -0.312 OA
BRANCH  17  18
HETATM   18  C2  UNL     1      12.053  15.405  20.292  1.00  0.00     0.255 C 
HETATM   19  C1  UNL     1      11.326  15.618  19.023  1.00  0.00     0.126 C 
HETATM   20  O1  UNL     1      11.461  15.433  21.406  1.00  0.00    -0.266 OA
ENDBRANCH  17  18
ENDBRANCH   1  17
BRANCH   5  21
HETATM   21  S1  UNL     1      15.585  11.920  17.873  1.00  0.00     0.148 S 
HETATM   22  O4  UNL     1      15.848  12.865  16.486  1.00  0.00    -0.233 OA
BRANCH  21  23
HETATM   23  C14 UNL     1      16.729  10.540  17.728  1.00  0.00     0.292 C 
HETATM   24 CL3  UNL     1      18.411  11.157  17.583  1.00  0.00    -0.092 Cl
HETATM   25 CL4  UNL     1      16.390   9.655  16.225  1.00  0.00    -0.092 Cl
ENDBRANCH  21  23
ENDBRANCH   5  21
BRANCH   6  26
HETATM   26  O5  UNL     1      13.825  12.086  20.098  1.00  0.00    -0.292 OA
BRANCH  26  27
HETATM   27  C16 UNL     1      12.859  11.911  21.049  1.00  0.00     0.256 C 
HETATM   28  C17 UNL     1      11.396  11.893  20.765  1.00  0.00     0.126 C 
HETATM   29  O6  UNL     1      13.212  11.754  22.245  1.00  0.00    -0.266 OA
ENDBRANCH  26  27
ENDBRANCH   6  26
TORSDOF 9
ENDMDL
MODEL 3
REMARK VINA RESULT: -5.451182769      1.085      1.532
REMARK  9 active torsions:
REMARK  status: ('A' for Active; 'I' for Inactive)
REMARK    1  A    between atoms: C2_2  and  O2_4 
REMARK    2  A    between atoms: O2_4  and  C3_5 
REMARK    3  A    between atoms: C5_7  and  C6_8 
REMARK    4  A    between atoms: C6_8  and  O3_9 
REMARK    5  A    between atoms: O3_9  and  C7_10 
REMARK    6  A    between atoms: N1_19  and  S1_20 
REMARK    7  A    between atoms: S1_20  and  C14_22 
REMARK    8  A    between atoms: C15_25  and  O5_26 
REMARK    9  A    between atoms: O5_26  and  C16_27 
ROOT
HETATM    1  C3  UNL     1      14.329  14.344  19.221  1.00  0.00     0.182 C 
HETATM    2  C4  UNL     1      15.317  15.137  18.430  1.00  0.00     0.045 C 
HETATM    3  C5  UNL     1      16.743  14.983  18.893  1.00  0.00     0.031 C 
HETATM    4  C13 UNL     1      17.133  13.553  19.141  1.00  0.00     0.142 C 
HETATM    5  N1  UNL     1      16.032  12.648  19.193  1.00  0.00    -0.299 N 
HETATM    6  C15 UNL     1      14.889  13.133  19.893  1.00  0.00     0.270 C 
ENDROOT
BRANCH   3   7
HETATM    7  C6  UNL     1      17.026  15.828  20.113  1.00  0.00     0.182 C 
BRANCH   7   8
HETATM    8  O3  UNL     1      18.157  16.594  20.056  1.00  0.00    -0.351 OA
BRANCH   8   9
HETATM    9  C7  UNL     1      19.484  16.390  20.201  1.00  0.00     0.070 A 
HETATM   10  C8  UNL     1      20.130  15.762  19.114  1.00  0.00     0.038 A 
HETATM   11  C9  UNL     1      21.453  15.515  19.173  1.00  0.00     0.028 A 
HETATM   12  C10 UNL     1      22.239  15.846  20.256  1.00  0.00     0.056 A 
HETATM   13 CL1  UNL     1      23.960  15.512  20.298  1.00  0.00    -0.083 Cl
HETATM   14  C11 UNL     1      21.581  16.457  21.302  1.00  0.00     0.058 A 
HETATM   15 CL2  UNL     1      22.502  16.914  22.723  1.00  0.00    -0.082 Cl
HETATM   16  C12 UNL     1      20.232  16.730  21.290  1.00  0.00     0.062 A 
ENDBRANCH   8   9
ENDBRANCH   7   8
ENDBRANCH   3   7
BRANCH   1  17
HETATM   17  O2  UNL     1      13.758  15.208  20.186  1.00  0.00    -0.312 OA
BRANCH  17  18
HETATM   18  C2  UNL     1      12.433  15.545  20.200  1.00  0.00     0.255 C 
HETATM   19  C1  UNL     1      11.775  15.995  18.956  1.00  0.00     0.126 C 
HETATM   20  O1  UNL     1      11.802  15.461  21.289  1.00  0.00    -0.266 OA
ENDBRANCH  17  18
ENDBRANCH   1  17
BRANCH   5  21
HETATM   21  S1  UNL     1      15.697  11.837  17.738  1.00  0.00     0.148 S 
HETATM   22  O4  UNL     1      16.117  12.761  16.375  1.00  0.00    -0.233 OA
BRANCH  21  23
HETATM   23  C14 UNL     1      16.673  10.333  17.607  1.00  0.00     0.292 C 
HETATM   24 CL3  UNL     1      18.424  10.743  17.594  1.00  0.00    -0.092 Cl
HETATM   25 CL4  UNL     1      16.331   9.547  16.051  1.00  0.00    -0.092 Cl
ENDBRANCH  21  23
ENDBRANCH   5  21
BRANCH   6  26
HETATM   26  O5  UNL     1      13.929  12.102  19.946  1.00  0.00    -0.292 OA
BRANCH  26  27
HETATM   27  C16 UNL     1      12.940  11.987  20.883  1.00  0.00     0.256 C 
HETATM   28  C17 UNL     1      11.483  11.974  20.569  1.00  0.00     0.126 C 
HETATM   29  O6  UNL     1      13.266  11.885  22.094  1.00  0.00    -0.266 OA
ENDBRANCH  26  27
ENDBRANCH   6  26
TORSDOF 9
ENDMDL
MODEL 4
REMARK VINA RESULT: -5.420780579      2.761      4.883
REMARK  9 active torsions:
REMARK  status: ('A' for Active; 'I' for Inactive)
REMARK    1  A    between atoms: C2_2  and  O2_4 
REMARK    2  A    between atoms: O2_4  and  C3_5 
REMARK    3  A    between atoms: C5_7  and  C6_8 
REMARK    4  A    between atoms: C6_8  and  O3_9 
REMARK    5  A    between atoms: O3_9  and  C7_10 
REMARK    6  A    between atoms: N1_19  and  S1_20 
REMARK    7  A    between atoms: S1_20  and  C14_22 
REMARK    8  A    between atoms: C15_25  and  O5_26 
REMARK    9  A    between atoms: O5_26  and  C16_27 
ROOT
HETATM    1  C3  UNL     1      16.618  12.486  18.692  1.00  0.00     0.182 C 
HETATM    2  C4  UNL     1      16.698  13.478  19.805  1.00  0.00     0.045 C 
HETATM    3  C5  UNL     1      15.884  14.725  19.579  1.00  0.00     0.031 C 
HETATM    4  C13 UNL     1      14.493  14.443  19.082  1.00  0.00     0.142 C 
HETATM    5  N1  UNL     1      14.296  13.105  18.631  1.00  0.00    -0.299 N 
HETATM    6  C15 UNL     1      15.373  12.563  17.870  1.00  0.00     0.270 C 
ENDROOT
BRANCH   3   7
HETATM    7  C6  UNL     1      16.589  15.691  18.654  1.00  0.00     0.182 C 
BRANCH   7   8
HETATM    8  O3  UNL     1      17.603  16.417  19.213  1.00  0.00    -0.351 OA
BRANCH   8   9
HETATM    9  C7  UNL     1      18.917  16.229  19.460  1.00  0.00     0.070 A 
HETATM   10  C8  UNL     1      19.640  15.552  18.454  1.00  0.00     0.038 A 
HETATM   11  C9  UNL     1      20.956  15.318  18.618  1.00  0.00     0.028 A 
HETATM   12  C10 UNL     1      21.664  15.709  19.735  1.00  0.00     0.056 A 
HETATM   13 CL1  UNL     1      23.379  15.390  19.913  1.00  0.00    -0.083 Cl
HETATM   14  C11 UNL     1      20.932  16.368  20.699  1.00  0.00     0.058 A 
HETATM   15 CL2  UNL     1      21.750  16.903  22.155  1.00  0.00    -0.082 Cl
HETATM   16  C12 UNL     1      19.586  16.629  20.580  1.00  0.00     0.062 A 
ENDBRANCH   8   9
ENDBRANCH   7   8
ENDBRANCH   3   7
BRANCH   1  17
HETATM   17  O2  UNL     1      17.751  12.675  17.865  1.00  0.00    -0.312 OA
BRANCH  17  18
HETATM   18  C2  UNL     1      18.597  11.662  17.510  1.00  0.00     0.255 C 
HETATM   19  C1  UNL     1      19.898  11.975  16.884  1.00  0.00     0.126 C 
HETATM   20  O1  UNL     1      18.239  10.472  17.728  1.00  0.00    -0.266 OA
ENDBRANCH  17  18
ENDBRANCH   1  17
BRANCH   5  21
HETATM   21  S1  UNL     1      13.621  12.049  19.779  1.00  0.00     0.148 S 
HETATM   22  O4  UNL     1      13.780  12.637  21.366  1.00  0.00    -0.233 OA
BRANCH  21  23
HETATM   23  C14 UNL     1      11.851  11.871  19.517  1.00  0.00     0.292 C 
HETATM   24 CL3  UNL     1      11.227  13.283  18.596  1.00  0.00    -0.092 Cl
HETATM   25 CL4  UNL     1      11.022  11.893  21.088  1.00  0.00    -0.092 Cl
ENDBRANCH  21  23
ENDBRANCH   5  21
BRANCH   6  26
HETATM   26  O5  UNL     1      14.995  11.283  17.413  1.00  0.00    -0.292 OA
BRANCH  26  27
HETATM   27  C16 UNL     1      15.004  10.872  16.109  1.00  0.00     0.256 C 
HETATM   28  C17 UNL     1      15.791  11.530  15.028  1.00  0.00     0.126 C 
HETATM   29  O6  UNL     1      14.308   9.876  15.787  1.00  0.00    -0.266 OA
ENDBRANCH  26  27
ENDBRANCH   6  26
TORSDOF 9
ENDMDL
MODEL 5
REMARK VINA RESULT: -5.290113224      2.543      4.756
REMARK  9 active torsions:
REMARK  status: ('A' for Active; 'I' for Inactive)
REMARK    1  A    between atoms: C2_2  and  O2_4 
REMARK    2  A    between atoms: O2_4  and  C3_5 
REMARK    3  A    between atoms: C5_7  and  C6_8 
REMARK    4  A    between atoms: C6_8  and  O3_9 
REMARK    5  A    between atoms: O3_9  and  C7_10 
REMARK    6  A    between atoms: N1_19  and  S1_20 
REMARK    7  A    between atoms: S1_20  and  C14_22 
REMARK    8  A    between atoms: C15_25  and  O5_26 
REMARK    9  A    between atoms: O5_26  and  C16_27 
ROOT
HETATM    1  C3  UNL     1      16.484  12.438  18.654  1.00  0.00     0.182 C 
HETATM    2  C4  UNL     1      16.629  13.359  19.820  1.00  0.00     0.045 C 
HETATM    3  C5  UNL     1      15.854  14.644  19.689  1.00  0.00     0.031 C 
HETATM    4  C13 UNL     1      14.442  14.438  19.217  1.00  0.00     0.142 C 
HETATM    5  N1  UNL     1      14.185  13.136  18.695  1.00  0.00    -0.299 N 
HETATM    6  C15 UNL     1      15.221  12.604  17.874  1.00  0.00     0.270 C 
ENDROOT
BRANCH   3   7
HETATM    7  C6  UNL     1      16.567  15.638  18.801  1.00  0.00     0.182 C 
BRANCH   7   8
HETATM    8  O3  UNL     1      16.996  16.782  19.414  1.00  0.00    -0.351 OA
BRANCH   8   9
HETATM    9  C7  UNL     1      18.168  17.255  19.890  1.00  0.00     0.070 A 
HETATM   10  C8  UNL     1      19.145  16.282  20.192  1.00  0.00     0.038 A 
HETATM   11  C9  UNL     1      20.343  16.664  20.675  1.00  0.00     0.028 A 
HETATM   12  C10 UNL     1      20.686  17.981  20.899  1.00  0.00     0.056 A 
HETATM   13 CL1  UNL     1      22.258  18.442  21.527  1.00  0.00    -0.083 Cl
HETATM   14  C11 UNL     1      19.713  18.907  20.595  1.00  0.00     0.058 A 
HETATM   15 CL2  UNL     1      20.062  20.607  20.848  1.00  0.00    -0.082 Cl
HETATM   16  C12 UNL     1      18.474  18.568  20.101  1.00  0.00     0.062 A 
ENDBRANCH   8   9
ENDBRANCH   7   8
ENDBRANCH   3   7
BRANCH   1  17
HETATM   17  O2  UNL     1      17.601  12.636  17.807  1.00  0.00    -0.312 OA
BRANCH  17  18
HETATM   18  C2  UNL     1      18.502  11.651  17.511  1.00  0.00     0.255 C 
HETATM   19  C1  UNL     1      19.807  12.004  16.913  1.00  0.00     0.126 C 
HETATM   20  O1  UNL     1      18.191  10.454  17.759  1.00  0.00    -0.266 OA
ENDBRANCH  17  18
ENDBRANCH   1  17
BRANCH   5  21
HETATM   21  S1  UNL     1      13.504  12.038  19.800  1.00  0.00     0.148 S 
HETATM   22  O4  UNL     1      13.673  12.557  21.410  1.00  0.00    -0.233 OA
BRANCH  21  23
HETATM   23  C14 UNL     1      11.732  11.886  19.536  1.00  0.00     0.292 C 
HETATM   24 CL3  UNL     1      11.420  11.048  17.976  1.00  0.00    -0.092 Cl
HETATM   25 CL4  UNL     1      11.022  13.508  19.384  1.00  0.00    -0.092 Cl
ENDBRANCH  21  23
ENDBRANCH   5  21
BRANCH   6  26
HETATM   26  O5  UNL     1      14.787  11.367  17.355  1.00  0.00    -0.292 OA
BRANCH  26  27
HETATM   27  C16 UNL     1      15.135  10.851  16.138  1.00  0.00     0.256 C 
HETATM   28  C17 UNL     1      15.394  11.672  14.922  1.00  0.00     0.126 C 
HETATM   29  O6  UNL     1      15.248   9.604  16.022  1.00  0.00    -0.266 OA
ENDBRANCH  26  27
ENDBRANCH   6  26
TORSDOF 9
ENDMDL
