MODEL 1
REMARK VINA RESULT: -6.922960014      0.000      0.000
REMARK  13 active torsions:
REMARK  status: ('A' for Active; 'I' for Inactive)
REMARK    1  A    between atoms: N1_1  and  C1_4 
REMARK    2  A    between atoms: C3_8  and  C4_9 
REMARK    3  A    between atoms: C4_9  and  C5_10 
REMARK    4  A    between atoms: C5_10  and  N3_11 
REMARK    5  A    between atoms: C8_14  and  N4_15 
REMARK    6  A    between atoms: N4_15  and  C9_17 
REMARK    7  A    between atoms: C10_20  and  N6_21 
REMARK    8  A    between atoms: N6_21  and  C11_23 
REMARK    9  A    between atoms: C11_23  and  C12_24 
REMARK   10  A    between atoms: C12_24  and  N7_25 
REMARK   11  A    between atoms: C16_32  and  C17_33 
REMARK   12  A    between atoms: C17_33  and  C18_34 
REMARK   13  A    between atoms: C20_41  and  O2_42 
ROOT
HETATM    1  C9  UNL     1      38.833  90.308  -8.317  1.00  0.00     0.695 A 
HETATM    2  N5  UNL     1      39.117  90.195  -9.597  1.00  0.00    -0.021 N 
ATOM      3  H5  UNL     1      38.927  90.980 -10.221  1.00  0.00     0.203 HD
HETATM    4  C10 UNL     1      39.653  89.070 -10.101  1.00  0.00     0.715 A 
HETATM    5  N8  UNL     1      39.897  88.044  -9.261  1.00  0.00    -0.068 N 
HETATM    6  N9  UNL     1      40.410  86.841  -9.487  1.00  0.00    -0.288 N 
ATOM      7  H9  UNL     1      40.711  86.506 -10.402  1.00  0.00     0.187 HD
HETATM    8  C15 UNL     1      40.481  86.130  -8.368  1.00  0.00     0.123 A 
HETATM    9  C16 UNL     1      39.976  86.940  -7.359  1.00  0.00     0.030 A 
HETATM   10  C21 UNL     1      39.619  88.127  -7.947  1.00  0.00     0.172 A 
HETATM   11  N12 UNL     1      39.077  89.288  -7.484  1.00  0.00    -0.173 N 
ATOM     12  H12 UNL     1      38.856  89.382  -6.493  1.00  0.00     0.186 HD
ENDROOT
BRANCH   1  13
HETATM   13  N4  UNL     1      38.325  91.377  -7.847  1.00  0.00    -0.212 N 
ATOM     14  H4  UNL     1      38.349  92.188  -8.466  1.00  0.00     0.178 HD
BRANCH  13  15
HETATM   15  C8  UNL     1      37.731  91.591  -6.574  1.00  0.00     0.194 C 
HETATM   16  C7  UNL     1      36.216  91.361  -6.711  1.00  0.00     0.051 C 
HETATM   17  C6  UNL     1      35.544  91.423  -5.376  1.00  0.00     0.116 C 
HETATM   18  N3  UNL     1      36.109  92.341  -4.445  1.00  0.00    -0.228 NA
HETATM   19  N13 UNL     1      36.938  93.317  -5.001  1.00  0.00    -0.287 N 
HETATM   20  C22 UNL     1      37.868  92.946  -6.017  1.00  0.00     0.255 C 
ATOM     21  H13 UNL     1      36.879  94.285  -4.684  1.00  0.00     0.184 HD
HETATM   22  O3  UNL     1      38.738  93.779  -6.376  1.00  0.00    -0.270 OA
BRANCH  18  23
HETATM   23  C5  UNL     1      35.134  92.982  -3.598  1.00  0.00     0.119 C 
BRANCH  23  24
HETATM   24  C4  UNL     1      35.743  93.529  -2.323  1.00  0.00     0.074 C 
BRANCH  24  25
HETATM   25  C3  UNL     1      35.817  92.401  -1.351  1.00  0.00     0.025 A 
HETATM   26  N2  UNL     1      34.734  91.897  -0.730  1.00  0.00    -0.365 N 
HETATM   27  C2  UNL     1      34.817  90.882   0.143  1.00  0.00     0.136 A 
ATOM     28  H2  UNL     1      33.819  92.301  -0.930  1.00  0.00     0.165 HD
HETATM   29  C1  UNL     1      36.019  90.294   0.455  1.00  0.00     0.114 A 
HETATM   30  N14 UNL     1      37.123  90.798  -0.169  1.00  0.00    -0.350 N 
HETATM   31  C23 UNL     1      37.034  91.812  -1.041  1.00  0.00     0.114 A 
ATOM     32  H14 UNL     1      38.038  90.393   0.033  1.00  0.00     0.166 HD
BRANCH  29  33
HETATM   33  N1  UNL     1      36.153  89.311   1.292  1.00  0.00    -0.384 N 
ATOM     34  H12 UNL     1      35.492  89.217   2.063  1.00  0.00     0.157 HD
ATOM     35  H11 UNL     1      36.888  88.606   1.234  1.00  0.00     0.157 HD
ENDBRANCH  29  33
ENDBRANCH  24  25
ENDBRANCH  23  24
ENDBRANCH  18  23
ENDBRANCH  13  15
ENDBRANCH   1  13
BRANCH   4  36
HETATM   36  N6  UNL     1      39.943  89.013 -11.504  1.00  0.00    -0.222 N 
ATOM     37  H6  UNL     1      39.657  88.197 -12.045  1.00  0.00     0.177 HD
BRANCH  36  38
HETATM   38  C11 UNL     1      40.627  90.082 -12.151  1.00  0.00     0.168 C 
BRANCH  38  39
HETATM   39  C12 UNL     1      42.135  89.996 -11.905  1.00  0.00     0.292 C 
BRANCH  39  40
HETATM   40  N7  UNL     1      42.473  91.239 -11.199  1.00  0.00     0.093 N 
HETATM   41  C13 UNL     1      41.507  92.318 -11.451  1.00  0.00     0.302 A 
HETATM   42  C14 UNL     1      42.867  92.384 -12.049  1.00  0.00     0.302 A 
ENDBRANCH  39  40
ENDBRANCH  38  39
ENDBRANCH  36  38
ENDBRANCH   4  36
BRANCH   9  43
HETATM   43  C17 UNL     1      39.866  86.618  -6.094  1.00  0.00     0.051 C 
BRANCH  43  44
HETATM   44  C18 UNL     1      40.079  87.542  -5.005  1.00  0.00     0.088 A 
HETATM   45  N10 UNL     1      39.146  88.166  -4.299  1.00  0.00    -0.305 N 
HETATM   46  C19 UNL     1      39.693  88.954  -3.345  1.00  0.00     0.326 A 
ATOM     47  H10 UNL     1      38.143  88.065  -4.455  1.00  0.00     0.171 HD
HETATM   48  O1  UNL     1      39.070  89.668  -2.520  1.00  0.00    -0.247 OA
HETATM   49  N11 UNL     1      41.036  88.791  -3.491  1.00  0.00    -0.287 N 
HETATM   50  C20 UNL     1      41.293  87.939  -4.492  1.00  0.00     0.171 A 
ATOM     51  H11 UNL     1      41.744  89.251  -2.920  1.00  0.00     0.172 HD
BRANCH  50  52
HETATM   52  O2  UNL     1      42.531  87.523  -4.940  1.00  0.00    -0.344 OA
ATOM     53  H2  UNL     1      43.237  87.194  -4.395  1.00  0.00     0.219 HD
ENDBRANCH  50  52
ENDBRANCH  43  44
ENDBRANCH   9  43
TORSDOF 13
ENDMDL
MODEL 2
REMARK VINA RESULT: -6.885819858      2.721      8.771
REMARK  13 active torsions:
REMARK  status: ('A' for Active; 'I' for Inactive)
REMARK    1  A    between atoms: N1_1  and  C1_4 
REMARK    2  A    between atoms: C3_8  and  C4_9 
REMARK    3  A    between atoms: C4_9  and  C5_10 
REMARK    4  A    between atoms: C5_10  and  N3_11 
REMARK    5  A    between atoms: C8_14  and  N4_15 
REMARK    6  A    between atoms: N4_15  and  C9_17 
REMARK    7  A    between atoms: C10_20  and  N6_21 
REMARK    8  A    between atoms: N6_21  and  C11_23 
REMARK    9  A    between atoms: C11_23  and  C12_24 
REMARK   10  A    between atoms: C12_24  and  N7_25 
REMARK   11  A    between atoms: C16_32  and  C17_33 
REMARK   12  A    between atoms: C17_33  and  C18_34 
REMARK   13  A    between atoms: C20_41  and  O2_42 
ROOT
HETATM    1  C9  UNL     1      37.230  91.178  -4.180  1.00  0.00     0.695 A 
HETATM    2  N5  UNL     1      36.955  91.406  -5.445  1.00  0.00    -0.021 N 
ATOM      3  H5  UNL     1      37.302  90.761  -6.155  1.00  0.00     0.203 HD
HETATM    4  C10 UNL     1      36.226  92.470  -5.825  1.00  0.00     0.715 A 
HETATM    5  N8  UNL     1      35.775  93.311  -4.872  1.00  0.00    -0.068 N 
HETATM    6  N9  UNL     1      35.048  94.417  -4.966  1.00  0.00    -0.288 N 
ATOM      7  H9  UNL     1      34.707  94.810  -5.843  1.00  0.00     0.187 HD
HETATM    8  C15 UNL     1      34.822  94.946  -3.769  1.00  0.00     0.123 A 
HETATM    9  C16 UNL     1      35.451  94.117  -2.851  1.00  0.00     0.030 A 
HETATM   10  C21 UNL     1      36.038  93.106  -3.569  1.00  0.00     0.172 A 
HETATM   11  N12 UNL     1      36.781  92.014  -3.235  1.00  0.00    -0.173 N 
ATOM     12  H12 UNL     1      36.997  91.831  -2.255  1.00  0.00     0.186 HD
ENDROOT
BRANCH   1  13
HETATM   13  N4  UNL     1      37.922  90.168  -3.828  1.00  0.00    -0.212 N 
ATOM     14  H4  UNL     1      37.935  89.967  -2.828  1.00  0.00     0.178 HD
BRANCH  13  15
HETATM   15  C8  UNL     1      38.679  89.284  -4.644  1.00  0.00     0.194 C 
HETATM   16  C7  UNL     1      37.926  87.944  -4.721  1.00  0.00     0.051 C 
HETATM   17  C6  UNL     1      38.590  87.013  -5.685  1.00  0.00     0.116 C 
HETATM   18  N3  UNL     1      40.009  87.113  -5.758  1.00  0.00    -0.228 NA
HETATM   19  N13 UNL     1      40.616  87.758  -4.679  1.00  0.00    -0.287 N 
HETATM   20  C22 UNL     1      40.024  88.945  -4.154  1.00  0.00     0.255 C 
ATOM     21  H13 UNL     1      41.474  87.386  -4.272  1.00  0.00     0.184 HD
HETATM   22  O3  UNL     1      40.669  89.626  -3.317  1.00  0.00    -0.270 OA
BRANCH  18  23
HETATM   23  C5  UNL     1      40.668  85.849  -5.979  1.00  0.00     0.119 C 
BRANCH  23  24
HETATM   24  C4  UNL     1      41.725  85.926  -7.062  1.00  0.00     0.074 C 
BRANCH  24  25
HETATM   25  C3  UNL     1      41.041  85.674  -8.363  1.00  0.00     0.025 A 
HETATM   26  N2  UNL     1      39.886  84.988  -8.461  1.00  0.00    -0.365 N 
HETATM   27  C2  UNL     1      39.282  84.768  -9.638  1.00  0.00     0.136 A 
ATOM     28  H2  UNL     1      39.455  84.625  -7.611  1.00  0.00     0.165 HD
HETATM   29  C1  UNL     1      39.811  85.232 -10.819  1.00  0.00     0.114 A 
HETATM   30  N14 UNL     1      40.982  85.927 -10.730  1.00  0.00    -0.350 N 
HETATM   31  C23 UNL     1      41.580  86.145  -9.550  1.00  0.00     0.114 A 
ATOM     32  H14 UNL     1      41.412  86.289 -11.582  1.00  0.00     0.166 HD
BRANCH  29  33
HETATM   33  N1  UNL     1      39.267  85.045 -11.983  1.00  0.00    -0.384 N 
ATOM     34  H12 UNL     1      38.299  85.328 -12.135  1.00  0.00     0.157 HD
ATOM     35  H11 UNL     1      39.749  84.626 -12.779  1.00  0.00     0.157 HD
ENDBRANCH  29  33
ENDBRANCH  24  25
ENDBRANCH  23  24
ENDBRANCH  18  23
ENDBRANCH  13  15
ENDBRANCH   1  13
BRANCH   4  36
HETATM   36  N6  UNL     1      35.957  92.659  -7.221  1.00  0.00    -0.222 N 
ATOM     37  H6  UNL     1      35.074  93.080  -7.512  1.00  0.00     0.177 HD
BRANCH  36  38
HETATM   38  C11 UNL     1      36.909  92.267  -8.206  1.00  0.00     0.168 C 
BRANCH  38  39
HETATM   39  C12 UNL     1      37.979  93.345  -8.393  1.00  0.00     0.292 C 
BRANCH  39  40
HETATM   40  N7  UNL     1      39.211  92.750  -7.857  1.00  0.00     0.093 N 
HETATM   41  C13 UNL     1      40.144  92.326  -8.911  1.00  0.00     0.302 A 
HETATM   42  C14 UNL     1      39.404  91.307  -8.120  1.00  0.00     0.302 A 
ENDBRANCH  39  40
ENDBRANCH  38  39
ENDBRANCH  36  38
ENDBRANCH   4  36
BRANCH   9  43
HETATM   43  C17 UNL     1      35.473  94.281  -1.551  1.00  0.00     0.051 C 
BRANCH  43  44
HETATM   44  C18 UNL     1      34.309  94.165  -0.704  1.00  0.00     0.088 A 
HETATM   45  N10 UNL     1      33.865  93.065  -0.111  1.00  0.00    -0.305 N 
HETATM   46  C19 UNL     1      32.754  93.312   0.619  1.00  0.00     0.326 A 
ATOM     47  H10 UNL     1      34.305  92.149  -0.196  1.00  0.00     0.171 HD
HETATM   48  O1  UNL     1      32.103  92.475   1.293  1.00  0.00    -0.247 OA
HETATM   49  N11 UNL     1      32.520  94.642   0.453  1.00  0.00    -0.287 N 
HETATM   50  C20 UNL     1      33.451  95.180  -0.346  1.00  0.00     0.171 A 
ATOM     51  H11 UNL     1      31.747  95.156   0.876  1.00  0.00     0.172 HD
BRANCH  50  52
HETATM   52  O2  UNL     1      33.551  96.498  -0.747  1.00  0.00    -0.344 OA
ATOM     53  H2  UNL     1      33.002  97.212  -0.444  1.00  0.00     0.219 HD
ENDBRANCH  50  52
ENDBRANCH  43  44
ENDBRANCH   9  43
TORSDOF 13
ENDMDL
MODEL 3
REMARK VINA RESULT: -6.858187100      2.995      6.059
REMARK  13 active torsions:
REMARK  status: ('A' for Active; 'I' for Inactive)
REMARK    1  A    between atoms: N1_1  and  C1_4 
REMARK    2  A    between atoms: C3_8  and  C4_9 
REMARK    3  A    between atoms: C4_9  and  C5_10 
REMARK    4  A    between atoms: C5_10  and  N3_11 
REMARK    5  A    between atoms: C8_14  and  N4_15 
REMARK    6  A    between atoms: N4_15  and  C9_17 
REMARK    7  A    between atoms: C10_20  and  N6_21 
REMARK    8  A    between atoms: N6_21  and  C11_23 
REMARK    9  A    between atoms: C11_23  and  C12_24 
REMARK   10  A    between atoms: C12_24  and  N7_25 
REMARK   11  A    between atoms: C16_32  and  C17_33 
REMARK   12  A    between atoms: C17_33  and  C18_34 
REMARK   13  A    between atoms: C20_41  and  O2_42 
ROOT
HETATM    1  C9  UNL     1      37.149  91.899  -3.916  1.00  0.00     0.695 A 
HETATM    2  N5  UNL     1      37.075  92.951  -4.703  1.00  0.00    -0.021 N 
ATOM      3  H5  UNL     1      36.666  93.814  -4.344  1.00  0.00     0.203 HD
HETATM    4  C10 UNL     1      37.528  92.916  -5.968  1.00  0.00     0.715 A 
HETATM    5  N8  UNL     1      38.067  91.767  -6.424  1.00  0.00    -0.068 N 
HETATM    6  N9  UNL     1      38.580  91.460  -7.609  1.00  0.00    -0.288 N 
ATOM      7  H9  UNL     1      38.639  92.106  -8.396  1.00  0.00     0.187 HD
HETATM    8  C15 UNL     1      39.007  90.202  -7.637  1.00  0.00     0.123 A 
HETATM    9  C16 UNL     1      38.745  89.674  -6.380  1.00  0.00     0.030 A 
HETATM   10  C21 UNL     1      38.157  90.673  -5.646  1.00  0.00     0.172 A 
HETATM   11  N12 UNL     1      37.685  90.759  -4.371  1.00  0.00    -0.173 N 
ATOM     12  H12 UNL     1      37.740  89.947  -3.756  1.00  0.00     0.186 HD
ENDROOT
BRANCH   1  13
HETATM   13  N4  UNL     1      36.718  91.941  -2.719  1.00  0.00    -0.212 N 
ATOM     14  H4  UNL     1      36.602  92.873  -2.322  1.00  0.00     0.178 HD
BRANCH  13  15
HETATM   15  C8  UNL     1      36.377  90.860  -1.862  1.00  0.00     0.194 C 
HETATM   16  C7  UNL     1      34.915  91.047  -1.418  1.00  0.00     0.051 C 
HETATM   17  C6  UNL     1      34.441  89.865  -0.632  1.00  0.00     0.116 C 
HETATM   18  N3  UNL     1      35.425  89.233   0.181  1.00  0.00    -0.228 NA
HETATM   19  N13 UNL     1      36.563  89.998   0.442  1.00  0.00    -0.287 N 
HETATM   20  C22 UNL     1      37.149  90.757  -0.614  1.00  0.00     0.255 C 
ATOM     21  H13 UNL     1      36.970  90.013   1.377  1.00  0.00     0.184 HD
HETATM   22  O3  UNL     1      38.274  91.287  -0.428  1.00  0.00    -0.270 OA
BRANCH  18  23
HETATM   23  C5  UNL     1      34.907  88.723   1.426  1.00  0.00     0.119 C 
BRANCH  23  24
HETATM   24  C4  UNL     1      33.652  87.894   1.238  1.00  0.00     0.074 C 
BRANCH  24  25
HETATM   25  C3  UNL     1      34.034  86.466   1.431  1.00  0.00     0.025 A 
HETATM   26  N2  UNL     1      34.940  85.840   0.656  1.00  0.00    -0.365 N 
HETATM   27  C2  UNL     1      35.274  84.554   0.842  1.00  0.00     0.136 A 
ATOM     28  H2  UNL     1      35.388  86.361  -0.098  1.00  0.00     0.165 HD
HETATM   29  C1  UNL     1      34.708  83.798   1.839  1.00  0.00     0.114 A 
HETATM   30  N14 UNL     1      33.788  84.423   2.630  1.00  0.00    -0.350 N 
HETATM   31  C23 UNL     1      33.459  85.709   2.440  1.00  0.00     0.114 A 
ATOM     32  H14 UNL     1      33.340  83.899   3.383  1.00  0.00     0.166 HD
BRANCH  29  33
HETATM   33  N1  UNL     1      34.995  82.550   2.059  1.00  0.00    -0.384 N 
ATOM     34  H12 UNL     1      35.320  82.267   2.984  1.00  0.00     0.157 HD
ATOM     35  H11 UNL     1      34.916  81.813   1.359  1.00  0.00     0.157 HD
ENDBRANCH  29  33
ENDBRANCH  24  25
ENDBRANCH  23  24
ENDBRANCH  18  23
ENDBRANCH  13  15
ENDBRANCH   1  13
BRANCH   4  36
HETATM   36  N6  UNL     1      37.422  94.098  -6.772  1.00  0.00    -0.222 N 
ATOM     37  H6  UNL     1      38.147  94.814  -6.713  1.00  0.00     0.177 HD
BRANCH  36  38
HETATM   38  C11 UNL     1      36.317  94.286  -7.651  1.00  0.00     0.168 C 
BRANCH  38  39
HETATM   39  C12 UNL     1      35.191  95.056  -6.959  1.00  0.00     0.292 C 
BRANCH  39  40
HETATM   40  N7  UNL     1      33.974  94.282  -7.244  1.00  0.00     0.093 N 
HETATM   41  C13 UNL     1      33.762  93.184  -6.290  1.00  0.00     0.302 A 
HETATM   42  C14 UNL     1      34.181  92.885  -7.684  1.00  0.00     0.302 A 
ENDBRANCH  39  40
ENDBRANCH  38  39
ENDBRANCH  36  38
ENDBRANCH   4  36
BRANCH   9  43
HETATM   43  C17 UNL     1      39.012  88.454  -5.986  1.00  0.00     0.051 C 
BRANCH  43  44
HETATM   44  C18 UNL     1      40.323  88.007  -5.574  1.00  0.00     0.088 A 
HETATM   45  N10 UNL     1      41.056  87.062  -6.145  1.00  0.00    -0.305 N 
HETATM   46  C19 UNL     1      42.239  86.903  -5.509  1.00  0.00     0.326 A 
ATOM     47  H10 UNL     1      40.765  86.523  -6.960  1.00  0.00     0.171 HD
HETATM   48  O1  UNL     1      43.145  86.087  -5.813  1.00  0.00    -0.247 OA
HETATM   49  N11 UNL     1      42.211  87.809  -4.495  1.00  0.00    -0.287 N 
HETATM   50  C20 UNL     1      41.057  88.490  -4.515  1.00  0.00     0.171 A 
ATOM     51  H11 UNL     1      42.959  87.949  -3.817  1.00  0.00     0.172 HD
BRANCH  50  52
HETATM   52  O2  UNL     1      40.661  89.491  -3.649  1.00  0.00    -0.344 OA
ATOM     53  H2  UNL     1      40.762  89.479  -2.704  1.00  0.00     0.219 HD
ENDBRANCH  50  52
ENDBRANCH  43  44
ENDBRANCH   9  43
TORSDOF 13
ENDMDL
MODEL 4
REMARK VINA RESULT: -6.781620131      1.507      2.004
REMARK  13 active torsions:
REMARK  status: ('A' for Active; 'I' for Inactive)
REMARK    1  A    between atoms: N1_1  and  C1_4 
REMARK    2  A    between atoms: C3_8  and  C4_9 
REMARK    3  A    between atoms: C4_9  and  C5_10 
REMARK    4  A    between atoms: C5_10  and  N3_11 
REMARK    5  A    between atoms: C8_14  and  N4_15 
REMARK    6  A    between atoms: N4_15  and  C9_17 
REMARK    7  A    between atoms: C10_20  and  N6_21 
REMARK    8  A    between atoms: N6_21  and  C11_23 
REMARK    9  A    between atoms: C11_23  and  C12_24 
REMARK   10  A    between atoms: C12_24  and  N7_25 
REMARK   11  A    between atoms: C16_32  and  C17_33 
REMARK   12  A    between atoms: C17_33  and  C18_34 
REMARK   13  A    between atoms: C20_41  and  O2_42 
ROOT
HETATM    1  C9  UNL     1      39.248  89.634  -9.796  1.00  0.00     0.695 A 
HETATM    2  N5  UNL     1      39.751  89.382 -10.984  1.00  0.00    -0.021 N 
ATOM      3  H5  UNL     1      39.620  90.060 -11.735  1.00  0.00     0.203 HD
HETATM    4  C10 UNL     1      40.435  88.251 -11.232  1.00  0.00     0.715 A 
HETATM    5  N8  UNL     1      40.598  87.367 -10.227  1.00  0.00    -0.068 N 
HETATM    6  N9  UNL     1      41.217  86.194 -10.196  1.00  0.00    -0.288 N 
ATOM      7  H9  UNL     1      41.689  85.770 -10.995  1.00  0.00     0.187 HD
HETATM    8  C15 UNL     1      41.141  85.642  -8.990  1.00  0.00     0.123 A 
HETATM    9  C16 UNL     1      40.423  86.529  -8.200  1.00  0.00     0.030 A 
HETATM   10  C21 UNL     1      40.096  87.595  -9.000  1.00  0.00     0.172 A 
HETATM   11  N12 UNL     1      39.412  88.756  -8.798  1.00  0.00    -0.173 N 
ATOM     12  H12 UNL     1      39.020  88.958  -7.878  1.00  0.00     0.186 HD
ENDROOT
BRANCH   1  13
HETATM   13  N4  UNL     1      38.602  90.708  -9.569  1.00  0.00    -0.212 N 
ATOM     14  H4  UNL     1      38.317  91.236 -10.393  1.00  0.00     0.178 HD
BRANCH  13  15
HETATM   15  C8  UNL     1      38.225  91.268  -8.318  1.00  0.00     0.194 C 
HETATM   16  C7  UNL     1      36.758  91.722  -8.422  1.00  0.00     0.051 C 
HETATM   17  C6  UNL     1      36.248  92.186  -7.094  1.00  0.00     0.116 C 
HETATM   18  N3  UNL     1      37.204  92.833  -6.261  1.00  0.00    -0.228 NA
HETATM   19  N13 UNL     1      38.350  93.292  -6.914  1.00  0.00    -0.287 N 
HETATM   20  C22 UNL     1      38.971  92.464  -7.895  1.00  0.00     0.255 C 
ATOM     21  H13 UNL     1      38.739  94.208  -6.691  1.00  0.00     0.184 HD
HETATM   22  O3  UNL     1      40.100  92.792  -8.339  1.00  0.00    -0.270 OA
BRANCH  18  23
HETATM   23  C5  UNL     1      36.653  93.908  -5.472  1.00  0.00     0.119 C 
BRANCH  23  24
HETATM   24  C4  UNL     1      35.513  93.451  -4.584  1.00  0.00     0.074 C 
BRANCH  24  25
HETATM   25  C3  UNL     1      36.120  92.769  -3.405  1.00  0.00     0.025 A 
HETATM   26  N2  UNL     1      37.366  92.259  -3.417  1.00  0.00    -0.365 N 
HETATM   27  C2  UNL     1      37.899  91.647  -2.348  1.00  0.00     0.136 A 
ATOM     28  H2  UNL     1      37.925  92.341  -4.266  1.00  0.00     0.165 HD
HETATM   29  C1  UNL     1      37.199  91.505  -1.174  1.00  0.00     0.114 A 
HETATM   30  N14 UNL     1      35.935  92.018  -1.152  1.00  0.00    -0.350 N 
HETATM   31  C23 UNL     1      35.408  92.629  -2.224  1.00  0.00     0.114 A 
ATOM     32  H14 UNL     1      35.377  91.934  -0.302  1.00  0.00     0.166 HD
BRANCH  29  33
HETATM   33  N1  UNL     1      37.668  90.921  -0.113  1.00  0.00    -0.384 N 
ATOM     34  H12 UNL     1      38.634  91.093   0.167  1.00  0.00     0.157 HD
ATOM     35  H11 UNL     1      37.128  90.288   0.477  1.00  0.00     0.157 HD
ENDBRANCH  29  33
ENDBRANCH  24  25
ENDBRANCH  23  24
ENDBRANCH  18  23
ENDBRANCH  13  15
ENDBRANCH   1  13
BRANCH   4  36
HETATM   36  N6  UNL     1      40.961  88.038 -12.549  1.00  0.00    -0.222 N 
ATOM     37  H6  UNL     1      40.535  87.336 -13.155  1.00  0.00     0.177 HD
BRANCH  36  38
HETATM   38  C11 UNL     1      42.073  88.795 -13.021  1.00  0.00     0.168 C 
BRANCH  38  39
HETATM   39  C12 UNL     1      43.306  88.559 -12.147  1.00  0.00     0.292 C 
BRANCH  39  40
HETATM   40  N7  UNL     1      43.945  89.878 -12.034  1.00  0.00     0.093 N 
HETATM   41  C13 UNL     1      43.004  90.934 -11.635  1.00  0.00     0.302 A 
HETATM   42  C14 UNL     1      43.526  90.891 -13.027  1.00  0.00     0.302 A 
ENDBRANCH  39  40
ENDBRANCH  38  39
ENDBRANCH  36  38
ENDBRANCH   4  36
BRANCH   9  43
HETATM   43  C17 UNL     1      40.121  86.365  -6.936  1.00  0.00     0.051 C 
BRANCH  43  44
HETATM   44  C18 UNL     1      40.658  87.175  -5.867  1.00  0.00     0.088 A 
HETATM   45  N10 UNL     1      40.018  88.115  -5.185  1.00  0.00    -0.305 N 
HETATM   46  C19 UNL     1      40.816  88.671  -4.245  1.00  0.00     0.326 A 
ATOM     47  H10 UNL     1      39.049  88.385  -5.349  1.00  0.00     0.171 HD
HETATM   48  O1  UNL     1      40.498  89.586  -3.443  1.00  0.00    -0.247 OA
HETATM   49  N11 UNL     1      42.005  88.024  -4.373  1.00  0.00    -0.287 N 
HETATM   50  C20 UNL     1      41.932  87.112  -5.352  1.00  0.00     0.171 A 
ATOM     51  H11 UNL     1      42.833  88.207  -3.807  1.00  0.00     0.172 HD
BRANCH  50  52
HETATM   52  O2  UNL     1      42.932  86.259  -5.778  1.00  0.00    -0.344 OA
ATOM     53  H2  UNL     1      43.821  86.513  -5.998  1.00  0.00     0.219 HD
ENDBRANCH  50  52
ENDBRANCH  43  44
ENDBRANCH   9  43
TORSDOF 13
ENDMDL
MODEL 5
REMARK VINA RESULT: -6.740023110      1.096      1.204
REMARK  13 active torsions:
REMARK  status: ('A' for Active; 'I' for Inactive)
REMARK    1  A    between atoms: N1_1  and  C1_4 
REMARK    2  A    between atoms: C3_8  and  C4_9 
REMARK    3  A    between atoms: C4_9  and  C5_10 
REMARK    4  A    between atoms: C5_10  and  N3_11 
REMARK    5  A    between atoms: C8_14  and  N4_15 
REMARK    6  A    between atoms: N4_15  and  C9_17 
REMARK    7  A    between atoms: C10_20  and  N6_21 
REMARK    8  A    between atoms: N6_21  and  C11_23 
REMARK    9  A    between atoms: C11_23  and  C12_24 
REMARK   10  A    between atoms: C12_24  and  N7_25 
REMARK   11  A    between atoms: C16_32  and  C17_33 
REMARK   12  A    between atoms: C17_33  and  C18_34 
REMARK   13  A    between atoms: C20_41  and  O2_42 
ROOT
HETATM    1  C9  UNL     1      38.540  91.054  -8.767  1.00  0.00     0.695 A 
HETATM    2  N5  UNL     1      38.950  91.187 -10.009  1.00  0.00    -0.021 N 
ATOM      3  H5  UNL     1      38.773  92.063 -10.502  1.00  0.00     0.203 HD
HETATM    4  C10 UNL     1      39.596  90.195 -10.645  1.00  0.00     0.715 A 
HETATM    5  N8  UNL     1      39.821  89.045  -9.978  1.00  0.00    -0.068 N 
HETATM    6  N9  UNL     1      40.423  87.925 -10.358  1.00  0.00    -0.288 N 
ATOM      7  H9  UNL     1      40.829  87.774 -11.281  1.00  0.00     0.187 HD
HETATM    8  C15 UNL     1      40.429  87.026  -9.380  1.00  0.00     0.123 A 
HETATM    9  C16 UNL     1      39.784  87.619  -8.303  1.00  0.00     0.030 A 
HETATM   10  C21 UNL     1      39.415  88.877  -8.706  1.00  0.00     0.172 A 
HETATM   11  N12 UNL     1      38.764  89.912  -8.105  1.00  0.00    -0.173 N 
ATOM     12  H12 UNL     1      38.444  89.815  -7.141  1.00  0.00     0.186 HD
ENDROOT
BRANCH   1  13
HETATM   13  N4  UNL     1      37.927  91.999  -8.171  1.00  0.00    -0.212 N 
ATOM     14  H4  UNL     1      37.759  92.837  -8.727  1.00  0.00     0.178 HD
BRANCH  13  15
HETATM   15  C8  UNL     1      37.448  92.040  -6.834  1.00  0.00     0.194 C 
HETATM   16  C7  UNL     1      35.913  91.930  -6.874  1.00  0.00     0.051 C 
HETATM   17  C6  UNL     1      35.350  91.817  -5.493  1.00  0.00     0.116 C 
HETATM   18  N3  UNL     1      36.051  92.534  -4.482  1.00  0.00    -0.228 NA
HETATM   19  N13 UNL     1      36.907  93.534  -4.947  1.00  0.00    -0.287 N 
HETATM   20  C22 UNL     1      37.727  93.275  -6.085  1.00  0.00     0.255 C 
ATOM     21  H13 UNL     1      36.946  94.439  -4.479  1.00  0.00     0.184 HD
HETATM   22  O3  UNL     1      38.629  94.099  -6.383  1.00  0.00    -0.270 OA
BRANCH  18  23
HETATM   23  C5  UNL     1      35.193  93.088  -3.464  1.00  0.00     0.119 C 
BRANCH  23  24
HETATM   24  C4  UNL     1      35.957  93.502  -2.222  1.00  0.00     0.074 C 
BRANCH  24  25
HETATM   25  C3  UNL     1      35.966  92.331  -1.300  1.00  0.00     0.025 A 
HETATM   26  N2  UNL     1      34.854  91.865  -0.699  1.00  0.00    -0.365 N 
HETATM   27  C2  UNL     1      34.878  90.810   0.129  1.00  0.00     0.136 A 
ATOM     28  H2  UNL     1      33.964  92.329  -0.880  1.00  0.00     0.165 HD
HETATM   29  C1  UNL     1      36.044  90.140   0.413  1.00  0.00     0.114 A 
HETATM   30  N14 UNL     1      37.176  90.605  -0.191  1.00  0.00    -0.350 N 
HETATM   31  C23 UNL     1      37.146  91.660  -1.018  1.00  0.00     0.114 A 
ATOM     32  H14 UNL     1      38.065  90.140  -0.008  1.00  0.00     0.166 HD
BRANCH  29  33
HETATM   33  N1  UNL     1      36.120  89.116   1.207  1.00  0.00    -0.384 N 
ATOM     34  H12 UNL     1      35.338  88.462   1.257  1.00  0.00     0.157 HD
ATOM     35  H11 UNL     1      36.925  88.910   1.799  1.00  0.00     0.157 HD
ENDBRANCH  29  33
ENDBRANCH  24  25
ENDBRANCH  23  24
ENDBRANCH  18  23
ENDBRANCH  13  15
ENDBRANCH   1  13
BRANCH   4  36
HETATM   36  N6  UNL     1      40.021  90.405 -11.998  1.00  0.00    -0.222 N 
ATOM     37  H6  UNL     1      39.404  90.142 -12.767  1.00  0.00     0.177 HD
BRANCH  36  38
HETATM   38  C11 UNL     1      41.296  90.975 -12.282  1.00  0.00     0.168 C 
BRANCH  38  39
HETATM   39  C12 UNL     1      41.176  92.475 -12.559  1.00  0.00     0.292 C 
BRANCH  39  40
HETATM   40  N7  UNL     1      41.697  93.124 -11.348  1.00  0.00     0.093 N 
HETATM   41  C13 UNL     1      40.790  94.152 -10.818  1.00  0.00     0.302 A 
HETATM   42  C14 UNL     1      42.059  94.552 -11.481  1.00  0.00     0.302 A 
ENDBRANCH  39  40
ENDBRANCH  38  39
ENDBRANCH  36  38
ENDBRANCH   4  36
BRANCH   9  43
HETATM   43  C17 UNL     1      39.574  87.069  -7.132  1.00  0.00     0.051 C 
BRANCH  43  44
HETATM   44  C18 UNL     1      40.211  87.503  -5.911  1.00  0.00     0.088 A 
HETATM   45  N10 UNL     1      39.999  88.641  -5.265  1.00  0.00    -0.305 N 
HETATM   46  C19 UNL     1      40.757  88.725  -4.148  1.00  0.00     0.326 A 
ATOM     47  H10 UNL     1      39.346  89.363  -5.572  1.00  0.00     0.171 HD
HETATM   48  O1  UNL     1      40.779  89.679  -3.331  1.00  0.00    -0.247 OA
HETATM   49  N11 UNL     1      41.467  87.565  -4.125  1.00  0.00    -0.287 N 
HETATM   50  C20 UNL     1      41.152  86.808  -5.186  1.00  0.00     0.171 A 
ATOM     51  H11 UNL     1      42.142  87.308  -3.405  1.00  0.00     0.172 HD
BRANCH  50  52
HETATM   52  O2  UNL     1      41.661  85.565  -5.508  1.00  0.00    -0.344 OA
ATOM     53  H2  UNL     1      41.299  84.968  -6.152  1.00  0.00     0.219 HD
ENDBRANCH  50  52
ENDBRANCH  43  44
ENDBRANCH   9  43
TORSDOF 13
ENDMDL
