MODEL 1
REMARK VINA RESULT: -6.381478182      0.000      0.000
REMARK  16 active torsions:
REMARK  status: ('A' for Active; 'I' for Inactive)
REMARK    1  A    between atoms: N1_2  and  O1_3 
REMARK    2  A    between atoms: N1_2  and  C2_5 
REMARK    3  A    between atoms: C3_8  and  N3_9 
REMARK    4  A    between atoms: N3_9  and  C4_11 
REMARK    5  A    between atoms: C7_14  and  N4_15 
REMARK    6  A    between atoms: N4_15  and  C8_17 
REMARK    7  A    between atoms: C9_20  and  N6_21 
REMARK    8  A    between atoms: N6_21  and  C10_23 
REMARK    9  A    between atoms: C10_23  and  C11_24 
REMARK   10  A    between atoms: C15_34  and  N9_35 
REMARK   11  A    between atoms: N9_35  and  C16_37 
REMARK   12  A    between atoms: C16_37  and  C17_38 
REMARK   13  A    between atoms: C17_38  and  O3_39 
REMARK   14  A    between atoms: N12_48  and  C21_49 
REMARK   15  A    between atoms: C21_49  and  C22_50 
REMARK   16  A    between atoms: C22_50  and  O4_51 
ROOT
HETATM    1  N4  UNL     1      36.357  92.887  -7.969  1.00  0.00    -0.220 N 
ATOM      2  H4  UNL     1      35.645  92.452  -8.555  1.00  0.00     0.178 HD
ENDROOT
BRANCH   1   3
HETATM    3  C7  UNL     1      36.057  94.192  -7.452  1.00  0.00     0.101 C 
HETATM    4  C6  UNL     1      34.602  94.555  -7.449  1.00  0.00     0.028 C 
HETATM    5  C5  UNL     1      34.098  94.130  -6.101  1.00  0.00     0.027 C 
HETATM    6  C4  UNL     1      35.298  93.794  -5.278  1.00  0.00     0.085 C 
HETATM    7  C18 UNL     1      36.487  94.366  -6.026  1.00  0.00     0.050 C 
BRANCH   6   8
HETATM    8  N3  UNL     1      35.280  94.330  -3.952  1.00  0.00    -0.369 N 
ATOM      9  H3  UNL     1      35.151  95.331  -3.807  1.00  0.00     0.161 HD
BRANCH   8  10
HETATM   10  C3  UNL     1      35.427  93.546  -2.945  1.00  0.00     0.148 A 
HETATM   11  N2  UNL     1      36.459  92.752  -2.696  1.00  0.00    -0.172 N 
HETATM   12  C2  UNL     1      36.554  91.947  -1.624  1.00  0.00     0.707 A 
ATOM     13  H2  UNL     1      37.231  92.751  -3.363  1.00  0.00     0.186 HD
HETATM   14  N13 UNL     1      35.535  91.936  -0.724  1.00  0.00    -0.172 N 
HETATM   15  C23 UNL     1      34.477  92.720  -0.934  1.00  0.00     0.155 A 
ATOM     16  H13 UNL     1      35.579  91.337   0.099  1.00  0.00     0.186 HD
HETATM   17  C19 UNL     1      34.376  93.541  -2.027  1.00  0.00     0.123 A 
HETATM   18  N12 UNL     1      33.359  92.892  -0.208  1.00  0.00    -0.325 N 
HETATM   19  N11 UNL     1      33.202  94.198  -1.950  1.00  0.00    -0.346 N 
HETATM   20  C20 UNL     1      32.576  93.804  -0.837  1.00  0.00     0.185 A 
ATOM     21  H11 UNL     1      32.851  94.879  -2.624  1.00  0.00     0.167 HD
BRANCH  12  22
HETATM   22  N1  UNL     1      37.663  91.105  -1.381  1.00  0.00    -0.095 N 
HETATM   23  C1  UNL     1      38.098  90.192  -2.403  1.00  0.00     0.205 C 
BRANCH  22  24
HETATM   24  O1  UNL     1      38.300  91.159  -0.208  1.00  0.00    -0.274 OA
ATOM     25  H1  UNL     1      39.095  91.673  -0.117  1.00  0.00     0.245 HD
ENDBRANCH  22  24
ENDBRANCH  12  22
BRANCH  18  26
HETATM   26  C21 UNL     1      33.028  92.237   1.022  1.00  0.00     0.157 C 
BRANCH  26  27
HETATM   27  C22 UNL     1      32.010  91.159   0.741  1.00  0.00     0.184 C 
BRANCH  27  28
HETATM   28  O4  UNL     1      30.807  91.437   1.382  1.00  0.00    -0.399 OA
ATOM     29  H4  UNL     1      30.940  91.550   2.315  1.00  0.00     0.209 HD
ENDBRANCH  27  28
ENDBRANCH  26  27
ENDBRANCH  18  26
ENDBRANCH   8  10
ENDBRANCH   6   8
ENDBRANCH   1   3
BRANCH   1  30
HETATM   30  C8  UNL     1      37.428  92.213  -7.768  1.00  0.00     0.707 A 
HETATM   31  N5  UNL     1      37.550  91.171  -6.936  1.00  0.00    -0.021 N 
HETATM   32  C9  UNL     1      38.689  90.483  -6.766  1.00  0.00     0.711 A 
ATOM     33  H5  UNL     1      36.731  90.884  -6.401  1.00  0.00     0.203 HD
HETATM   34  N8  UNL     1      39.774  90.860  -7.475  1.00  0.00    -0.021 N 
HETATM   35  C15 UNL     1      39.655  91.898  -8.305  1.00  0.00     0.707 A 
ATOM     36  H8  UNL     1      40.660  90.365  -7.379  1.00  0.00     0.203 HD
HETATM   37  N10 UNL     1      38.519  92.579  -8.469  1.00  0.00    -0.022 N 
ATOM     38  H10 UNL     1      38.477  93.367  -9.117  1.00  0.00     0.203 HD
BRANCH  32  39
HETATM   39  N6  UNL     1      38.767  89.401  -5.876  1.00  0.00    -0.202 N 
ATOM     40  H6  UNL     1      37.903  89.041  -5.470  1.00  0.00     0.183 HD
BRANCH  39  41
HETATM   41  C10 UNL     1      39.862  88.852  -5.553  1.00  0.00     0.114 C 
BRANCH  41  42
HETATM   42  C11 UNL     1      39.997  87.543  -4.850  1.00  0.00     0.248 C 
HETATM   43  C12 UNL     1      39.870  86.465  -5.893  1.00  0.00     0.206 C 
HETATM   44  O2  UNL     1      40.696  85.385  -5.709  1.00  0.00    -0.387 OA
HETATM   45  C13 UNL     1      42.018  85.688  -5.483  1.00  0.00     0.195 C 
HETATM   46  C14 UNL     1      42.275  87.158  -5.222  1.00  0.00     0.259 C 
HETATM   47  N7  UNL     1      41.306  87.566  -4.225  1.00  0.00    -0.062 N 
ATOM     48  H72 UNL     1      41.528  88.466  -3.801  1.00  0.00     0.278 HD
ATOM     49  H71 UNL     1      41.351  87.003  -3.375  1.00  0.00     0.278 HD
ENDBRANCH  41  42
ENDBRANCH  39  41
ENDBRANCH  32  39
BRANCH  35  50
HETATM   50  N9  UNL     1      40.676  92.271  -8.999  1.00  0.00    -0.223 N 
ATOM     51  H9  UNL     1      41.533  92.536  -8.513  1.00  0.00     0.177 HD
BRANCH  50  52
HETATM   52  C16 UNL     1      40.647  92.327 -10.443  1.00  0.00     0.164 C 
BRANCH  52  53
HETATM   53  C17 UNL     1      40.943  93.782 -10.836  1.00  0.00     0.184 C 
BRANCH  53  54
HETATM   54  O3  UNL     1      39.860  94.564 -10.507  1.00  0.00    -0.399 OA
ATOM     55  H3  UNL     1      39.923  94.810  -9.591  1.00  0.00     0.209 HD
ENDBRANCH  53  54
ENDBRANCH  52  53
ENDBRANCH  50  52
ENDBRANCH  35  50
ENDBRANCH   1  30
TORSDOF 16
ENDMDL
MODEL 2
REMARK VINA RESULT: -6.298454841      2.287      5.551
REMARK  16 active torsions:
REMARK  status: ('A' for Active; 'I' for Inactive)
REMARK    1  A    between atoms: N1_2  and  O1_3 
REMARK    2  A    between atoms: N1_2  and  C2_5 
REMARK    3  A    between atoms: C3_8  and  N3_9 
REMARK    4  A    between atoms: N3_9  and  C4_11 
REMARK    5  A    between atoms: C7_14  and  N4_15 
REMARK    6  A    between atoms: N4_15  and  C8_17 
REMARK    7  A    between atoms: C9_20  and  N6_21 
REMARK    8  A    between atoms: N6_21  and  C10_23 
REMARK    9  A    between atoms: C10_23  and  C11_24 
REMARK   10  A    between atoms: C15_34  and  N9_35 
REMARK   11  A    between atoms: N9_35  and  C16_37 
REMARK   12  A    between atoms: C16_37  and  C17_38 
REMARK   13  A    between atoms: C17_38  and  O3_39 
REMARK   14  A    between atoms: N12_48  and  C21_49 
REMARK   15  A    between atoms: C21_49  and  C22_50 
REMARK   16  A    between atoms: C22_50  and  O4_51 
ROOT
HETATM    1  N4  UNL     1      38.302  90.139  -2.787  1.00  0.00    -0.220 N 
ATOM      2  H4  UNL     1      37.897  89.544  -2.064  1.00  0.00     0.178 HD
ENDROOT
BRANCH   1   3
HETATM    3  C7  UNL     1      38.226  91.555  -2.573  1.00  0.00     0.101 C 
HETATM    4  C6  UNL     1      37.468  92.317  -3.621  1.00  0.00     0.028 C 
HETATM    5  C5  UNL     1      36.057  92.372  -3.117  1.00  0.00     0.027 C 
HETATM    6  C4  UNL     1      36.084  91.896  -1.702  1.00  0.00     0.085 C 
HETATM    7  C18 UNL     1      37.543  91.914  -1.287  1.00  0.00     0.050 C 
BRANCH   6   8
HETATM    8  N3  UNL     1      35.331  92.699  -0.789  1.00  0.00    -0.369 N 
ATOM      9  H3  UNL     1      35.679  93.613  -0.505  1.00  0.00     0.161 HD
BRANCH   8  10
HETATM   10  C3  UNL     1      34.213  92.263  -0.330  1.00  0.00     0.148 A 
HETATM   11  N2  UNL     1      33.898  91.004  -0.058  1.00  0.00    -0.172 N 
HETATM   12  C2  UNL     1      32.705  90.607   0.419  1.00  0.00     0.707 A 
ATOM     13  H2  UNL     1      34.608  90.290  -0.221  1.00  0.00     0.186 HD
HETATM   14  N13 UNL     1      31.749  91.546   0.645  1.00  0.00    -0.172 N 
HETATM   15  C23 UNL     1      32.022  92.826   0.386  1.00  0.00     0.155 A 
ATOM     16  H13 UNL     1      30.835  91.276   1.007  1.00  0.00     0.186 HD
HETATM   17  C19 UNL     1      33.236  93.234  -0.101  1.00  0.00     0.123 A 
HETATM   18  N12 UNL     1      31.262  93.926   0.522  1.00  0.00    -0.325 N 
HETATM   19  N11 UNL     1      33.198  94.572  -0.253  1.00  0.00    -0.346 N 
HETATM   20  C20 UNL     1      31.991  95.000   0.127  1.00  0.00     0.185 A 
ATOM     21  H11 UNL     1      33.959  95.157  -0.600  1.00  0.00     0.167 HD
BRANCH  12  22
HETATM   22  N1  UNL     1      32.391  89.259   0.698  1.00  0.00    -0.095 N 
HETATM   23  C1  UNL     1      33.402  88.248   0.545  1.00  0.00     0.205 C 
BRANCH  22  24
HETATM   24  O1  UNL     1      31.161  88.927   1.100  1.00  0.00    -0.274 OA
ATOM     25  H1  UNL     1      30.430  88.971   0.495  1.00  0.00     0.245 HD
ENDBRANCH  22  24
ENDBRANCH  12  22
BRANCH  18  26
HETATM   26  C21 UNL     1      29.914  93.982   0.999  1.00  0.00     0.157 C 
BRANCH  26  27
HETATM   27  C22 UNL     1      29.870  94.839   2.240  1.00  0.00     0.184 C 
BRANCH  27  28
HETATM   28  O4  UNL     1      30.462  94.184   3.315  1.00  0.00    -0.399 OA
ATOM     29  H4  UNL     1      30.571  93.260   3.128  1.00  0.00     0.209 HD
ENDBRANCH  27  28
ENDBRANCH  26  27
ENDBRANCH  18  26
ENDBRANCH   8  10
ENDBRANCH   6   8
ENDBRANCH   1   3
BRANCH   1  30
HETATM   30  C8  UNL     1      38.827  89.545  -3.794  1.00  0.00     0.707 A 
HETATM   31  N5  UNL     1      38.488  89.734  -5.075  1.00  0.00    -0.021 N 
HETATM   32  C9  UNL     1      39.074  89.100  -6.101  1.00  0.00     0.711 A 
ATOM     33  H5  UNL     1      37.743  90.399  -5.283  1.00  0.00     0.203 HD
HETATM   34  N8  UNL     1      40.062  88.222  -5.829  1.00  0.00    -0.021 N 
HETATM   35  C15 UNL     1      40.402  88.031  -4.553  1.00  0.00     0.707 A 
ATOM     36  H8  UNL     1      40.537  87.718  -6.578  1.00  0.00     0.203 HD
HETATM   37  N10 UNL     1      39.814  88.665  -3.535  1.00  0.00    -0.022 N 
ATOM     38  H10 UNL     1      40.109  88.486  -2.575  1.00  0.00     0.203 HD
BRANCH  32  39
HETATM   39  N6  UNL     1      38.679  89.329  -7.428  1.00  0.00    -0.202 N 
ATOM     40  H6  UNL     1      37.910  88.777  -7.809  1.00  0.00     0.183 HD
BRANCH  39  41
HETATM   41  C10 UNL     1      39.233  90.190  -8.174  1.00  0.00     0.114 C 
BRANCH  41  42
HETATM   42  C11 UNL     1      39.318  91.653  -7.888  1.00  0.00     0.248 C 
HETATM   43  C12 UNL     1      40.210  92.258  -8.938  1.00  0.00     0.206 C 
HETATM   44  O2  UNL     1      39.822  93.499  -9.379  1.00  0.00    -0.387 OA
HETATM   45  C13 UNL     1      38.501  93.605  -9.744  1.00  0.00     0.195 C 
HETATM   46  C14 UNL     1      37.657  92.410  -9.352  1.00  0.00     0.259 C 
HETATM   47  N7  UNL     1      37.955  92.146  -7.959  1.00  0.00    -0.062 N 
ATOM     48  H72 UNL     1      37.282  91.517  -7.521  1.00  0.00     0.278 HD
ATOM     49  H71 UNL     1      37.793  92.955  -7.358  1.00  0.00     0.278 HD
ENDBRANCH  41  42
ENDBRANCH  39  41
ENDBRANCH  32  39
BRANCH  35  50
HETATM   50  N9  UNL     1      41.349  87.203  -4.268  1.00  0.00    -0.223 N 
ATOM     51  H9  UNL     1      41.278  86.647  -3.416  1.00  0.00     0.177 HD
BRANCH  50  52
HETATM   52  C16 UNL     1      42.508  87.037  -5.116  1.00  0.00     0.164 C 
BRANCH  52  53
HETATM   53  C17 UNL     1      42.133  85.994  -6.178  1.00  0.00     0.184 C 
BRANCH  53  54
HETATM   54  O3  UNL     1      41.695  84.851  -5.550  1.00  0.00    -0.399 OA
ATOM     55  H3  UNL     1      42.226  84.117  -5.837  1.00  0.00     0.209 HD
ENDBRANCH  53  54
ENDBRANCH  52  53
ENDBRANCH  50  52
ENDBRANCH  35  50
ENDBRANCH   1  30
TORSDOF 16
ENDMDL
MODEL 3
REMARK VINA RESULT: -6.297361639      3.294      7.526
REMARK  16 active torsions:
REMARK  status: ('A' for Active; 'I' for Inactive)
REMARK    1  A    between atoms: N1_2  and  O1_3 
REMARK    2  A    between atoms: N1_2  and  C2_5 
REMARK    3  A    between atoms: C3_8  and  N3_9 
REMARK    4  A    between atoms: N3_9  and  C4_11 
REMARK    5  A    between atoms: C7_14  and  N4_15 
REMARK    6  A    between atoms: N4_15  and  C8_17 
REMARK    7  A    between atoms: C9_20  and  N6_21 
REMARK    8  A    between atoms: N6_21  and  C10_23 
REMARK    9  A    between atoms: C10_23  and  C11_24 
REMARK   10  A    between atoms: C15_34  and  N9_35 
REMARK   11  A    between atoms: N9_35  and  C16_37 
REMARK   12  A    between atoms: C16_37  and  C17_38 
REMARK   13  A    between atoms: C17_38  and  O3_39 
REMARK   14  A    between atoms: N12_48  and  C21_49 
REMARK   15  A    between atoms: C21_49  and  C22_50 
REMARK   16  A    between atoms: C22_50  and  O4_51 
ROOT
HETATM    1  N4  UNL     1      41.713  85.792  -7.571  1.00  0.00    -0.220 N 
ATOM      2  H4  UNL     1      42.677  85.797  -7.906  1.00  0.00     0.178 HD
ENDROOT
BRANCH   1   3
HETATM    3  C7  UNL     1      41.521  85.570  -6.167  1.00  0.00     0.101 C 
HETATM    4  C6  UNL     1      42.512  86.256  -5.274  1.00  0.00     0.028 C 
HETATM    5  C5  UNL     1      41.887  87.578  -4.942  1.00  0.00     0.027 C 
HETATM    6  C4  UNL     1      40.471  87.517  -5.411  1.00  0.00     0.085 C 
HETATM    7  C18 UNL     1      40.187  86.051  -5.679  1.00  0.00     0.050 C 
BRANCH   6   8
HETATM    8  N3  UNL     1      39.512  88.014  -4.475  1.00  0.00    -0.369 N 
ATOM      9  H3  UNL     1      39.516  87.679  -3.512  1.00  0.00     0.161 HD
BRANCH   8  10
HETATM   10  C3  UNL     1      38.644  88.883  -4.852  1.00  0.00     0.148 A 
HETATM   11  N2  UNL     1      38.036  88.947  -6.028  1.00  0.00    -0.172 N 
HETATM   12  C2  UNL     1      37.137  89.887  -6.367  1.00  0.00     0.707 A 
ATOM     13  H2  UNL     1      38.266  88.235  -6.722  1.00  0.00     0.186 HD
HETATM   14  N13 UNL     1      36.817  90.842  -5.454  1.00  0.00    -0.172 N 
HETATM   15  C23 UNL     1      37.403  90.816  -4.257  1.00  0.00     0.155 A 
ATOM     16  H13 UNL     1      36.138  91.567  -5.681  1.00  0.00     0.186 HD
HETATM   17  C19 UNL     1      38.321  89.860  -3.908  1.00  0.00     0.123 A 
HETATM   18  N12 UNL     1      37.262  91.631  -3.197  1.00  0.00    -0.325 N 
HETATM   19  N11 UNL     1      38.723  90.106  -2.645  1.00  0.00    -0.346 N 
HETATM   20  C20 UNL     1      38.077  91.190  -2.206  1.00  0.00     0.185 A 
ATOM     21  H11 UNL     1      39.403  89.559  -2.117  1.00  0.00     0.167 HD
BRANCH  12  22
HETATM   22  N1  UNL     1      36.505  89.936  -7.629  1.00  0.00    -0.095 N 
HETATM   23  C1  UNL     1      35.833  91.139  -8.039  1.00  0.00     0.205 C 
BRANCH  22  24
HETATM   24  O1  UNL     1      36.531  88.871  -8.434  1.00  0.00    -0.274 OA
ATOM     25  H1  UNL     1      37.116  88.144  -8.250  1.00  0.00     0.245 HD
ENDBRANCH  22  24
ENDBRANCH  12  22
BRANCH  18  26
HETATM   26  C21 UNL     1      36.405  92.774  -3.105  1.00  0.00     0.157 C 
BRANCH  26  27
HETATM   27  C22 UNL     1      36.180  93.099  -1.649  1.00  0.00     0.184 C 
BRANCH  27  28
HETATM   28  O4  UNL     1      35.850  94.440  -1.486  1.00  0.00    -0.399 OA
ATOM     29  H4  UNL     1      35.519  94.603  -0.611  1.00  0.00     0.209 HD
ENDBRANCH  27  28
ENDBRANCH  26  27
ENDBRANCH  18  26
ENDBRANCH   8  10
ENDBRANCH   6   8
ENDBRANCH   1   3
BRANCH   1  30
HETATM   30  C8  UNL     1      40.798  85.983  -8.448  1.00  0.00     0.707 A 
HETATM   31  N5  UNL     1      40.391  87.175  -8.903  1.00  0.00    -0.021 N 
HETATM   32  C9  UNL     1      39.437  87.330  -9.833  1.00  0.00     0.711 A 
ATOM     33  H5  UNL     1      40.831  88.012  -8.521  1.00  0.00     0.203 HD
HETATM   34  N8  UNL     1      38.855  86.224 -10.341  1.00  0.00    -0.021 N 
HETATM   35  C15 UNL     1      39.258  85.035  -9.889  1.00  0.00     0.707 A 
ATOM     36  H8  UNL     1      38.126  86.295 -11.051  1.00  0.00     0.203 HD
HETATM   37  N10 UNL     1      40.208  84.887  -8.962  1.00  0.00    -0.022 N 
ATOM     38  H10 UNL     1      40.483  83.956  -8.648  1.00  0.00     0.203 HD
BRANCH  32  39
HETATM   39  N6  UNL     1      39.041  88.603 -10.273  1.00  0.00    -0.202 N 
ATOM     40  H6  UNL     1      38.243  88.673 -10.904  1.00  0.00     0.183 HD
BRANCH  39  41
HETATM   41  C10 UNL     1      39.631  89.668  -9.921  1.00  0.00     0.114 C 
BRANCH  41  42
HETATM   42  C11 UNL     1      39.020  91.030  -9.912  1.00  0.00     0.248 C 
HETATM   43  C12 UNL     1      39.598  91.766  -8.733  1.00  0.00     0.206 C 
HETATM   44  O2  UNL     1      39.852  93.096  -8.952  1.00  0.00    -0.387 OA
HETATM   45  C13 UNL     1      40.562  93.378 -10.095  1.00  0.00     0.195 C 
HETATM   46  C14 UNL     1      40.710  92.197 -11.032  1.00  0.00     0.259 C 
HETATM   47  N7  UNL     1      39.385  91.632 -11.180  1.00  0.00    -0.062 N 
ATOM     48  H72 UNL     1      39.316  90.981 -11.963  1.00  0.00     0.278 HD
ATOM     49  H71 UNL     1      38.698  92.311 -11.510  1.00  0.00     0.278 HD
ENDBRANCH  41  42
ENDBRANCH  39  41
ENDBRANCH  32  39
BRANCH  35  50
HETATM   50  N9  UNL     1      38.722  83.963 -10.366  1.00  0.00    -0.223 N 
ATOM     51  H9  UNL     1      37.872  83.603  -9.933  1.00  0.00     0.177 HD
BRANCH  50  52
HETATM   52  C16 UNL     1      39.286  83.255 -11.493  1.00  0.00     0.164 C 
BRANCH  52  53
HETATM   53  C17 UNL     1      39.882  81.951 -10.944  1.00  0.00     0.184 C 
BRANCH  53  54
HETATM   54  O3  UNL     1      41.088  82.228 -10.341  1.00  0.00    -0.399 OA
ATOM     55  H3  UNL     1      41.669  81.485 -10.456  1.00  0.00     0.209 HD
ENDBRANCH  53  54
ENDBRANCH  52  53
ENDBRANCH  50  52
ENDBRANCH  35  50
ENDBRANCH   1  30
TORSDOF 16
ENDMDL
MODEL 4
REMARK VINA RESULT: -6.286534551      2.429      6.052
REMARK  16 active torsions:
REMARK  status: ('A' for Active; 'I' for Inactive)
REMARK    1  A    between atoms: N1_2  and  O1_3 
REMARK    2  A    between atoms: N1_2  and  C2_5 
REMARK    3  A    between atoms: C3_8  and  N3_9 
REMARK    4  A    between atoms: N3_9  and  C4_11 
REMARK    5  A    between atoms: C7_14  and  N4_15 
REMARK    6  A    between atoms: N4_15  and  C8_17 
REMARK    7  A    between atoms: C9_20  and  N6_21 
REMARK    8  A    between atoms: N6_21  and  C10_23 
REMARK    9  A    between atoms: C10_23  and  C11_24 
REMARK   10  A    between atoms: C15_34  and  N9_35 
REMARK   11  A    between atoms: N9_35  and  C16_37 
REMARK   12  A    between atoms: C16_37  and  C17_38 
REMARK   13  A    between atoms: C17_38  and  O3_39 
REMARK   14  A    between atoms: N12_48  and  C21_49 
REMARK   15  A    between atoms: C21_49  and  C22_50 
REMARK   16  A    between atoms: C22_50  and  O4_51 
ROOT
HETATM    1  N4  UNL     1      37.564  89.798  -2.956  1.00  0.00    -0.220 N 
ATOM      2  H4  UNL     1      36.581  89.574  -3.111  1.00  0.00     0.178 HD
ENDROOT
BRANCH   1   3
HETATM    3  C7  UNL     1      37.894  90.414  -1.703  1.00  0.00     0.101 C 
HETATM    4  C6  UNL     1      37.998  91.910  -1.738  1.00  0.00     0.028 C 
HETATM    5  C5  UNL     1      36.626  92.403  -1.385  1.00  0.00     0.027 C 
HETATM    6  C4  UNL     1      35.854  91.221  -0.898  1.00  0.00     0.085 C 
HETATM    7  C18 UNL     1      36.881  90.137  -0.633  1.00  0.00     0.050 C 
BRANCH   6   8
HETATM    8  N3  UNL     1      35.102  91.452   0.296  1.00  0.00    -0.369 N 
ATOM      9  H3  UNL     1      35.452  91.117   1.193  1.00  0.00     0.161 HD
BRANCH   8  10
HETATM   10  C3  UNL     1      33.983  92.081   0.234  1.00  0.00     0.148 A 
HETATM   11  N2  UNL     1      33.808  93.377   0.018  1.00  0.00    -0.172 N 
HETATM   12  C2  UNL     1      32.608  93.982  -0.031  1.00  0.00     0.707 A 
ATOM     13  H2  UNL     1      34.638  93.954  -0.119  1.00  0.00     0.186 HD
HETATM   14  N13 UNL     1      31.491  93.228   0.147  1.00  0.00    -0.172 N 
HETATM   15  C23 UNL     1      31.620  91.919   0.366  1.00  0.00     0.155 A 
ATOM     16  H13 UNL     1      30.567  93.658   0.115  1.00  0.00     0.186 HD
HETATM   17  C19 UNL     1      32.841  91.300   0.418  1.00  0.00     0.123 A 
HETATM   18  N12 UNL     1      30.689  90.971   0.569  1.00  0.00    -0.325 N 
HETATM   19  N11 UNL     1      32.636  89.988   0.651  1.00  0.00    -0.346 N 
HETATM   20  C20 UNL     1      31.319  89.782   0.744  1.00  0.00     0.185 A 
ATOM     21  H11 UNL     1      33.361  89.276   0.741  1.00  0.00     0.167 HD
BRANCH  12  22
HETATM   22  N1  UNL     1      32.446  95.366  -0.259  1.00  0.00    -0.095 N 
HETATM   23  C1  UNL     1      31.141  95.957  -0.135  1.00  0.00     0.205 C 
BRANCH  22  24
HETATM   24  O1  UNL     1      33.499  96.119  -0.587  1.00  0.00    -0.274 OA
ATOM     25  H1  UNL     1      33.934  95.997  -1.424  1.00  0.00     0.245 HD
ENDBRANCH  22  24
ENDBRANCH  12  22
BRANCH  18  26
HETATM   26  C21 UNL     1      29.270  91.158   0.600  1.00  0.00     0.157 C 
BRANCH  26  27
HETATM   27  C22 UNL     1      28.841  91.399   2.026  1.00  0.00     0.184 C 
BRANCH  27  28
HETATM   28  O4  UNL     1      29.219  92.669   2.448  1.00  0.00    -0.399 OA
ATOM     29  H4  UNL     1      28.829  92.876   3.289  1.00  0.00     0.209 HD
ENDBRANCH  27  28
ENDBRANCH  26  27
ENDBRANCH  18  26
ENDBRANCH   8  10
ENDBRANCH   6   8
ENDBRANCH   1   3
BRANCH   1  30
HETATM   30  C8  UNL     1      38.378  89.500  -3.900  1.00  0.00     0.707 A 
HETATM   31  N5  UNL     1      38.355  90.007  -5.139  1.00  0.00    -0.021 N 
HETATM   32  C9  UNL     1      39.236  89.677  -6.094  1.00  0.00     0.711 A 
ATOM     33  H5  UNL     1      37.626  90.683  -5.369  1.00  0.00     0.203 HD
HETATM   34  N8  UNL     1      40.203  88.786  -5.791  1.00  0.00    -0.021 N 
HETATM   35  C15 UNL     1      40.228  88.279  -4.557  1.00  0.00     0.707 A 
ATOM     36  H8  UNL     1      40.895  88.507  -6.486  1.00  0.00     0.203 HD
HETATM   37  N10 UNL     1      39.347  88.611  -3.610  1.00  0.00    -0.022 N 
ATOM     38  H10 UNL     1      39.407  88.196  -2.680  1.00  0.00     0.203 HD
BRANCH  32  39
HETATM   39  N6  UNL     1      39.165  90.233  -7.381  1.00  0.00    -0.202 N 
ATOM     40  H6  UNL     1      39.655  89.762  -8.142  1.00  0.00     0.183 HD
BRANCH  39  41
HETATM   41  C10 UNL     1      38.521  91.293  -7.639  1.00  0.00     0.114 C 
BRANCH  41  42
HETATM   42  C11 UNL     1      39.125  92.644  -7.835  1.00  0.00     0.248 C 
HETATM   43  C12 UNL     1      40.195  92.502  -8.884  1.00  0.00     0.206 C 
HETATM   44  O2  UNL     1      40.292  93.558  -9.755  1.00  0.00    -0.387 OA
HETATM   45  C13 UNL     1      39.106  93.960 -10.324  1.00  0.00     0.195 C 
HETATM   46  C14 UNL     1      37.879  93.337  -9.691  1.00  0.00     0.259 C 
HETATM   47  N7  UNL     1      38.036  93.503  -8.260  1.00  0.00    -0.062 N 
ATOM     48  H72 UNL     1      37.172  93.334  -7.744  1.00  0.00     0.278 HD
ATOM     49  H71 UNL     1      38.167  94.477  -7.985  1.00  0.00     0.278 HD
ENDBRANCH  41  42
ENDBRANCH  39  41
ENDBRANCH  32  39
BRANCH  35  50
HETATM   50  N9  UNL     1      41.148  87.431  -4.241  1.00  0.00    -0.223 N 
ATOM     51  H9  UNL     1      41.068  86.924  -3.360  1.00  0.00     0.177 HD
BRANCH  50  52
HETATM   52  C16 UNL     1      42.286  87.176  -5.094  1.00  0.00     0.164 C 
BRANCH  52  53
HETATM   53  C17 UNL     1      41.843  86.125  -6.122  1.00  0.00     0.184 C 
BRANCH  53  54
HETATM   54  O3  UNL     1      41.644  84.925  -5.479  1.00  0.00    -0.399 OA
ATOM     55  H3  UNL     1      40.712  84.744  -5.441  1.00  0.00     0.209 HD
ENDBRANCH  53  54
ENDBRANCH  52  53
ENDBRANCH  50  52
ENDBRANCH  35  50
ENDBRANCH   1  30
TORSDOF 16
ENDMDL
MODEL 5
REMARK VINA RESULT: -6.240690002      3.309      9.368
REMARK  16 active torsions:
REMARK  status: ('A' for Active; 'I' for Inactive)
REMARK    1  A    between atoms: N1_2  and  O1_3 
REMARK    2  A    between atoms: N1_2  and  C2_5 
REMARK    3  A    between atoms: C3_8  and  N3_9 
REMARK    4  A    between atoms: N3_9  and  C4_11 
REMARK    5  A    between atoms: C7_14  and  N4_15 
REMARK    6  A    between atoms: N4_15  and  C8_17 
REMARK    7  A    between atoms: C9_20  and  N6_21 
REMARK    8  A    between atoms: N6_21  and  C10_23 
REMARK    9  A    between atoms: C10_23  and  C11_24 
REMARK   10  A    between atoms: C15_34  and  N9_35 
REMARK   11  A    between atoms: N9_35  and  C16_37 
REMARK   12  A    between atoms: C16_37  and  C17_38 
REMARK   13  A    between atoms: C17_38  and  O3_39 
REMARK   14  A    between atoms: N12_48  and  C21_49 
REMARK   15  A    between atoms: C21_49  and  C22_50 
REMARK   16  A    between atoms: C22_50  and  O4_51 
ROOT
HETATM    1  N4  UNL     1      35.784  92.444  -2.334  1.00  0.00    -0.220 N 
ATOM      2  H4  UNL     1      35.253  91.575  -2.403  1.00  0.00     0.178 HD
ENDROOT
BRANCH   1   3
HETATM    3  C7  UNL     1      37.135  92.337  -1.863  1.00  0.00     0.101 C 
HETATM    4  C6  UNL     1      37.331  91.407  -0.702  1.00  0.00     0.028 C 
HETATM    5  C5  UNL     1      37.659  90.080  -1.319  1.00  0.00     0.027 C 
HETATM    6  C4  UNL     1      37.909  90.327  -2.770  1.00  0.00     0.085 C 
HETATM    7  C18 UNL     1      38.079  91.828  -2.911  1.00  0.00     0.050 C 
BRANCH   6   8
HETATM    8  N3  UNL     1      39.069  89.676  -3.294  1.00  0.00    -0.369 N 
ATOM      9  H3  UNL     1      39.999  89.997  -3.029  1.00  0.00     0.161 HD
BRANCH   8  10
HETATM   10  C3  UNL     1      38.934  88.684  -4.100  1.00  0.00     0.148 A 
HETATM   11  N2  UNL     1      37.801  88.202  -4.590  1.00  0.00    -0.172 N 
HETATM   12  C2  UNL     1      37.723  87.155  -5.430  1.00  0.00     0.707 A 
ATOM     13  H2  UNL     1      36.931  88.656  -4.312  1.00  0.00     0.186 HD
HETATM   14  N13 UNL     1      38.873  86.540  -5.813  1.00  0.00    -0.172 N 
HETATM   15  C23 UNL     1      40.037  86.992  -5.345  1.00  0.00     0.155 A 
ATOM     16  H13 UNL     1      38.846  85.744  -6.449  1.00  0.00     0.186 HD
HETATM   17  C19 UNL     1      40.120  88.058  -4.488  1.00  0.00     0.123 A 
HETATM   18  N12 UNL     1      41.293  86.567  -5.568  1.00  0.00    -0.325 N 
HETATM   19  N11 UNL     1      41.421  88.267  -4.204  1.00  0.00    -0.346 N 
HETATM   20  C20 UNL     1      42.143  87.355  -4.863  1.00  0.00     0.185 A 
ATOM     21  H11 UNL     1      41.791  88.994  -3.591  1.00  0.00     0.167 HD
BRANCH  12  22
HETATM   22  N1  UNL     1      36.503  86.656  -5.937  1.00  0.00    -0.095 N 
HETATM   23  C1  UNL     1      35.851  85.563  -5.269  1.00  0.00     0.205 C 
BRANCH  22  24
HETATM   24  O1  UNL     1      35.960  87.198  -7.031  1.00  0.00    -0.274 OA
ATOM     25  H1  UNL     1      35.566  86.644  -7.695  1.00  0.00     0.245 HD
ENDBRANCH  22  24
ENDBRANCH  12  22
BRANCH  18  26
HETATM   26  C21 UNL     1      41.691  85.473  -6.401  1.00  0.00     0.157 C 
BRANCH  26  27
HETATM   27  C22 UNL     1      41.615  85.908  -7.844  1.00  0.00     0.184 C 
BRANCH  27  28
HETATM   28  O4  UNL     1      41.189  84.860  -8.654  1.00  0.00    -0.399 OA
ATOM     29  H4  UNL     1      41.862  84.194  -8.727  1.00  0.00     0.209 HD
ENDBRANCH  27  28
ENDBRANCH  26  27
ENDBRANCH  18  26
ENDBRANCH   8  10
ENDBRANCH   6   8
ENDBRANCH   1   3
BRANCH   1  30
HETATM   30  C8  UNL     1      35.177  93.518  -2.678  1.00  0.00     0.707 A 
HETATM   31  N5  UNL     1      34.167  94.091  -2.011  1.00  0.00    -0.021 N 
HETATM   32  C9  UNL     1      33.567  95.226  -2.400  1.00  0.00     0.711 A 
ATOM     33  H5  UNL     1      33.834  93.639  -1.160  1.00  0.00     0.203 HD
HETATM   34  N8  UNL     1      34.007  95.828  -3.525  1.00  0.00    -0.021 N 
HETATM   35  C15 UNL     1      35.014  95.259  -4.191  1.00  0.00     0.707 A 
ATOM     36  H8  UNL     1      33.582  96.693  -3.857  1.00  0.00     0.203 HD
HETATM   37  N10 UNL     1      35.606  94.128  -3.800  1.00  0.00    -0.022 N 
ATOM     38  H10 UNL     1      36.373  93.732  -4.343  1.00  0.00     0.203 HD
BRANCH  32  39
HETATM   39  N6  UNL     1      32.507  95.783  -1.669  1.00  0.00    -0.202 N 
ATOM     40  H6  UNL     1      31.779  96.289  -2.175  1.00  0.00     0.183 HD
BRANCH  39  41
HETATM   41  C10 UNL     1      32.413  95.687  -0.409  1.00  0.00     0.114 C 
BRANCH  41  42
HETATM   42  C11 UNL     1      31.333  94.961   0.323  1.00  0.00     0.248 C 
HETATM   43  C12 UNL     1      30.750  93.955  -0.633  1.00  0.00     0.206 C 
HETATM   44  O2  UNL     1      30.408  92.753  -0.068  1.00  0.00    -0.387 OA
HETATM   45  C13 UNL     1      31.382  92.173   0.711  1.00  0.00     0.195 C 
HETATM   46  C14 UNL     1      32.553  93.086   1.011  1.00  0.00     0.259 C 
HETATM   47  N7  UNL     1      31.981  94.338   1.462  1.00  0.00    -0.062 N 
ATOM     48  H72 UNL     1      32.665  94.947   1.912  1.00  0.00     0.278 HD
ATOM     49  H71 UNL     1      31.357  94.225   2.261  1.00  0.00     0.278 HD
ENDBRANCH  41  42
ENDBRANCH  39  41
ENDBRANCH  32  39
BRANCH  35  50
HETATM   50  N9  UNL     1      35.457  95.820  -5.265  1.00  0.00    -0.223 N 
ATOM     51  H9  UNL     1      36.463  95.845  -5.428  1.00  0.00     0.177 HD
BRANCH  50  52
HETATM   52  C16 UNL     1      34.575  96.414  -6.244  1.00  0.00     0.164 C 
BRANCH  52  53
HETATM   53  C17 UNL     1      34.692  95.565  -7.518  1.00  0.00     0.184 C 
BRANCH  53  54
HETATM   54  O3  UNL     1      35.934  94.974  -7.550  1.00  0.00    -0.399 OA
ATOM     55  H3  UNL     1      35.837  94.041  -7.396  1.00  0.00     0.209 HD
ENDBRANCH  53  54
ENDBRANCH  52  53
ENDBRANCH  50  52
ENDBRANCH  35  50
ENDBRANCH   1  30
TORSDOF 16
ENDMDL
