MODEL 1
REMARK VINA RESULT: -6.206167498      0.000      0.000
REMARK  14 active torsions:
REMARK  status: ('A' for Active; 'I' for Inactive)
REMARK    1  A    between atoms: C2_2  and  O1_3 
REMARK    2  A    between atoms: C2_2  and  C3_5 
REMARK    3  A    between atoms: C3_5  and  N1_6 
REMARK       I    between atoms: N1_6  and  C4_8 
REMARK    4  A    between atoms: C4_8  and  C5_10 
REMARK    5  A    between atoms: C5_10  and  N2_11 
REMARK    6  A    between atoms: C5_10  and  C6_15 
REMARK    7  A    between atoms: C6_15  and  C7_16 
REMARK    8  A    between atoms: C6_15  and  N5_25 
REMARK    9  A    between atoms: N7_32  and  C12_33 
REMARK   10  A    between atoms: C14_35  and  N8_36 
REMARK   11  A    between atoms: N8_36  and  N9_38 
REMARK   12  A    between atoms: N9_38  and  N10_39 
REMARK   13  A    between atoms: C16_43  and  S2_44 
REMARK   14  A    between atoms: S2_44  and  N11_45 
ROOT
HETATM    1  N5  UNL     1      37.850  89.160  -7.389  1.00  0.00    -0.214 N 
HETATM    2  C10 UNL     1      36.787  88.906  -8.146  1.00  0.00     0.339 A 
HETATM    3  O3  UNL     1      35.939  89.762  -8.365  1.00  0.00    -0.246 OA
HETATM    4  N6  UNL     1      36.578  87.685  -8.725  1.00  0.00    -0.260 N 
ATOM      5  H6  UNL     1      35.753  87.523  -9.302  1.00  0.00     0.175 HD
HETATM    6  C11 UNL     1      37.471  86.699  -8.528  1.00  0.00     0.335 A 
HETATM    7  O4  UNL     1      37.279  85.578  -9.059  1.00  0.00    -0.246 OA
HETATM    8  N7  UNL     1      38.558  86.909  -7.772  1.00  0.00    -0.240 N 
HETATM    9  C17 UNL     1      38.721  88.124  -7.225  1.00  0.00     0.342 A 
HETATM   10  O7  UNL     1      39.757  88.340  -6.501  1.00  0.00    -0.246 OA
ENDROOT
BRANCH   1  11
HETATM   11  C6  UNL     1      38.119  90.429  -6.756  1.00  0.00     0.084 C 
BRANCH  11  12
HETATM   12  C5  UNL     1      37.282  90.807  -5.611  1.00  0.00     0.326 C 
BRANCH  12  13
HETATM   13  C4  UNL     1      37.841  90.990  -4.288  1.00  0.00     0.254 C 
HETATM   14  N1  UNL     1      37.098  91.765  -3.334  1.00  0.00    -0.357 N 
ATOM     15  H1  UNL     1      36.200  92.152  -3.623  1.00  0.00     0.162 HD
HETATM   16  O2  UNL     1      38.935  90.539  -3.868  1.00  0.00    -0.271 OA
BRANCH  14  17
HETATM   17  C3  UNL     1      37.547  92.027  -1.997  1.00  0.00     0.153 C 
BRANCH  17  18
HETATM   18  C2  UNL     1      37.283  90.915  -1.019  1.00  0.00     0.132 C 
HETATM   19  C1  UNL     1      35.920  91.228  -0.393  1.00  0.00     0.041 C 
BRANCH  18  20
HETATM   20  O1  UNL     1      38.265  90.978  -0.015  1.00  0.00    -0.394 OA
ATOM     21  H1  UNL     1      38.668  91.837  -0.037  1.00  0.00     0.210 HD
ENDBRANCH  18  20
ENDBRANCH  17  18
ENDBRANCH  14  17
ENDBRANCH  12  13
BRANCH  12  22
HETATM   22  N2  UNL     1      36.097  89.940  -5.468  1.00  0.00    -0.061 N 
ATOM     23  H23 UNL     1      35.922  89.363  -6.290  1.00  0.00     0.275 HD
ATOM     24  H22 UNL     1      36.236  89.180  -4.801  1.00  0.00     0.275 HD
ATOM     25  H21 UNL     1      35.310  90.543  -5.227  1.00  0.00     0.275 HD
ENDBRANCH  12  22
ENDBRANCH  11  12
BRANCH  11  26
HETATM   26  C7  UNL     1      38.445  91.524  -7.707  1.00  0.00     0.049 A 
HETATM   27  C8  UNL     1      37.759  92.697  -7.918  1.00  0.00     0.111 A 
HETATM   28  N3  UNL     1      38.210  93.516  -8.814  1.00  0.00    -0.345 N 
HETATM   29  C9  UNL     1      39.313  93.187  -9.492  1.00  0.00     0.142 A 
ATOM     30  H3  UNL     1      37.730  94.397  -9.000  1.00  0.00     0.167 HD
HETATM   31  N4  UNL     1      39.926  93.872 -10.432  1.00  0.00    -0.380 N 
HETATM   32  S1  UNL     1      39.721  91.663  -8.827  1.00  0.00    -0.051 SA
ATOM     33  H42 UNL     1      39.683  94.779 -10.829  1.00  0.00     0.158 HD
ATOM     34  H41 UNL     1      40.769  93.621 -10.950  1.00  0.00     0.158 HD
ENDBRANCH  11  26
ENDBRANCH   1  11
BRANCH   8  35
HETATM   35  C12 UNL     1      39.539  85.898  -7.529  1.00  0.00     0.147 C 
HETATM   36  C13 UNL     1      39.902  85.848  -6.067  1.00  0.00     0.063 C 
HETATM   37  C14 UNL     1      41.406  85.734  -6.072  1.00  0.00     0.140 C 
HETATM   38  C15 UNL     1      41.845  85.971  -7.458  1.00  0.00     0.023 C 
HETATM   39  C16 UNL     1      40.807  86.062  -8.273  1.00  0.00     0.079 C 
BRANCH  37  40
HETATM   40  N8  UNL     1      42.051  86.586  -5.098  1.00  0.00    -0.244 N 
ATOM     41  H8  UNL     1      43.060  86.725  -5.145  1.00  0.00     0.197 HD
BRANCH  40  42
HETATM   42  N9  UNL     1      41.407  87.147  -4.213  1.00  0.00    -0.248 NA
BRANCH  42  43
HETATM   43  N10 UNL     1      40.899  88.035  -3.529  1.00  0.00    -0.261 N 
ATOM     44 2H10 UNL     1      41.660  88.704  -3.635  1.00  0.00     0.193 HD
ATOM     45 1H10 UNL     1      40.236  88.536  -2.937  1.00  0.00     0.193 HD
ENDBRANCH  42  43
ENDBRANCH  40  42
ENDBRANCH  37  40
BRANCH  39  46
HETATM   46  S2  UNL     1      40.932  86.328  -9.992  1.00  0.00     0.254 S 
HETATM   47  O5  UNL     1      40.437  87.720 -10.359  1.00  0.00    -0.201 OA
HETATM   48  O6  UNL     1      42.375  86.289 -10.447  1.00  0.00    -0.201 OA
BRANCH  46  49
HETATM   49  N11 UNL     1      40.006  85.191 -10.861  1.00  0.00    -0.324 N 
ATOM     50 2H11 UNL     1      40.255  84.853 -11.790  1.00  0.00     0.169 HD
ATOM     51 1H11 UNL     1      39.185  84.903 -10.331  1.00  0.00     0.169 HD
ENDBRANCH  46  49
ENDBRANCH  39  46
ENDBRANCH   8  35
TORSDOF 14
ENDMDL
MODEL 2
REMARK VINA RESULT: -6.116577855      3.265      8.117
REMARK  14 active torsions:
REMARK  status: ('A' for Active; 'I' for Inactive)
REMARK    1  A    between atoms: C2_2  and  O1_3 
REMARK    2  A    between atoms: C2_2  and  C3_5 
REMARK    3  A    between atoms: C3_5  and  N1_6 
REMARK       I    between atoms: N1_6  and  C4_8 
REMARK    4  A    between atoms: C4_8  and  C5_10 
REMARK    5  A    between atoms: C5_10  and  N2_11 
REMARK    6  A    between atoms: C5_10  and  C6_15 
REMARK    7  A    between atoms: C6_15  and  C7_16 
REMARK    8  A    between atoms: C6_15  and  N5_25 
REMARK    9  A    between atoms: N7_32  and  C12_33 
REMARK   10  A    between atoms: C14_35  and  N8_36 
REMARK   11  A    between atoms: N8_36  and  N9_38 
REMARK   12  A    between atoms: N9_38  and  N10_39 
REMARK   13  A    between atoms: C16_43  and  S2_44 
REMARK   14  A    between atoms: S2_44  and  N11_45 
ROOT
HETATM    1  N5  UNL     1      37.829  89.888  -4.870  1.00  0.00    -0.214 N 
HETATM    2  C10 UNL     1      37.035  88.833  -4.724  1.00  0.00     0.339 A 
HETATM    3  O3  UNL     1      37.231  87.794  -5.344  1.00  0.00    -0.246 OA
HETATM    4  N6  UNL     1      35.961  88.837  -3.877  1.00  0.00    -0.260 N 
ATOM      5  H6  UNL     1      35.372  88.009  -3.787  1.00  0.00     0.175 HD
HETATM    6  C11 UNL     1      35.689  89.943  -3.163  1.00  0.00     0.335 A 
HETATM    7  O4  UNL     1      34.702  89.949  -2.387  1.00  0.00    -0.246 OA
HETATM    8  N7  UNL     1      36.462  91.033  -3.278  1.00  0.00    -0.240 N 
HETATM    9  C17 UNL     1      37.505  90.980  -4.121  1.00  0.00     0.342 A 
HETATM   10  O7  UNL     1      38.255  92.014  -4.239  1.00  0.00    -0.246 OA
ENDROOT
BRANCH   1  11
HETATM   11  C6  UNL     1      38.974  89.936  -5.747  1.00  0.00     0.084 C 
BRANCH  11  12
HETATM   12  C5  UNL     1      38.729  90.211  -7.168  1.00  0.00     0.326 C 
BRANCH  12  13
HETATM   13  C4  UNL     1      38.890  91.538  -7.724  1.00  0.00     0.254 C 
HETATM   14  N1  UNL     1      38.447  91.773  -9.070  1.00  0.00    -0.357 N 
ATOM     15  H1  UNL     1      38.027  90.995  -9.581  1.00  0.00     0.162 HD
HETATM   16  O2  UNL     1      39.392  92.535  -7.150  1.00  0.00    -0.271 OA
BRANCH  14  17
HETATM   17  C3  UNL     1      38.559  93.037  -9.738  1.00  0.00     0.153 C 
BRANCH  17  18
HETATM   18  C2  UNL     1      39.794  93.192 -10.583  1.00  0.00     0.132 C 
HETATM   19  C1  UNL     1      40.030  91.821 -11.226  1.00  0.00     0.041 C 
BRANCH  18  20
HETATM   20  O1  UNL     1      40.871  93.479  -9.727  1.00  0.00    -0.394 OA
ATOM     21  H1  UNL     1      40.655  93.177  -8.853  1.00  0.00     0.210 HD
ENDBRANCH  18  20
ENDBRANCH  17  18
ENDBRANCH  14  17
ENDBRANCH  12  13
BRANCH  12  22
HETATM   22  N2  UNL     1      37.421  89.703  -7.624  1.00  0.00    -0.061 N 
ATOM     23  H23 UNL     1      36.966  90.318  -8.298  1.00  0.00     0.275 HD
ATOM     24  H22 UNL     1      37.498  88.883  -8.226  1.00  0.00     0.275 HD
ATOM     25  H21 UNL     1      36.856  89.534  -6.791  1.00  0.00     0.275 HD
ENDBRANCH  12  22
ENDBRANCH  11  12
BRANCH  11  26
HETATM   26  C7  UNL     1      40.003  88.903  -5.458  1.00  0.00     0.049 A 
HETATM   27  C8  UNL     1      40.866  88.841  -4.390  1.00  0.00     0.111 A 
HETATM   28  N3  UNL     1      41.703  87.854  -4.336  1.00  0.00    -0.345 N 
HETATM   29  C9  UNL     1      41.694  86.946  -5.316  1.00  0.00     0.142 A 
ATOM     30  H3  UNL     1      42.359  87.771  -3.559  1.00  0.00     0.167 HD
HETATM   31  N4  UNL     1      42.454  85.882  -5.449  1.00  0.00    -0.380 N 
HETATM   32  S1  UNL     1      40.449  87.518  -6.345  1.00  0.00    -0.051 SA
ATOM     33  H42 UNL     1      43.195  85.541  -4.837  1.00  0.00     0.158 HD
ATOM     34  H41 UNL     1      42.447  85.188  -6.197  1.00  0.00     0.158 HD
ENDBRANCH  11  26
ENDBRANCH   1  11
BRANCH   8  35
HETATM   35  C12 UNL     1      36.219  92.236  -2.543  1.00  0.00     0.147 C 
HETATM   36  C13 UNL     1      35.999  91.932  -1.083  1.00  0.00     0.063 C 
HETATM   37  C14 UNL     1      34.813  92.787  -0.711  1.00  0.00     0.140 C 
HETATM   38  C15 UNL     1      34.265  93.323  -1.970  1.00  0.00     0.023 C 
HETATM   39  C16 UNL     1      35.047  93.018  -2.993  1.00  0.00     0.079 C 
BRANCH  37  40
HETATM   40  N8  UNL     1      33.839  92.097   0.105  1.00  0.00    -0.244 N 
ATOM     41  H8  UNL     1      33.718  91.090  -0.003  1.00  0.00     0.197 HD
BRANCH  40  42
HETATM   42  N9  UNL     1      33.153  92.701   0.928  1.00  0.00    -0.248 NA
BRANCH  42  43
HETATM   43  N10 UNL     1      32.616  93.622   1.543  1.00  0.00    -0.261 N 
ATOM     44 2H10 UNL     1      32.277  94.120   0.720  1.00  0.00     0.193 HD
ATOM     45 1H10 UNL     1      32.291  94.206   2.313  1.00  0.00     0.193 HD
ENDBRANCH  42  43
ENDBRANCH  40  42
ENDBRANCH  37  40
BRANCH  39  46
HETATM   46  S2  UNL     1      34.732  93.493  -4.641  1.00  0.00     0.254 S 
HETATM   47  O5  UNL     1      34.181  92.321  -5.443  1.00  0.00    -0.201 OA
HETATM   48  O6  UNL     1      33.658  94.557  -4.707  1.00  0.00    -0.201 OA
BRANCH  46  49
HETATM   49  N11 UNL     1      36.153  94.036  -5.408  1.00  0.00    -0.324 N 
ATOM     50 2H11 UNL     1      36.419  95.019  -5.471  1.00  0.00     0.169 HD
ATOM     51 1H11 UNL     1      36.688  93.257  -5.789  1.00  0.00     0.169 HD
ENDBRANCH  46  49
ENDBRANCH  39  46
ENDBRANCH   8  35
TORSDOF 14
ENDMDL
MODEL 3
REMARK VINA RESULT: -6.072173210      3.109      4.637
REMARK  14 active torsions:
REMARK  status: ('A' for Active; 'I' for Inactive)
REMARK    1  A    between atoms: C2_2  and  O1_3 
REMARK    2  A    between atoms: C2_2  and  C3_5 
REMARK    3  A    between atoms: C3_5  and  N1_6 
REMARK       I    between atoms: N1_6  and  C4_8 
REMARK    4  A    between atoms: C4_8  and  C5_10 
REMARK    5  A    between atoms: C5_10  and  N2_11 
REMARK    6  A    between atoms: C5_10  and  C6_15 
REMARK    7  A    between atoms: C6_15  and  C7_16 
REMARK    8  A    between atoms: C6_15  and  N5_25 
REMARK    9  A    between atoms: N7_32  and  C12_33 
REMARK   10  A    between atoms: C14_35  and  N8_36 
REMARK   11  A    between atoms: N8_36  and  N9_38 
REMARK   12  A    between atoms: N9_38  and  N10_39 
REMARK   13  A    between atoms: C16_43  and  S2_44 
REMARK   14  A    between atoms: S2_44  and  N11_45 
ROOT
HETATM    1  N5  UNL     1      37.179  90.072  -4.339  1.00  0.00    -0.214 N 
HETATM    2  C10 UNL     1      36.372  89.060  -4.041  1.00  0.00     0.339 A 
HETATM    3  O3  UNL     1      35.450  89.191  -3.246  1.00  0.00    -0.246 OA
HETATM    4  N6  UNL     1      36.516  87.820  -4.601  1.00  0.00    -0.260 N 
ATOM      5  H6  UNL     1      35.878  87.065  -4.351  1.00  0.00     0.175 HD
HETATM    6  C11 UNL     1      37.506  87.606  -5.484  1.00  0.00     0.335 A 
HETATM    7  O4  UNL     1      37.640  86.468  -5.998  1.00  0.00    -0.246 OA
HETATM    8  N7  UNL     1      38.346  88.598  -5.816  1.00  0.00    -0.240 N 
HETATM    9  C17 UNL     1      38.164  89.797  -5.242  1.00  0.00     0.342 A 
HETATM   10  O7  UNL     1      38.959  90.755  -5.551  1.00  0.00    -0.246 OA
ENDROOT
BRANCH   1  11
HETATM   11  C6  UNL     1      37.071  91.398  -3.780  1.00  0.00     0.084 C 
BRANCH  11  12
HETATM   12  C5  UNL     1      37.003  91.514  -2.319  1.00  0.00     0.326 C 
BRANCH  12  13
HETATM   13  C4  UNL     1      36.016  92.351  -1.667  1.00  0.00     0.254 C 
HETATM   14  N1  UNL     1      34.808  91.737  -1.191  1.00  0.00    -0.357 N 
ATOM     15  H1  UNL     1      34.695  90.732  -1.323  1.00  0.00     0.162 HD
HETATM   16  O2  UNL     1      36.096  93.587  -1.470  1.00  0.00    -0.271 OA
BRANCH  14  17
HETATM   17  C3  UNL     1      33.752  92.456  -0.539  1.00  0.00     0.153 C 
BRANCH  17  18
HETATM   18  C2  UNL     1      33.384  91.931   0.822  1.00  0.00     0.132 C 
HETATM   19  C1  UNL     1      32.117  91.096   0.615  1.00  0.00     0.041 C 
BRANCH  18  20
HETATM   20  O1  UNL     1      33.071  93.030   1.640  1.00  0.00    -0.394 OA
ATOM     21  H1  UNL     1      33.149  93.825   1.125  1.00  0.00     0.210 HD
ENDBRANCH  18  20
ENDBRANCH  17  18
ENDBRANCH  14  17
ENDBRANCH  12  13
BRANCH  12  22
HETATM   22  N2  UNL     1      38.312  91.834  -1.716  1.00  0.00    -0.061 N 
ATOM     23  H23 UNL     1      38.507  92.834  -1.692  1.00  0.00     0.275 HD
ATOM     24  H22 UNL     1      38.338  91.670  -0.709  1.00  0.00     0.275 HD
ATOM     25  H21 UNL     1      39.016  91.300  -2.225  1.00  0.00     0.275 HD
ENDBRANCH  12  22
ENDBRANCH  11  12
BRANCH  11  26
HETATM   26  C7  UNL     1      36.175  92.307  -4.542  1.00  0.00     0.049 A 
HETATM   27  C8  UNL     1      36.486  93.510  -5.129  1.00  0.00     0.111 A 
HETATM   28  N3  UNL     1      35.542  94.155  -5.738  1.00  0.00    -0.345 N 
HETATM   29  C9  UNL     1      34.315  93.628  -5.768  1.00  0.00     0.142 A 
ATOM     30  H3  UNL     1      35.732  95.052  -6.186  1.00  0.00     0.167 HD
HETATM   31  N4  UNL     1      33.231  94.118  -6.327  1.00  0.00    -0.380 N 
HETATM   32  S1  UNL     1      34.515  92.164  -4.902  1.00  0.00    -0.051 SA
ATOM     33  H42 UNL     1      33.111  94.990  -6.842  1.00  0.00     0.158 HD
ATOM     34  H41 UNL     1      32.293  93.715  -6.350  1.00  0.00     0.158 HD
ENDBRANCH  11  26
ENDBRANCH   1  11
BRANCH   8  35
HETATM   35  C12 UNL     1      39.416  88.426  -6.749  1.00  0.00     0.147 C 
HETATM   36  C13 UNL     1      38.914  87.804  -8.027  1.00  0.00     0.063 C 
HETATM   37  C14 UNL     1      39.950  86.755  -8.350  1.00  0.00     0.140 C 
HETATM   38  C15 UNL     1      40.825  86.647  -7.169  1.00  0.00     0.023 C 
HETATM   39  C16 UNL     1      40.530  87.577  -6.276  1.00  0.00     0.079 C 
BRANCH  37  40
HETATM   40  N8  UNL     1      39.381  85.497  -8.777  1.00  0.00    -0.244 N 
ATOM     41  H8  UNL     1      38.393  85.312  -8.610  1.00  0.00     0.197 HD
BRANCH  40  42
HETATM   42  N9  UNL     1      40.067  84.644  -9.338  1.00  0.00    -0.248 NA
BRANCH  42  43
HETATM   43  N10 UNL     1      40.384  83.669 -10.019  1.00  0.00    -0.261 N 
ATOM     44 2H10 UNL     1      39.947  82.970  -9.420  1.00  0.00     0.193 HD
ATOM     45 1H10 UNL     1      40.785  83.107 -10.770  1.00  0.00     0.193 HD
ENDBRANCH  42  43
ENDBRANCH  40  42
ENDBRANCH  37  40
BRANCH  39  46
HETATM   46  S2  UNL     1      41.361  87.771  -4.754  1.00  0.00     0.254 S 
HETATM   47  O5  UNL     1      40.716  86.912  -3.675  1.00  0.00    -0.201 OA
HETATM   48  O6  UNL     1      42.791  87.282  -4.847  1.00  0.00    -0.201 OA
BRANCH  46  49
HETATM   49  N11 UNL     1      41.322  89.392  -4.233  1.00  0.00    -0.324 N 
ATOM     50 2H11 UNL     1      40.503  89.830  -3.812  1.00  0.00     0.169 HD
ATOM     51 1H11 UNL     1      42.216  89.854  -4.399  1.00  0.00     0.169 HD
ENDBRANCH  46  49
ENDBRANCH  39  46
ENDBRANCH   8  35
TORSDOF 14
ENDMDL
MODEL 4
REMARK VINA RESULT: -6.024138254      3.163      7.432
REMARK  14 active torsions:
REMARK  status: ('A' for Active; 'I' for Inactive)
REMARK    1  A    between atoms: C2_2  and  O1_3 
REMARK    2  A    between atoms: C2_2  and  C3_5 
REMARK    3  A    between atoms: C3_5  and  N1_6 
REMARK       I    between atoms: N1_6  and  C4_8 
REMARK    4  A    between atoms: C4_8  and  C5_10 
REMARK    5  A    between atoms: C5_10  and  N2_11 
REMARK    6  A    between atoms: C5_10  and  C6_15 
REMARK    7  A    between atoms: C6_15  and  C7_16 
REMARK    8  A    between atoms: C6_15  and  N5_25 
REMARK    9  A    between atoms: N7_32  and  C12_33 
REMARK   10  A    between atoms: C14_35  and  N8_36 
REMARK   11  A    between atoms: N8_36  and  N9_38 
REMARK   12  A    between atoms: N9_38  and  N10_39 
REMARK   13  A    between atoms: C16_43  and  S2_44 
REMARK   14  A    between atoms: S2_44  and  N11_45 
ROOT
HETATM    1  N5  UNL     1      38.072  89.660  -4.712  1.00  0.00    -0.214 N 
HETATM    2  C10 UNL     1      36.996  89.002  -5.131  1.00  0.00     0.339 A 
HETATM    3  O3  UNL     1      36.981  88.426  -6.212  1.00  0.00    -0.246 OA
HETATM    4  N6  UNL     1      35.851  88.924  -4.388  1.00  0.00    -0.260 N 
ATOM      5  H6  UNL     1      35.043  88.409  -4.739  1.00  0.00     0.175 HD
HETATM    6  C11 UNL     1      35.799  89.531  -3.190  1.00  0.00     0.335 A 
HETATM    7  O4  UNL     1      34.747  89.461  -2.508  1.00  0.00    -0.246 OA
HETATM    8  N7  UNL     1      36.860  90.207  -2.725  1.00  0.00    -0.240 N 
HETATM    9  C17 UNL     1      37.962  90.255  -3.489  1.00  0.00     0.342 A 
HETATM   10  O7  UNL     1      38.985  90.896  -3.057  1.00  0.00    -0.246 OA
ENDROOT
BRANCH   1  11
HETATM   11  C6  UNL     1      39.305  89.773  -5.454  1.00  0.00     0.084 C 
BRANCH  11  12
HETATM   12  C5  UNL     1      39.257  90.467  -6.746  1.00  0.00     0.326 C 
BRANCH  12  13
HETATM   13  C4  UNL     1      38.467  91.665  -6.937  1.00  0.00     0.254 C 
HETATM   14  N1  UNL     1      37.126  91.528  -7.432  1.00  0.00    -0.357 N 
ATOM     15  H1  UNL     1      36.778  90.588  -7.624  1.00  0.00     0.162 HD
HETATM   16  O2  UNL     1      38.832  92.846  -6.716  1.00  0.00    -0.271 OA
BRANCH  14  17
HETATM   17  C3  UNL     1      36.247  92.636  -7.672  1.00  0.00     0.153 C 
BRANCH  17  18
HETATM   18  C2  UNL     1      34.967  92.602  -6.883  1.00  0.00     0.132 C 
HETATM   19  C1  UNL     1      34.693  94.053  -6.474  1.00  0.00     0.041 C 
BRANCH  18  20
HETATM   20  O1  UNL     1      35.193  91.841  -5.723  1.00  0.00    -0.394 OA
ATOM     21  H1  UNL     1      34.592  91.106  -5.720  1.00  0.00     0.210 HD
ENDBRANCH  18  20
ENDBRANCH  17  18
ENDBRANCH  14  17
ENDBRANCH  12  13
BRANCH  12  22
HETATM   22  N2  UNL     1      38.944  89.556  -7.865  1.00  0.00    -0.061 N 
ATOM     23  H23 UNL     1      38.508  90.030  -8.655  1.00  0.00     0.275 HD
ATOM     24  H22 UNL     1      39.776  89.223  -8.354  1.00  0.00     0.275 HD
ATOM     25  H21 UNL     1      38.373  88.799  -7.487  1.00  0.00     0.275 HD
ENDBRANCH  12  22
ENDBRANCH  11  12
BRANCH  11  26
HETATM   26  C7  UNL     1      40.154  88.554  -5.407  1.00  0.00     0.049 A 
HETATM   27  C8  UNL     1      41.191  88.275  -4.548  1.00  0.00     0.111 A 
HETATM   28  N3  UNL     1      41.816  87.149  -4.690  1.00  0.00    -0.345 N 
HETATM   29  C9  UNL     1      41.431  86.315  -5.660  1.00  0.00     0.142 A 
ATOM     30  H3  UNL     1      42.590  86.904  -4.073  1.00  0.00     0.167 HD
HETATM   31  N4  UNL     1      41.929  85.138  -5.968  1.00  0.00    -0.380 N 
HETATM   32  S1  UNL     1      40.134  87.162  -6.390  1.00  0.00    -0.051 SA
ATOM     33  H42 UNL     1      42.701  84.633  -5.533  1.00  0.00     0.158 HD
ATOM     34  H41 UNL     1      41.634  84.500  -6.708  1.00  0.00     0.158 HD
ENDBRANCH  11  26
ENDBRANCH   1  11
BRANCH   8  35
HETATM   35  C12 UNL     1      36.860  90.871  -1.458  1.00  0.00     0.147 C 
HETATM   36  C13 UNL     1      36.906  89.870  -0.332  1.00  0.00     0.063 C 
HETATM   37  C14 UNL     1      35.885  90.387   0.652  1.00  0.00     0.140 C 
HETATM   38  C15 UNL     1      35.147  91.465  -0.029  1.00  0.00     0.023 C 
HETATM   39  C16 UNL     1      35.689  91.737  -1.205  1.00  0.00     0.079 C 
BRANCH  37  40
HETATM   40  N8  UNL     1      35.038  89.351   1.200  1.00  0.00    -0.244 N 
ATOM     41  H8  UNL     1      34.664  89.458   2.143  1.00  0.00     0.197 HD
BRANCH  40  42
HETATM   42  N9  UNL     1      34.761  88.343   0.553  1.00  0.00    -0.248 NA
BRANCH  42  43
HETATM   43  N10 UNL     1      34.156  87.562  -0.181  1.00  0.00    -0.261 N 
ATOM     44 2H10 UNL     1      34.226  88.129  -1.026  1.00  0.00     0.193 HD
ATOM     45 1H10 UNL     1      33.642  86.741  -0.501  1.00  0.00     0.193 HD
ENDBRANCH  42  43
ENDBRANCH  40  42
ENDBRANCH  37  40
BRANCH  39  46
HETATM   46  S2  UNL     1      35.097  92.965  -2.294  1.00  0.00     0.254 S 
HETATM   47  O5  UNL     1      34.779  94.248  -1.538  1.00  0.00    -0.201 OA
HETATM   48  O6  UNL     1      36.153  93.353  -3.306  1.00  0.00    -0.201 OA
BRANCH  46  49
HETATM   49  N11 UNL     1      33.678  92.453  -3.086  1.00  0.00    -0.324 N 
ATOM     50 2H11 UNL     1      32.854  92.103  -2.598  1.00  0.00     0.169 HD
ATOM     51 1H11 UNL     1      33.767  92.544  -4.098  1.00  0.00     0.169 HD
ENDBRANCH  46  49
ENDBRANCH  39  46
ENDBRANCH   8  35
TORSDOF 14
ENDMDL
MODEL 5
REMARK VINA RESULT: -5.997724303      4.204      7.581
REMARK  14 active torsions:
REMARK  status: ('A' for Active; 'I' for Inactive)
REMARK    1  A    between atoms: C2_2  and  O1_3 
REMARK    2  A    between atoms: C2_2  and  C3_5 
REMARK    3  A    between atoms: C3_5  and  N1_6 
REMARK       I    between atoms: N1_6  and  C4_8 
REMARK    4  A    between atoms: C4_8  and  C5_10 
REMARK    5  A    between atoms: C5_10  and  N2_11 
REMARK    6  A    between atoms: C5_10  and  C6_15 
REMARK    7  A    between atoms: C6_15  and  C7_16 
REMARK    8  A    between atoms: C6_15  and  N5_25 
REMARK    9  A    between atoms: N7_32  and  C12_33 
REMARK   10  A    between atoms: C14_35  and  N8_36 
REMARK   11  A    between atoms: N8_36  and  N9_38 
REMARK   12  A    between atoms: N9_38  and  N10_39 
REMARK   13  A    between atoms: C16_43  and  S2_44 
REMARK   14  A    between atoms: S2_44  and  N11_45 
ROOT
HETATM    1  N5  UNL     1      35.595  90.214  -1.615  1.00  0.00    -0.214 N 
HETATM    2  C10 UNL     1      36.641  90.586  -0.884  1.00  0.00     0.339 A 
HETATM    3  O3  UNL     1      36.511  90.955   0.277  1.00  0.00    -0.246 OA
HETATM    4  N6  UNL     1      37.917  90.576  -1.376  1.00  0.00    -0.260 N 
ATOM      5  H6  UNL     1      38.698  90.867  -0.788  1.00  0.00     0.175 HD
HETATM    6  C11 UNL     1      38.133  90.179  -2.642  1.00  0.00     0.335 A 
HETATM    7  O4  UNL     1      39.304  90.171  -3.095  1.00  0.00    -0.246 OA
HETATM    8  N7  UNL     1      37.109  89.795  -3.417  1.00  0.00    -0.240 N 
HETATM    9  C17 UNL     1      35.874  89.820  -2.890  1.00  0.00     0.342 A 
HETATM   10  O7  UNL     1      34.885  89.453  -3.619  1.00  0.00    -0.246 OA
ENDROOT
BRANCH   1  11
HETATM   11  C6  UNL     1      34.230  90.203  -1.145  1.00  0.00     0.084 C 
BRANCH  11  12
HETATM   12  C5  UNL     1      33.641  91.487  -0.746  1.00  0.00     0.326 C 
BRANCH  12  13
HETATM   13  C4  UNL     1      33.951  92.716  -1.445  1.00  0.00     0.254 C 
HETATM   14  N1  UNL     1      34.185  93.903  -0.670  1.00  0.00    -0.357 N 
ATOM     15  H1  UNL     1      34.131  93.832   0.346  1.00  0.00     0.162 HD
HETATM   16  O2  UNL     1      34.037  92.869  -2.688  1.00  0.00    -0.271 OA
BRANCH  14  17
HETATM   17  C3  UNL     1      34.490  95.182  -1.243  1.00  0.00     0.153 C 
BRANCH  17  18
HETATM   18  C2  UNL     1      33.292  96.056  -1.497  1.00  0.00     0.132 C 
HETATM   19  C1  UNL     1      32.293  95.723  -0.385  1.00  0.00     0.041 C 
BRANCH  18  20
HETATM   20  O1  UNL     1      32.735  95.679  -2.731  1.00  0.00    -0.394 OA
ATOM     21  H1  UNL     1      32.039  95.054  -2.573  1.00  0.00     0.210 HD
ENDBRANCH  18  20
ENDBRANCH  17  18
ENDBRANCH  14  17
ENDBRANCH  12  13
BRANCH  12  22
HETATM   22  N2  UNL     1      33.797  91.755   0.697  1.00  0.00    -0.061 N 
ATOM     23  H23 UNL     1      33.591  90.943   1.279  1.00  0.00     0.275 HD
ATOM     24  H22 UNL     1      34.770  91.875   0.978  1.00  0.00     0.275 HD
ATOM     25  H21 UNL     1      33.215  92.563   0.918  1.00  0.00     0.275 HD
ENDBRANCH  12  22
ENDBRANCH  11  12
BRANCH  11  26
HETATM   26  C7  UNL     1      33.895  89.042  -0.280  1.00  0.00     0.049 A 
HETATM   27  C8  UNL     1      32.702  88.365  -0.193  1.00  0.00     0.111 A 
HETATM   28  N3  UNL     1      32.617  87.381   0.646  1.00  0.00    -0.345 N 
HETATM   29  C9  UNL     1      33.685  87.071   1.387  1.00  0.00     0.142 A 
ATOM     30  H3  UNL     1      31.750  86.853   0.739  1.00  0.00     0.167 HD
HETATM   31  N4  UNL     1      33.804  86.120   2.286  1.00  0.00    -0.380 N 
HETATM   32  S1  UNL     1      34.846  88.218   0.868  1.00  0.00    -0.051 SA
ATOM     33  H42 UNL     1      33.112  85.437   2.595  1.00  0.00     0.158 HD
ATOM     34  H41 UNL     1      34.619  85.882   2.852  1.00  0.00     0.158 HD
ENDBRANCH  11  26
ENDBRANCH   1  11
BRANCH   8  35
HETATM   35  C12 UNL     1      37.281  89.364  -4.770  1.00  0.00     0.147 C 
HETATM   36  C13 UNL     1      38.175  88.151  -4.832  1.00  0.00     0.063 C 
HETATM   37  C14 UNL     1      39.104  88.448  -5.984  1.00  0.00     0.140 C 
HETATM   38  C15 UNL     1      38.886  89.857  -6.353  1.00  0.00     0.023 C 
HETATM   39  C16 UNL     1      37.870  90.370  -5.678  1.00  0.00     0.079 C 
BRANCH  37  40
HETATM   40  N8  UNL     1      40.485  88.119  -5.708  1.00  0.00    -0.244 N 
ATOM     41  H8  UNL     1      41.173  88.182  -6.458  1.00  0.00     0.197 HD
BRANCH  40  42
HETATM   42  N9  UNL     1      40.846  87.765  -4.588  1.00  0.00    -0.248 NA
BRANCH  42  43
HETATM   43  N10 UNL     1      41.044  87.772  -3.373  1.00  0.00    -0.261 N 
ATOM     44 2H10 UNL     1      40.526  88.629  -3.182  1.00  0.00     0.193 HD
ATOM     45 1H10 UNL     1      41.376  87.496  -2.448  1.00  0.00     0.193 HD
ENDBRANCH  42  43
ENDBRANCH  40  42
ENDBRANCH  37  40
BRANCH  39  46
HETATM   46  S2  UNL     1      37.306  92.011  -5.856  1.00  0.00     0.254 S 
HETATM   47  O5  UNL     1      38.110  92.956  -4.973  1.00  0.00    -0.201 OA
HETATM   48  O6  UNL     1      37.520  92.512  -7.268  1.00  0.00    -0.201 OA
BRANCH  46  49
HETATM   49  N11 UNL     1      35.665  92.149  -5.421  1.00  0.00    -0.324 N 
ATOM     50 2H11 UNL     1      35.166  91.449  -4.873  1.00  0.00     0.169 HD
ATOM     51 1H11 UNL     1      35.260  93.014  -5.778  1.00  0.00     0.169 HD
ENDBRANCH  46  49
ENDBRANCH  39  46
ENDBRANCH   8  35
TORSDOF 14
ENDMDL
