MODEL 1
REMARK VINA RESULT: -6.445598209      0.000      0.000
REMARK  13 active torsions:
REMARK  status: ('A' for Active; 'I' for Inactive)
REMARK    1  A    between atoms: S1_2  and  C2_3 
REMARK    2  A    between atoms: C3_6  and  N2_7 
REMARK    3  A    between atoms: C4_11  and  C5_12 
REMARK    4  A    between atoms: C5_12  and  C6_17 
REMARK    5  A    between atoms: N3_13  and  O1_15 
REMARK       I    between atoms: C6_17  and  N4_19 
REMARK    6  A    between atoms: N6_24  and  C8_25 
REMARK    7  A    between atoms: C8_25  and  C9_26 
REMARK    8  A    between atoms: C9_26  and  O3_27 
REMARK    9  A    between atoms: O3_27  and  S3_28 
REMARK       I    between atoms: N7_34  and  C12_35 
REMARK   10  A    between atoms: C12_35  and  C13_37 
REMARK   11  A    between atoms: C13_37  and  N8_38 
REMARK       I    between atoms: N8_38  and  C14_40 
REMARK   12  A    between atoms: C14_40  and  C15_42 
REMARK   13  A    between atoms: C15_42  and  N9_43 
ROOT
HETATM    1  C6  UNL     1      37.297  91.287  -1.248  1.00  0.00     0.289 C 
HETATM    2  O2  UNL     1      38.416  91.355  -0.744  1.00  0.00    -0.265 OA
HETATM    3  N4  UNL     1      37.103  91.682  -2.576  1.00  0.00    -0.153 N 
ATOM      4  H4  UNL     1      36.488  92.474  -2.762  1.00  0.00     0.187 HD
HETATM    5  C7  UNL     1      37.666  91.093  -3.583  1.00  0.00     0.700 C 
HETATM    6  N5  UNL     1      38.541  89.981  -3.438  1.00  0.00    -0.151 N 
ATOM      7  H5  UNL     1      38.589  89.525  -2.527  1.00  0.00     0.199 HD
HETATM    8  N6  UNL     1      39.328  89.481  -4.453  1.00  0.00    -0.213 NA
HETATM    9  C10 UNL     1      39.326  90.313  -5.636  1.00  0.00     0.135 C 
HETATM   10  C11 UNL     1      37.903  90.701  -5.982  1.00  0.00     0.167 C 
HETATM   11  N7  UNL     1      37.425  91.546  -4.909  1.00  0.00    -0.147 N 
HETATM   12  C12 UNL     1      36.745  92.775  -5.179  1.00  0.00     0.255 C 
HETATM   13  O7  UNL     1      36.321  93.523  -4.285  1.00  0.00    -0.271 OA
ENDROOT
BRANCH   1  14
HETATM   14  C5  UNL     1      36.165  90.776  -0.402  1.00  0.00     0.142 C 
HETATM   15  N3  UNL     1      36.442  90.096   0.546  1.00  0.00    -0.262 N 
ATOM     16  H3  UNL     1      37.460  90.032   0.537  1.00  0.00     0.194 HD
BRANCH  14  17
HETATM   17  C4  UNL     1      34.819  91.175  -0.845  1.00  0.00     0.076 A 
HETATM   18  C2  UNL     1      33.852  90.600  -1.594  1.00  0.00     0.091 A 
HETATM   19  N1  UNL     1      32.722  91.246  -1.769  1.00  0.00    -0.330 N 
HETATM   20  C3  UNL     1      32.562  92.435  -1.211  1.00  0.00     0.143 A 
ATOM     21  H1  UNL     1      31.975  90.834  -2.328  1.00  0.00     0.168 HD
HETATM   22  S2  UNL     1      34.030  92.681  -0.409  1.00  0.00    -0.049 SA
BRANCH  18  23
HETATM   23  S1  UNL     1      34.097  88.954  -2.373  1.00  0.00    -0.115 SA
HETATM   24  C1  UNL     1      33.867  87.673  -1.087  1.00  0.00     0.097 C 
ENDBRANCH  18  23
BRANCH  20  25
HETATM   25  N2  UNL     1      31.524  93.236  -1.262  1.00  0.00    -0.380 N 
ATOM     26  H22 UNL     1      30.731  93.280  -0.622  1.00  0.00     0.158 HD
ATOM     27  H21 UNL     1      31.310  93.964  -1.944  1.00  0.00     0.158 HD
ENDBRANCH  20  25
ENDBRANCH  14  17
BRANCH  15  28
HETATM   28  O1  UNL     1      36.081  89.418   1.553  1.00  0.00    -0.289 OA
ATOM     29  H1  UNL     1      35.852  88.583   1.944  1.00  0.00     0.244 HD
ENDBRANCH  15  28
ENDBRANCH   1  14
BRANCH   8  30
HETATM   30  C8  UNL     1      39.025  88.134  -4.838  1.00  0.00     0.142 C 
BRANCH  30  31
HETATM   31  C9  UNL     1      40.247  87.242  -4.849  1.00  0.00     0.209 C 
BRANCH  31  32
HETATM   32  O3  UNL     1      40.781  87.132  -6.132  1.00  0.00    -0.256 OA
BRANCH  32  33
HETATM   33  S3  UNL     1      40.906  85.537  -6.582  1.00  0.00     0.251 S 
HETATM   34  O4  UNL     1      41.747  84.838  -5.547  1.00  0.00    -0.572 OA
HETATM   35  O5  UNL     1      39.546  84.896  -6.538  1.00  0.00    -0.572 OA
HETATM   36  O6  UNL     1      41.592  85.316  -8.082  1.00  0.00    -0.572 OA
ENDBRANCH  32  33
ENDBRANCH  31  32
ENDBRANCH  30  31
ENDBRANCH   8  30
BRANCH  12  37
HETATM   37  C13 UNL     1      36.550  93.150  -6.596  1.00  0.00     0.226 C 
BRANCH  37  38
HETATM   38  N8  UNL     1      36.191  94.533  -6.786  1.00  0.00    -0.351 N 
HETATM   39  C14 UNL     1      34.835  94.917  -6.901  1.00  0.00     0.243 C 
HETATM   40  O8  UNL     1      33.865  94.115  -6.852  1.00  0.00    -0.272 OA
ATOM     41  H8  UNL     1      36.923  95.241  -6.840  1.00  0.00     0.163 HD
BRANCH  39  42
HETATM   42  C15 UNL     1      34.534  96.379  -7.092  1.00  0.00     0.332 C 
BRANCH  42  43
HETATM   43  N9  UNL     1      35.175  97.175  -6.080  1.00  0.00    -0.071 N 
ATOM     44  H93 UNL     1      35.346  96.637  -5.230  1.00  0.00     0.274 HD
ATOM     45  H92 UNL     1      36.142  97.388  -6.326  1.00  0.00     0.274 HD
ATOM     46  H91 UNL     1      34.641  98.023  -5.887  1.00  0.00     0.274 HD
ENDBRANCH  42  43
ENDBRANCH  39  42
ENDBRANCH  37  38
ENDBRANCH  12  37
TORSDOF 13
ENDMDL
MODEL 2
REMARK VINA RESULT: -6.431391057      3.532      6.845
REMARK  13 active torsions:
REMARK  status: ('A' for Active; 'I' for Inactive)
REMARK    1  A    between atoms: S1_2  and  C2_3 
REMARK    2  A    between atoms: C3_6  and  N2_7 
REMARK    3  A    between atoms: C4_11  and  C5_12 
REMARK    4  A    between atoms: C5_12  and  C6_17 
REMARK    5  A    between atoms: N3_13  and  O1_15 
REMARK       I    between atoms: C6_17  and  N4_19 
REMARK    6  A    between atoms: N6_24  and  C8_25 
REMARK    7  A    between atoms: C8_25  and  C9_26 
REMARK    8  A    between atoms: C9_26  and  O3_27 
REMARK    9  A    between atoms: O3_27  and  S3_28 
REMARK       I    between atoms: N7_34  and  C12_35 
REMARK   10  A    between atoms: C12_35  and  C13_37 
REMARK   11  A    between atoms: C13_37  and  N8_38 
REMARK       I    between atoms: N8_38  and  C14_40 
REMARK   12  A    between atoms: C14_40  and  C15_42 
REMARK   13  A    between atoms: C15_42  and  N9_43 
ROOT
HETATM    1  C6  UNL     1      35.661  91.686  -5.593  1.00  0.00     0.289 C 
HETATM    2  O2  UNL     1      34.456  91.643  -5.832  1.00  0.00    -0.265 OA
HETATM    3  N4  UNL     1      36.442  90.533  -5.729  1.00  0.00    -0.153 N 
ATOM      4  H4  UNL     1      36.895  90.155  -4.897  1.00  0.00     0.187 HD
HETATM    5  C7  UNL     1      36.619  89.923  -6.857  1.00  0.00     0.700 C 
HETATM    6  N5  UNL     1      36.035  90.365  -8.076  1.00  0.00    -0.151 N 
ATOM      7  H5  UNL     1      35.605  91.289  -8.093  1.00  0.00     0.199 HD
HETATM    8  N6  UNL     1      36.013  89.620  -9.236  1.00  0.00    -0.213 NA
HETATM    9  C10 UNL     1      36.474  88.262  -9.048  1.00  0.00     0.135 C 
HETATM   10  C11 UNL     1      37.759  88.268  -8.246  1.00  0.00     0.167 C 
HETATM   11  N7  UNL     1      37.427  88.754  -6.924  1.00  0.00    -0.147 N 
HETATM   12  C12 UNL     1      37.893  88.085  -5.748  1.00  0.00     0.255 C 
HETATM   13  O7  UNL     1      37.629  88.474  -4.601  1.00  0.00    -0.271 OA
ENDROOT
BRANCH   1  14
HETATM   14  C5  UNL     1      36.254  92.997  -5.157  1.00  0.00     0.142 C 
HETATM   15  N3  UNL     1      36.948  93.582  -5.940  1.00  0.00    -0.262 N 
ATOM     16  H3  UNL     1      36.961  92.993  -6.772  1.00  0.00     0.194 HD
BRANCH  14  17
HETATM   17  C4  UNL     1      35.909  93.418  -3.789  1.00  0.00     0.076 A 
HETATM   18  C2  UNL     1      36.301  93.049  -2.550  1.00  0.00     0.091 A 
HETATM   19  N1  UNL     1      35.795  93.678  -1.515  1.00  0.00    -0.330 N 
HETATM   20  C3  UNL     1      34.919  94.651  -1.712  1.00  0.00     0.143 A 
ATOM     21  H1  UNL     1      36.075  93.421  -0.568  1.00  0.00     0.168 HD
HETATM   22  S2  UNL     1      34.782  94.705  -3.395  1.00  0.00    -0.049 SA
BRANCH  18  23
HETATM   23  S1  UNL     1      37.507  91.686  -2.294  1.00  0.00    -0.115 SA
HETATM   24  C1  UNL     1      37.323  91.075  -0.579  1.00  0.00     0.097 C 
ENDBRANCH  18  23
BRANCH  20  25
HETATM   25  N2  UNL     1      34.302  95.396  -0.825  1.00  0.00    -0.380 N 
ATOM     26  H22 UNL     1      34.715  95.993  -0.108  1.00  0.00     0.158 HD
ATOM     27  H21 UNL     1      33.300  95.523  -0.681  1.00  0.00     0.158 HD
ENDBRANCH  20  25
ENDBRANCH  14  17
BRANCH  15  28
HETATM   28  O1  UNL     1      37.674  94.578  -6.233  1.00  0.00    -0.289 OA
ATOM     29  H1  UNL     1      37.757  95.481  -6.512  1.00  0.00     0.244 HD
ENDBRANCH  15  28
ENDBRANCH   1  14
BRANCH   8  30
HETATM   30  C8  UNL     1      36.729  90.201 -10.333  1.00  0.00     0.142 C 
BRANCH  30  31
HETATM   31  C9  UNL     1      37.364  91.528  -9.978  1.00  0.00     0.209 C 
BRANCH  31  32
HETATM   32  O3  UNL     1      38.699  91.366  -9.609  1.00  0.00    -0.256 OA
BRANCH  32  33
HETATM   33  S3  UNL     1      39.217  92.655  -8.697  1.00  0.00     0.251 S 
HETATM   34  O4  UNL     1      40.506  93.149  -9.300  1.00  0.00    -0.572 OA
HETATM   35  O5  UNL     1      38.227  93.782  -8.813  1.00  0.00    -0.572 OA
HETATM   36  O6  UNL     1      39.472  92.285  -7.095  1.00  0.00    -0.572 OA
ENDBRANCH  32  33
ENDBRANCH  31  32
ENDBRANCH  30  31
ENDBRANCH   8  30
BRANCH  12  37
HETATM   37  C13 UNL     1      38.726  86.878  -5.935  1.00  0.00     0.226 C 
BRANCH  37  38
HETATM   38  N8  UNL     1      40.133  87.104  -5.718  1.00  0.00    -0.351 N 
HETATM   39  C14 UNL     1      41.053  86.032  -5.783  1.00  0.00     0.243 C 
HETATM   40  O8  UNL     1      40.734  84.838  -6.020  1.00  0.00    -0.272 OA
ATOM     41  H8  UNL     1      40.467  88.046  -5.516  1.00  0.00     0.163 HD
BRANCH  39  42
HETATM   42  C15 UNL     1      42.507  86.343  -5.553  1.00  0.00     0.332 C 
BRANCH  42  43
HETATM   43  N9  UNL     1      42.662  87.487  -4.695  1.00  0.00    -0.071 N 
ATOM     44  H93 UNL     1      41.760  87.858  -4.396  1.00  0.00     0.274 HD
ATOM     45  H92 UNL     1      43.033  87.224  -3.781  1.00  0.00     0.274 HD
ATOM     46  H91 UNL     1      43.235  88.205  -5.140  1.00  0.00     0.274 HD
ENDBRANCH  42  43
ENDBRANCH  39  42
ENDBRANCH  37  38
ENDBRANCH  12  37
TORSDOF 13
ENDMDL
MODEL 3
REMARK VINA RESULT: -6.358836718      1.894      2.415
REMARK  13 active torsions:
REMARK  status: ('A' for Active; 'I' for Inactive)
REMARK    1  A    between atoms: S1_2  and  C2_3 
REMARK    2  A    between atoms: C3_6  and  N2_7 
REMARK    3  A    between atoms: C4_11  and  C5_12 
REMARK    4  A    between atoms: C5_12  and  C6_17 
REMARK    5  A    between atoms: N3_13  and  O1_15 
REMARK       I    between atoms: C6_17  and  N4_19 
REMARK    6  A    between atoms: N6_24  and  C8_25 
REMARK    7  A    between atoms: C8_25  and  C9_26 
REMARK    8  A    between atoms: C9_26  and  O3_27 
REMARK    9  A    between atoms: O3_27  and  S3_28 
REMARK       I    between atoms: N7_34  and  C12_35 
REMARK   10  A    between atoms: C12_35  and  C13_37 
REMARK   11  A    between atoms: C13_37  and  N8_38 
REMARK       I    between atoms: N8_38  and  C14_40 
REMARK   12  A    between atoms: C14_40  and  C15_42 
REMARK   13  A    between atoms: C15_42  and  N9_43 
ROOT
HETATM    1  C6  UNL     1      37.554  91.580  -1.781  1.00  0.00     0.289 C 
HETATM    2  O2  UNL     1      38.704  91.573  -1.345  1.00  0.00    -0.265 OA
HETATM    3  N4  UNL     1      37.323  91.819  -3.140  1.00  0.00    -0.153 N 
ATOM      4  H4  UNL     1      36.793  92.650  -3.402  1.00  0.00     0.187 HD
HETATM    5  C7  UNL     1      37.748  91.039  -4.082  1.00  0.00     0.700 C 
HETATM    6  N5  UNL     1      38.495  89.856  -3.828  1.00  0.00    -0.151 N 
ATOM      7  H5  UNL     1      38.549  89.520  -2.867  1.00  0.00     0.199 HD
HETATM    8  N6  UNL     1      39.152  89.134  -4.802  1.00  0.00    -0.213 NA
HETATM    9  C10 UNL     1      39.170  89.799  -6.087  1.00  0.00     0.135 C 
HETATM   10  C11 UNL     1      37.783  90.311  -6.413  1.00  0.00     0.167 C 
HETATM   11  N7  UNL     1      37.476  91.342  -5.445  1.00  0.00    -0.147 N 
HETATM   12  C12 UNL     1      36.928  92.600  -5.848  1.00  0.00     0.255 C 
HETATM   13  O7  UNL     1      36.652  93.504  -5.045  1.00  0.00    -0.271 OA
ENDROOT
BRANCH   1  14
HETATM   14  C5  UNL     1      36.428  91.327  -0.819  1.00  0.00     0.142 C 
HETATM   15  N3  UNL     1      36.675  90.709   0.178  1.00  0.00    -0.262 N 
ATOM     16  H3  UNL     1      37.670  90.495   0.115  1.00  0.00     0.194 HD
BRANCH  14  17
HETATM   17  C4  UNL     1      35.122  91.876  -1.222  1.00  0.00     0.076 A 
HETATM   18  C2  UNL     1      33.943  91.344  -1.612  1.00  0.00     0.091 A 
HETATM   19  N1  UNL     1      32.943  92.153  -1.875  1.00  0.00    -0.330 N 
HETATM   20  C3  UNL     1      33.116  93.459  -1.753  1.00  0.00     0.143 A 
ATOM     21  H1  UNL     1      32.041  91.778  -2.169  1.00  0.00     0.168 HD
HETATM   22  S2  UNL     1      34.725  93.586  -1.254  1.00  0.00    -0.049 SA
BRANCH  18  23
HETATM   23  S1  UNL     1      33.725  89.528  -1.790  1.00  0.00    -0.115 SA
HETATM   24  C1  UNL     1      34.842  88.946  -3.116  1.00  0.00     0.097 C 
ENDBRANCH  18  23
BRANCH  20  25
HETATM   25  N2  UNL     1      32.255  94.428  -1.965  1.00  0.00    -0.380 N 
ATOM     26  H22 UNL     1      31.300  94.509  -1.616  1.00  0.00     0.158 HD
ATOM     27  H21 UNL     1      32.373  95.279  -2.514  1.00  0.00     0.158 HD
ENDBRANCH  20  25
ENDBRANCH  14  17
BRANCH  15  28
HETATM   28  O1  UNL     1      36.298  90.194   1.272  1.00  0.00    -0.289 OA
ATOM     29  H1  UNL     1      35.947  89.456   1.756  1.00  0.00     0.244 HD
ENDBRANCH  15  28
ENDBRANCH   1  14
BRANCH   8  30
HETATM   30  C8  UNL     1      38.670  87.797  -4.984  1.00  0.00     0.142 C 
BRANCH  30  31
HETATM   31  C9  UNL     1      39.282  87.115  -6.188  1.00  0.00     0.209 C 
BRANCH  31  32
HETATM   32  O3  UNL     1      39.757  85.845  -5.862  1.00  0.00    -0.256 OA
BRANCH  32  33
HETATM   33  S3  UNL     1      41.383  85.725  -6.186  1.00  0.00     0.251 S 
HETATM   34  O4  UNL     1      41.886  84.469  -5.524  1.00  0.00    -0.572 OA
HETATM   35  O5  UNL     1      41.587  85.545  -7.665  1.00  0.00    -0.572 OA
HETATM   36  O6  UNL     1      42.273  87.022  -5.642  1.00  0.00    -0.572 OA
ENDBRANCH  32  33
ENDBRANCH  31  32
ENDBRANCH  30  31
ENDBRANCH   8  30
BRANCH  12  37
HETATM   37  C13 UNL     1      36.687  92.809  -7.291  1.00  0.00     0.226 C 
BRANCH  37  38
HETATM   38  N8  UNL     1      37.789  93.430  -7.980  1.00  0.00    -0.351 N 
HETATM   39  C14 UNL     1      38.374  92.811  -9.110  1.00  0.00     0.243 C 
HETATM   40  O8  UNL     1      37.999  91.708  -9.587  1.00  0.00    -0.272 OA
ATOM     41  H8  UNL     1      38.151  94.324  -7.650  1.00  0.00     0.163 HD
BRANCH  39  42
HETATM   42  C15 UNL     1      39.517  93.521  -9.784  1.00  0.00     0.332 C 
BRANCH  42  43
HETATM   43  N9  UNL     1      40.757  92.824  -9.568  1.00  0.00    -0.071 N 
ATOM     44  H93 UNL     1      40.845  92.014 -10.182  1.00  0.00     0.274 HD
ATOM     45  H92 UNL     1      41.555  93.363  -9.906  1.00  0.00     0.274 HD
ATOM     46  H91 UNL     1      40.867  92.565  -8.587  1.00  0.00     0.274 HD
ENDBRANCH  42  43
ENDBRANCH  39  42
ENDBRANCH  37  38
ENDBRANCH  12  37
TORSDOF 13
ENDMDL
MODEL 4
REMARK VINA RESULT: -6.330561583      2.051      2.757
REMARK  13 active torsions:
REMARK  status: ('A' for Active; 'I' for Inactive)
REMARK    1  A    between atoms: S1_2  and  C2_3 
REMARK    2  A    between atoms: C3_6  and  N2_7 
REMARK    3  A    between atoms: C4_11  and  C5_12 
REMARK    4  A    between atoms: C5_12  and  C6_17 
REMARK    5  A    between atoms: N3_13  and  O1_15 
REMARK       I    between atoms: C6_17  and  N4_19 
REMARK    6  A    between atoms: N6_24  and  C8_25 
REMARK    7  A    between atoms: C8_25  and  C9_26 
REMARK    8  A    between atoms: C9_26  and  O3_27 
REMARK    9  A    between atoms: O3_27  and  S3_28 
REMARK       I    between atoms: N7_34  and  C12_35 
REMARK   10  A    between atoms: C12_35  and  C13_37 
REMARK   11  A    between atoms: C13_37  and  N8_38 
REMARK       I    between atoms: N8_38  and  C14_40 
REMARK   12  A    between atoms: C14_40  and  C15_42 
REMARK   13  A    between atoms: C15_42  and  N9_43 
ROOT
HETATM    1  C6  UNL     1      36.964  91.682  -1.150  1.00  0.00     0.289 C 
HETATM    2  O2  UNL     1      38.168  91.674  -0.904  1.00  0.00    -0.265 OA
HETATM    3  N4  UNL     1      36.464  92.500  -2.169  1.00  0.00    -0.153 N 
ATOM      4  H4  UNL     1      35.813  93.243  -1.917  1.00  0.00     0.187 HD
HETATM    5  C7  UNL     1      36.787  92.361  -3.415  1.00  0.00     0.700 C 
HETATM    6  N5  UNL     1      37.685  91.359  -3.875  1.00  0.00    -0.151 N 
ATOM      7  H5  UNL     1      37.948  90.618  -3.226  1.00  0.00     0.199 HD
HETATM    8  N6  UNL     1      38.223  91.328  -5.144  1.00  0.00    -0.213 NA
HETATM    9  C10 UNL     1      37.937  92.520  -5.911  1.00  0.00     0.135 C 
HETATM   10  C11 UNL     1      36.469  92.867  -5.784  1.00  0.00     0.167 C 
HETATM   11  N7  UNL     1      36.240  93.229  -4.401  1.00  0.00    -0.147 N 
HETATM   12  C12 UNL     1      35.501  94.403  -4.053  1.00  0.00     0.255 C 
HETATM   13  O7  UNL     1      35.286  94.742  -2.880  1.00  0.00    -0.271 OA
ENDROOT
BRANCH   1  14
HETATM   14  C5  UNL     1      36.064  90.798  -0.332  1.00  0.00     0.142 C 
HETATM   15  N3  UNL     1      36.576  89.921   0.307  1.00  0.00    -0.262 N 
ATOM     16  H3  UNL     1      37.574  90.005   0.117  1.00  0.00     0.194 HD
BRANCH  14  17
HETATM   17  C4  UNL     1      34.629  91.116  -0.412  1.00  0.00     0.076 A 
HETATM   18  C2  UNL     1      33.626  90.789  -1.256  1.00  0.00     0.091 A 
HETATM   19  N1  UNL     1      32.418  91.237  -1.003  1.00  0.00    -0.330 N 
HETATM   20  C3  UNL     1      32.217  91.994   0.065  1.00  0.00     0.143 A 
ATOM     21  H1  UNL     1      31.642  91.004  -1.622  1.00  0.00     0.168 HD
HETATM   22  S2  UNL     1      33.756  92.096   0.755  1.00  0.00    -0.049 SA
BRANCH  18  23
HETATM   23  S1  UNL     1      33.925  89.750  -2.741  1.00  0.00    -0.115 SA
HETATM   24  C1  UNL     1      33.517  90.741  -4.224  1.00  0.00     0.097 C 
ENDBRANCH  18  23
BRANCH  20  25
HETATM   25  N2  UNL     1      31.101  92.537   0.492  1.00  0.00    -0.380 N 
ATOM     26  H22 UNL     1      30.989  93.333   1.118  1.00  0.00     0.158 HD
ATOM     27  H21 UNL     1      30.139  92.271   0.282  1.00  0.00     0.158 HD
ENDBRANCH  20  25
ENDBRANCH  14  17
BRANCH  15  28
HETATM   28  O1  UNL     1      36.476  88.941   1.102  1.00  0.00    -0.289 OA
ATOM     29  H1  UNL     1      35.955  88.253   1.498  1.00  0.00     0.244 HD
ENDBRANCH  15  28
ENDBRANCH   1  14
BRANCH   8  30
HETATM   30  C8  UNL     1      37.856  90.182  -5.921  1.00  0.00     0.142 C 
BRANCH  30  31
HETATM   31  C9  UNL     1      39.024  89.257  -6.184  1.00  0.00     0.209 C 
BRANCH  31  32
HETATM   32  O3  UNL     1      39.053  88.206  -5.268  1.00  0.00    -0.256 OA
BRANCH  32  33
HETATM   33  S3  UNL     1      40.156  88.507  -4.062  1.00  0.00     0.251 S 
HETATM   34  O4  UNL     1      40.875  87.216  -3.772  1.00  0.00    -0.572 OA
HETATM   35  O5  UNL     1      41.193  89.475  -4.562  1.00  0.00    -0.572 OA
HETATM   36  O6  UNL     1      39.474  89.079  -2.656  1.00  0.00    -0.572 OA
ENDBRANCH  32  33
ENDBRANCH  31  32
ENDBRANCH  30  31
ENDBRANCH   8  30
BRANCH  12  37
HETATM   37  C13 UNL     1      34.979  95.233  -5.159  1.00  0.00     0.226 C 
BRANCH  37  38
HETATM   38  N8  UNL     1      34.141  96.322  -4.722  1.00  0.00    -0.351 N 
HETATM   39  C14 UNL     1      32.744  96.148  -4.593  1.00  0.00     0.243 C 
HETATM   40  O8  UNL     1      32.136  95.074  -4.843  1.00  0.00    -0.272 OA
ATOM     41  H8  UNL     1      34.560  97.225  -4.504  1.00  0.00     0.163 HD
BRANCH  39  42
HETATM   42  C15 UNL     1      31.932  97.326  -4.126  1.00  0.00     0.332 C 
BRANCH  42  43
HETATM   43  N9  UNL     1      32.184  97.611  -2.739  1.00  0.00    -0.071 N 
ATOM     44  H93 UNL     1      31.492  97.169  -2.133  1.00  0.00     0.274 HD
ATOM     45  H92 UNL     1      33.017  97.128  -2.402  1.00  0.00     0.274 HD
ATOM     46  H91 UNL     1      32.240  98.616  -2.574  1.00  0.00     0.274 HD
ENDBRANCH  42  43
ENDBRANCH  39  42
ENDBRANCH  37  38
ENDBRANCH  12  37
TORSDOF 13
ENDMDL
MODEL 5
REMARK VINA RESULT: -6.317988657      1.901      2.895
REMARK  13 active torsions:
REMARK  status: ('A' for Active; 'I' for Inactive)
REMARK    1  A    between atoms: S1_2  and  C2_3 
REMARK    2  A    between atoms: C3_6  and  N2_7 
REMARK    3  A    between atoms: C4_11  and  C5_12 
REMARK    4  A    between atoms: C5_12  and  C6_17 
REMARK    5  A    between atoms: N3_13  and  O1_15 
REMARK       I    between atoms: C6_17  and  N4_19 
REMARK    6  A    between atoms: N6_24  and  C8_25 
REMARK    7  A    between atoms: C8_25  and  C9_26 
REMARK    8  A    between atoms: C9_26  and  O3_27 
REMARK    9  A    between atoms: O3_27  and  S3_28 
REMARK       I    between atoms: N7_34  and  C12_35 
REMARK   10  A    between atoms: C12_35  and  C13_37 
REMARK   11  A    between atoms: C13_37  and  N8_38 
REMARK       I    between atoms: N8_38  and  C14_40 
REMARK   12  A    between atoms: C14_40  and  C15_42 
REMARK   13  A    between atoms: C15_42  and  N9_43 
ROOT
HETATM    1  C6  UNL     1      37.373  91.505  -1.645  1.00  0.00     0.289 C 
HETATM    2  O2  UNL     1      38.460  91.809  -1.159  1.00  0.00    -0.265 OA
HETATM    3  N4  UNL     1      37.174  91.599  -3.027  1.00  0.00    -0.153 N 
ATOM      4  H4  UNL     1      36.474  92.256  -3.371  1.00  0.00     0.187 HD
HETATM    5  C7  UNL     1      37.833  90.894  -3.890  1.00  0.00     0.700 C 
HETATM    6  N5  UNL     1      38.829  89.950  -3.519  1.00  0.00    -0.151 N 
ATOM      7  H5  UNL     1      38.904  89.695  -2.535  1.00  0.00     0.199 HD
HETATM    8  N6  UNL     1      39.701  89.358  -4.408  1.00  0.00    -0.213 NA
HETATM    9  C10 UNL     1      39.635  89.930  -5.735  1.00  0.00     0.135 C 
HETATM   10  C11 UNL     1      38.187  90.063  -6.159  1.00  0.00     0.167 C 
HETATM   11  N7  UNL     1      37.579  91.040  -5.282  1.00  0.00    -0.147 N 
HETATM   12  C12 UNL     1      36.766  92.097  -5.799  1.00  0.00     0.255 C 
HETATM   13  O7  UNL     1      36.229  92.951  -5.076  1.00  0.00    -0.271 OA
ENDROOT
BRANCH   1  14
HETATM   14  C5  UNL     1      36.285  91.037  -0.719  1.00  0.00     0.142 C 
HETATM   15  N3  UNL     1      36.615  90.508   0.305  1.00  0.00    -0.262 N 
ATOM     16  H3  UNL     1      37.635  90.510   0.286  1.00  0.00     0.194 HD
BRANCH  14  17
HETATM   17  C4  UNL     1      34.911  91.286  -1.187  1.00  0.00     0.076 A 
HETATM   18  C2  UNL     1      34.198  92.388  -1.507  1.00  0.00     0.091 A 
HETATM   19  N1  UNL     1      32.966  92.239  -1.934  1.00  0.00    -0.330 N 
HETATM   20  C3  UNL     1      32.458  91.021  -2.037  1.00  0.00     0.143 A 
ATOM     21  H1  UNL     1      32.405  93.054  -2.185  1.00  0.00     0.168 HD
HETATM   22  S2  UNL     1      33.730  90.033  -1.525  1.00  0.00    -0.049 SA
BRANCH  18  23
HETATM   23  S1  UNL     1      34.914  94.072  -1.344  1.00  0.00    -0.115 SA
HETATM   24  C1  UNL     1      33.714  95.118  -0.442  1.00  0.00     0.097 C 
ENDBRANCH  18  23
BRANCH  20  25
HETATM   25  N2  UNL     1      31.261  90.658  -2.438  1.00  0.00    -0.380 N 
ATOM     26  H22 UNL     1      30.396  91.197  -2.402  1.00  0.00     0.158 HD
ATOM     27  H21 UNL     1      30.967  89.777  -2.858  1.00  0.00     0.158 HD
ENDBRANCH  20  25
ENDBRANCH  14  17
BRANCH  15  28
HETATM   28  O1  UNL     1      36.310  89.948   1.399  1.00  0.00    -0.289 OA
ATOM     29  H1  UNL     1      36.445  89.256   2.035  1.00  0.00     0.244 HD
ENDBRANCH  15  28
ENDBRANCH   1  14
BRANCH   8  30
HETATM   30  C8  UNL     1      39.572  87.935  -4.514  1.00  0.00     0.142 C 
BRANCH  30  31
HETATM   31  C9  UNL     1      40.907  87.237  -4.655  1.00  0.00     0.209 C 
BRANCH  31  32
HETATM   32  O3  UNL     1      41.253  87.074  -5.996  1.00  0.00    -0.256 OA
BRANCH  32  33
HETATM   33  S3  UNL     1      41.082  85.487  -6.458  1.00  0.00     0.251 S 
HETATM   34  O4  UNL     1      41.663  85.351  -7.841  1.00  0.00    -0.572 OA
HETATM   35  O5  UNL     1      41.905  84.610  -5.556  1.00  0.00    -0.572 OA
HETATM   36  O6  UNL     1      39.503  84.961  -6.477  1.00  0.00    -0.572 OA
ENDBRANCH  32  33
ENDBRANCH  31  32
ENDBRANCH  30  31
ENDBRANCH   8  30
BRANCH  12  37
HETATM   37  C13 UNL     1      36.570  92.154  -7.262  1.00  0.00     0.226 C 
BRANCH  37  38
HETATM   38  N8  UNL     1      37.529  92.986  -7.945  1.00  0.00    -0.351 N 
HETATM   39  C14 UNL     1      38.290  92.474  -9.022  1.00  0.00     0.243 C 
HETATM   40  O8  UNL     1      38.201  91.294  -9.455  1.00  0.00    -0.272 OA
ATOM     41  H8  UNL     1      37.660  93.952  -7.649  1.00  0.00     0.163 HD
BRANCH  39  42
HETATM   42  C15 UNL     1      39.268  93.400  -9.692  1.00  0.00     0.332 C 
BRANCH  42  43
HETATM   43  N9  UNL     1      40.618  92.930  -9.533  1.00  0.00    -0.071 N 
ATOM     44  H93 UNL     1      40.758  92.028  -9.991  1.00  0.00     0.274 HD
ATOM     45  H92 UNL     1      41.276  93.486 -10.080  1.00  0.00     0.274 HD
ATOM     46  H91 UNL     1      40.882  92.896  -8.548  1.00  0.00     0.274 HD
ENDBRANCH  42  43
ENDBRANCH  39  42
ENDBRANCH  37  38
ENDBRANCH  12  37
TORSDOF 13
ENDMDL
