MODEL 1
REMARK VINA RESULT: -7.040267921      0.000      0.000
REMARK  7 active torsions:
REMARK  status: ('A' for Active; 'I' for Inactive)
REMARK       I    between atoms: C1_2  and  N1_3 
REMARK    1  A    between atoms: C1_2  and  C13_23 
REMARK    2  A    between atoms: N1_3  and  C2_5 
REMARK    3  A    between atoms: C2_5  and  C3_6 
REMARK    4  A    between atoms: N2_9  and  C6_10 
REMARK    5  A    between atoms: C6_10  and  O2_11 
REMARK    6  A    between atoms: C6_10  and  C7_13 
REMARK    7  A    between atoms: C10_16  and  N3_17 
ROOT
HETATM    1  C3  UNL     1      35.942  45.627   9.086  1.00  0.00     0.006 C 
HETATM    2  C4  UNL     1      35.063  45.994  10.219  1.00  0.00     0.026 C 
HETATM    3  C5  UNL     1      34.427  44.877  10.979  1.00  0.00     0.125 C 
HETATM    4  N2  UNL     1      34.029  43.785  10.010  1.00  0.00    -0.360 N 
HETATM    5  C11 UNL     1      35.178  43.263   9.342  1.00  0.00     0.125 C 
HETATM    6  C12 UNL     1      35.585  44.358   8.352  1.00  0.00     0.026 C 
ENDROOT
BRANCH   1   7
HETATM    7  C2  UNL     1      35.923  46.751   8.056  1.00  0.00     0.127 C 
BRANCH   7   8
HETATM    8  N1  UNL     1      34.615  47.347   7.958  1.00  0.00    -0.356 N 
HETATM    9  C1  UNL     1      33.841  47.144   6.811  1.00  0.00     0.258 C 
HETATM   10  O1  UNL     1      34.271  46.452   5.870  1.00  0.00    -0.267 OA
ATOM     11  H1  UNL     1      34.254  47.916   8.724  1.00  0.00     0.162 HD
BRANCH   9  12
HETATM   12  C13 UNL     1      32.503  47.771   6.744  1.00  0.00     0.074 A 
HETATM   13  C14 UNL     1      31.768  48.303   7.767  1.00  0.00     0.027 A 
HETATM   14  C15 UNL     1      30.573  48.819   7.468  1.00  0.00     0.033 A 
HETATM   15  C16 UNL     1      30.176  48.776   6.158  1.00  0.00     0.075 A 
HETATM   16 CL1  UNL     1      28.657  49.377   5.465  1.00  0.00    -0.076 Cl
HETATM   17  S1  UNL     1      31.489  48.013   5.385  1.00  0.00    -0.072 SA
ENDBRANCH   9  12
ENDBRANCH   7   8
ENDBRANCH   1   7
BRANCH   4  18
HETATM   18  C6  UNL     1      32.693  43.442   9.914  1.00  0.00     0.173 C 
BRANCH  18  19
HETATM   19  O2  UNL     1      32.319  42.445  10.701  1.00  0.00    -0.344 OA
ATOM     20  H2  UNL     1      31.494  42.581  11.151  1.00  0.00     0.219 HD
ENDBRANCH  18  19
BRANCH  18  21
HETATM   21  C7  UNL     1      31.679  44.030   9.081  1.00  0.00     0.128 A 
HETATM   22  C8  UNL     1      31.591  44.328   7.753  1.00  0.00     0.046 A 
HETATM   23  C9  UNL     1      30.339  44.901   7.468  1.00  0.00     0.066 A 
HETATM   24  C10 UNL     1      29.720  44.917   8.682  1.00  0.00     0.215 A 
HETATM   25  O5  UNL     1      30.485  44.420   9.600  1.00  0.00    -0.284 OA
BRANCH  24  26
HETATM   26  N3  UNL     1      28.390  45.422   8.899  1.00  0.00    -0.090 N 
HETATM   27  O3  UNL     1      27.641  44.877   9.718  1.00  0.00    -0.530 OA
HETATM   28  O4  UNL     1      27.934  46.498   8.217  1.00  0.00    -0.530 OA
ENDBRANCH  24  26
ENDBRANCH  18  21
ENDBRANCH   4  18
TORSDOF 7
ENDMDL
MODEL 2
REMARK VINA RESULT: -6.968989217      2.420      4.488
REMARK  7 active torsions:
REMARK  status: ('A' for Active; 'I' for Inactive)
REMARK       I    between atoms: C1_2  and  N1_3 
REMARK    1  A    between atoms: C1_2  and  C13_23 
REMARK    2  A    between atoms: N1_3  and  C2_5 
REMARK    3  A    between atoms: C2_5  and  C3_6 
REMARK    4  A    between atoms: N2_9  and  C6_10 
REMARK    5  A    between atoms: C6_10  and  O2_11 
REMARK    6  A    between atoms: C6_10  and  C7_13 
REMARK    7  A    between atoms: C10_16  and  N3_17 
ROOT
HETATM    1  C3  UNL     1      33.618  42.516   8.474  1.00  0.00     0.006 C 
HETATM    2  C4  UNL     1      34.080  43.420   7.396  1.00  0.00     0.026 C 
HETATM    3  C5  UNL     1      35.160  44.393   7.737  1.00  0.00     0.125 C 
HETATM    4  N2  UNL     1      34.931  44.912   9.140  1.00  0.00    -0.360 N 
HETATM    5  C11 UNL     1      34.989  43.844  10.086  1.00  0.00     0.125 C 
HETATM    6  C12 UNL     1      33.685  43.068   9.877  1.00  0.00     0.026 C 
ENDROOT
BRANCH   1   7
HETATM    7  C2  UNL     1      32.163  42.138   8.219  1.00  0.00     0.127 C 
BRANCH   7   8
HETATM    8  N1  UNL     1      31.356  43.306   7.969  1.00  0.00    -0.356 N 
HETATM    9  C1  UNL     1      30.306  43.624   8.835  1.00  0.00     0.258 C 
HETATM   10  O1  UNL     1      30.058  42.908   9.823  1.00  0.00    -0.267 OA
ATOM     11  H1  UNL     1      31.552  43.899   7.162  1.00  0.00     0.162 HD
BRANCH   9  12
HETATM   12  C13 UNL     1      29.498  44.830   8.549  1.00  0.00     0.074 A 
HETATM   13  C14 UNL     1      28.339  45.231   9.153  1.00  0.00     0.027 A 
HETATM   14  C15 UNL     1      27.779  46.366   8.726  1.00  0.00     0.033 A 
HETATM   15  C16 UNL     1      28.409  47.041   7.716  1.00  0.00     0.075 A 
HETATM   16 CL1  UNL     1      27.909  48.561   6.949  1.00  0.00    -0.076 Cl
HETATM   17  S1  UNL     1      29.768  46.066   7.395  1.00  0.00    -0.072 SA
ENDBRANCH   9  12
ENDBRANCH   7   8
ENDBRANCH   1   7
BRANCH   4  18
HETATM   18  C6  UNL     1      34.728  46.268   9.317  1.00  0.00     0.173 C 
BRANCH  18  19
HETATM   19  O2  UNL     1      34.892  46.695  10.559  1.00  0.00    -0.344 OA
ATOM     20  H2  UNL     1      34.685  47.613  10.695  1.00  0.00     0.219 HD
ENDBRANCH  18  19
BRANCH  18  21
HETATM   21  C7  UNL     1      34.369  47.252   8.332  1.00  0.00     0.128 A 
HETATM   22  C8  UNL     1      35.072  48.009   7.442  1.00  0.00     0.046 A 
HETATM   23  C9  UNL     1      34.195  48.821   6.700  1.00  0.00     0.066 A 
HETATM   24  C10 UNL     1      32.971  48.496   7.201  1.00  0.00     0.215 A 
HETATM   25  O5  UNL     1      33.071  47.602   8.131  1.00  0.00    -0.284 OA
BRANCH  24  26
HETATM   26  N3  UNL     1      31.735  49.079   6.746  1.00  0.00    -0.090 N 
HETATM   27  O3  UNL     1      31.037  49.744   7.519  1.00  0.00    -0.530 OA
HETATM   28  O4  UNL     1      31.315  48.914   5.470  1.00  0.00    -0.530 OA
ENDBRANCH  24  26
ENDBRANCH  18  21
ENDBRANCH   4  18
TORSDOF 7
ENDMDL
MODEL 3
REMARK VINA RESULT: -6.939708527      0.994      1.018
REMARK  7 active torsions:
REMARK  status: ('A' for Active; 'I' for Inactive)
REMARK       I    between atoms: C1_2  and  N1_3 
REMARK    1  A    between atoms: C1_2  and  C13_23 
REMARK    2  A    between atoms: N1_3  and  C2_5 
REMARK    3  A    between atoms: C2_5  and  C3_6 
REMARK    4  A    between atoms: N2_9  and  C6_10 
REMARK    5  A    between atoms: C6_10  and  O2_11 
REMARK    6  A    between atoms: C6_10  and  C7_13 
REMARK    7  A    between atoms: C10_16  and  N3_17 
ROOT
HETATM    1  C3  UNL     1      35.944  45.006   8.758  1.00  0.00     0.006 C 
HETATM    2  C4  UNL     1      34.936  44.971   9.842  1.00  0.00     0.026 C 
HETATM    3  C5  UNL     1      34.244  43.672  10.089  1.00  0.00     0.125 C 
HETATM    4  N2  UNL     1      33.981  42.992   8.763  1.00  0.00    -0.360 N 
HETATM    5  C11 UNL     1      35.208  42.714   8.089  1.00  0.00     0.125 C 
HETATM    6  C12 UNL     1      35.699  44.078   7.594  1.00  0.00     0.026 C 
ENDROOT
BRANCH   1   7
HETATM    7  C2  UNL     1      36.016  46.418   8.188  1.00  0.00     0.127 C 
BRANCH   7   8
HETATM    8  N1  UNL     1      34.703  47.001   8.072  1.00  0.00    -0.356 N 
HETATM    9  C1  UNL     1      34.162  47.253   6.808  1.00  0.00     0.258 C 
HETATM   10  O1  UNL     1      34.803  46.979   5.777  1.00  0.00    -0.267 OA
ATOM     11  H1  UNL     1      34.170  47.230   8.912  1.00  0.00     0.162 HD
BRANCH   9  12
HETATM   12  C13 UNL     1      32.813  47.853   6.726  1.00  0.00     0.074 A 
HETATM   13  C14 UNL     1      32.102  48.469   7.718  1.00  0.00     0.027 A 
HETATM   14  C15 UNL     1      30.890  48.939   7.410  1.00  0.00     0.033 A 
HETATM   15  C16 UNL     1      30.453  48.768   6.125  1.00  0.00     0.075 A 
HETATM   16 CL1  UNL     1      28.903  49.281   5.427  1.00  0.00    -0.076 Cl
HETATM   17  S1  UNL     1      31.753  47.953   5.384  1.00  0.00    -0.072 SA
ENDBRANCH   9  12
ENDBRANCH   7   8
ENDBRANCH   1   7
BRANCH   4  18
HETATM   18  C6  UNL     1      32.672  42.729   8.404  1.00  0.00     0.173 C 
BRANCH  18  19
HETATM   19  O2  UNL     1      32.412  41.456   8.154  1.00  0.00    -0.344 OA
ATOM     20  H2  UNL     1      31.665  41.306   7.586  1.00  0.00     0.219 HD
ENDBRANCH  18  19
BRANCH  18  21
HETATM   21  C7  UNL     1      31.579  43.654   8.276  1.00  0.00     0.128 A 
HETATM   22  C8  UNL     1      31.264  44.641   7.388  1.00  0.00     0.046 A 
HETATM   23  C9  UNL     1      30.044  45.241   7.746  1.00  0.00     0.066 A 
HETATM   24  C10 UNL     1      29.678  44.560   8.867  1.00  0.00     0.215 A 
HETATM   25  O5  UNL     1      30.554  43.656   9.169  1.00  0.00    -0.284 OA
BRANCH  24  26
HETATM   26  N3  UNL     1      28.473  44.822   9.610  1.00  0.00    -0.090 N 
HETATM   27  O3  UNL     1      28.146  44.088  10.548  1.00  0.00    -0.530 OA
HETATM   28  O4  UNL     1      27.677  45.872   9.298  1.00  0.00    -0.530 OA
ENDBRANCH  24  26
ENDBRANCH  18  21
ENDBRANCH   4  18
TORSDOF 7
ENDMDL
MODEL 4
REMARK VINA RESULT: -6.797123034      2.211      4.452
REMARK  7 active torsions:
REMARK  status: ('A' for Active; 'I' for Inactive)
REMARK       I    between atoms: C1_2  and  N1_3 
REMARK    1  A    between atoms: C1_2  and  C13_23 
REMARK    2  A    between atoms: N1_3  and  C2_5 
REMARK    3  A    between atoms: C2_5  and  C3_6 
REMARK    4  A    between atoms: N2_9  and  C6_10 
REMARK    5  A    between atoms: C6_10  and  O2_11 
REMARK    6  A    between atoms: C6_10  and  C7_13 
REMARK    7  A    between atoms: C10_16  and  N3_17 
ROOT
HETATM    1  C3  UNL     1      34.569  43.364   9.750  1.00  0.00     0.006 C 
HETATM    2  C4  UNL     1      35.179  43.516   8.410  1.00  0.00     0.026 C 
HETATM    3  C5  UNL     1      36.167  44.621   8.231  1.00  0.00     0.125 C 
HETATM    4  N2  UNL     1      35.700  45.831   9.012  1.00  0.00    -0.360 N 
HETATM    5  C11 UNL     1      35.628  45.530  10.405  1.00  0.00     0.125 C 
HETATM    6  C12 UNL     1      34.393  44.633  10.547  1.00  0.00     0.026 C 
ENDROOT
BRANCH   1   7
HETATM    7  C2  UNL     1      33.184  42.744   9.600  1.00  0.00     0.127 C 
BRANCH   7   8
HETATM    8  N1  UNL     1      32.171  43.758   9.458  1.00  0.00    -0.356 N 
HETATM    9  C1  UNL     1      30.934  43.432   8.893  1.00  0.00     0.258 C 
HETATM   10  O1  UNL     1      30.697  42.272   8.510  1.00  0.00    -0.267 OA
ATOM     11  H1  UNL     1      32.355  44.712   9.769  1.00  0.00     0.162 HD
BRANCH   9  12
HETATM   12  C13 UNL     1      29.916  44.497   8.763  1.00  0.00     0.074 A 
HETATM   13  C14 UNL     1      28.840  44.739   9.571  1.00  0.00     0.027 A 
HETATM   14  C15 UNL     1      28.047  45.767   9.256  1.00  0.00     0.033 A 
HETATM   15  C16 UNL     1      28.374  46.500   8.147  1.00  0.00     0.075 A 
HETATM   16 CL1  UNL     1      27.520  47.909   7.487  1.00  0.00    -0.076 Cl
HETATM   17  S1  UNL     1      29.782  45.728   7.579  1.00  0.00    -0.072 SA
ENDBRANCH   9  12
ENDBRANCH   7   8
ENDBRANCH   1   7
BRANCH   4  18
HETATM   18  C6  UNL     1      35.440  47.001   8.324  1.00  0.00     0.173 C 
BRANCH  18  19
HETATM   19  O2  UNL     1      36.259  48.002   8.603  1.00  0.00    -0.344 OA
ATOM     20  H2  UNL     1      36.154  48.373   9.471  1.00  0.00     0.219 HD
ENDBRANCH  18  19
BRANCH  18  21
HETATM   21  C7  UNL     1      34.406  47.255   7.357  1.00  0.00     0.128 A 
HETATM   22  C8  UNL     1      34.184  46.856   6.072  1.00  0.00     0.046 A 
HETATM   23  C9  UNL     1      32.986  47.415   5.592  1.00  0.00     0.066 A 
HETATM   24  C10 UNL     1      32.537  48.145   6.651  1.00  0.00     0.215 A 
HETATM   25  O5  UNL     1      33.348  48.053   7.656  1.00  0.00    -0.284 OA
BRANCH  24  26
HETATM   26  N3  UNL     1      31.319  48.912   6.640  1.00  0.00    -0.090 N 
HETATM   27  O3  UNL     1      31.073  49.707   7.554  1.00  0.00    -0.530 OA
HETATM   28  O4  UNL     1      30.423  48.782   5.634  1.00  0.00    -0.530 OA
ENDBRANCH  24  26
ENDBRANCH  18  21
ENDBRANCH   4  18
TORSDOF 7
ENDMDL
MODEL 5
REMARK VINA RESULT: -6.756612764      2.208      5.233
REMARK  7 active torsions:
REMARK  status: ('A' for Active; 'I' for Inactive)
REMARK       I    between atoms: C1_2  and  N1_3 
REMARK    1  A    between atoms: C1_2  and  C13_23 
REMARK    2  A    between atoms: N1_3  and  C2_5 
REMARK    3  A    between atoms: C2_5  and  C3_6 
REMARK    4  A    between atoms: N2_9  and  C6_10 
REMARK    5  A    between atoms: C6_10  and  O2_11 
REMARK    6  A    between atoms: C6_10  and  C7_13 
REMARK    7  A    between atoms: C10_16  and  N3_17 
ROOT
HETATM    1  C3  UNL     1      31.659  42.587   9.106  1.00  0.00     0.006 C 
HETATM    2  C4  UNL     1      32.040  43.123   7.780  1.00  0.00     0.026 C 
HETATM    3  C5  UNL     1      33.495  43.139   7.442  1.00  0.00     0.125 C 
HETATM    4  N2  UNL     1      34.285  43.500   8.682  1.00  0.00    -0.360 N 
HETATM    5  C11 UNL     1      34.083  42.527   9.706  1.00  0.00     0.125 C 
HETATM    6  C12 UNL     1      32.661  42.785  10.215  1.00  0.00     0.026 C 
ENDROOT
BRANCH   1   7
HETATM    7  C2  UNL     1      30.364  43.251   9.559  1.00  0.00     0.127 C 
BRANCH   7   8
HETATM    8  N1  UNL     1      30.071  44.418   8.767  1.00  0.00    -0.356 N 
HETATM    9  C1  UNL     1      28.943  45.191   9.056  1.00  0.00     0.258 C 
HETATM   10  O1  UNL     1      28.185  44.882   9.994  1.00  0.00    -0.267 OA
ATOM     11  H1  UNL     1      30.686  44.681   7.996  1.00  0.00     0.162 HD
BRANCH   9  12
HETATM   12  C13 UNL     1      28.672  46.383   8.223  1.00  0.00     0.074 A 
HETATM   13  C14 UNL     1      27.530  47.133   8.170  1.00  0.00     0.027 A 
HETATM   14  C15 UNL     1      27.512  48.176   7.335  1.00  0.00     0.033 A 
HETATM   15  C16 UNL     1      28.640  48.413   6.597  1.00  0.00     0.075 A 
HETATM   16 CL1  UNL     1      28.911  49.710   5.416  1.00  0.00    -0.076 Cl
HETATM   17  S1  UNL     1      29.692  47.169   7.094  1.00  0.00    -0.072 SA
ENDBRANCH   9  12
ENDBRANCH   7   8
ENDBRANCH   1   7
BRANCH   4  18
HETATM   18  C6  UNL     1      35.064  44.642   8.659  1.00  0.00     0.173 C 
BRANCH  18  19
HETATM   19  O2  UNL     1      36.335  44.451   8.974  1.00  0.00    -0.344 OA
ATOM     20  H2  UNL     1      36.854  44.031   8.298  1.00  0.00     0.219 HD
ENDBRANCH  18  19
BRANCH  18  21
HETATM   21  C7  UNL     1      34.667  45.986   8.336  1.00  0.00     0.128 A 
HETATM   22  C8  UNL     1      33.474  46.645   8.303  1.00  0.00     0.046 A 
HETATM   23  C9  UNL     1      33.672  47.982   7.914  1.00  0.00     0.066 A 
HETATM   24  C10 UNL     1      35.019  48.057   7.729  1.00  0.00     0.215 A 
HETATM   25  O5  UNL     1      35.586  46.918   7.970  1.00  0.00    -0.284 OA
BRANCH  24  26
HETATM   26  N3  UNL     1      35.709  49.252   7.320  1.00  0.00    -0.090 N 
HETATM   27  O3  UNL     1      35.359  49.859   6.302  1.00  0.00    -0.530 OA
HETATM   28  O4  UNL     1      36.751  49.735   8.036  1.00  0.00    -0.530 OA
ENDBRANCH  24  26
ENDBRANCH  18  21
ENDBRANCH   4  18
TORSDOF 7
ENDMDL
