MODEL 1
REMARK VINA RESULT: -6.830471826      0.000      0.000
REMARK  12 active torsions:
REMARK  status: ('A' for Active; 'I' for Inactive)
REMARK    1  A    between atoms: C3_8  and  N3_9 
REMARK    2  A    between atoms: N3_9  and  C4_11 
REMARK    3  A    between atoms: C4_11  and  C5_12 
REMARK    4  A    between atoms: C5_12  and  O1_13 
REMARK    5  A    between atoms: O1_13  and  C6_14 
REMARK    6  A    between atoms: C6_14  and  C7_15 
REMARK    7  A    between atoms: C7_15  and  N4_16 
REMARK    8  A    between atoms: N4_16  and  C8_19 
REMARK    9  A    between atoms: C8_19  and  C9_20 
REMARK   10  A    between atoms: C9_20  and  O2_21 
REMARK   11  A    between atoms: C9_20  and  C10_23 
REMARK   12  A    between atoms: C12_28  and  O3_29 
ROOT
HETATM    1  C7  UNL     1      32.078 -20.131 -19.852  1.00  0.00     0.258 C 
ENDROOT
BRANCH   1   2
HETATM    2  C6  UNL     1      31.685 -20.801 -21.130  1.00  0.00     0.195 C 
BRANCH   2   3
HETATM    3  O1  UNL     1      31.804 -22.161 -21.024  1.00  0.00    -0.388 OA
BRANCH   3   4
HETATM    4  C5  UNL     1      32.663 -22.515 -19.957  1.00  0.00     0.186 C 
BRANCH   4   5
HETATM    5  C4  UNL     1      32.284 -23.889 -19.471  1.00  0.00     0.142 C 
BRANCH   5   6
HETATM    6  N3  UNL     1      32.072 -23.820 -18.062  1.00  0.00    -0.398 N 
ATOM      7  H3  UNL     1      31.546 -24.533 -17.557  1.00  0.00     0.155 HD
BRANCH   6   8
HETATM    8  C3  UNL     1      32.644 -22.690 -17.405  1.00  0.00     0.197 C 
HETATM    9  C2  UNL     1      33.747 -23.110 -16.419  1.00  0.00     0.169 C 
HETATM   10  N2  UNL     1      33.918 -21.817 -15.735  1.00  0.00    -0.359 N 
HETATM   11  C1  UNL     1      32.581 -21.286 -15.593  1.00  0.00     0.170 C 
ATOM     12  H2  UNL     1      34.791 -21.388 -15.427  1.00  0.00     0.162 HD
HETATM   13  N1  UNL     1      32.303 -20.325 -14.784  1.00  0.00    -0.371 N 
HETATM   14  N6  UNL     1      31.744 -22.018 -16.475  1.00  0.00    -0.340 N 
ATOM     15  H12 UNL     1      32.905 -19.800 -14.150  1.00  0.00     0.159 HD
ATOM     16  H11 UNL     1      31.360 -19.951 -14.683  1.00  0.00     0.159 HD
ATOM     17  H6  UNL     1      30.725 -22.064 -16.462  1.00  0.00     0.164 HD
ENDBRANCH   6   8
ENDBRANCH   5   6
ENDBRANCH   4   5
ENDBRANCH   3   4
ENDBRANCH   2   3
ENDBRANCH   1   2
BRANCH   1  18
HETATM   18  N4  UNL     1      31.202 -19.008 -19.550  1.00  0.00    -0.071 N 
ATOM     19  H42 UNL     1      30.576 -18.825 -20.333  1.00  0.00     0.277 HD
ATOM     20  H41 UNL     1      30.519 -19.271 -18.839  1.00  0.00     0.277 HD
BRANCH  18  21
HETATM   21  C8  UNL     1      31.880 -17.816 -19.168  1.00  0.00     0.268 C 
BRANCH  21  22
HETATM   22  C9  UNL     1      31.795 -17.441 -17.726  1.00  0.00     0.200 C 
BRANCH  22  23
HETATM   23  O2  UNL     1      32.861 -18.148 -17.092  1.00  0.00    -0.389 OA
ATOM     24  H2  UNL     1      33.278 -17.512 -16.523  1.00  0.00     0.210 HD
ENDBRANCH  22  23
BRANCH  22  25
HETATM   25  C10 UNL     1      30.560 -18.016 -17.055  1.00  0.00     0.354 C 
HETATM   26  N5  UNL     1      30.374 -17.630 -15.688  1.00  0.00    -0.042 N 
HETATM   27  C11 UNL     1      29.076 -18.325 -15.430  1.00  0.00     0.295 C 
ATOM     28  H52 UNL     1      31.138 -17.846 -15.048  1.00  0.00     0.280 HD
ATOM     29  H51 UNL     1      30.398 -16.629 -15.493  1.00  0.00     0.280 HD
HETATM   30  C12 UNL     1      28.394 -18.038 -16.774  1.00  0.00     0.285 C 
HETATM   31  O4  UNL     1      29.388 -17.687 -17.671  1.00  0.00    -0.325 OA
BRANCH  30  32
HETATM   32  O3  UNL     1      27.691 -19.165 -17.185  1.00  0.00    -0.369 OA
ATOM     33  H3  UNL     1      28.041 -19.471 -18.013  1.00  0.00     0.212 HD
ENDBRANCH  30  32
ENDBRANCH  22  25
ENDBRANCH  21  22
ENDBRANCH  18  21
ENDBRANCH   1  18
TORSDOF 12
ENDMDL
MODEL 2
REMARK VINA RESULT: -6.702179468      1.614      2.297
REMARK  12 active torsions:
REMARK  status: ('A' for Active; 'I' for Inactive)
REMARK    1  A    between atoms: C3_8  and  N3_9 
REMARK    2  A    between atoms: N3_9  and  C4_11 
REMARK    3  A    between atoms: C4_11  and  C5_12 
REMARK    4  A    between atoms: C5_12  and  O1_13 
REMARK    5  A    between atoms: O1_13  and  C6_14 
REMARK    6  A    between atoms: C6_14  and  C7_15 
REMARK    7  A    between atoms: C7_15  and  N4_16 
REMARK    8  A    between atoms: N4_16  and  C8_19 
REMARK    9  A    between atoms: C8_19  and  C9_20 
REMARK   10  A    between atoms: C9_20  and  O2_21 
REMARK   11  A    between atoms: C9_20  and  C10_23 
REMARK   12  A    between atoms: C12_28  and  O3_29 
ROOT
HETATM    1  C7  UNL     1      32.221 -19.734 -20.435  1.00  0.00     0.258 C 
ENDROOT
BRANCH   1   2
HETATM    2  C6  UNL     1      31.874 -21.154 -20.121  1.00  0.00     0.195 C 
BRANCH   2   3
HETATM    3  O1  UNL     1      31.135 -21.232 -18.970  1.00  0.00    -0.388 OA
BRANCH   3   4
HETATM    4  C5  UNL     1      31.712 -22.144 -18.055  1.00  0.00     0.186 C 
BRANCH   4   5
HETATM    5  C4  UNL     1      31.611 -21.562 -16.670  1.00  0.00     0.142 C 
BRANCH   5   6
HETATM    6  N3  UNL     1      32.871 -20.983 -16.337  1.00  0.00    -0.398 N 
ATOM      7  H3  UNL     1      32.957 -20.215 -15.671  1.00  0.00     0.155 HD
BRANCH   6   8
HETATM    8  C3  UNL     1      34.004 -21.547 -16.995  1.00  0.00     0.197 C 
HETATM    9  C2  UNL     1      34.759 -22.526 -16.080  1.00  0.00     0.169 C 
HETATM   10  N2  UNL     1      35.965 -22.698 -16.908  1.00  0.00    -0.359 N 
HETATM   11  C1  UNL     1      36.248 -21.383 -17.438  1.00  0.00     0.170 C 
ATOM     12  H2  UNL     1      36.487 -23.558 -17.072  1.00  0.00     0.162 HD
HETATM   13  N1  UNL     1      37.387 -21.079 -17.955  1.00  0.00    -0.371 N 
HETATM   14  N6  UNL     1      35.079 -20.598 -17.259  1.00  0.00    -0.340 N 
ATOM     15  H12 UNL     1      38.226 -21.644 -18.084  1.00  0.00     0.159 HD
ATOM     16  H11 UNL     1      37.586 -20.151 -18.328  1.00  0.00     0.159 HD
ATOM     17  H6  UNL     1      35.006 -19.581 -17.305  1.00  0.00     0.164 HD
ENDBRANCH   6   8
ENDBRANCH   5   6
ENDBRANCH   4   5
ENDBRANCH   3   4
ENDBRANCH   2   3
ENDBRANCH   1   2
BRANCH   1  18
HETATM   18  N4  UNL     1      31.297 -18.808 -19.797  1.00  0.00    -0.071 N 
ATOM     19  H42 UNL     1      30.520 -18.594 -20.422  1.00  0.00     0.277 HD
ATOM     20  H41 UNL     1      30.791 -19.273 -19.043  1.00  0.00     0.277 HD
BRANCH  18  21
HETATM   21  C8  UNL     1      31.897 -17.607 -19.324  1.00  0.00     0.268 C 
BRANCH  21  22
HETATM   22  C9  UNL     1      31.916 -17.417 -17.844  1.00  0.00     0.200 C 
BRANCH  22  23
HETATM   23  O2  UNL     1      33.004 -18.217 -17.378  1.00  0.00    -0.389 OA
ATOM     24  H2  UNL     1      33.363 -18.627 -18.156  1.00  0.00     0.210 HD
ENDBRANCH  22  23
BRANCH  22  25
HETATM   25  C10 UNL     1      30.714 -18.054 -17.167  1.00  0.00     0.354 C 
HETATM   26  N5  UNL     1      30.574 -17.760 -15.772  1.00  0.00    -0.042 N 
HETATM   27  C11 UNL     1      29.295 -18.490 -15.514  1.00  0.00     0.295 C 
ATOM     28  H52 UNL     1      31.363 -18.005 -15.176  1.00  0.00     0.280 HD
ATOM     29  H51 UNL     1      30.592 -16.773 -15.514  1.00  0.00     0.280 HD
HETATM   30  C12 UNL     1      28.560 -18.127 -16.811  1.00  0.00     0.285 C 
HETATM   31  O4  UNL     1      29.516 -17.703 -17.719  1.00  0.00    -0.325 OA
BRANCH  30  32
HETATM   32  O3  UNL     1      27.857 -19.235 -17.269  1.00  0.00    -0.369 OA
ATOM     33  H3  UNL     1      28.437 -19.788 -17.778  1.00  0.00     0.212 HD
ENDBRANCH  30  32
ENDBRANCH  22  25
ENDBRANCH  21  22
ENDBRANCH  18  21
ENDBRANCH   1  18
TORSDOF 12
ENDMDL
MODEL 3
REMARK VINA RESULT: -6.635080439      1.393      1.735
REMARK  12 active torsions:
REMARK  status: ('A' for Active; 'I' for Inactive)
REMARK    1  A    between atoms: C3_8  and  N3_9 
REMARK    2  A    between atoms: N3_9  and  C4_11 
REMARK    3  A    between atoms: C4_11  and  C5_12 
REMARK    4  A    between atoms: C5_12  and  O1_13 
REMARK    5  A    between atoms: O1_13  and  C6_14 
REMARK    6  A    between atoms: C6_14  and  C7_15 
REMARK    7  A    between atoms: C7_15  and  N4_16 
REMARK    8  A    between atoms: N4_16  and  C8_19 
REMARK    9  A    between atoms: C8_19  and  C9_20 
REMARK   10  A    between atoms: C9_20  and  O2_21 
REMARK   11  A    between atoms: C9_20  and  C10_23 
REMARK   12  A    between atoms: C12_28  and  O3_29 
ROOT
HETATM    1  C7  UNL     1      31.866 -20.669 -20.179  1.00  0.00     0.258 C 
ENDROOT
BRANCH   1   2
HETATM    2  C6  UNL     1      33.336 -20.691 -19.902  1.00  0.00     0.195 C 
BRANCH   2   3
HETATM    3  O1  UNL     1      33.734 -21.933 -19.484  1.00  0.00    -0.388 OA
BRANCH   3   4
HETATM    4  C5  UNL     1      35.139 -22.071 -19.568  1.00  0.00     0.186 C 
BRANCH   4   5
HETATM    5  C4  UNL     1      35.579 -23.116 -18.576  1.00  0.00     0.142 C 
BRANCH   5   6
HETATM    6  N3  UNL     1      36.069 -22.449 -17.415  1.00  0.00    -0.398 N 
ATOM      7  H3  UNL     1      37.024 -22.093 -17.356  1.00  0.00     0.155 HD
BRANCH   6   8
HETATM    8  C3  UNL     1      35.140 -22.311 -16.342  1.00  0.00     0.197 C 
HETATM    9  C2  UNL     1      34.149 -23.487 -16.299  1.00  0.00     0.169 C 
HETATM   10  N2  UNL     1      33.203 -22.928 -15.320  1.00  0.00    -0.359 N 
HETATM   11  C1  UNL     1      33.097 -21.526 -15.657  1.00  0.00     0.170 C 
ATOM     12  H2  UNL     1      32.725 -23.422 -14.566  1.00  0.00     0.162 HD
HETATM   13  N1  UNL     1      32.143 -20.782 -15.219  1.00  0.00    -0.371 N 
HETATM   14  N6  UNL     1      34.193 -21.215 -16.504  1.00  0.00    -0.340 N 
ATOM     15  H12 UNL     1      31.356 -21.006 -14.610  1.00  0.00     0.159 HD
ATOM     16  H11 UNL     1      32.069 -19.793 -15.457  1.00  0.00     0.159 HD
ATOM     17  H6  UNL     1      34.296 -20.395 -17.102  1.00  0.00     0.164 HD
ENDBRANCH   6   8
ENDBRANCH   5   6
ENDBRANCH   4   5
ENDBRANCH   3   4
ENDBRANCH   2   3
ENDBRANCH   1   2
BRANCH   1  18
HETATM   18  N4  UNL     1      31.215 -19.556 -19.503  1.00  0.00    -0.071 N 
ATOM     19  H42 UNL     1      30.375 -19.275 -20.009  1.00  0.00     0.277 HD
ATOM     20  H41 UNL     1      30.795 -19.868 -18.627  1.00  0.00     0.277 HD
BRANCH  18  21
HETATM   21  C8  UNL     1      32.055 -18.430 -19.276  1.00  0.00     0.268 C 
BRANCH  21  22
HETATM   22  C9  UNL     1      31.935 -17.775 -17.940  1.00  0.00     0.200 C 
BRANCH  22  23
HETATM   23  O2  UNL     1      32.981 -18.343 -17.149  1.00  0.00    -0.389 OA
ATOM     24  H2  UNL     1      32.650 -18.339 -16.259  1.00  0.00     0.210 HD
ENDBRANCH  22  23
BRANCH  22  25
HETATM   25  C10 UNL     1      30.680 -18.206 -17.200  1.00  0.00     0.354 C 
HETATM   26  N5  UNL     1      30.565 -17.714 -15.860  1.00  0.00    -0.042 N 
HETATM   27  C11 UNL     1      29.225 -18.287 -15.523  1.00  0.00     0.295 C 
ATOM     28  H52 UNL     1      31.328 -17.945 -15.225  1.00  0.00     0.280 HD
ATOM     29  H51 UNL     1      30.671 -16.707 -15.736  1.00  0.00     0.280 HD
HETATM   30  C12 UNL     1      28.528 -18.039 -16.866  1.00  0.00     0.285 C 
HETATM   31  O4  UNL     1      29.519 -17.828 -17.810  1.00  0.00    -0.325 OA
BRANCH  30  32
HETATM   32  O3  UNL     1      27.729 -19.133 -17.180  1.00  0.00    -0.369 OA
ATOM     33  H3  UNL     1      26.840 -18.839 -17.340  1.00  0.00     0.212 HD
ENDBRANCH  30  32
ENDBRANCH  22  25
ENDBRANCH  21  22
ENDBRANCH  18  21
ENDBRANCH   1  18
TORSDOF 12
ENDMDL
MODEL 4
REMARK VINA RESULT: -6.600501094      2.191      5.387
REMARK  12 active torsions:
REMARK  status: ('A' for Active; 'I' for Inactive)
REMARK    1  A    between atoms: C3_8  and  N3_9 
REMARK    2  A    between atoms: N3_9  and  C4_11 
REMARK    3  A    between atoms: C4_11  and  C5_12 
REMARK    4  A    between atoms: C5_12  and  O1_13 
REMARK    5  A    between atoms: O1_13  and  C6_14 
REMARK    6  A    between atoms: C6_14  and  C7_15 
REMARK    7  A    between atoms: C7_15  and  N4_16 
REMARK    8  A    between atoms: N4_16  and  C8_19 
REMARK    9  A    between atoms: C8_19  and  C9_20 
REMARK   10  A    between atoms: C9_20  and  O2_21 
REMARK   11  A    between atoms: C9_20  and  C10_23 
REMARK   12  A    between atoms: C12_28  and  O3_29 
ROOT
HETATM    1  C7  UNL     1      32.153 -21.068 -21.053  1.00  0.00     0.258 C 
ENDROOT
BRANCH   1   2
HETATM    2  C6  UNL     1      31.350 -19.836 -21.322  1.00  0.00     0.195 C 
BRANCH   2   3
HETATM    3  O1  UNL     1      31.055 -19.182 -20.155  1.00  0.00    -0.388 OA
BRANCH   3   4
HETATM    4  C5  UNL     1      31.785 -17.974 -20.050  1.00  0.00     0.186 C 
BRANCH   4   5
HETATM    5  C4  UNL     1      31.483 -17.345 -18.716  1.00  0.00     0.142 C 
BRANCH   5   6
HETATM    6  N3  UNL     1      30.334 -17.991 -18.169  1.00  0.00    -0.398 N 
ATOM      7  H3  UNL     1      29.434 -17.996 -18.650  1.00  0.00     0.155 HD
BRANCH   6   8
HETATM    8  C3  UNL     1      30.524 -18.627 -16.907  1.00  0.00     0.197 C 
HETATM    9  C2  UNL     1      31.310 -17.730 -15.935  1.00  0.00     0.169 C 
HETATM   10  N2  UNL     1      31.573 -18.733 -14.890  1.00  0.00    -0.359 N 
HETATM   11  C1  UNL     1      31.868 -19.954 -15.606  1.00  0.00     0.170 C 
ATOM     12  H2  UNL     1      31.551 -18.597 -13.880  1.00  0.00     0.162 HD
HETATM   13  N1  UNL     1      32.437 -20.962 -15.044  1.00  0.00    -0.371 N 
HETATM   14  N6  UNL     1      31.423 -19.775 -16.942  1.00  0.00    -0.340 N 
ATOM     15  H12 UNL     1      32.757 -21.090 -14.085  1.00  0.00     0.159 HD
ATOM     16  H11 UNL     1      32.646 -21.823 -15.550  1.00  0.00     0.159 HD
ATOM     17  H6  UNL     1      31.677 -20.333 -17.757  1.00  0.00     0.164 HD
ENDBRANCH   6   8
ENDBRANCH   5   6
ENDBRANCH   4   5
ENDBRANCH   3   4
ENDBRANCH   2   3
ENDBRANCH   1   2
BRANCH   1  18
HETATM   18  N4  UNL     1      31.779 -21.680 -19.785  1.00  0.00    -0.071 N 
ATOM     19  H42 UNL     1      32.110 -21.111 -19.006  1.00  0.00     0.277 HD
ATOM     20  H41 UNL     1      30.772 -21.607 -19.640  1.00  0.00     0.277 HD
BRANCH  18  21
HETATM   21  C8  UNL     1      32.207 -23.028 -19.632  1.00  0.00     0.268 C 
BRANCH  21  22
HETATM   22  C9  UNL     1      32.170 -23.578 -18.245  1.00  0.00     0.200 C 
BRANCH  22  23
HETATM   23  O2  UNL     1      31.273 -22.729 -17.528  1.00  0.00    -0.389 OA
ATOM     24  H2  UNL     1      31.325 -23.017 -16.625  1.00  0.00     0.210 HD
ENDBRANCH  22  23
BRANCH  22  25
HETATM   25  C10 UNL     1      33.485 -23.377 -17.512  1.00  0.00     0.354 C 
HETATM   26  N5  UNL     1      34.615 -24.036 -18.097  1.00  0.00    -0.042 N 
HETATM   27  C11 UNL     1      35.671 -23.555 -17.154  1.00  0.00     0.295 C 
ATOM     28  H52 UNL     1      34.540 -25.046 -18.215  1.00  0.00     0.280 HD
ATOM     29  H51 UNL     1      34.779 -23.860 -19.088  1.00  0.00     0.280 HD
HETATM   30  C12 UNL     1      35.186 -22.109 -16.987  1.00  0.00     0.285 C 
HETATM   31  O4  UNL     1      33.865 -22.070 -17.401  1.00  0.00    -0.325 OA
BRANCH  30  32
HETATM   32  O3  UNL     1      35.330 -21.724 -15.659  1.00  0.00    -0.369 OA
ATOM     33  H3  UNL     1      35.577 -20.808 -15.621  1.00  0.00     0.212 HD
ENDBRANCH  30  32
ENDBRANCH  22  25
ENDBRANCH  21  22
ENDBRANCH  18  21
ENDBRANCH   1  18
TORSDOF 12
ENDMDL
MODEL 5
REMARK VINA RESULT: -6.504521296      1.774      2.540
REMARK  12 active torsions:
REMARK  status: ('A' for Active; 'I' for Inactive)
REMARK    1  A    between atoms: C3_8  and  N3_9 
REMARK    2  A    between atoms: N3_9  and  C4_11 
REMARK    3  A    between atoms: C4_11  and  C5_12 
REMARK    4  A    between atoms: C5_12  and  O1_13 
REMARK    5  A    between atoms: O1_13  and  C6_14 
REMARK    6  A    between atoms: C6_14  and  C7_15 
REMARK    7  A    between atoms: C7_15  and  N4_16 
REMARK    8  A    between atoms: N4_16  and  C8_19 
REMARK    9  A    between atoms: C8_19  and  C9_20 
REMARK   10  A    between atoms: C9_20  and  O2_21 
REMARK   11  A    between atoms: C9_20  and  C10_23 
REMARK   12  A    between atoms: C12_28  and  O3_29 
ROOT
HETATM    1  C7  UNL     1      33.607 -19.697 -20.190  1.00  0.00     0.258 C 
ENDROOT
BRANCH   1   2
HETATM    2  C6  UNL     1      34.881 -20.171 -19.565  1.00  0.00     0.195 C 
BRANCH   2   3
HETATM    3  O1  UNL     1      35.193 -19.416 -18.466  1.00  0.00    -0.388 OA
BRANCH   3   4
HETATM    4  C5  UNL     1      36.360 -19.902 -17.830  1.00  0.00     0.186 C 
BRANCH   4   5
HETATM    5  C4  UNL     1      36.196 -21.380 -17.592  1.00  0.00     0.142 C 
BRANCH   5   6
HETATM    6  N3  UNL     1      35.695 -21.565 -16.270  1.00  0.00    -0.398 N 
ATOM      7  H3  UNL     1      36.254 -21.352 -15.443  1.00  0.00     0.155 HD
BRANCH   6   8
HETATM    8  C3  UNL     1      34.363 -22.067 -16.177  1.00  0.00     0.197 C 
HETATM    9  C2  UNL     1      34.054 -23.058 -17.312  1.00  0.00     0.169 C 
HETATM   10  N2  UNL     1      32.599 -23.160 -17.109  1.00  0.00    -0.359 N 
HETATM   11  C1  UNL     1      32.168 -21.817 -16.791  1.00  0.00     0.170 C 
ATOM     12  H2  UNL     1      32.020 -23.997 -17.178  1.00  0.00     0.162 HD
HETATM   13  N1  UNL     1      30.934 -21.459 -16.847  1.00  0.00    -0.371 N 
HETATM   14  N6  UNL     1      33.328 -21.076 -16.445  1.00  0.00    -0.340 N 
ATOM     15  H12 UNL     1      30.101 -21.992 -17.096  1.00  0.00     0.159 HD
ATOM     16  H11 UNL     1      30.630 -20.511 -16.623  1.00  0.00     0.159 HD
ATOM     17  H6  UNL     1      33.418 -20.061 -16.393  1.00  0.00     0.164 HD
ENDBRANCH   6   8
ENDBRANCH   5   6
ENDBRANCH   4   5
ENDBRANCH   3   4
ENDBRANCH   2   3
ENDBRANCH   1   2
BRANCH   1  18
HETATM   18  N4  UNL     1      33.293 -18.333 -19.788  1.00  0.00    -0.071 N 
ATOM     19  H42 UNL     1      33.972 -17.999 -19.105  1.00  0.00     0.277 HD
ATOM     20  H41 UNL     1      33.483 -17.685 -20.553  1.00  0.00     0.277 HD
BRANCH  18  21
HETATM   21  C8  UNL     1      31.969 -18.151 -19.301  1.00  0.00     0.268 C 
BRANCH  21  22
HETATM   22  C9  UNL     1      31.843 -17.575 -17.930  1.00  0.00     0.200 C 
BRANCH  22  23
HETATM   23  O2  UNL     1      32.935 -18.125 -17.191  1.00  0.00    -0.389 OA
ATOM     24  H2  UNL     1      32.583 -18.312 -16.328  1.00  0.00     0.210 HD
ENDBRANCH  22  23
BRANCH  22  25
HETATM   25  C10 UNL     1      30.629 -18.113 -17.190  1.00  0.00     0.354 C 
HETATM   26  N5  UNL     1      30.535 -17.726 -15.814  1.00  0.00    -0.042 N 
HETATM   27  C11 UNL     1      29.231 -18.379 -15.484  1.00  0.00     0.295 C 
ATOM     28  H52 UNL     1      31.326 -17.971 -15.219  1.00  0.00     0.280 HD
ATOM     29  H51 UNL     1      30.603 -16.728 -15.619  1.00  0.00     0.280 HD
HETATM   30  C12 UNL     1      28.483 -18.064 -16.786  1.00  0.00     0.285 C 
HETATM   31  O4  UNL     1      29.436 -17.741 -17.738  1.00  0.00    -0.325 OA
BRANCH  30  32
HETATM   32  O3  UNL     1      27.721 -19.164 -17.160  1.00  0.00    -0.369 OA
ATOM     33  H3  UNL     1      26.804 -18.917 -17.192  1.00  0.00     0.212 HD
ENDBRANCH  30  32
ENDBRANCH  22  25
ENDBRANCH  21  22
ENDBRANCH  18  21
ENDBRANCH   1  18
TORSDOF 12
ENDMDL
