MODEL 1
REMARK VINA RESULT: -6.514926365      0.000      0.000
REMARK  13 active torsions:
REMARK  status: ('A' for Active; 'I' for Inactive)
REMARK       I    between atoms: C1_4  and  N3_6 
REMARK    1  A    between atoms: N3_6  and  C2_8 
REMARK    2  A    between atoms: C3_9  and  C4_10 
REMARK    3  A    between atoms: C4_10  and  N4_11 
REMARK    4  A    between atoms: C5_18  and  O1_19 
REMARK    5  A    between atoms: O1_19  and  C6_20 
REMARK    6  A    between atoms: C6_20  and  C7_21 
REMARK    7  A    between atoms: C7_21  and  O2_22 
REMARK    8  A    between atoms: O2_22  and  C8_23 
REMARK    9  A    between atoms: C8_23  and  C9_24 
REMARK   10  A    between atoms: C9_24  and  C10_25 
REMARK   11  A    between atoms: C10_25  and  N6_26 
REMARK   12  A    between atoms: C11_30  and  O3_31 
REMARK   13  A    between atoms: C12_33  and  O4_34 
ROOT
HETATM    1  C2  UNL     1      31.227 -19.807 -17.423  1.00  0.00     0.148 C 
HETATM    2  C3  UNL     1      30.591 -18.496 -17.239  1.00  0.00     0.239 C 
HETATM    3  N5  UNL     1      30.413 -17.819 -18.506  1.00  0.00    -0.038 N 
ATOM      4  H51 UNL     1      30.240 -16.825 -18.360  1.00  0.00     0.281 HD
ATOM      5  H52 UNL     1      29.527 -18.087 -18.934  1.00  0.00     0.281 HD
HETATM    6  C5  UNL     1      31.506 -18.014 -19.432  1.00  0.00     0.353 C 
HETATM    7  C11 UNL     1      31.540 -19.466 -19.904  1.00  0.00     0.205 C 
HETATM    8  C12 UNL     1      31.132 -20.403 -18.809  1.00  0.00     0.176 C 
ENDROOT
BRANCH   6   9
HETATM    9  O1  UNL     1      32.643 -17.593 -18.875  1.00  0.00    -0.355 OA
BRANCH   9  10
HETATM   10  C6  UNL     1      33.867 -17.894 -19.313  1.00  0.00     0.197 C 
BRANCH  10  11
HETATM   11  C7  UNL     1      34.817 -18.220 -18.196  1.00  0.00     0.193 C 
BRANCH  11  12
HETATM   12  O2  UNL     1      35.106 -19.550 -18.150  1.00  0.00    -0.389 OA
BRANCH  12  13
HETATM   13  C8  UNL     1      36.428 -19.861 -17.931  1.00  0.00     0.169 C 
BRANCH  13  14
HETATM   14  C9  UNL     1      36.745 -21.321 -18.019  1.00  0.00     0.053 C 
BRANCH  14  15
HETATM   15  C10 UNL     1      35.650 -22.110 -17.311  1.00  0.00     0.231 C 
BRANCH  15  16
HETATM   16  N6  UNL     1      35.487 -21.692 -15.941  1.00  0.00    -0.079 N 
ATOM     17  H63 UNL     1      36.099 -22.218 -15.318  1.00  0.00     0.274 HD
ATOM     18  H62 UNL     1      35.868 -20.758 -15.790  1.00  0.00     0.274 HD
ATOM     19  H61 UNL     1      34.514 -21.748 -15.639  1.00  0.00     0.274 HD
ENDBRANCH  15  16
ENDBRANCH  14  15
ENDBRANCH  13  14
ENDBRANCH  12  13
ENDBRANCH  11  12
ENDBRANCH  10  11
ENDBRANCH   9  10
ENDBRANCH   6   9
BRANCH   7  20
HETATM   20  O3  UNL     1      30.712 -19.636 -21.009  1.00  0.00    -0.389 OA
ATOM     21  H3  UNL     1      31.179 -20.081 -21.706  1.00  0.00     0.210 HD
ENDBRANCH   7  20
BRANCH   2  22
HETATM   22  C4  UNL     1      29.345 -18.463 -16.406  1.00  0.00     0.265 C 
BRANCH  22  23
HETATM   23  N4  UNL     1      28.171 -18.963 -16.999  1.00  0.00    -0.077 N 
ATOM     24  H43 UNL     1      28.278 -19.962 -17.177  1.00  0.00     0.274 HD
ATOM     25  H42 UNL     1      27.419 -18.976 -16.309  1.00  0.00     0.274 HD
ATOM     26  H41 UNL     1      27.850 -18.498 -17.848  1.00  0.00     0.274 HD
ENDBRANCH  22  23
ENDBRANCH   2  22
BRANCH   8  27
HETATM   27  O4  UNL     1      29.807 -20.784 -18.996  1.00  0.00    -0.391 OA
ATOM     28  H4  UNL     1      29.759 -21.213 -19.843  1.00  0.00     0.210 HD
ENDBRANCH   8  27
BRANCH   1  29
HETATM   29  N3  UNL     1      30.951 -20.777 -16.397  1.00  0.00    -0.356 N 
HETATM   30  C1  UNL     1      31.949 -21.134 -15.471  1.00  0.00     0.182 C 
HETATM   31  N1  UNL     1      32.302 -20.231 -14.628  1.00  0.00    -0.374 N 
HETATM   32  N2  UNL     1      32.573 -22.396 -15.414  1.00  0.00    -0.064 NA
ATOM     33  H12 UNL     1      33.025 -20.490 -13.957  1.00  0.00     0.158 HD
ATOM     34  H11 UNL     1      31.850 -19.318 -14.670  1.00  0.00     0.158 HD
ATOM     35  H3  UNL     1      30.028 -21.208 -16.341  1.00  0.00     0.162 HD
ENDBRANCH   1  29
TORSDOF 13
ENDMDL
MODEL 2
REMARK VINA RESULT: -6.022480495      1.796      3.750
REMARK  13 active torsions:
REMARK  status: ('A' for Active; 'I' for Inactive)
REMARK       I    between atoms: C1_4  and  N3_6 
REMARK    1  A    between atoms: N3_6  and  C2_8 
REMARK    2  A    between atoms: C3_9  and  C4_10 
REMARK    3  A    between atoms: C4_10  and  N4_11 
REMARK    4  A    between atoms: C5_18  and  O1_19 
REMARK    5  A    between atoms: O1_19  and  C6_20 
REMARK    6  A    between atoms: C6_20  and  C7_21 
REMARK    7  A    between atoms: C7_21  and  O2_22 
REMARK    8  A    between atoms: O2_22  and  C8_23 
REMARK    9  A    between atoms: C8_23  and  C9_24 
REMARK   10  A    between atoms: C9_24  and  C10_25 
REMARK   11  A    between atoms: C10_25  and  N6_26 
REMARK   12  A    between atoms: C11_30  and  O3_31 
REMARK   13  A    between atoms: C12_33  and  O4_34 
ROOT
HETATM    1  C2  UNL     1      31.334 -19.986 -17.529  1.00  0.00     0.148 C 
HETATM    2  C3  UNL     1      30.781 -18.646 -17.303  1.00  0.00     0.239 C 
HETATM    3  N5  UNL     1      30.582 -17.945 -18.554  1.00  0.00    -0.038 N 
ATOM      4  H51 UNL     1      30.470 -16.944 -18.390  1.00  0.00     0.281 HD
ATOM      5  H52 UNL     1      29.663 -18.158 -18.942  1.00  0.00     0.281 HD
HETATM    6  C5  UNL     1      31.618 -18.188 -19.532  1.00  0.00     0.353 C 
HETATM    7  C11 UNL     1      31.549 -19.634 -20.019  1.00  0.00     0.205 C 
HETATM    8  C12 UNL     1      31.142 -20.560 -18.915  1.00  0.00     0.176 C 
ENDROOT
BRANCH   6   9
HETATM    9  O1  UNL     1      32.801 -17.837 -19.026  1.00  0.00    -0.355 OA
BRANCH   9  10
HETATM   10  C6  UNL     1      33.983 -18.264 -19.474  1.00  0.00     0.197 C 
BRANCH  10  11
HETATM   11  C7  UNL     1      34.687 -17.240 -20.318  1.00  0.00     0.193 C 
BRANCH  11  12
HETATM   12  O2  UNL     1      33.999 -16.969 -21.463  1.00  0.00    -0.389 OA
BRANCH  12  13
HETATM   13  C8  UNL     1      33.773 -15.636 -21.715  1.00  0.00     0.169 C 
BRANCH  13  14
HETATM   14  C9  UNL     1      32.365 -15.189 -21.472  1.00  0.00     0.053 C 
BRANCH  14  15
HETATM   15  C10 UNL     1      31.515 -15.545 -22.686  1.00  0.00     0.231 C 
BRANCH  15  16
HETATM   16  N6  UNL     1      31.114 -16.930 -22.674  1.00  0.00    -0.079 N 
ATOM     17  H63 UNL     1      30.567 -17.165 -23.502  1.00  0.00     0.274 HD
ATOM     18  H62 UNL     1      31.910 -17.548 -22.827  1.00  0.00     0.274 HD
ATOM     19  H61 UNL     1      30.615 -17.174 -21.819  1.00  0.00     0.274 HD
ENDBRANCH  15  16
ENDBRANCH  14  15
ENDBRANCH  13  14
ENDBRANCH  12  13
ENDBRANCH  11  12
ENDBRANCH  10  11
ENDBRANCH   9  10
ENDBRANCH   6   9
BRANCH   7  20
HETATM   20  O3  UNL     1      30.663 -19.745 -21.084  1.00  0.00    -0.389 OA
ATOM     21  H3  UNL     1      30.788 -20.573 -21.534  1.00  0.00     0.210 HD
ENDBRANCH   7  20
BRANCH   2  22
HETATM   22  C4  UNL     1      29.579 -18.553 -16.411  1.00  0.00     0.265 C 
BRANCH  22  23
HETATM   23  N4  UNL     1      28.346 -18.939 -16.967  1.00  0.00    -0.077 N 
ATOM     24  H43 UNL     1      27.790 -18.110 -17.176  1.00  0.00     0.274 HD
ATOM     25  H42 UNL     1      28.495 -19.306 -17.908  1.00  0.00     0.274 HD
ATOM     26  H41 UNL     1      27.784 -19.599 -16.428  1.00  0.00     0.274 HD
ENDBRANCH  22  23
ENDBRANCH   2  22
BRANCH   8  27
HETATM   27  O4  UNL     1      29.790 -20.865 -19.042  1.00  0.00    -0.391 OA
ATOM     28  H4  UNL     1      29.584 -20.824 -19.969  1.00  0.00     0.210 HD
ENDBRANCH   8  27
BRANCH   1  29
HETATM   29  N3  UNL     1      31.053 -20.952 -16.500  1.00  0.00    -0.356 N 
HETATM   30  C1  UNL     1      32.029 -21.266 -15.536  1.00  0.00     0.182 C 
HETATM   31  N1  UNL     1      32.325 -20.342 -14.693  1.00  0.00    -0.374 N 
HETATM   32  N2  UNL     1      32.690 -22.508 -15.440  1.00  0.00    -0.064 NA
ATOM     33  H12 UNL     1      33.032 -20.570 -13.994  1.00  0.00     0.158 HD
ATOM     34  H11 UNL     1      31.846 -19.445 -14.763  1.00  0.00     0.158 HD
ATOM     35  H3  UNL     1      30.143 -21.411 -16.470  1.00  0.00     0.162 HD
ENDBRANCH   1  29
TORSDOF 13
ENDMDL
MODEL 3
REMARK VINA RESULT: -5.999567429      3.089      5.182
REMARK  13 active torsions:
REMARK  status: ('A' for Active; 'I' for Inactive)
REMARK       I    between atoms: C1_4  and  N3_6 
REMARK    1  A    between atoms: N3_6  and  C2_8 
REMARK    2  A    between atoms: C3_9  and  C4_10 
REMARK    3  A    between atoms: C4_10  and  N4_11 
REMARK    4  A    between atoms: C5_18  and  O1_19 
REMARK    5  A    between atoms: O1_19  and  C6_20 
REMARK    6  A    between atoms: C6_20  and  C7_21 
REMARK    7  A    between atoms: C7_21  and  O2_22 
REMARK    8  A    between atoms: O2_22  and  C8_23 
REMARK    9  A    between atoms: C8_23  and  C9_24 
REMARK   10  A    between atoms: C9_24  and  C10_25 
REMARK   11  A    between atoms: C10_25  and  N6_26 
REMARK   12  A    between atoms: C11_30  and  O3_31 
REMARK   13  A    between atoms: C12_33  and  O4_34 
ROOT
HETATM    1  C2  UNL     1      31.955 -20.564 -17.545  1.00  0.00     0.148 C 
HETATM    2  C3  UNL     1      31.709 -20.894 -16.136  1.00  0.00     0.239 C 
HETATM    3  N5  UNL     1      32.929 -21.301 -15.473  1.00  0.00    -0.038 N 
ATOM      4  H51 UNL     1      32.719 -21.787 -14.602  1.00  0.00     0.281 HD
ATOM      5  H52 UNL     1      33.424 -20.490 -15.102  1.00  0.00     0.281 HD
HETATM    6  C5  UNL     1      33.806 -22.097 -16.301  1.00  0.00     0.353 C 
HETATM    7  C11 UNL     1      34.382 -21.243 -17.428  1.00  0.00     0.205 C 
HETATM    8  C12 UNL     1      33.384 -20.236 -17.911  1.00  0.00     0.176 C 
ENDROOT
BRANCH   6   9
HETATM    9  O1  UNL     1      33.159 -23.187 -16.718  1.00  0.00    -0.355 OA
BRANCH   9  10
HETATM   10  C6  UNL     1      33.350 -23.789 -17.893  1.00  0.00     0.197 C 
BRANCH  10  11
HETATM   11  C7  UNL     1      32.068 -24.031 -18.637  1.00  0.00     0.193 C 
BRANCH  11  12
HETATM   12  O2  UNL     1      31.934 -23.190 -19.700  1.00  0.00    -0.389 OA
BRANCH  12  13
HETATM   13  C8  UNL     1      32.990 -23.179 -20.581  1.00  0.00     0.169 C 
BRANCH  13  14
HETATM   14  C9  UNL     1      33.024 -24.342 -21.523  1.00  0.00     0.053 C 
BRANCH  14  15
HETATM   15  C10 UNL     1      31.751 -24.340 -22.360  1.00  0.00     0.231 C 
BRANCH  15  16
HETATM   16  N6  UNL     1      31.284 -23.003 -22.626  1.00  0.00    -0.079 N 
ATOM     17  H63 UNL     1      31.973 -22.468 -23.153  1.00  0.00     0.274 HD
ATOM     18  H62 UNL     1      30.525 -23.003 -23.308  1.00  0.00     0.274 HD
ATOM     19  H61 UNL     1      31.012 -22.518 -21.771  1.00  0.00     0.274 HD
ENDBRANCH  15  16
ENDBRANCH  14  15
ENDBRANCH  13  14
ENDBRANCH  12  13
ENDBRANCH  11  12
ENDBRANCH  10  11
ENDBRANCH   9  10
ENDBRANCH   6   9
BRANCH   7  20
HETATM   20  O3  UNL     1      35.540 -20.599 -17.004  1.00  0.00    -0.389 OA
ATOM     21  H3  UNL     1      36.309 -21.092 -17.268  1.00  0.00     0.210 HD
ENDBRANCH   7  20
BRANCH   2  22
HETATM   22  C4  UNL     1      30.944 -19.885 -15.331  1.00  0.00     0.265 C 
BRANCH  22  23
HETATM   23  N4  UNL     1      31.651 -18.746 -14.904  1.00  0.00    -0.077 N 
ATOM     24  H43 UNL     1      32.431 -18.572 -15.537  1.00  0.00     0.274 HD
ATOM     25  H42 UNL     1      31.086 -17.912 -15.068  1.00  0.00     0.274 HD
ATOM     26  H41 UNL     1      31.987 -18.748 -13.941  1.00  0.00     0.274 HD
ENDBRANCH  22  23
ENDBRANCH   2  22
BRANCH   8  27
HETATM   27  O4  UNL     1      33.671 -18.995 -17.352  1.00  0.00    -0.391 OA
ATOM     28  H4  UNL     1      34.602 -18.847 -17.470  1.00  0.00     0.210 HD
ENDBRANCH   8  27
BRANCH   1  29
HETATM   29  N3  UNL     1      31.021 -19.644 -18.137  1.00  0.00    -0.356 N 
HETATM   30  C1  UNL     1      30.949 -19.507 -19.536  1.00  0.00     0.182 C 
HETATM   31  N1  UNL     1      30.489 -20.512 -20.191  1.00  0.00    -0.374 N 
HETATM   32  N2  UNL     1      31.343 -18.357 -20.249  1.00  0.00    -0.064 NA
ATOM     33  H12 UNL     1      30.437 -20.412 -21.204  1.00  0.00     0.158 HD
ATOM     34  H11 UNL     1      30.204 -21.344 -19.674  1.00  0.00     0.158 HD
ATOM     35  H3  UNL     1      30.407 -19.089 -17.540  1.00  0.00     0.162 HD
ENDBRANCH   1  29
TORSDOF 13
ENDMDL
MODEL 4
REMARK VINA RESULT: -5.931896056      2.646      3.887
REMARK  13 active torsions:
REMARK  status: ('A' for Active; 'I' for Inactive)
REMARK       I    between atoms: C1_4  and  N3_6 
REMARK    1  A    between atoms: N3_6  and  C2_8 
REMARK    2  A    between atoms: C3_9  and  C4_10 
REMARK    3  A    between atoms: C4_10  and  N4_11 
REMARK    4  A    between atoms: C5_18  and  O1_19 
REMARK    5  A    between atoms: O1_19  and  C6_20 
REMARK    6  A    between atoms: C6_20  and  C7_21 
REMARK    7  A    between atoms: C7_21  and  O2_22 
REMARK    8  A    between atoms: O2_22  and  C8_23 
REMARK    9  A    between atoms: C8_23  and  C9_24 
REMARK   10  A    between atoms: C9_24  and  C10_25 
REMARK   11  A    between atoms: C10_25  and  N6_26 
REMARK   12  A    between atoms: C11_30  and  O3_31 
REMARK   13  A    between atoms: C12_33  and  O4_34 
ROOT
HETATM    1  C2  UNL     1      31.262 -19.907 -17.659  1.00  0.00     0.148 C 
HETATM    2  C3  UNL     1      30.739 -18.542 -17.524  1.00  0.00     0.239 C 
HETATM    3  N5  UNL     1      30.558 -17.920 -18.818  1.00  0.00    -0.038 N 
ATOM      4  H51 UNL     1      30.468 -16.909 -18.720  1.00  0.00     0.281 HD
ATOM      5  H52 UNL     1      29.636 -18.139 -19.195  1.00  0.00     0.281 HD
HETATM    6  C5  UNL     1      31.590 -18.250 -19.774  1.00  0.00     0.353 C 
HETATM    7  C11 UNL     1      31.492 -19.723 -20.165  1.00  0.00     0.205 C 
HETATM    8  C12 UNL     1      31.060 -20.566 -19.005  1.00  0.00     0.176 C 
ENDROOT
BRANCH   6   9
HETATM    9  O1  UNL     1      32.780 -17.892 -19.287  1.00  0.00    -0.355 OA
BRANCH   9  10
HETATM   10  C6  UNL     1      33.772 -17.358 -20.003  1.00  0.00     0.197 C 
BRANCH  10  11
HETATM   11  C7  UNL     1      33.275 -16.477 -21.113  1.00  0.00     0.193 C 
BRANCH  11  12
HETATM   12  O2  UNL     1      34.059 -15.374 -21.272  1.00  0.00    -0.389 OA
BRANCH  12  13
HETATM   13  C8  UNL     1      34.983 -15.447 -22.288  1.00  0.00     0.169 C 
BRANCH  13  14
HETATM   14  C9  UNL     1      36.408 -15.417 -21.832  1.00  0.00     0.053 C 
BRANCH  14  15
HETATM   15  C10 UNL     1      36.993 -14.040 -22.120  1.00  0.00     0.231 C 
BRANCH  15  16
HETATM   16  N6  UNL     1      36.184 -12.985 -21.561  1.00  0.00    -0.079 N 
ATOM     17  H63 UNL     1      35.500 -12.646 -22.237  1.00  0.00     0.274 HD
ATOM     18  H62 UNL     1      35.545 -13.344 -20.852  1.00  0.00     0.274 HD
ATOM     19  H61 UNL     1      36.753 -12.223 -21.195  1.00  0.00     0.274 HD
ENDBRANCH  15  16
ENDBRANCH  14  15
ENDBRANCH  13  14
ENDBRANCH  12  13
ENDBRANCH  11  12
ENDBRANCH  10  11
ENDBRANCH   9  10
ENDBRANCH   6   9
BRANCH   7  20
HETATM   20  O3  UNL     1      30.605 -19.883 -21.225  1.00  0.00    -0.389 OA
ATOM     21  H3  UNL     1      29.742 -20.114 -20.903  1.00  0.00     0.210 HD
ENDBRANCH   7  20
BRANCH   2  22
HETATM   22  C4  UNL     1      29.536 -18.366 -16.644  1.00  0.00     0.265 C 
BRANCH  22  23
HETATM   23  N4  UNL     1      28.330 -18.932 -17.097  1.00  0.00    -0.077 N 
ATOM     24  H43 UNL     1      28.314 -18.930 -18.117  1.00  0.00     0.274 HD
ATOM     25  H42 UNL     1      28.333 -19.935 -16.911  1.00  0.00     0.274 HD
ATOM     26  H41 UNL     1      27.467 -18.521 -16.741  1.00  0.00     0.274 HD
ENDBRANCH  22  23
ENDBRANCH   2  22
BRANCH   8  27
HETATM   27  O4  UNL     1      29.703 -20.849 -19.118  1.00  0.00    -0.391 OA
ATOM     28  H4  UNL     1      29.506 -20.893 -20.046  1.00  0.00     0.210 HD
ENDBRANCH   8  27
BRANCH   1  29
HETATM   29  N3  UNL     1      30.957 -20.796 -16.571  1.00  0.00    -0.356 N 
HETATM   30  C1  UNL     1      31.900 -21.019 -15.550  1.00  0.00     0.182 C 
HETATM   31  N1  UNL     1      32.149 -20.028 -14.770  1.00  0.00    -0.374 N 
HETATM   32  N2  UNL     1      32.577 -22.237 -15.335  1.00  0.00    -0.064 NA
ATOM     33  H12 UNL     1      32.832 -20.190 -14.030  1.00  0.00     0.158 HD
ATOM     34  H11 UNL     1      31.659 -19.147 -14.925  1.00  0.00     0.158 HD
ATOM     35  H3  UNL     1      30.054 -21.269 -16.539  1.00  0.00     0.162 HD
ENDBRANCH   1  29
TORSDOF 13
ENDMDL
MODEL 5
REMARK VINA RESULT: -5.929231676      1.908      3.424
REMARK  13 active torsions:
REMARK  status: ('A' for Active; 'I' for Inactive)
REMARK       I    between atoms: C1_4  and  N3_6 
REMARK    1  A    between atoms: N3_6  and  C2_8 
REMARK    2  A    between atoms: C3_9  and  C4_10 
REMARK    3  A    between atoms: C4_10  and  N4_11 
REMARK    4  A    between atoms: C5_18  and  O1_19 
REMARK    5  A    between atoms: O1_19  and  C6_20 
REMARK    6  A    between atoms: C6_20  and  C7_21 
REMARK    7  A    between atoms: C7_21  and  O2_22 
REMARK    8  A    between atoms: O2_22  and  C8_23 
REMARK    9  A    between atoms: C8_23  and  C9_24 
REMARK   10  A    between atoms: C9_24  and  C10_25 
REMARK   11  A    between atoms: C10_25  and  N6_26 
REMARK   12  A    between atoms: C11_30  and  O3_31 
REMARK   13  A    between atoms: C12_33  and  O4_34 
ROOT
HETATM    1  C2  UNL     1      31.218 -19.196 -18.180  1.00  0.00     0.148 C 
HETATM    2  C3  UNL     1      32.182 -18.673 -19.155  1.00  0.00     0.239 C 
HETATM    3  N5  UNL     1      32.900 -19.747 -19.808  1.00  0.00    -0.038 N 
ATOM      4  H51 UNL     1      33.741 -19.391 -20.262  1.00  0.00     0.281 HD
ATOM      5  H52 UNL     1      32.388 -20.075 -20.627  1.00  0.00     0.281 HD
HETATM    6  C5  UNL     1      33.222 -20.851 -18.933  1.00  0.00     0.353 C 
HETATM    7  C11 UNL     1      31.948 -21.587 -18.526  1.00  0.00     0.205 C 
HETATM    8  C12 UNL     1      30.801 -20.637 -18.364  1.00  0.00     0.176 C 
ENDROOT
BRANCH   6   9
HETATM    9  O1  UNL     1      33.951 -20.409 -17.906  1.00  0.00    -0.355 OA
BRANCH   9  10
HETATM   10  C6  UNL     1      35.283 -20.338 -17.886  1.00  0.00     0.197 C 
BRANCH  10  11
HETATM   11  C7  UNL     1      35.937 -21.573 -18.434  1.00  0.00     0.193 C 
BRANCH  11  12
HETATM   12  O2  UNL     1      35.976 -22.576 -17.513  1.00  0.00    -0.389 OA
BRANCH  12  13
HETATM   13  C8  UNL     1      35.662 -23.828 -17.989  1.00  0.00     0.169 C 
BRANCH  13  14
HETATM   14  C9  UNL     1      35.711 -24.912 -16.959  1.00  0.00     0.053 C 
BRANCH  14  15
HETATM   15  C10 UNL     1      35.290 -24.338 -15.612  1.00  0.00     0.231 C 
BRANCH  15  16
HETATM   16  N6  UNL     1      33.903 -23.943 -15.605  1.00  0.00    -0.079 N 
ATOM     17  H63 UNL     1      33.653 -23.485 -14.730  1.00  0.00     0.274 HD
ATOM     18  H62 UNL     1      33.736 -23.167 -16.246  1.00  0.00     0.274 HD
ATOM     19  H61 UNL     1      33.283 -24.727 -15.805  1.00  0.00     0.274 HD
ENDBRANCH  15  16
ENDBRANCH  14  15
ENDBRANCH  13  14
ENDBRANCH  12  13
ENDBRANCH  11  12
ENDBRANCH  10  11
ENDBRANCH   9  10
ENDBRANCH   6   9
BRANCH   7  20
HETATM   20  O3  UNL     1      31.630 -22.561 -19.466  1.00  0.00    -0.389 OA
ATOM     21  H3  UNL     1      31.267 -22.161 -20.247  1.00  0.00     0.210 HD
ENDBRANCH   7  20
BRANCH   2  22
HETATM   22  C4  UNL     1      31.667 -17.665 -20.138  1.00  0.00     0.265 C 
BRANCH  22  23
HETATM   23  N4  UNL     1      31.006 -18.166 -21.275  1.00  0.00    -0.077 N 
ATOM     24  H43 UNL     1      30.000 -18.167 -21.112  1.00  0.00     0.274 HD
ATOM     25  H42 UNL     1      31.073 -17.490 -22.035  1.00  0.00     0.274 HD
ATOM     26  H41 UNL     1      31.298 -19.085 -21.608  1.00  0.00     0.274 HD
ENDBRANCH  22  23
ENDBRANCH   2  22
BRANCH   8  27
HETATM   27  O4  UNL     1      29.998 -20.684 -19.499  1.00  0.00    -0.391 OA
ATOM     28  H4  UNL     1      29.357 -21.370 -19.357  1.00  0.00     0.210 HD
ENDBRANCH   8  27
BRANCH   1  29
HETATM   29  N3  UNL     1      30.096 -18.340 -17.900  1.00  0.00    -0.356 N 
HETATM   30  C1  UNL     1      29.200 -18.660 -16.862  1.00  0.00     0.182 C 
HETATM   31  N1  UNL     1      29.656 -18.581 -15.664  1.00  0.00    -0.374 N 
HETATM   32  N2  UNL     1      27.861 -19.054 -17.054  1.00  0.00    -0.064 NA
ATOM     33  H12 UNL     1      29.006 -18.813 -14.912  1.00  0.00     0.158 HD
ATOM     34  H11 UNL     1      30.625 -18.296 -15.525  1.00  0.00     0.158 HD
ATOM     35  H3  UNL     1      29.949 -17.497 -18.456  1.00  0.00     0.162 HD
ENDBRANCH   1  29
TORSDOF 13
ENDMDL
