MODEL 1
REMARK VINA RESULT: -6.280460164      0.000      0.000
REMARK  16 active torsions:
REMARK  status: ('A' for Active; 'I' for Inactive)
REMARK    1  A    between atoms: N1_1  and  C1_4 
REMARK    2  A    between atoms: C3_8  and  N3_9 
REMARK    3  A    between atoms: N3_9  and  C4_10 
REMARK    4  A    between atoms: N3_9  and  C8_20 
REMARK    5  A    between atoms: C4_10  and  C5_11 
REMARK    6  A    between atoms: C5_11  and  C6_12 
REMARK    7  A    between atoms: C6_12  and  N4_13 
REMARK    8  A    between atoms: C6_12  and  C7_17 
REMARK    9  A    between atoms: C7_17  and  O1_18 
REMARK   10  A    between atoms: C8_20  and  C9_21 
REMARK   11  A    between atoms: C9_21  and  N5_22 
REMARK   12  A    between atoms: C9_21  and  N6_26 
REMARK   13  A    between atoms: C10_30  and  N7_31 
REMARK   14  A    between atoms: N7_31  and  C11_33 
REMARK   15  A    between atoms: C11_33  and  C12_34 
REMARK   16  A    between atoms: C12_34  and  N8_35 
ROOT
HETATM    1  N3  UNL     1      32.192 -19.636 -17.566  1.00  0.00    -0.373 N 
ENDROOT
BRANCH   1   2
HETATM    2  C3  UNL     1      32.848 -20.789 -17.005  1.00  0.00     0.091 A 
HETATM    3  C2  UNL     1      32.196 -21.763 -16.286  1.00  0.00     0.139 A 
HETATM    4  N2  UNL     1      32.887 -22.841 -15.809  1.00  0.00    -0.200 N 
HETATM    5  C1  UNL     1      34.199 -22.993 -16.015  1.00  0.00     0.677 A 
ATOM      6  H2  UNL     1      32.386 -23.552 -15.277  1.00  0.00     0.183 HD
HETATM    7  N9  UNL     1      34.856 -22.055 -16.713  1.00  0.00    -0.175 N 
HETATM    8  C10 UNL     1      34.211 -20.966 -17.207  1.00  0.00     0.145 A 
ATOM      9  H9  UNL     1      35.858 -22.161 -16.876  1.00  0.00     0.186 HD
BRANCH   5  10
HETATM   10  N1  UNL     1      34.807 -24.033 -15.540  1.00  0.00    -0.234 N 
ATOM     11  H12 UNL     1      34.543 -24.978 -15.819  1.00  0.00     0.174 HD
ATOM     12  H11 UNL     1      35.568 -23.912 -14.873  1.00  0.00     0.174 HD
ENDBRANCH   5  10
BRANCH   8  13
HETATM   13  N7  UNL     1      34.850 -20.076 -17.848  1.00  0.00    -0.372 N 
ATOM     14  H7  UNL     1      34.353 -19.199 -18.007  1.00  0.00     0.161 HD
BRANCH  13  15
HETATM   15  C11 UNL     1      36.170 -20.146 -18.372  1.00  0.00     0.148 C 
BRANCH  15  16
HETATM   16  C12 UNL     1      36.937 -18.848 -18.246  1.00  0.00     0.249 C 
BRANCH  16  17
HETATM   17  N8  UNL     1      36.207 -17.812 -17.580  1.00  0.00    -0.078 N 
ATOM     18  H83 UNL     1      35.330 -17.620 -18.065  1.00  0.00     0.274 HD
ATOM     19  H82 UNL     1      35.839 -18.147 -16.689  1.00  0.00     0.274 HD
ATOM     20  H81 UNL     1      36.742 -16.953 -17.449  1.00  0.00     0.274 HD
ENDBRANCH  16  17
ENDBRANCH  15  16
ENDBRANCH  13  15
ENDBRANCH   8  13
ENDBRANCH   1   2
BRANCH   1  21
HETATM   21  C4  UNL     1      31.774 -18.550 -16.742  1.00  0.00     0.125 C 
BRANCH  21  22
HETATM   22  C5  UNL     1      30.525 -17.842 -17.158  1.00  0.00     0.055 C 
BRANCH  22  23
HETATM   23  C6  UNL     1      29.577 -17.929 -15.949  1.00  0.00     0.208 C 
BRANCH  23  24
HETATM   24  N4  UNL     1      30.002 -19.081 -15.192  1.00  0.00    -0.073 N 
ATOM     25  H43 UNL     1      29.522 -19.942 -15.456  1.00  0.00     0.274 HD
ATOM     26  H42 UNL     1      30.947 -19.391 -15.418  1.00  0.00     0.274 HD
ATOM     27  H41 UNL     1      29.880 -18.833 -14.209  1.00  0.00     0.274 HD
ENDBRANCH  23  24
BRANCH  23  28
HETATM   28  C7  UNL     1      28.162 -18.127 -16.386  1.00  0.00     0.197 C 
BRANCH  28  29
HETATM   29  O1  UNL     1      27.995 -19.191 -17.241  1.00  0.00    -0.399 OA
ATOM     30  H1  UNL     1      27.297 -19.065 -17.873  1.00  0.00     0.209 HD
ENDBRANCH  28  29
ENDBRANCH  23  28
ENDBRANCH  22  23
ENDBRANCH  21  22
ENDBRANCH   1  21
BRANCH   1  31
HETATM   31  C8  UNL     1      31.936 -19.656 -18.962  1.00  0.00     0.185 C 
BRANCH  31  32
HETATM   32  C9  UNL     1      30.968 -20.629 -19.512  1.00  0.00     0.395 C 
BRANCH  32  33
HETATM   33  N5  UNL     1      29.754 -20.822 -18.791  1.00  0.00    -0.049 N 
ATOM     34  H53 UNL     1      29.916 -21.472 -18.022  1.00  0.00     0.276 HD
ATOM     35  H52 UNL     1      29.527 -19.971 -18.276  1.00  0.00     0.276 HD
ATOM     36  H51 UNL     1      28.937 -21.124 -19.322  1.00  0.00     0.276 HD
ENDBRANCH  32  33
BRANCH  32  37
HETATM   37  N6  UNL     1      30.666 -20.452 -20.932  1.00  0.00    -0.049 N 
ATOM     38  H63 UNL     1      30.682 -19.462 -21.176  1.00  0.00     0.276 HD
ATOM     39  H62 UNL     1      31.442 -20.787 -21.504  1.00  0.00     0.276 HD
ATOM     40  H61 UNL     1      29.791 -20.879 -21.236  1.00  0.00     0.276 HD
ENDBRANCH  32  37
ENDBRANCH  31  32
ENDBRANCH   1  31
TORSDOF 16
ENDMDL
MODEL 2
REMARK VINA RESULT: -6.205152897      1.254      3.428
REMARK  16 active torsions:
REMARK  status: ('A' for Active; 'I' for Inactive)
REMARK    1  A    between atoms: N1_1  and  C1_4 
REMARK    2  A    between atoms: C3_8  and  N3_9 
REMARK    3  A    between atoms: N3_9  and  C4_10 
REMARK    4  A    between atoms: N3_9  and  C8_20 
REMARK    5  A    between atoms: C4_10  and  C5_11 
REMARK    6  A    between atoms: C5_11  and  C6_12 
REMARK    7  A    between atoms: C6_12  and  N4_13 
REMARK    8  A    between atoms: C6_12  and  C7_17 
REMARK    9  A    between atoms: C7_17  and  O1_18 
REMARK   10  A    between atoms: C8_20  and  C9_21 
REMARK   11  A    between atoms: C9_21  and  N5_22 
REMARK   12  A    between atoms: C9_21  and  N6_26 
REMARK   13  A    between atoms: C10_30  and  N7_31 
REMARK   14  A    between atoms: N7_31  and  C11_33 
REMARK   15  A    between atoms: C11_33  and  C12_34 
REMARK   16  A    between atoms: C12_34  and  N8_35 
ROOT
HETATM    1  N3  UNL     1      32.618 -19.193 -18.043  1.00  0.00    -0.373 N 
ENDROOT
BRANCH   1   2
HETATM    2  C3  UNL     1      34.035 -18.994 -18.210  1.00  0.00     0.091 A 
HETATM    3  C2  UNL     1      34.581 -17.917 -18.867  1.00  0.00     0.139 A 
HETATM    4  N2  UNL     1      35.939 -17.789 -18.959  1.00  0.00    -0.200 N 
HETATM    5  C1  UNL     1      36.777 -18.684 -18.427  1.00  0.00     0.677 A 
ATOM      6  H2  UNL     1      36.326 -16.983 -19.452  1.00  0.00     0.183 HD
HETATM    7  N9  UNL     1      36.266 -19.742 -17.781  1.00  0.00    -0.175 N 
HETATM    8  C10 UNL     1      34.923 -19.912 -17.664  1.00  0.00     0.145 A 
ATOM      9  H9  UNL     1      36.896 -20.432 -17.370  1.00  0.00     0.186 HD
BRANCH   5  10
HETATM   10  N1  UNL     1      38.055 -18.515 -18.543  1.00  0.00    -0.234 N 
ATOM     11  H12 UNL     1      38.444 -17.700 -19.018  1.00  0.00     0.174 HD
ATOM     12  H11 UNL     1      38.694 -19.207 -18.152  1.00  0.00     0.174 HD
ENDBRANCH   5  10
BRANCH   8  13
HETATM   13  N7  UNL     1      34.453 -20.931 -17.068  1.00  0.00    -0.372 N 
ATOM     14  H7  UNL     1      33.436 -21.016 -17.068  1.00  0.00     0.161 HD
BRANCH  13  15
HETATM   15  C11 UNL     1      35.164 -21.967 -16.402  1.00  0.00     0.148 C 
BRANCH  15  16
HETATM   16  C12 UNL     1      34.291 -23.137 -16.006  1.00  0.00     0.249 C 
BRANCH  16  17
HETATM   17  N8  UNL     1      33.094 -22.753 -15.320  1.00  0.00    -0.078 N 
ATOM     18  H83 UNL     1      33.237 -21.884 -14.805  1.00  0.00     0.274 HD
ATOM     19  H82 UNL     1      32.383 -22.443 -15.982  1.00  0.00     0.274 HD
ATOM     20  H81 UNL     1      32.723 -23.479 -14.706  1.00  0.00     0.274 HD
ENDBRANCH  16  17
ENDBRANCH  15  16
ENDBRANCH  13  15
ENDBRANCH   8  13
ENDBRANCH   1   2
BRANCH   1  21
HETATM   21  C4  UNL     1      31.936 -18.716 -16.885  1.00  0.00     0.125 C 
BRANCH  21  22
HETATM   22  C5  UNL     1      30.740 -17.852 -17.126  1.00  0.00     0.055 C 
BRANCH  22  23
HETATM   23  C6  UNL     1      29.737 -18.216 -16.017  1.00  0.00     0.208 C 
BRANCH  23  24
HETATM   24  N4  UNL     1      30.026 -19.580 -15.650  1.00  0.00    -0.073 N 
ATOM     25  H43 UNL     1      29.297 -20.239 -15.924  1.00  0.00     0.274 HD
ATOM     26  H42 UNL     1      30.781 -19.997 -16.195  1.00  0.00     0.274 HD
ATOM     27  H41 UNL     1      30.208 -19.569 -14.646  1.00  0.00     0.274 HD
ENDBRANCH  23  24
BRANCH  23  28
HETATM   28  C7  UNL     1      28.331 -18.131 -16.514  1.00  0.00     0.197 C 
BRANCH  28  29
HETATM   29  O1  UNL     1      27.957 -19.204 -17.289  1.00  0.00    -0.399 OA
ATOM     30  H1  UNL     1      27.025 -19.233 -17.472  1.00  0.00     0.209 HD
ENDBRANCH  28  29
ENDBRANCH  23  28
ENDBRANCH  22  23
ENDBRANCH  21  22
ENDBRANCH   1  21
BRANCH   1  31
HETATM   31  C8  UNL     1      31.947 -19.929 -19.056  1.00  0.00     0.185 C 
BRANCH  31  32
HETATM   32  C9  UNL     1      31.085 -21.069 -18.678  1.00  0.00     0.395 C 
BRANCH  32  33
HETATM   33  N5  UNL     1      29.683 -20.930 -18.899  1.00  0.00    -0.049 N 
ATOM     34  H53 UNL     1      29.526 -20.427 -19.772  1.00  0.00     0.276 HD
ATOM     35  H52 UNL     1      29.285 -21.841 -19.131  1.00  0.00     0.276 HD
ATOM     36  H51 UNL     1      29.133 -20.498 -18.157  1.00  0.00     0.276 HD
ENDBRANCH  32  33
BRANCH  32  37
HETATM   37  N6  UNL     1      31.531 -22.365 -19.188  1.00  0.00    -0.049 N 
ATOM     38  H63 UNL     1      31.308 -22.450 -20.179  1.00  0.00     0.276 HD
ATOM     39  H62 UNL     1      32.549 -22.397 -19.232  1.00  0.00     0.276 HD
ATOM     40  H61 UNL     1      31.173 -23.169 -18.673  1.00  0.00     0.276 HD
ENDBRANCH  32  37
ENDBRANCH  31  32
ENDBRANCH   1  31
TORSDOF 16
ENDMDL
MODEL 3
REMARK VINA RESULT: -6.118020812      2.274      4.902
REMARK  16 active torsions:
REMARK  status: ('A' for Active; 'I' for Inactive)
REMARK    1  A    between atoms: N1_1  and  C1_4 
REMARK    2  A    between atoms: C3_8  and  N3_9 
REMARK    3  A    between atoms: N3_9  and  C4_10 
REMARK    4  A    between atoms: N3_9  and  C8_20 
REMARK    5  A    between atoms: C4_10  and  C5_11 
REMARK    6  A    between atoms: C5_11  and  C6_12 
REMARK    7  A    between atoms: C6_12  and  N4_13 
REMARK    8  A    between atoms: C6_12  and  C7_17 
REMARK    9  A    between atoms: C7_17  and  O1_18 
REMARK   10  A    between atoms: C8_20  and  C9_21 
REMARK   11  A    between atoms: C9_21  and  N5_22 
REMARK   12  A    between atoms: C9_21  and  N6_26 
REMARK   13  A    between atoms: C10_30  and  N7_31 
REMARK   14  A    between atoms: N7_31  and  C11_33 
REMARK   15  A    between atoms: C11_33  and  C12_34 
REMARK   16  A    between atoms: C12_34  and  N8_35 
ROOT
HETATM    1  N3  UNL     1      32.858 -21.503 -18.673  1.00  0.00    -0.373 N 
ENDROOT
BRANCH   1   2
HETATM    2  C3  UNL     1      33.996 -20.627 -18.566  1.00  0.00     0.091 A 
HETATM    3  C2  UNL     1      35.210 -20.879 -19.162  1.00  0.00     0.139 A 
HETATM    4  N2  UNL     1      36.234 -19.983 -19.033  1.00  0.00    -0.200 N 
HETATM    5  C1  UNL     1      36.105 -18.848 -18.338  1.00  0.00     0.677 A 
ATOM      6  H2  UNL     1      37.127 -20.188 -19.481  1.00  0.00     0.183 HD
HETATM    7  N9  UNL     1      34.930 -18.582 -17.749  1.00  0.00    -0.175 N 
HETATM    8  C10 UNL     1      33.883 -19.443 -17.849  1.00  0.00     0.145 A 
ATOM      9  H9  UNL     1      34.820 -17.719 -17.216  1.00  0.00     0.186 HD
BRANCH   5  10
HETATM   10  N1  UNL     1      37.107 -18.034 -18.247  1.00  0.00    -0.234 N 
ATOM     11  H12 UNL     1      37.236 -17.271 -18.912  1.00  0.00     0.174 HD
ATOM     12  H11 UNL     1      37.786 -18.151 -17.496  1.00  0.00     0.174 HD
ENDBRANCH   5  10
BRANCH   8  13
HETATM   13  N7  UNL     1      32.783 -19.188 -17.268  1.00  0.00    -0.372 N 
ATOM     14  H7  UNL     1      32.353 -19.967 -16.768  1.00  0.00     0.161 HD
BRANCH  13  15
HETATM   15  C11 UNL     1      32.075 -17.956 -17.224  1.00  0.00     0.148 C 
BRANCH  15  16
HETATM   16  C12 UNL     1      31.415 -17.687 -15.889  1.00  0.00     0.249 C 
BRANCH  16  17
HETATM   17  N8  UNL     1      31.624 -18.727 -14.927  1.00  0.00    -0.078 N 
ATOM     18  H83 UNL     1      32.519 -18.605 -14.453  1.00  0.00     0.274 HD
ATOM     19  H82 UNL     1      30.994 -18.614 -14.133  1.00  0.00     0.274 HD
ATOM     20  H81 UNL     1      31.547 -19.667 -15.317  1.00  0.00     0.274 HD
ENDBRANCH  16  17
ENDBRANCH  15  16
ENDBRANCH  13  15
ENDBRANCH   8  13
ENDBRANCH   1   2
BRANCH   1  21
HETATM   21  C4  UNL     1      32.517 -22.404 -17.621  1.00  0.00     0.125 C 
BRANCH  21  22
HETATM   22  C5  UNL     1      33.404 -23.596 -17.453  1.00  0.00     0.055 C 
BRANCH  22  23
HETATM   23  C6  UNL     1      33.970 -23.493 -16.027  1.00  0.00     0.208 C 
BRANCH  23  24
HETATM   24  N4  UNL     1      33.131 -22.549 -15.331  1.00  0.00    -0.073 N 
ATOM     25  H43 UNL     1      33.500 -21.597 -15.334  1.00  0.00     0.274 HD
ATOM     26  H42 UNL     1      32.259 -22.344 -15.819  1.00  0.00     0.274 HD
ATOM     27  H41 UNL     1      32.995 -22.929 -14.394  1.00  0.00     0.274 HD
ENDBRANCH  23  24
BRANCH  23  28
HETATM   28  C7  UNL     1      35.374 -22.984 -16.039  1.00  0.00     0.197 C 
BRANCH  28  29
HETATM   29  O1  UNL     1      35.492 -21.690 -15.586  1.00  0.00    -0.399 OA
ATOM     30  H1  UNL     1      36.391 -21.424 -15.426  1.00  0.00     0.209 HD
ENDBRANCH  28  29
ENDBRANCH  23  28
ENDBRANCH  22  23
ENDBRANCH  21  22
ENDBRANCH   1  21
BRANCH   1  31
HETATM   31  C8  UNL     1      32.126 -21.464 -19.889  1.00  0.00     0.185 C 
BRANCH  31  32
HETATM   32  C9  UNL     1      30.998 -20.519 -20.033  1.00  0.00     0.395 C 
BRANCH  32  33
HETATM   33  N5  UNL     1      30.433 -20.368 -21.332  1.00  0.00    -0.049 N 
ATOM     34  H53 UNL     1      30.555 -19.405 -21.645  1.00  0.00     0.276 HD
ATOM     35  H52 UNL     1      31.011 -20.863 -22.013  1.00  0.00     0.276 HD
ATOM     36  H51 UNL     1      29.458 -20.641 -21.454  1.00  0.00     0.276 HD
ENDBRANCH  32  33
BRANCH  32  37
HETATM   37  N6  UNL     1      29.926 -20.699 -19.055  1.00  0.00    -0.049 N 
ATOM     38  H63 UNL     1      30.219 -21.345 -18.323  1.00  0.00     0.276 HD
ATOM     39  H62 UNL     1      29.804 -19.850 -18.502  1.00  0.00     0.276 HD
ATOM     40  H61 UNL     1      29.034 -20.993 -19.453  1.00  0.00     0.276 HD
ENDBRANCH  32  37
ENDBRANCH  31  32
ENDBRANCH   1  31
TORSDOF 16
ENDMDL
MODEL 4
REMARK VINA RESULT: -6.104118013      0.955      1.254
REMARK  16 active torsions:
REMARK  status: ('A' for Active; 'I' for Inactive)
REMARK    1  A    between atoms: N1_1  and  C1_4 
REMARK    2  A    between atoms: C3_8  and  N3_9 
REMARK    3  A    between atoms: N3_9  and  C4_10 
REMARK    4  A    between atoms: N3_9  and  C8_20 
REMARK    5  A    between atoms: C4_10  and  C5_11 
REMARK    6  A    between atoms: C5_11  and  C6_12 
REMARK    7  A    between atoms: C6_12  and  N4_13 
REMARK    8  A    between atoms: C6_12  and  C7_17 
REMARK    9  A    between atoms: C7_17  and  O1_18 
REMARK   10  A    between atoms: C8_20  and  C9_21 
REMARK   11  A    between atoms: C9_21  and  N5_22 
REMARK   12  A    between atoms: C9_21  and  N6_26 
REMARK   13  A    between atoms: C10_30  and  N7_31 
REMARK   14  A    between atoms: N7_31  and  C11_33 
REMARK   15  A    between atoms: C11_33  and  C12_34 
REMARK   16  A    between atoms: C12_34  and  N8_35 
ROOT
HETATM    1  N3  UNL     1      32.686 -20.605 -17.884  1.00  0.00    -0.373 N 
ENDROOT
BRANCH   1   2
HETATM    2  C3  UNL     1      33.465 -21.611 -17.209  1.00  0.00     0.091 A 
HETATM    3  C2  UNL     1      32.934 -22.772 -16.700  1.00  0.00     0.139 A 
HETATM    4  N2  UNL     1      33.746 -23.689 -16.095  1.00  0.00    -0.200 N 
HETATM    5  C1  UNL     1      35.065 -23.502 -15.974  1.00  0.00     0.677 A 
ATOM      6  H2  UNL     1      33.334 -24.545 -15.723  1.00  0.00     0.183 HD
HETATM    7  N9  UNL     1      35.605 -22.376 -16.464  1.00  0.00    -0.175 N 
HETATM    8  C10 UNL     1      34.836 -21.436 -17.073  1.00  0.00     0.145 A 
ATOM      9  H9  UNL     1      36.610 -22.223 -16.377  1.00  0.00     0.186 HD
BRANCH   5  10
HETATM   10  N1  UNL     1      35.790 -24.403 -15.392  1.00  0.00    -0.234 N 
ATOM     11  H12 UNL     1      35.468 -25.366 -15.296  1.00  0.00     0.174 HD
ATOM     12  H11 UNL     1      36.705 -24.151 -15.019  1.00  0.00     0.174 HD
ENDBRANCH   5  10
BRANCH   8  13
HETATM   13  N7  UNL     1      35.358 -20.365 -17.512  1.00  0.00    -0.372 N 
ATOM     14  H7  UNL     1      34.732 -19.563 -17.585  1.00  0.00     0.161 HD
BRANCH  13  15
HETATM   15  C11 UNL     1      36.703 -20.142 -17.915  1.00  0.00     0.148 C 
BRANCH  15  16
HETATM   16  C12 UNL     1      36.975 -18.717 -18.343  1.00  0.00     0.249 C 
BRANCH  16  17
HETATM   17  N8  UNL     1      36.287 -17.740 -17.555  1.00  0.00    -0.078 N 
ATOM     18  H83 UNL     1      35.320 -18.022 -17.396  1.00  0.00     0.274 HD
ATOM     19  H82 UNL     1      36.627 -17.748 -16.593  1.00  0.00     0.274 HD
ATOM     20  H81 UNL     1      36.329 -16.797 -17.944  1.00  0.00     0.274 HD
ENDBRANCH  16  17
ENDBRANCH  15  16
ENDBRANCH  13  15
ENDBRANCH   8  13
ENDBRANCH   1   2
BRANCH   1  21
HETATM   21  C4  UNL     1      32.316 -19.394 -17.228  1.00  0.00     0.125 C 
BRANCH  21  22
HETATM   22  C5  UNL     1      31.296 -19.510 -16.141  1.00  0.00     0.055 C 
BRANCH  22  23
HETATM   23  C6  UNL     1      30.514 -18.185 -16.163  1.00  0.00     0.208 C 
BRANCH  23  24
HETATM   24  N4  UNL     1      30.935 -17.454 -14.993  1.00  0.00    -0.073 N 
ATOM     25  H43 UNL     1      30.222 -16.821 -14.631  1.00  0.00     0.274 HD
ATOM     26  H42 UNL     1      31.020 -18.035 -14.159  1.00  0.00     0.274 HD
ATOM     27  H41 UNL     1      31.803 -16.984 -15.252  1.00  0.00     0.274 HD
ENDBRANCH  23  24
BRANCH  23  28
HETATM   28  C7  UNL     1      29.042 -18.426 -16.086  1.00  0.00     0.197 C 
BRANCH  28  29
HETATM   29  O1  UNL     1      28.549 -19.157 -17.142  1.00  0.00    -0.399 OA
ATOM     30  H1  UNL     1      29.050 -19.944 -17.325  1.00  0.00     0.209 HD
ENDBRANCH  28  29
ENDBRANCH  23  28
ENDBRANCH  22  23
ENDBRANCH  21  22
ENDBRANCH   1  21
BRANCH   1  31
HETATM   31  C8  UNL     1      32.261 -20.898 -19.206  1.00  0.00     0.185 C 
BRANCH  31  32
HETATM   32  C9  UNL     1      30.963 -20.378 -19.687  1.00  0.00     0.395 C 
BRANCH  32  33
HETATM   33  N5  UNL     1      30.722 -20.419 -21.092  1.00  0.00    -0.049 N 
ATOM     34  H53 UNL     1      31.484 -20.916 -21.552  1.00  0.00     0.276 HD
ATOM     35  H52 UNL     1      29.942 -21.047 -21.284  1.00  0.00     0.276 HD
ATOM     36  H51 UNL     1      30.565 -19.529 -21.565  1.00  0.00     0.276 HD
ENDBRANCH  32  33
BRANCH  32  37
HETATM   37  N6  UNL     1      29.796 -20.904 -18.980  1.00  0.00    -0.049 N 
ATOM     38  H63 UNL     1      29.601 -21.859 -19.280  1.00  0.00     0.276 HD
ATOM     39  H62 UNL     1      30.021 -21.071 -17.999  1.00  0.00     0.276 HD
ATOM     40  H61 UNL     1      28.957 -20.330 -19.059  1.00  0.00     0.276 HD
ENDBRANCH  32  37
ENDBRANCH  31  32
ENDBRANCH   1  31
TORSDOF 16
ENDMDL
MODEL 5
REMARK VINA RESULT: -6.056980400      1.786      3.847
REMARK  16 active torsions:
REMARK  status: ('A' for Active; 'I' for Inactive)
REMARK    1  A    between atoms: N1_1  and  C1_4 
REMARK    2  A    between atoms: C3_8  and  N3_9 
REMARK    3  A    between atoms: N3_9  and  C4_10 
REMARK    4  A    between atoms: N3_9  and  C8_20 
REMARK    5  A    between atoms: C4_10  and  C5_11 
REMARK    6  A    between atoms: C5_11  and  C6_12 
REMARK    7  A    between atoms: C6_12  and  N4_13 
REMARK    8  A    between atoms: C6_12  and  C7_17 
REMARK    9  A    between atoms: C7_17  and  O1_18 
REMARK   10  A    between atoms: C8_20  and  C9_21 
REMARK   11  A    between atoms: C9_21  and  N5_22 
REMARK   12  A    between atoms: C9_21  and  N6_26 
REMARK   13  A    between atoms: C10_30  and  N7_31 
REMARK   14  A    between atoms: N7_31  and  C11_33 
REMARK   15  A    between atoms: C11_33  and  C12_34 
REMARK   16  A    between atoms: C12_34  and  N8_35 
ROOT
HETATM    1  N3  UNL     1      32.558 -19.275 -18.151  1.00  0.00    -0.373 N 
ENDROOT
BRANCH   1   2
HETATM    2  C3  UNL     1      33.513 -18.537 -18.936  1.00  0.00     0.091 A 
HETATM    3  C2  UNL     1      33.170 -17.739 -20.001  1.00  0.00     0.139 A 
HETATM    4  N2  UNL     1      34.136 -17.050 -20.680  1.00  0.00    -0.200 N 
HETATM    5  C1  UNL     1      35.428 -17.121 -20.346  1.00  0.00     0.677 A 
ATOM      6  H2  UNL     1      33.861 -16.463 -21.468  1.00  0.00     0.183 HD
HETATM    7  N9  UNL     1      35.786 -17.894 -19.310  1.00  0.00    -0.175 N 
HETATM    8  C10 UNL     1      34.861 -18.597 -18.606  1.00  0.00     0.145 A 
ATOM      9  H9  UNL     1      36.770 -17.956 -19.047  1.00  0.00     0.186 HD
BRANCH   5  10
HETATM   10  N1  UNL     1      36.303 -16.449 -21.022  1.00  0.00    -0.234 N 
ATOM     11  H12 UNL     1      36.406 -16.570 -22.030  1.00  0.00     0.174 HD
ATOM     12  H11 UNL     1      36.907 -15.780 -20.544  1.00  0.00     0.174 HD
ENDBRANCH   5  10
BRANCH   8  13
HETATM   13  N7  UNL     1      35.217 -19.342 -17.641  1.00  0.00    -0.372 N 
ATOM     14  H7  UNL     1      34.776 -19.146 -16.742  1.00  0.00     0.161 HD
BRANCH  13  15
HETATM   15  C11 UNL     1      36.152 -20.413 -17.654  1.00  0.00     0.148 C 
BRANCH  15  16
HETATM   16  C12 UNL     1      35.592 -21.707 -17.105  1.00  0.00     0.249 C 
BRANCH  16  17
HETATM   17  N8  UNL     1      34.924 -21.555 -15.848  1.00  0.00    -0.078 N 
ATOM     18  H83 UNL     1      35.051 -20.611 -15.484  1.00  0.00     0.274 HD
ATOM     19  H82 UNL     1      33.912 -21.553 -15.977  1.00  0.00     0.274 HD
ATOM     20  H81 UNL     1      35.197 -22.250 -15.153  1.00  0.00     0.274 HD
ENDBRANCH  16  17
ENDBRANCH  15  16
ENDBRANCH  13  15
ENDBRANCH   8  13
ENDBRANCH   1   2
BRANCH   1  21
HETATM   21  C4  UNL     1      31.941 -18.696 -17.003  1.00  0.00     0.125 C 
BRANCH  21  22
HETATM   22  C5  UNL     1      30.755 -17.822 -17.254  1.00  0.00     0.055 C 
BRANCH  22  23
HETATM   23  C6  UNL     1      29.824 -18.029 -16.047  1.00  0.00     0.208 C 
BRANCH  23  24
HETATM   24  N4  UNL     1      30.239 -19.265 -15.431  1.00  0.00    -0.073 N 
ATOM     25  H43 UNL     1      30.602 -19.949 -16.095  1.00  0.00     0.274 HD
ATOM     26  H42 UNL     1      31.087 -19.176 -14.870  1.00  0.00     0.274 HD
ATOM     27  H41 UNL     1      29.434 -19.600 -14.901  1.00  0.00     0.274 HD
ENDBRANCH  23  24
BRANCH  23  28
HETATM   28  C7  UNL     1      28.399 -18.152 -16.478  1.00  0.00     0.197 C 
BRANCH  28  29
HETATM   29  O1  UNL     1      28.170 -19.220 -17.314  1.00  0.00    -0.399 OA
ATOM     30  H1  UNL     1      27.887 -18.967 -18.185  1.00  0.00     0.209 HD
ENDBRANCH  28  29
ENDBRANCH  23  28
ENDBRANCH  22  23
ENDBRANCH  21  22
ENDBRANCH   1  21
BRANCH   1  31
HETATM   31  C8  UNL     1      32.301 -20.616 -18.540  1.00  0.00     0.185 C 
BRANCH  31  32
HETATM   32  C9  UNL     1      31.000 -21.236 -18.208  1.00  0.00     0.395 C 
BRANCH  32  33
HETATM   33  N5  UNL     1      29.878 -20.870 -19.008  1.00  0.00    -0.049 N 
ATOM     34  H53 UNL     1      29.966 -19.893 -19.288  1.00  0.00     0.276 HD
ATOM     35  H52 UNL     1      29.943 -21.334 -19.915  1.00  0.00     0.276 HD
ATOM     36  H51 UNL     1      28.951 -21.027 -18.613  1.00  0.00     0.276 HD
ENDBRANCH  32  33
BRANCH  32  37
HETATM   37  N6  UNL     1      31.038 -22.690 -18.062  1.00  0.00    -0.049 N 
ATOM     38  H63 UNL     1      30.092 -23.071 -18.069  1.00  0.00     0.276 HD
ATOM     39  H62 UNL     1      31.408 -23.122 -18.908  1.00  0.00     0.276 HD
ATOM     40  H61 UNL     1      31.547 -23.021 -17.242  1.00  0.00     0.276 HD
ENDBRANCH  32  37
ENDBRANCH  31  32
ENDBRANCH   1  31
TORSDOF 16
ENDMDL
