MODEL 1
REMARK VINA RESULT: -7.383250741      0.000      0.000
REMARK  15 active torsions:
REMARK  status: ('A' for Active; 'I' for Inactive)
REMARK    1  A    between atoms: N1_1  and  C1_4 
REMARK    2  A    between atoms: C2_5  and  N2_6 
REMARK    3  A    between atoms: N2_6  and  C3_7 
REMARK    4  A    between atoms: N2_6  and  C5_11 
REMARK    5  A    between atoms: C3_7  and  C4_8 
REMARK    6  A    between atoms: C4_8  and  O1_9 
REMARK    7  A    between atoms: C5_11  and  C6_12 
REMARK    8  A    between atoms: C6_12  and  N3_13 
REMARK    9  A    between atoms: N3_13  and  O2_14 
REMARK   10  A    between atoms: N3_13  and  C7_16 
REMARK   11  A    between atoms: C7_16  and  C8_17 
REMARK   12  A    between atoms: C8_17  and  O3_18 
REMARK   13  A    between atoms: C9_26  and  N7_27 
REMARK   14  A    between atoms: C10_29  and  C11_30 
REMARK   15  A    between atoms: C11_30  and  O4_31 
ROOT
HETATM    1  C1  UNL     1      31.519 -20.655 -16.468  1.00  0.00     0.118 A 
HETATM    2  C2  UNL     1      30.692 -19.781 -17.092  1.00  0.00     0.153 A 
HETATM    3  N4  UNL     1      30.063 -20.244 -18.217  1.00  0.00    -0.269 N 
ATOM      4  H4  UNL     1      29.427 -19.635 -18.732  1.00  0.00     0.190 HD
HETATM    5  N5  UNL     1      30.277 -21.471 -18.635  1.00  0.00    -0.239 N 
ATOM      6  H5  UNL     1      29.788 -21.775 -19.477  1.00  0.00     0.208 HD
HETATM    7  N6  UNL     1      31.078 -22.338 -18.047  1.00  0.00    -0.269 N 
ATOM      8  H6  UNL     1      31.193 -23.275 -18.434  1.00  0.00     0.190 HD
HETATM    9  C9  UNL     1      31.740 -21.979 -16.934  1.00  0.00     0.151 A 
ENDROOT
BRANCH   2  10
HETATM   10  N2  UNL     1      30.468 -18.451 -16.666  1.00  0.00    -0.341 N 
BRANCH  10  11
HETATM   11  C3  UNL     1      29.380 -18.074 -15.854  1.00  0.00     0.091 C 
BRANCH  11  12
HETATM   12  C4  UNL     1      28.006 -18.245 -16.392  1.00  0.00     0.208 C 
BRANCH  12  13
HETATM   13  O1  UNL     1      27.881 -17.432 -17.521  1.00  0.00    -0.396 OA
ATOM     14  H1  UNL     1      27.079 -17.673 -17.968  1.00  0.00     0.209 HD
ENDBRANCH  12  13
ENDBRANCH  11  12
ENDBRANCH  10  11
BRANCH  10  15
HETATM   15  C5  UNL     1      31.402 -17.426 -17.112  1.00  0.00     0.146 C 
BRANCH  15  16
HETATM   16  C6  UNL     1      31.581 -17.480 -18.622  1.00  0.00     0.140 C 
BRANCH  16  17
HETATM   17  N3  UNL     1      31.002 -16.336 -19.260  1.00  0.00    -0.196 NA
BRANCH  17  18
HETATM   18  O2  UNL     1      29.656 -16.429 -19.361  1.00  0.00    -0.313 OA
ATOM     19  H2  UNL     1      29.354 -16.349 -20.258  1.00  0.00     0.237 HD
ENDBRANCH  17  18
BRANCH  17  20
HETATM   20  C7  UNL     1      31.572 -16.017 -20.545  1.00  0.00     0.146 C 
BRANCH  20  21
HETATM   21  C8  UNL     1      31.588 -17.331 -21.340  1.00  0.00     0.180 C 
BRANCH  21  22
HETATM   22  O3  UNL     1      30.387 -17.570 -21.980  1.00  0.00    -0.400 OA
ATOM     23  H3  UNL     1      29.954 -18.351 -21.655  1.00  0.00     0.209 HD
ENDBRANCH  21  22
ENDBRANCH  20  21
ENDBRANCH  17  20
ENDBRANCH  16  17
ENDBRANCH  15  16
ENDBRANCH  10  15
ENDBRANCH   2  10
BRANCH   1  24
HETATM   24  N1  UNL     1      32.140 -20.327 -15.374  1.00  0.00    -0.393 N 
ATOM     25  H12 UNL     1      31.778 -19.509 -14.885  1.00  0.00     0.156 HD
ATOM     26  H11 UNL     1      32.953 -20.853 -15.052  1.00  0.00     0.156 HD
ENDBRANCH   1  24
BRANCH   9  27
HETATM   27  N7  UNL     1      32.520 -22.708 -16.308  1.00  0.00    -0.351 N 
HETATM   28  C10 UNL     1      33.804 -23.130 -16.164  1.00  0.00     0.088 C 
ATOM     29  H7  UNL     1      31.967 -23.198 -15.604  1.00  0.00     0.166 HD
BRANCH  28  30
HETATM   30  C11 UNL     1      34.945 -22.290 -16.668  1.00  0.00     0.208 C 
BRANCH  30  31
HETATM   31  O4  UNL     1      35.523 -21.643 -15.593  1.00  0.00    -0.396 OA
ATOM     32  H4  UNL     1      36.380 -21.327 -15.856  1.00  0.00     0.209 HD
ENDBRANCH  30  31
ENDBRANCH  28  30
ENDBRANCH   9  27
TORSDOF 15
ENDMDL
MODEL 2
REMARK VINA RESULT: -7.346094669      1.015      1.070
REMARK  15 active torsions:
REMARK  status: ('A' for Active; 'I' for Inactive)
REMARK    1  A    between atoms: N1_1  and  C1_4 
REMARK    2  A    between atoms: C2_5  and  N2_6 
REMARK    3  A    between atoms: N2_6  and  C3_7 
REMARK    4  A    between atoms: N2_6  and  C5_11 
REMARK    5  A    between atoms: C3_7  and  C4_8 
REMARK    6  A    between atoms: C4_8  and  O1_9 
REMARK    7  A    between atoms: C5_11  and  C6_12 
REMARK    8  A    between atoms: C6_12  and  N3_13 
REMARK    9  A    between atoms: N3_13  and  O2_14 
REMARK   10  A    between atoms: N3_13  and  C7_16 
REMARK   11  A    between atoms: C7_16  and  C8_17 
REMARK   12  A    between atoms: C8_17  and  O3_18 
REMARK   13  A    between atoms: C9_26  and  N7_27 
REMARK   14  A    between atoms: C10_29  and  C11_30 
REMARK   15  A    between atoms: C11_30  and  O4_31 
ROOT
HETATM    1  C1  UNL     1      31.941 -21.103 -16.172  1.00  0.00     0.118 A 
HETATM    2  C2  UNL     1      31.076 -20.250 -16.772  1.00  0.00     0.153 A 
HETATM    3  N4  UNL     1      30.474 -20.705 -17.916  1.00  0.00    -0.269 N 
ATOM      4  H4  UNL     1      29.812 -20.110 -18.414  1.00  0.00     0.190 HD
HETATM    5  N5  UNL     1      30.748 -21.905 -18.372  1.00  0.00    -0.239 N 
ATOM      6  H5  UNL     1      30.278 -22.205 -19.226  1.00  0.00     0.208 HD
HETATM    7  N6  UNL     1      31.586 -22.753 -17.808  1.00  0.00    -0.269 N 
ATOM      8  H6  UNL     1      31.748 -23.670 -18.224  1.00  0.00     0.190 HD
HETATM    9  C9  UNL     1      32.227 -22.399 -16.679  1.00  0.00     0.151 A 
ENDROOT
BRANCH   2  10
HETATM   10  N2  UNL     1      30.787 -18.946 -16.305  1.00  0.00    -0.341 N 
BRANCH  10  11
HETATM   11  C3  UNL     1      29.565 -18.598 -15.697  1.00  0.00     0.091 C 
BRANCH  11  12
HETATM   12  C4  UNL     1      28.472 -18.078 -16.558  1.00  0.00     0.208 C 
BRANCH  12  13
HETATM   13  O1  UNL     1      27.910 -19.159 -17.241  1.00  0.00    -0.396 OA
ATOM     14  H1  UNL     1      27.012 -19.257 -16.946  1.00  0.00     0.209 HD
ENDBRANCH  12  13
ENDBRANCH  11  12
ENDBRANCH  10  11
BRANCH  10  15
HETATM   15  C5  UNL     1      31.801 -17.916 -16.485  1.00  0.00     0.146 C 
BRANCH  15  16
HETATM   16  C6  UNL     1      32.317 -17.913 -17.917  1.00  0.00     0.140 C 
BRANCH  16  17
HETATM   17  N3  UNL     1      31.297 -17.518 -18.841  1.00  0.00    -0.196 NA
BRANCH  17  18
HETATM   18  O2  UNL     1      31.066 -18.459 -19.785  1.00  0.00    -0.313 OA
ATOM     19  H2  UNL     1      30.310 -18.254 -20.323  1.00  0.00     0.237 HD
ENDBRANCH  17  18
BRANCH  17  20
HETATM   20  C7  UNL     1      31.520 -16.238 -19.465  1.00  0.00     0.146 C 
BRANCH  20  21
HETATM   21  C8  UNL     1      30.935 -16.349 -20.880  1.00  0.00     0.180 C 
BRANCH  21  22
HETATM   22  O3  UNL     1      29.554 -16.281 -20.883  1.00  0.00    -0.400 OA
ATOM     23  H3  UNL     1      29.153 -17.102 -20.622  1.00  0.00     0.209 HD
ENDBRANCH  21  22
ENDBRANCH  20  21
ENDBRANCH  17  20
ENDBRANCH  16  17
ENDBRANCH  15  16
ENDBRANCH  10  15
ENDBRANCH   2  10
BRANCH   1  24
HETATM   24  N1  UNL     1      32.541 -20.782 -15.065  1.00  0.00    -0.393 N 
ATOM     25  H12 UNL     1      32.303 -19.869 -14.679  1.00  0.00     0.156 HD
ATOM     26  H11 UNL     1      33.223 -21.407 -14.635  1.00  0.00     0.156 HD
ENDBRANCH   1  24
BRANCH   9  27
HETATM   27  N7  UNL     1      33.037 -23.110 -16.073  1.00  0.00    -0.351 N 
HETATM   28  C10 UNL     1      34.334 -23.498 -15.955  1.00  0.00     0.088 C 
ATOM     29  H7  UNL     1      32.511 -23.620 -15.363  1.00  0.00     0.166 HD
BRANCH  28  30
HETATM   30  C11 UNL     1      35.443 -22.624 -16.475  1.00  0.00     0.208 C 
BRANCH  30  31
HETATM   31  O4  UNL     1      35.597 -21.553 -15.616  1.00  0.00    -0.396 OA
ATOM     32  H4  UNL     1      34.908 -21.586 -14.964  1.00  0.00     0.209 HD
ENDBRANCH  30  31
ENDBRANCH  28  30
ENDBRANCH   9  27
TORSDOF 15
ENDMDL
MODEL 3
REMARK VINA RESULT: -7.229383320      1.544      1.712
REMARK  15 active torsions:
REMARK  status: ('A' for Active; 'I' for Inactive)
REMARK    1  A    between atoms: N1_1  and  C1_4 
REMARK    2  A    between atoms: C2_5  and  N2_6 
REMARK    3  A    between atoms: N2_6  and  C3_7 
REMARK    4  A    between atoms: N2_6  and  C5_11 
REMARK    5  A    between atoms: C3_7  and  C4_8 
REMARK    6  A    between atoms: C4_8  and  O1_9 
REMARK    7  A    between atoms: C5_11  and  C6_12 
REMARK    8  A    between atoms: C6_12  and  N3_13 
REMARK    9  A    between atoms: N3_13  and  O2_14 
REMARK   10  A    between atoms: N3_13  and  C7_16 
REMARK   11  A    between atoms: C7_16  and  C8_17 
REMARK   12  A    between atoms: C8_17  and  O3_18 
REMARK   13  A    between atoms: C9_26  and  N7_27 
REMARK   14  A    between atoms: C10_29  and  C11_30 
REMARK   15  A    between atoms: C11_30  and  O4_31 
ROOT
HETATM    1  C1  UNL     1      31.921 -21.072 -16.260  1.00  0.00     0.118 A 
HETATM    2  C2  UNL     1      31.065 -20.250 -16.915  1.00  0.00     0.153 A 
HETATM    3  N4  UNL     1      30.479 -20.762 -18.042  1.00  0.00    -0.269 N 
ATOM      4  H4  UNL     1      29.825 -20.193 -18.579  1.00  0.00     0.190 HD
HETATM    5  N5  UNL     1      30.759 -21.985 -18.432  1.00  0.00    -0.239 N 
ATOM      6  H5  UNL     1      30.300 -22.327 -19.277  1.00  0.00     0.208 HD
HETATM    7  N6  UNL     1      31.587 -22.802 -17.814  1.00  0.00    -0.269 N 
ATOM      8  H6  UNL     1      31.753 -23.740 -18.180  1.00  0.00     0.190 HD
HETATM    9  C9  UNL     1      32.212 -22.392 -16.696  1.00  0.00     0.151 A 
ENDROOT
BRANCH   2  10
HETATM   10  N2  UNL     1      30.772 -18.924 -16.519  1.00  0.00    -0.341 N 
BRANCH  10  11
HETATM   11  C3  UNL     1      29.680 -18.589 -15.694  1.00  0.00     0.091 C 
BRANCH  11  12
HETATM   12  C4  UNL     1      28.413 -18.159 -16.341  1.00  0.00     0.208 C 
BRANCH  12  13
HETATM   13  O1  UNL     1      28.016 -19.167 -17.222  1.00  0.00    -0.396 OA
ATOM     14  H1  UNL     1      27.366 -19.701 -16.782  1.00  0.00     0.209 HD
ENDBRANCH  12  13
ENDBRANCH  11  12
ENDBRANCH  10  11
BRANCH  10  15
HETATM   15  C5  UNL     1      31.634 -17.858 -17.010  1.00  0.00     0.146 C 
BRANCH  15  16
HETATM   16  C6  UNL     1      31.123 -17.320 -18.339  1.00  0.00     0.140 C 
BRANCH  16  17
HETATM   17  N3  UNL     1      31.857 -17.863 -19.442  1.00  0.00    -0.196 NA
BRANCH  17  18
HETATM   18  O2  UNL     1      31.156 -18.803 -20.114  1.00  0.00    -0.313 OA
ATOM     19  H2  UNL     1      31.586 -19.651 -20.106  1.00  0.00     0.237 HD
ENDBRANCH  17  18
BRANCH  17  20
HETATM   20  C7  UNL     1      33.162 -18.372 -19.098  1.00  0.00     0.146 C 
BRANCH  20  21
HETATM   21  C8  UNL     1      33.455 -19.496 -20.102  1.00  0.00     0.180 C 
BRANCH  21  22
HETATM   22  O3  UNL     1      33.240 -20.750 -19.561  1.00  0.00    -0.400 OA
ATOM     23  H3  UNL     1      33.633 -21.440 -20.083  1.00  0.00     0.209 HD
ENDBRANCH  21  22
ENDBRANCH  20  21
ENDBRANCH  17  20
ENDBRANCH  16  17
ENDBRANCH  15  16
ENDBRANCH  10  15
ENDBRANCH   2  10
BRANCH   1  24
HETATM   24  N1  UNL     1      32.505 -20.695 -15.162  1.00  0.00    -0.393 N 
ATOM     25  H12 UNL     1      33.390 -20.200 -15.276  1.00  0.00     0.156 HD
ATOM     26  H11 UNL     1      32.102 -20.910 -14.250  1.00  0.00     0.156 HD
ENDBRANCH   1  24
BRANCH   9  27
HETATM   27  N7  UNL     1      33.013 -23.072 -16.042  1.00  0.00    -0.351 N 
HETATM   28  C10 UNL     1      34.306 -23.465 -15.895  1.00  0.00     0.088 C 
ATOM     29  H7  UNL     1      32.479 -23.530 -15.304  1.00  0.00     0.166 HD
BRANCH  28  30
HETATM   30  C11 UNL     1      35.425 -22.636 -16.464  1.00  0.00     0.208 C 
BRANCH  30  31
HETATM   31  O4  UNL     1      35.615 -21.536 -15.650  1.00  0.00    -0.396 OA
ATOM     32  H4  UNL     1      36.389 -21.071 -15.946  1.00  0.00     0.209 HD
ENDBRANCH  30  31
ENDBRANCH  28  30
ENDBRANCH   9  27
TORSDOF 15
ENDMDL
MODEL 4
REMARK VINA RESULT: -7.059913119      2.586      6.441
REMARK  15 active torsions:
REMARK  status: ('A' for Active; 'I' for Inactive)
REMARK    1  A    between atoms: N1_1  and  C1_4 
REMARK    2  A    between atoms: C2_5  and  N2_6 
REMARK    3  A    between atoms: N2_6  and  C3_7 
REMARK    4  A    between atoms: N2_6  and  C5_11 
REMARK    5  A    between atoms: C3_7  and  C4_8 
REMARK    6  A    between atoms: C4_8  and  O1_9 
REMARK    7  A    between atoms: C5_11  and  C6_12 
REMARK    8  A    between atoms: C6_12  and  N3_13 
REMARK    9  A    between atoms: N3_13  and  O2_14 
REMARK   10  A    between atoms: N3_13  and  C7_16 
REMARK   11  A    between atoms: C7_16  and  C8_17 
REMARK   12  A    between atoms: C8_17  and  O3_18 
REMARK   13  A    between atoms: C9_26  and  N7_27 
REMARK   14  A    between atoms: C10_29  and  C11_30 
REMARK   15  A    between atoms: C11_30  and  O4_31 
ROOT
HETATM    1  C1  UNL     1      31.701 -19.427 -17.005  1.00  0.00     0.118 A 
HETATM    2  C2  UNL     1      32.601 -20.440 -16.991  1.00  0.00     0.153 A 
HETATM    3  N4  UNL     1      32.921 -20.947 -15.759  1.00  0.00    -0.269 N 
ATOM      4  H4  UNL     1      33.592 -21.712 -15.682  1.00  0.00     0.190 HD
HETATM    5  N5  UNL     1      32.366 -20.450 -14.677  1.00  0.00    -0.239 N 
ATOM      6  H5  UNL     1      32.632 -20.857 -13.781  1.00  0.00     0.208 HD
HETATM    7  N6  UNL     1      31.490 -19.465 -14.665  1.00  0.00    -0.269 N 
ATOM      8  H6  UNL     1      31.103 -19.133 -13.781  1.00  0.00     0.190 HD
HETATM    9  C9  UNL     1      31.110 -18.901 -15.825  1.00  0.00     0.151 A 
ENDROOT
BRANCH   2  10
HETATM   10  N2  UNL     1      33.224 -20.971 -18.145  1.00  0.00    -0.341 N 
BRANCH  10  11
HETATM   11  C3  UNL     1      32.561 -21.810 -19.062  1.00  0.00     0.091 C 
BRANCH  11  12
HETATM   12  C4  UNL     1      31.591 -22.804 -18.534  1.00  0.00     0.208 C 
BRANCH  12  13
HETATM   13  O1  UNL     1      32.266 -23.626 -17.629  1.00  0.00    -0.396 OA
ATOM     14  H1  UNL     1      31.933 -24.509 -17.730  1.00  0.00     0.209 HD
ENDBRANCH  12  13
ENDBRANCH  11  12
ENDBRANCH  10  11
BRANCH  10  15
HETATM   15  C5  UNL     1      34.624 -20.643 -18.376  1.00  0.00     0.146 C 
BRANCH  15  16
HETATM   16  C6  UNL     1      35.508 -21.859 -18.139  1.00  0.00     0.140 C 
BRANCH  16  17
HETATM   17  N3  UNL     1      35.204 -22.494 -16.892  1.00  0.00    -0.196 NA
BRANCH  17  18
HETATM   18  O2  UNL     1      35.668 -21.794 -15.831  1.00  0.00    -0.313 OA
ATOM     19  H2  UNL     1      35.000 -21.654 -15.170  1.00  0.00     0.237 HD
ENDBRANCH  17  18
BRANCH  17  20
HETATM   20  C7  UNL     1      35.631 -23.868 -16.801  1.00  0.00     0.146 C 
BRANCH  20  21
HETATM   21  C8  UNL     1      34.904 -24.458 -15.585  1.00  0.00     0.180 C 
BRANCH  21  22
HETATM   22  O3  UNL     1      33.698 -23.829 -15.339  1.00  0.00    -0.400 OA
ATOM     23  H3  UNL     1      33.527 -23.729 -14.409  1.00  0.00     0.209 HD
ENDBRANCH  21  22
ENDBRANCH  20  21
ENDBRANCH  17  20
ENDBRANCH  16  17
ENDBRANCH  15  16
ENDBRANCH  10  15
ENDBRANCH   2  10
BRANCH   1  24
HETATM   24  N1  UNL     1      31.305 -18.896 -18.123  1.00  0.00    -0.393 N 
ATOM     25  H12 UNL     1      31.538 -19.416 -18.969  1.00  0.00     0.156 HD
ATOM     26  H11 UNL     1      30.813 -18.003 -18.137  1.00  0.00     0.156 HD
ENDBRANCH   1  24
BRANCH   9  27
HETATM   27  N7  UNL     1      30.304 -17.968 -15.928  1.00  0.00    -0.351 N 
HETATM   28  C10 UNL     1      29.056 -17.589 -16.312  1.00  0.00     0.088 C 
ATOM     29  H7  UNL     1      30.771 -17.132 -15.576  1.00  0.00     0.166 HD
BRANCH  28  30
HETATM   30  C11 UNL     1      27.947 -18.601 -16.408  1.00  0.00     0.208 C 
BRANCH  30  31
HETATM   31  O4  UNL     1      28.160 -19.383 -17.527  1.00  0.00    -0.396 OA
ATOM     32  H4  UNL     1      27.321 -19.567 -17.932  1.00  0.00     0.209 HD
ENDBRANCH  30  31
ENDBRANCH  28  30
ENDBRANCH   9  27
TORSDOF 15
ENDMDL
MODEL 5
REMARK VINA RESULT: -7.048369973      2.054      5.158
REMARK  15 active torsions:
REMARK  status: ('A' for Active; 'I' for Inactive)
REMARK    1  A    between atoms: N1_1  and  C1_4 
REMARK    2  A    between atoms: C2_5  and  N2_6 
REMARK    3  A    between atoms: N2_6  and  C3_7 
REMARK    4  A    between atoms: N2_6  and  C5_11 
REMARK    5  A    between atoms: C3_7  and  C4_8 
REMARK    6  A    between atoms: C4_8  and  O1_9 
REMARK    7  A    between atoms: C5_11  and  C6_12 
REMARK    8  A    between atoms: C6_12  and  N3_13 
REMARK    9  A    between atoms: N3_13  and  O2_14 
REMARK   10  A    between atoms: N3_13  and  C7_16 
REMARK   11  A    between atoms: C7_16  and  C8_17 
REMARK   12  A    between atoms: C8_17  and  O3_18 
REMARK   13  A    between atoms: C9_26  and  N7_27 
REMARK   14  A    between atoms: C10_29  and  C11_30 
REMARK   15  A    between atoms: C11_30  and  O4_31 
ROOT
HETATM    1  C1  UNL     1      31.471 -18.618 -18.142  1.00  0.00     0.118 A 
HETATM    2  C2  UNL     1      30.494 -19.369 -17.577  1.00  0.00     0.153 A 
HETATM    3  N4  UNL     1      29.892 -20.290 -18.393  1.00  0.00    -0.269 N 
ATOM      4  H4  UNL     1      29.150 -20.886 -18.026  1.00  0.00     0.190 HD
HETATM    5  N5  UNL     1      30.269 -20.407 -19.645  1.00  0.00    -0.239 N 
ATOM      6  H5  UNL     1      29.795 -21.106 -20.217  1.00  0.00     0.208 HD
HETATM    7  N6  UNL     1      31.215 -19.689 -20.218  1.00  0.00    -0.269 N 
ATOM      8  H6  UNL     1      31.451 -19.839 -21.199  1.00  0.00     0.190 HD
HETATM    9  C9  UNL     1      31.866 -18.757 -19.499  1.00  0.00     0.151 A 
ENDROOT
BRANCH   2  10
HETATM   10  N2  UNL     1      30.063 -19.239 -16.236  1.00  0.00    -0.341 N 
BRANCH  10  11
HETATM   11  C3  UNL     1      29.261 -18.173 -15.784  1.00  0.00     0.091 C 
BRANCH  11  12
HETATM   12  C4  UNL     1      27.957 -17.937 -16.456  1.00  0.00     0.208 C 
BRANCH  12  13
HETATM   13  O1  UNL     1      27.390 -19.180 -16.744  1.00  0.00    -0.396 OA
ATOM     14  H1  UNL     1      27.616 -19.405 -17.639  1.00  0.00     0.209 HD
ENDBRANCH  12  13
ENDBRANCH  11  12
ENDBRANCH  10  11
BRANCH  10  15
HETATM   15  C5  UNL     1      30.490 -20.252 -15.281  1.00  0.00     0.146 C 
BRANCH  15  16
HETATM   16  C6  UNL     1      31.976 -20.542 -15.431  1.00  0.00     0.140 C 
BRANCH  16  17
HETATM   17  N3  UNL     1      32.208 -21.890 -15.853  1.00  0.00    -0.196 NA
BRANCH  17  18
HETATM   18  O2  UNL     1      32.775 -22.643 -14.882  1.00  0.00    -0.313 OA
ATOM     19  H2  UNL     1      33.282 -23.365 -15.234  1.00  0.00     0.237 HD
ENDBRANCH  17  18
BRANCH  17  20
HETATM   20  C7  UNL     1      32.962 -22.012 -17.076  1.00  0.00     0.146 C 
BRANCH  20  21
HETATM   21  C8  UNL     1      32.211 -23.039 -17.936  1.00  0.00     0.180 C 
BRANCH  21  22
HETATM   22  O3  UNL     1      30.839 -22.895 -17.845  1.00  0.00    -0.400 OA
ATOM     23  H3  UNL     1      30.410 -22.991 -18.688  1.00  0.00     0.209 HD
ENDBRANCH  21  22
ENDBRANCH  20  21
ENDBRANCH  17  20
ENDBRANCH  16  17
ENDBRANCH  15  16
ENDBRANCH  10  15
ENDBRANCH   2  10
BRANCH   1  24
HETATM   24  N1  UNL     1      32.127 -17.737 -17.448  1.00  0.00    -0.393 N 
ATOM     25  H12 UNL     1      32.759 -17.135 -17.975  1.00  0.00     0.156 HD
ATOM     26  H11 UNL     1      32.022 -17.681 -16.434  1.00  0.00     0.156 HD
ENDBRANCH   1  24
BRANCH   9  27
HETATM   27  N7  UNL     1      32.762 -18.025 -19.937  1.00  0.00    -0.351 N 
HETATM   28  C10 UNL     1      33.063 -16.845 -20.542  1.00  0.00     0.088 C 
ATOM     29  H7  UNL     1      33.646 -18.509 -19.777  1.00  0.00     0.166 HD
BRANCH  28  30
HETATM   30  C11 UNL     1      32.104 -15.688 -20.479  1.00  0.00     0.208 C 
BRANCH  30  31
HETATM   31  O4  UNL     1      32.760 -14.549 -20.903  1.00  0.00    -0.396 OA
ATOM     32  H4  UNL     1      33.601 -14.503 -20.463  1.00  0.00     0.209 HD
ENDBRANCH  30  31
ENDBRANCH  28  30
ENDBRANCH   9  27
TORSDOF 15
ENDMDL
