MODEL 1
REMARK VINA RESULT: -9.941152915      0.000      0.000
REMARK  7 active torsions:
REMARK  status: ('A' for Active; 'I' for Inactive)
REMARK    1  A    between atoms: C3_5  and  C4_6 
REMARK       I    between atoms: C4_6  and  N2_8 
REMARK    2  A    between atoms: C7_11  and  N3_12 
REMARK       I    between atoms: N3_12  and  C8_14 
REMARK    3  A    between atoms: C8_14  and  C9_16 
REMARK    4  A    between atoms: C10_17  and  C11_18 
REMARK    5  A    between atoms: C15_23  and  N4_24 
REMARK       I    between atoms: N4_24  and  C16_26 
REMARK       I    between atoms: C16_26  and  N5_28 
REMARK    6  A    between atoms: N5_28  and  C17_30 
REMARK    7  A    between atoms: C17_30  and  C18_31 
ROOT
HETATM    1  C9  UNL     1      44.585  -3.312  75.837  1.00  0.00     0.093 A 
HETATM    2  C10 UNL     1      44.482  -2.994  74.509  1.00  0.00     0.085 A 
HETATM    3  N6  UNL     1      44.117  -4.181  73.905  1.00  0.00    -0.259 N 
ATOM      4  H6  UNL     1      43.952  -4.314  72.908  1.00  0.00     0.195 HD
HETATM    5  O4  UNL     1      44.020  -5.091  74.811  1.00  0.00    -0.241 OA
HETATM    6  C22 UNL     1      44.285  -4.659  76.011  1.00  0.00     0.090 A 
HETATM    7  C23 UNL     1      44.272  -5.414  77.294  1.00  0.00     0.080 C 
ENDROOT
BRANCH   2   8
HETATM    8  C11 UNL     1      44.727  -1.765  73.777  1.00  0.00     0.023 A 
HETATM    9  C12 UNL     1      43.639  -1.008  73.292  1.00  0.00     0.047 A 
HETATM   10 CL1  UNL     1      42.056  -1.666  73.618  1.00  0.00    -0.083 Cl
HETATM   11  C13 UNL     1      43.863   0.166  72.654  1.00  0.00     0.027 A 
HETATM   12  C14 UNL     1      45.148   0.690  72.446  1.00  0.00     0.032 A 
HETATM   13  C15 UNL     1      46.209  -0.014  72.906  1.00  0.00     0.043 A 
HETATM   14  C20 UNL     1      45.981  -1.239  73.567  1.00  0.00    -0.021 A 
HETATM   15  C21 UNL     1      47.152  -1.994  74.059  1.00  0.00     0.052 C 
BRANCH  13  16
HETATM   16  N4  UNL     1      47.530   0.473  72.773  1.00  0.00    -0.308 N 
HETATM   17  C16 UNL     1      48.286   1.072  73.769  1.00  0.00     0.324 C 
HETATM   18  O3  UNL     1      47.945   1.297  74.961  1.00  0.00    -0.247 OA
HETATM   19  N5  UNL     1      49.638   1.539  73.497  1.00  0.00    -0.317 N 
ATOM     20  H5  UNL     1      49.971   1.372  72.547  1.00  0.00     0.169 HD
ATOM     21  H4  UNL     1      47.968   0.373  71.858  1.00  0.00     0.170 HD
BRANCH  19  22
HETATM   22  C17 UNL     1      50.546   2.181  74.338  1.00  0.00     0.143 C 
BRANCH  22  23
HETATM   23  C18 UNL     1      51.445   1.330  75.181  1.00  0.00     0.272 C 
HETATM   24  C19 UNL     1      52.699   2.081  75.631  1.00  0.00     0.096 C 
HETATM   25  F1  UNL     1      51.934   0.338  74.247  1.00  0.00    -0.201 F 
HETATM   26  F2  UNL     1      50.929   0.619  76.185  1.00  0.00    -0.201 F 
ENDBRANCH  22  23
ENDBRANCH  19  22
ENDBRANCH  13  16
ENDBRANCH   2   8
BRANCH   1  27
HETATM   27  C8  UNL     1      44.896  -2.322  76.876  1.00  0.00     0.261 C 
HETATM   28  N3  UNL     1      44.080  -1.173  77.078  1.00  0.00    -0.315 N 
ATOM     29  H3  UNL     1      43.260  -1.042  76.486  1.00  0.00     0.170 HD
HETATM   30  O2  UNL     1      45.895  -2.535  77.574  1.00  0.00    -0.267 OA
BRANCH  28  31
HETATM   31  C7  UNL     1      44.377  -0.181  78.099  1.00  0.00     0.111 A 
HETATM   32  C3  UNL     1      44.911   0.529  78.925  1.00  0.00     0.136 A 
HETATM   33  N1  UNL     1      44.408   1.342  79.836  1.00  0.00    -0.347 N 
HETATM   34  C2  UNL     1      43.106   1.421  79.868  1.00  0.00     0.049 A 
ATOM     35  H1  UNL     1      45.000   1.873  80.475  1.00  0.00     0.166 HD
HETATM   36  C1  UNL     1      42.284   2.316  80.809  1.00  0.00     0.076 C 
HETATM   37  S1  UNL     1      42.607   0.394  78.679  1.00  0.00    -0.057 SA
BRANCH  32  38
HETATM   38  C4  UNL     1      46.459   0.685  78.794  1.00  0.00     0.272 C 
HETATM   39  O1  UNL     1      46.927   1.540  78.008  1.00  0.00    -0.266 OA
HETATM   40  N2  UNL     1      47.351  -0.082  79.504  1.00  0.00    -0.355 N 
HETATM   41  C5  UNL     1      46.997  -1.136  80.404  1.00  0.00     0.152 C 
HETATM   42  C6  UNL     1      48.791   0.224  79.375  1.00  0.00     0.152 C 
ENDBRANCH  32  38
ENDBRANCH  28  31
ENDBRANCH   1  27
TORSDOF 7
ENDMDL
MODEL 2
REMARK VINA RESULT: -9.670586700      1.589      1.840
REMARK  7 active torsions:
REMARK  status: ('A' for Active; 'I' for Inactive)
REMARK    1  A    between atoms: C3_5  and  C4_6 
REMARK       I    between atoms: C4_6  and  N2_8 
REMARK    2  A    between atoms: C7_11  and  N3_12 
REMARK       I    between atoms: N3_12  and  C8_14 
REMARK    3  A    between atoms: C8_14  and  C9_16 
REMARK    4  A    between atoms: C10_17  and  C11_18 
REMARK    5  A    between atoms: C15_23  and  N4_24 
REMARK       I    between atoms: N4_24  and  C16_26 
REMARK       I    between atoms: C16_26  and  N5_28 
REMARK    6  A    between atoms: N5_28  and  C17_30 
REMARK    7  A    between atoms: C17_30  and  C18_31 
ROOT
HETATM    1  C9  UNL     1      44.387  -3.442  75.805  1.00  0.00     0.093 A 
HETATM    2  C10 UNL     1      44.377  -3.031  74.498  1.00  0.00     0.085 A 
HETATM    3  N6  UNL     1      44.096  -4.180  73.786  1.00  0.00    -0.259 N 
ATOM      4  H6  UNL     1      44.013  -4.245  72.772  1.00  0.00     0.195 HD
HETATM    5  O4  UNL     1      43.957  -5.156  74.616  1.00  0.00    -0.241 OA
HETATM    6  C22 UNL     1      44.115  -4.804  75.860  1.00  0.00     0.090 A 
HETATM    7  C23 UNL     1      44.025  -5.650  77.082  1.00  0.00     0.080 C 
ENDROOT
BRANCH   2   8
HETATM    8  C11 UNL     1      44.641  -1.747  73.877  1.00  0.00     0.023 A 
HETATM    9  C12 UNL     1      43.566  -0.906  73.520  1.00  0.00     0.047 A 
HETATM   10 CL1  UNL     1      41.972  -1.532  73.858  1.00  0.00    -0.083 Cl
HETATM   11  C13 UNL     1      43.811   0.315  72.987  1.00  0.00     0.027 A 
HETATM   12  C14 UNL     1      45.106   0.808  72.766  1.00  0.00     0.032 A 
HETATM   13  C15 UNL     1      46.156   0.023  73.104  1.00  0.00     0.043 A 
HETATM   14  C20 UNL     1      45.906  -1.251  73.656  1.00  0.00    -0.021 A 
HETATM   15  C21 UNL     1      47.065  -2.094  74.016  1.00  0.00     0.052 C 
BRANCH  13  16
HETATM   16  N4  UNL     1      47.488   0.470  72.955  1.00  0.00    -0.308 N 
HETATM   17  C16 UNL     1      48.264   1.077  73.931  1.00  0.00     0.324 C 
HETATM   18  O3  UNL     1      47.933   1.345  75.117  1.00  0.00    -0.247 OA
HETATM   19  N5  UNL     1      49.628   1.499  73.641  1.00  0.00    -0.317 N 
ATOM     20  H5  UNL     1      49.953   1.295  72.696  1.00  0.00     0.169 HD
ATOM     21  H4  UNL     1      47.921   0.332  72.041  1.00  0.00     0.170 HD
BRANCH  19  22
HETATM   22  C17 UNL     1      50.556   2.140  74.461  1.00  0.00     0.143 C 
BRANCH  22  23
HETATM   23  C18 UNL     1      51.476   1.289  75.279  1.00  0.00     0.272 C 
HETATM   24  C19 UNL     1      52.731   2.047  75.716  1.00  0.00     0.096 C 
HETATM   25  F1  UNL     1      51.960   0.313  74.324  1.00  0.00    -0.201 F 
HETATM   26  F2  UNL     1      50.985   0.561  76.283  1.00  0.00    -0.201 F 
ENDBRANCH  22  23
ENDBRANCH  19  22
ENDBRANCH  13  16
ENDBRANCH   2   8
BRANCH   1  27
HETATM   27  C8  UNL     1      44.587  -2.521  76.932  1.00  0.00     0.261 C 
HETATM   28  N3  UNL     1      45.618  -2.732  77.891  1.00  0.00    -0.315 N 
ATOM     29  H3  UNL     1      46.229  -3.541  77.787  1.00  0.00     0.170 HD
HETATM   30  O2  UNL     1      43.826  -1.549  77.004  1.00  0.00    -0.267 OA
BRANCH  28  31
HETATM   31  C7  UNL     1      45.827  -1.832  79.014  1.00  0.00     0.111 A 
HETATM   32  C3  UNL     1      46.147  -0.910  79.736  1.00  0.00     0.136 A 
HETATM   33  N1  UNL     1      46.132  -0.782  81.050  1.00  0.00    -0.347 N 
HETATM   34  C2  UNL     1      45.686  -1.813  81.714  1.00  0.00     0.049 A 
ATOM     35  H1  UNL     1      46.448   0.068  81.517  1.00  0.00     0.166 HD
HETATM   36  C1  UNL     1      45.538  -1.902  83.241  1.00  0.00     0.076 C 
HETATM   37  S1  UNL     1      45.314  -2.918  80.549  1.00  0.00    -0.057 SA
BRANCH  32  38
HETATM   38  C4  UNL     1      46.454   0.444  79.021  1.00  0.00     0.272 C 
HETATM   39  O1  UNL     1      45.508   1.146  78.600  1.00  0.00    -0.266 OA
HETATM   40  N2  UNL     1      47.731   0.911  78.822  1.00  0.00    -0.355 N 
HETATM   41  C5  UNL     1      48.929   0.220  79.189  1.00  0.00     0.152 C 
HETATM   42  C6  UNL     1      47.897   2.253  78.226  1.00  0.00     0.152 C 
ENDBRANCH  32  38
ENDBRANCH  28  31
ENDBRANCH   1  27
TORSDOF 7
ENDMDL
MODEL 3
REMARK VINA RESULT: -9.622663655      3.473      6.027
REMARK  7 active torsions:
REMARK  status: ('A' for Active; 'I' for Inactive)
REMARK    1  A    between atoms: C3_5  and  C4_6 
REMARK       I    between atoms: C4_6  and  N2_8 
REMARK    2  A    between atoms: C7_11  and  N3_12 
REMARK       I    between atoms: N3_12  and  C8_14 
REMARK    3  A    between atoms: C8_14  and  C9_16 
REMARK    4  A    between atoms: C10_17  and  C11_18 
REMARK    5  A    between atoms: C15_23  and  N4_24 
REMARK       I    between atoms: N4_24  and  C16_26 
REMARK       I    between atoms: C16_26  and  N5_28 
REMARK    6  A    between atoms: N5_28  and  C17_30 
REMARK    7  A    between atoms: C17_30  and  C18_31 
ROOT
HETATM    1  C9  UNL     1      45.997  -1.612  77.904  1.00  0.00     0.093 A 
HETATM    2  C10 UNL     1      44.855  -2.248  77.496  1.00  0.00     0.085 A 
HETATM    3  N6  UNL     1      44.440  -2.946  78.613  1.00  0.00    -0.259 N 
ATOM      4  H6  UNL     1      43.613  -3.538  78.670  1.00  0.00     0.195 HD
HETATM    5  O4  UNL     1      45.273  -2.724  79.570  1.00  0.00    -0.241 OA
HETATM    6  C22 UNL     1      46.248  -1.929  79.234  1.00  0.00     0.090 A 
HETATM    7  C23 UNL     1      47.384  -1.447  80.069  1.00  0.00     0.080 C 
ENDROOT
BRANCH   2   8
HETATM    8  C11 UNL     1      44.173  -2.306  76.216  1.00  0.00     0.023 A 
HETATM    9  C12 UNL     1      44.011  -3.546  75.563  1.00  0.00     0.047 A 
HETATM   10 CL1  UNL     1      44.691  -4.928  76.385  1.00  0.00    -0.083 Cl
HETATM   11  C13 UNL     1      43.331  -3.610  74.393  1.00  0.00     0.027 A 
HETATM   12  C14 UNL     1      42.758  -2.487  73.779  1.00  0.00     0.032 A 
HETATM   13  C15 UNL     1      42.895  -1.285  74.387  1.00  0.00     0.043 A 
HETATM   14  C20 UNL     1      43.607  -1.212  75.603  1.00  0.00    -0.021 A 
HETATM   15  C21 UNL     1      43.747   0.108  76.250  1.00  0.00     0.052 C 
BRANCH  13  16
HETATM   16  N4  UNL     1      42.307  -0.116  73.852  1.00  0.00    -0.308 N 
HETATM   17  C16 UNL     1      42.801   0.643  72.803  1.00  0.00     0.324 C 
HETATM   18  O3  UNL     1      43.854   0.443  72.139  1.00  0.00    -0.247 OA
HETATM   19  N5  UNL     1      42.098   1.837  72.352  1.00  0.00    -0.317 N 
ATOM     20  H5  UNL     1      41.230   2.041  72.848  1.00  0.00     0.169 HD
ATOM     21  H4  UNL     1      41.435   0.197  74.278  1.00  0.00     0.170 HD
BRANCH  19  22
HETATM   22  C17 UNL     1      42.432   2.742  71.345  1.00  0.00     0.143 C 
BRANCH  22  23
HETATM   23  C18 UNL     1      43.630   3.613  71.554  1.00  0.00     0.272 C 
HETATM   24  C19 UNL     1      43.890   3.896  73.035  1.00  0.00     0.096 C 
HETATM   25  F1  UNL     1      43.210   4.889  71.012  1.00  0.00    -0.201 F 
HETATM   26  F2  UNL     1      44.768   3.336  70.915  1.00  0.00    -0.201 F 
ENDBRANCH  22  23
ENDBRANCH  19  22
ENDBRANCH  13  16
ENDBRANCH   2   8
BRANCH   1  27
HETATM   27  C8  UNL     1      46.753  -0.694  77.042  1.00  0.00     0.261 C 
HETATM   28  N3  UNL     1      47.171  -1.074  75.736  1.00  0.00    -0.315 N 
ATOM     29  H3  UNL     1      46.936  -2.005  75.394  1.00  0.00     0.170 HD
HETATM   30  O2  UNL     1      47.001   0.429  77.499  1.00  0.00    -0.267 OA
BRANCH  28  31
HETATM   31  C7  UNL     1      47.923  -0.177  74.872  1.00  0.00     0.111 A 
HETATM   32  C3  UNL     1      48.729   0.601  74.404  1.00  0.00     0.136 A 
HETATM   33  N1  UNL     1      48.716   1.306  73.288  1.00  0.00    -0.347 N 
HETATM   34  C2  UNL     1      47.667   1.148  72.529  1.00  0.00     0.049 A 
ATOM     35  H1  UNL     1      49.479   1.935  73.035  1.00  0.00     0.166 HD
HETATM   36  C1  UNL     1      47.430   1.827  71.171  1.00  0.00     0.076 C 
HETATM   37  S1  UNL     1      46.732   0.065  73.348  1.00  0.00    -0.057 SA
BRANCH  32  38
HETATM   38  C4  UNL     1      50.116   0.661  75.117  1.00  0.00     0.272 C 
HETATM   39  O1  UNL     1      50.947  -0.255  74.925  1.00  0.00    -0.266 OA
HETATM   40  N2  UNL     1      50.477   1.681  75.964  1.00  0.00    -0.355 N 
HETATM   41  C5  UNL     1      49.640   2.778  76.339  1.00  0.00     0.152 C 
HETATM   42  C6  UNL     1      51.854   1.685  76.502  1.00  0.00     0.152 C 
ENDBRANCH  32  38
ENDBRANCH  28  31
ENDBRANCH   1  27
TORSDOF 7
ENDMDL
MODEL 4
REMARK VINA RESULT: -9.496044431      1.563      1.864
REMARK  7 active torsions:
REMARK  status: ('A' for Active; 'I' for Inactive)
REMARK    1  A    between atoms: C3_5  and  C4_6 
REMARK       I    between atoms: C4_6  and  N2_8 
REMARK    2  A    between atoms: C7_11  and  N3_12 
REMARK       I    between atoms: N3_12  and  C8_14 
REMARK    3  A    between atoms: C8_14  and  C9_16 
REMARK    4  A    between atoms: C10_17  and  C11_18 
REMARK    5  A    between atoms: C15_23  and  N4_24 
REMARK       I    between atoms: N4_24  and  C16_26 
REMARK       I    between atoms: C16_26  and  N5_28 
REMARK    6  A    between atoms: N5_28  and  C17_30 
REMARK    7  A    between atoms: C17_30  and  C18_31 
ROOT
HETATM    1  C9  UNL     1      44.706  -3.448  76.187  1.00  0.00     0.093 A 
HETATM    2  C10 UNL     1      44.683  -3.068  74.871  1.00  0.00     0.085 A 
HETATM    3  N6  UNL     1      44.496  -4.249  74.182  1.00  0.00    -0.259 N 
ATOM      4  H6  UNL     1      44.431  -4.341  73.168  1.00  0.00     0.195 HD
HETATM    5  O4  UNL     1      44.419  -5.214  75.031  1.00  0.00    -0.241 OA
HETATM    6  C22 UNL     1      44.535  -4.826  76.269  1.00  0.00     0.090 A 
HETATM    7  C23 UNL     1      44.493  -5.649  77.509  1.00  0.00     0.080 C 
ENDROOT
BRANCH   2   8
HETATM    8  C11 UNL     1      44.859  -1.780  74.224  1.00  0.00     0.023 A 
HETATM    9  C12 UNL     1      43.732  -0.982  73.931  1.00  0.00     0.047 A 
HETATM   10 CL1  UNL     1      42.188  -1.663  74.375  1.00  0.00    -0.083 Cl
HETATM   11  C13 UNL     1      43.897   0.241  73.374  1.00  0.00     0.027 A 
HETATM   12  C14 UNL     1      45.157   0.779  73.067  1.00  0.00     0.032 A 
HETATM   13  C15 UNL     1      46.254   0.036  73.343  1.00  0.00     0.043 A 
HETATM   14  C20 UNL     1      46.088  -1.241  73.919  1.00  0.00    -0.021 A 
HETATM   15  C21 UNL     1      47.297  -2.038  74.210  1.00  0.00     0.052 C 
BRANCH  13  16
HETATM   16  N4  UNL     1      47.557   0.529  73.104  1.00  0.00    -0.308 N 
HETATM   17  C16 UNL     1      48.394   1.120  74.039  1.00  0.00     0.324 C 
HETATM   18  O3  UNL     1      48.155   1.330  75.259  1.00  0.00    -0.247 OA
HETATM   19  N5  UNL     1      49.717   1.596  73.658  1.00  0.00    -0.317 N 
ATOM     20  H5  UNL     1      49.968   1.440  72.682  1.00  0.00     0.169 HD
ATOM     21  H4  UNL     1      47.916   0.441  72.154  1.00  0.00     0.170 HD
BRANCH  19  22
HETATM   22  C17 UNL     1      50.691   2.232  74.427  1.00  0.00     0.143 C 
BRANCH  22  23
HETATM   23  C18 UNL     1      51.633   1.376  75.215  1.00  0.00     0.272 C 
HETATM   24  C19 UNL     1      52.959   2.084  75.500  1.00  0.00     0.096 C 
HETATM   25  F1  UNL     1      51.980   0.322  74.283  1.00  0.00    -0.201 F 
HETATM   26  F2  UNL     1      51.193   0.733  76.298  1.00  0.00    -0.201 F 
ENDBRANCH  22  23
ENDBRANCH  19  22
ENDBRANCH  13  16
ENDBRANCH   2   8
BRANCH   1  27
HETATM   27  C8  UNL     1      44.824  -2.491  77.295  1.00  0.00     0.261 C 
HETATM   28  N3  UNL     1      43.690  -2.096  78.060  1.00  0.00    -0.315 N 
ATOM     29  H3  UNL     1      42.779  -2.490  77.831  1.00  0.00     0.170 HD
HETATM   30  O2  UNL     1      45.954  -2.052  77.540  1.00  0.00    -0.267 OA
BRANCH  28  31
HETATM   31  C7  UNL     1      43.789  -1.147  79.158  1.00  0.00     0.111 A 
HETATM   32  C3  UNL     1      43.946  -0.610  80.236  1.00  0.00     0.136 A 
HETATM   33  N1  UNL     1      43.642   0.602  80.661  1.00  0.00    -0.347 N 
HETATM   34  C2  UNL     1      43.082   1.387  79.782  1.00  0.00     0.049 A 
ATOM     35  H1  UNL     1      43.832   0.906  81.616  1.00  0.00     0.166 HD
HETATM   36  C1  UNL     1      42.665   2.847  80.019  1.00  0.00     0.076 C 
HETATM   37  S1  UNL     1      42.976   0.464  78.420  1.00  0.00    -0.057 SA
BRANCH  32  38
HETATM   38  C4  UNL     1      44.827  -1.387  81.264  1.00  0.00     0.272 C 
HETATM   39  O1  UNL     1      46.073  -1.276  81.215  1.00  0.00    -0.266 OA
HETATM   40  N2  UNL     1      44.299  -2.203  82.235  1.00  0.00    -0.355 N 
HETATM   41  C5  UNL     1      42.908  -2.487  82.406  1.00  0.00     0.152 C 
HETATM   42  C6  UNL     1      45.224  -2.806  83.218  1.00  0.00     0.152 C 
ENDBRANCH  32  38
ENDBRANCH  28  31
ENDBRANCH   1  27
TORSDOF 7
ENDMDL
MODEL 5
REMARK VINA RESULT: -9.448251375      2.544      6.109
REMARK  7 active torsions:
REMARK  status: ('A' for Active; 'I' for Inactive)
REMARK    1  A    between atoms: C3_5  and  C4_6 
REMARK       I    between atoms: C4_6  and  N2_8 
REMARK    2  A    between atoms: C7_11  and  N3_12 
REMARK       I    between atoms: N3_12  and  C8_14 
REMARK    3  A    between atoms: C8_14  and  C9_16 
REMARK    4  A    between atoms: C10_17  and  C11_18 
REMARK    5  A    between atoms: C15_23  and  N4_24 
REMARK       I    between atoms: N4_24  and  C16_26 
REMARK       I    between atoms: C16_26  and  N5_28 
REMARK    6  A    between atoms: N5_28  and  C17_30 
REMARK    7  A    between atoms: C17_30  and  C18_31 
ROOT
HETATM    1  C9  UNL     1      43.588   0.035  78.132  1.00  0.00     0.093 A 
HETATM    2  C10 UNL     1      44.388   0.110  79.242  1.00  0.00     0.085 A 
HETATM    3  N6  UNL     1      43.572   0.660  80.210  1.00  0.00    -0.259 N 
ATOM      4  H6  UNL     1      43.843   0.861  81.172  1.00  0.00     0.195 HD
HETATM    5  O4  UNL     1      42.411   0.877  79.695  1.00  0.00    -0.241 OA
HETATM    6  C22 UNL     1      42.327   0.531  78.443  1.00  0.00     0.090 A 
HETATM    7  C23 UNL     1      41.154   0.628  77.529  1.00  0.00     0.080 C 
ENDROOT
BRANCH   2   8
HETATM    8  C11 UNL     1      45.784  -0.220  79.463  1.00  0.00     0.023 A 
HETATM    9  C12 UNL     1      46.135  -1.494  79.958  1.00  0.00     0.047 A 
HETATM   10 CL1  UNL     1      44.801  -2.571  80.285  1.00  0.00    -0.083 Cl
HETATM   11  C13 UNL     1      47.440  -1.822  80.117  1.00  0.00     0.027 A 
HETATM   12  C14 UNL     1      48.492  -0.947  79.805  1.00  0.00     0.032 A 
HETATM   13  C15 UNL     1      48.183   0.280  79.322  1.00  0.00     0.043 A 
HETATM   14  C20 UNL     1      46.825   0.628  79.160  1.00  0.00    -0.021 A 
HETATM   15  C21 UNL     1      46.509   1.972  78.635  1.00  0.00     0.052 C 
BRANCH  13  16
HETATM   16  N4  UNL     1      49.189   1.197  78.943  1.00  0.00    -0.308 N 
HETATM   17  C16 UNL     1      49.866   1.216  77.733  1.00  0.00     0.324 C 
HETATM   18  O3  UNL     1      49.720   0.430  76.759  1.00  0.00    -0.247 OA
HETATM   19  N5  UNL     1      50.893   2.216  77.471  1.00  0.00    -0.317 N 
ATOM     20  H5  UNL     1      51.045   2.887  78.223  1.00  0.00     0.169 HD
ATOM     21  H4  UNL     1      49.440   1.914  79.623  1.00  0.00     0.170 HD
BRANCH  19  22
HETATM   22  C17 UNL     1      51.698   2.393  76.346  1.00  0.00     0.143 C 
BRANCH  22  23
HETATM   23  C18 UNL     1      51.122   3.132  75.179  1.00  0.00     0.272 C 
HETATM   24  C19 UNL     1      52.091   4.173  74.616  1.00  0.00     0.096 C 
HETATM   25  F1  UNL     1      50.058   3.913  75.775  1.00  0.00    -0.201 F 
HETATM   26  F2  UNL     1      50.528   2.453  74.196  1.00  0.00    -0.201 F 
ENDBRANCH  22  23
ENDBRANCH  19  22
ENDBRANCH  13  16
ENDBRANCH   2   8
BRANCH   1  27
HETATM   27  C8  UNL     1      44.033  -0.554  76.863  1.00  0.00     0.261 C 
HETATM   28  N3  UNL     1      44.811   0.188  75.930  1.00  0.00    -0.315 N 
ATOM     29  H3  UNL     1      45.063   1.150  76.154  1.00  0.00     0.170 HD
HETATM   30  O2  UNL     1      43.710  -1.728  76.646  1.00  0.00    -0.267 OA
BRANCH  28  31
HETATM   31  C7  UNL     1      45.256  -0.380  74.667  1.00  0.00     0.111 A 
HETATM   32  C3  UNL     1      45.671  -1.107  73.788  1.00  0.00     0.136 A 
HETATM   33  N1  UNL     1      46.072  -0.850  72.557  1.00  0.00    -0.347 N 
HETATM   34  C2  UNL     1      46.009   0.401  72.191  1.00  0.00     0.049 A 
ATOM     35  H1  UNL     1      46.409  -1.582  71.931  1.00  0.00     0.166 HD
HETATM   36  C1  UNL     1      46.385   0.950  70.805  1.00  0.00     0.076 C 
HETATM   37  S1  UNL     1      45.425   1.185  73.517  1.00  0.00    -0.057 SA
BRANCH  32  38
HETATM   38  C4  UNL     1      45.544  -2.641  74.053  1.00  0.00     0.272 C 
HETATM   39  O1  UNL     1      46.533  -3.274  74.489  1.00  0.00    -0.266 OA
HETATM   40  N2  UNL     1      44.387  -3.345  73.826  1.00  0.00    -0.355 N 
HETATM   41  C5  UNL     1      43.181  -2.797  73.284  1.00  0.00     0.152 C 
HETATM   42  C6  UNL     1      44.352  -4.772  74.210  1.00  0.00     0.152 C 
ENDBRANCH  32  38
ENDBRANCH  28  31
ENDBRANCH   1  27
TORSDOF 7
ENDMDL
