MODEL 1
REMARK VINA RESULT: -7.824637378      0.000      0.000
REMARK  2 active torsions:
REMARK  status: ('A' for Active; 'I' for Inactive)
REMARK    1  A    between atoms: C3_3  and  C4_4 
REMARK    2  A    between atoms: N1_7  and  C7_8 
ROOT
HETATM    1  C4  UNL     1     122.843  13.554  26.221  1.00  0.00     0.061 A 
HETATM    2  C5  UNL     1     123.998  13.491  26.971  1.00  0.00     0.050 A 
HETATM    3  C6  UNL     1     124.056  14.672  27.678  1.00  0.00     0.113 A 
HETATM    4  N1  UNL     1     122.975  15.436  27.375  1.00  0.00    -0.297 N 
HETATM    5  N2  UNL     1     122.284  14.719  26.500  1.00  0.00    -0.298 N 
ATOM      6  H2  UNL     1     121.409  15.036  26.083  1.00  0.00     0.187 HD
ENDROOT
BRANCH   4   7
HETATM    7  C7  UNL     1     122.614  16.726  27.859  1.00  0.00     0.115 C 
HETATM    8  C8  UNL     1     123.781  17.548  28.357  1.00  0.00     0.011 C 
HETATM    9  C9  UNL     1     123.157  18.623  29.262  1.00  0.00     0.011 C 
HETATM   10  C13 UNL     1     124.515  18.278  27.280  1.00  0.00     0.011 C 
HETATM   11  C10 UNL     1     122.174  19.424  28.465  1.00  0.00    -0.013 C 
HETATM   12  C11 UNL     1     122.936  20.185  27.411  1.00  0.00     0.009 C 
HETATM   13  C16 UNL     1     121.088  18.602  27.830  1.00  0.00     0.011 C 
HETATM   14  C12 UNL     1     123.612  19.179  26.510  1.00  0.00    -0.013 C 
HETATM   15  C14 UNL     1     122.502  18.325  25.898  1.00  0.00     0.011 C 
HETATM   16  C15 UNL     1     121.764  17.544  26.936  1.00  0.00     0.011 C 
ENDBRANCH   4   7
BRANCH   1  17
HETATM   17  C3  UNL     1     122.327  12.549  25.302  1.00  0.00     0.016 A 
HETATM   18  C2  UNL     1     121.121  11.901  25.416  1.00  0.00     0.040 A 
HETATM   19  C1  UNL     1     121.044  11.043  24.336  1.00  0.00     0.142 A 
HETATM   20  O1  UNL     1     122.147  11.178  23.620  1.00  0.00    -0.334 OA
HETATM   21  C17 UNL     1     122.932  12.075  24.180  1.00  0.00     0.155 A 
ENDBRANCH   1  17
TORSDOF 2
ENDMDL
MODEL 2
REMARK VINA RESULT: -7.418317428      1.622      2.663
REMARK  2 active torsions:
REMARK  status: ('A' for Active; 'I' for Inactive)
REMARK    1  A    between atoms: C3_3  and  C4_4 
REMARK    2  A    between atoms: N1_7  and  C7_8 
ROOT
HETATM    1  C4  UNL     1     122.520  12.842  26.141  1.00  0.00     0.061 A 
HETATM    2  C5  UNL     1     121.282  13.301  25.742  1.00  0.00     0.050 A 
HETATM    3  C6  UNL     1     121.339  14.674  25.834  1.00  0.00     0.113 A 
HETATM    4  N1  UNL     1     122.568  15.049  26.275  1.00  0.00    -0.297 N 
HETATM    5  N2  UNL     1     123.232  13.914  26.442  1.00  0.00    -0.298 N 
ATOM      6  H2  UNL     1     124.197  13.873  26.771  1.00  0.00     0.187 HD
ENDROOT
BRANCH   4   7
HETATM    7  C7  UNL     1     123.082  16.355  26.519  1.00  0.00     0.115 C 
HETATM    8  C8  UNL     1     122.153  17.473  26.105  1.00  0.00     0.011 C 
HETATM    9  C9  UNL     1     123.050  18.713  25.975  1.00  0.00     0.011 C 
HETATM   10  C13 UNL     1     121.114  17.809  27.125  1.00  0.00     0.011 C 
HETATM   11  C10 UNL     1     123.726  18.969  27.287  1.00  0.00    -0.013 C 
HETATM   12  C11 UNL     1     122.669  19.348  28.291  1.00  0.00     0.009 C 
HETATM   13  C16 UNL     1     124.535  17.808  27.795  1.00  0.00     0.011 C 
HETATM   14  C12 UNL     1     121.724  18.178  28.433  1.00  0.00    -0.013 C 
HETATM   15  C14 UNL     1     122.562  16.994  28.914  1.00  0.00     0.011 C 
HETATM   16  C15 UNL     1     123.591  16.595  27.908  1.00  0.00     0.011 C 
ENDBRANCH   4   7
BRANCH   1  17
HETATM   17  C3  UNL     1     122.969  11.459  26.222  1.00  0.00     0.016 A 
HETATM   18  C2  UNL     1     123.708  10.914  27.244  1.00  0.00     0.040 A 
HETATM   19  C1  UNL     1     123.904   9.588  26.910  1.00  0.00     0.142 A 
HETATM   20  O1  UNL     1     123.310   9.361  25.751  1.00  0.00    -0.334 OA
HETATM   21  C17 UNL     1     122.743  10.468  25.319  1.00  0.00     0.155 A 
ENDBRANCH   1  17
TORSDOF 2
ENDMDL
MODEL 3
REMARK VINA RESULT: -7.271655349      1.256      2.267
REMARK  2 active torsions:
REMARK  status: ('A' for Active; 'I' for Inactive)
REMARK    1  A    between atoms: C3_3  and  C4_4 
REMARK    2  A    between atoms: N1_7  and  C7_8 
ROOT
HETATM    1  C4  UNL     1     123.221  12.663  26.675  1.00  0.00     0.061 A 
HETATM    2  C5  UNL     1     124.206  12.733  27.637  1.00  0.00     0.050 A 
HETATM    3  C6  UNL     1     124.459  14.074  27.824  1.00  0.00     0.113 A 
HETATM    4  N1  UNL     1     123.660  14.806  27.006  1.00  0.00    -0.297 N 
HETATM    5  N2  UNL     1     122.941  13.912  26.342  1.00  0.00    -0.298 N 
ATOM      6  H2  UNL     1     122.241  14.163  25.643  1.00  0.00     0.187 HD
ENDROOT
BRANCH   4   7
HETATM    7  C7  UNL     1     123.572  16.219  26.854  1.00  0.00     0.115 C 
HETATM    8  C8  UNL     1     122.242  16.702  26.321  1.00  0.00     0.011 C 
HETATM    9  C9  UNL     1     122.518  18.110  25.771  1.00  0.00     0.011 C 
HETATM   10  C13 UNL     1     121.188  16.858  27.369  1.00  0.00     0.011 C 
HETATM   11  C10 UNL     1     123.055  18.971  26.873  1.00  0.00    -0.013 C 
HETATM   12  C11 UNL     1     121.966  19.151  27.898  1.00  0.00     0.009 C 
HETATM   13  C16 UNL     1     124.296  18.428  27.522  1.00  0.00     0.011 C 
HETATM   14  C12 UNL     1     121.617  17.789  28.449  1.00  0.00    -0.013 C 
HETATM   15  C14 UNL     1     122.895  17.230  29.075  1.00  0.00     0.011 C 
HETATM   16  C15 UNL     1     123.967  17.021  28.057  1.00  0.00     0.011 C 
ENDBRANCH   4   7
BRANCH   1  17
HETATM   17  C3  UNL     1     122.604  11.466  26.124  1.00  0.00     0.016 A 
HETATM   18  C2  UNL     1     121.470  11.432  25.348  1.00  0.00     0.040 A 
HETATM   19  C1  UNL     1     121.248  10.100  25.051  1.00  0.00     0.142 A 
HETATM   20  O1  UNL     1     122.203   9.385  25.621  1.00  0.00    -0.334 OA
HETATM   21  C17 UNL     1     123.027  10.181  26.270  1.00  0.00     0.155 A 
ENDBRANCH   1  17
TORSDOF 2
ENDMDL
MODEL 4
REMARK VINA RESULT: -7.124557922      5.579     10.305
REMARK  2 active torsions:
REMARK  status: ('A' for Active; 'I' for Inactive)
REMARK    1  A    between atoms: C3_3  and  C4_4 
REMARK    2  A    between atoms: N1_7  and  C7_8 
ROOT
HETATM    1  C4  UNL     1     122.540   9.509  26.112  1.00  0.00     0.061 A 
HETATM    2  C5  UNL     1     123.724   8.859  26.394  1.00  0.00     0.050 A 
HETATM    3  C6  UNL     1     123.406   7.524  26.507  1.00  0.00     0.113 A 
HETATM    4  N1  UNL     1     122.074   7.355  26.303  1.00  0.00    -0.297 N 
HETATM    5  N2  UNL     1     121.607   8.574  26.071  1.00  0.00    -0.298 N 
ATOM      6  H2  UNL     1     120.624   8.770  25.880  1.00  0.00     0.187 HD
ENDROOT
BRANCH   4   7
HETATM    7  C7  UNL     1     121.300   6.159  26.321  1.00  0.00     0.115 C 
HETATM    8  C8  UNL     1     121.838   5.088  27.241  1.00  0.00     0.011 C 
HETATM    9  C9  UNL     1     121.202   3.779  26.749  1.00  0.00     0.011 C 
HETATM   10  C13 UNL     1     121.424   5.248  28.668  1.00  0.00     0.011 C 
HETATM   11  C10 UNL     1     119.711   3.907  26.808  1.00  0.00    -0.013 C 
HETATM   12  C11 UNL     1     119.308   4.025  28.254  1.00  0.00     0.009 C 
HETATM   13  C16 UNL     1     119.165   5.064  26.019  1.00  0.00     0.011 C 
HETATM   14  C12 UNL     1     119.941   5.277  28.812  1.00  0.00    -0.013 C 
HETATM   15  C14 UNL     1     119.409   6.444  27.980  1.00  0.00     0.011 C 
HETATM   16  C15 UNL     1     119.832   6.348  26.551  1.00  0.00     0.011 C 
ENDBRANCH   4   7
BRANCH   1  17
HETATM   17  C3  UNL     1     122.341  10.935  25.900  1.00  0.00     0.016 A 
HETATM   18  C2  UNL     1     123.249  11.925  26.190  1.00  0.00     0.040 A 
HETATM   19  C1  UNL     1     122.646  13.115  25.831  1.00  0.00     0.142 A 
HETATM   20  O1  UNL     1     121.444  12.843  25.352  1.00  0.00    -0.334 OA
HETATM   21  C17 UNL     1     121.238  11.543  25.384  1.00  0.00     0.155 A 
ENDBRANCH   1  17
TORSDOF 2
ENDMDL
MODEL 5
REMARK VINA RESULT: -7.113227128      4.571      9.598
REMARK  2 active torsions:
REMARK  status: ('A' for Active; 'I' for Inactive)
REMARK    1  A    between atoms: C3_3  and  C4_4 
REMARK    2  A    between atoms: N1_7  and  C7_8 
ROOT
HETATM    1  C4  UNL     1     123.085  10.574  26.298  1.00  0.00     0.061 A 
HETATM    2  C5  UNL     1     124.049   9.855  26.973  1.00  0.00     0.050 A 
HETATM    3  C6  UNL     1     123.759   8.527  26.747  1.00  0.00     0.113 A 
HETATM    4  N1  UNL     1     122.656   8.430  25.962  1.00  0.00    -0.297 N 
HETATM    5  N2  UNL     1     122.294   9.683  25.724  1.00  0.00    -0.298 N 
ATOM      6  H2  UNL     1     121.486   9.935  25.154  1.00  0.00     0.187 HD
ENDROOT
BRANCH   4   7
HETATM    7  C7  UNL     1     121.992   7.268  25.473  1.00  0.00     0.115 C 
HETATM    8  C8  UNL     1     122.143   6.052  26.357  1.00  0.00     0.011 C 
HETATM    9  C9  UNL     1     121.820   4.854  25.450  1.00  0.00     0.011 C 
HETATM   10  C13 UNL     1     121.168   5.999  27.488  1.00  0.00     0.011 C 
HETATM   11  C10 UNL     1     120.435   5.013  24.903  1.00  0.00    -0.013 C 
HETATM   12  C11 UNL     1     119.464   4.914  26.050  1.00  0.00     0.009 C 
HETATM   13  C16 UNL     1     120.219   6.294  24.147  1.00  0.00     0.011 C 
HETATM   14  C12 UNL     1     119.759   6.046  27.006  1.00  0.00    -0.013 C 
HETATM   15  C14 UNL     1     119.574   7.343  26.218  1.00  0.00     0.011 C 
HETATM   16  C15 UNL     1     120.554   7.459  25.098  1.00  0.00     0.011 C 
ENDBRANCH   4   7
BRANCH   1  17
HETATM   17  C3  UNL     1     122.948  12.021  26.224  1.00  0.00     0.016 A 
HETATM   18  C2  UNL     1     122.021  12.702  25.473  1.00  0.00     0.040 A 
HETATM   19  C1  UNL     1     122.254  14.045  25.702  1.00  0.00     0.142 A 
HETATM   20  O1  UNL     1     123.265  14.151  26.546  1.00  0.00    -0.334 OA
HETATM   21  C17 UNL     1     123.699  12.952  26.873  1.00  0.00     0.155 A 
ENDBRANCH   1  17
TORSDOF 2
ENDMDL
