MODEL 1
REMARK VINA RESULT: -8.159977513      0.000      0.000
REMARK  2 active torsions:
REMARK  status: ('A' for Active; 'I' for Inactive)
REMARK    1  A    between atoms: C4_4  and  C5_5 
REMARK    2  A    between atoms: N2_14  and  C12_15 
ROOT
HETATM    1  C5  UNL     1     122.784   8.347  26.315  1.00  0.00     0.136 A 
HETATM    2  N1  UNL     1     123.600   9.423  26.473  1.00  0.00    -0.339 N 
ATOM      3  H1  UNL     1     124.567   9.385  26.796  1.00  0.00     0.167 HD
HETATM    4  C6  UNL     1     122.945  10.535  26.142  1.00  0.00     0.060 A 
HETATM    5  C7  UNL     1     123.337  11.885  26.131  1.00  0.00     0.032 A 
HETATM    6  C8  UNL     1     122.449  12.856  25.739  1.00  0.00     0.002 A 
HETATM    7  C9  UNL     1     121.181  12.485  25.359  1.00  0.00     0.002 A 
HETATM    8  C10 UNL     1     120.822  11.134  25.380  1.00  0.00     0.032 A 
HETATM    9  C11 UNL     1     121.687  10.134  25.768  1.00  0.00     0.063 A 
HETATM   10  N2  UNL     1     121.588   8.761  25.877  1.00  0.00    -0.325 N 
ENDROOT
BRANCH   1  11
HETATM   11  C4  UNL     1     123.239   6.998  26.605  1.00  0.00     0.076 A 
HETATM   12  C3  UNL     1     123.922   6.277  25.610  1.00  0.00     0.033 A 
HETATM   13  C2  UNL     1     124.341   5.012  25.899  1.00  0.00     0.004 A 
HETATM   14  C1  UNL     1     124.086   4.483  27.145  1.00  0.00     0.017 A 
HETATM   15  C18 UNL     1     123.414   5.199  28.119  1.00  0.00     0.088 A 
HETATM   16  N3  UNL     1     123.022   6.434  27.788  1.00  0.00    -0.363 N 
ATOM     17  H3  UNL     1     122.524   6.980  28.491  1.00  0.00     0.165 HD
ENDBRANCH   1  11
BRANCH  10  18
HETATM   18  C12 UNL     1     120.382   8.052  25.550  1.00  0.00     0.092 C 
HETATM   19  C13 UNL     1     120.716   7.045  24.482  1.00  0.00     0.026 C 
HETATM   20  C14 UNL     1     119.731   5.946  24.310  1.00  0.00     0.002 C 
HETATM   21  C15 UNL     1     119.361   5.278  25.609  1.00  0.00     0.000 C 
HETATM   22  C16 UNL     1     118.819   6.324  26.522  1.00  0.00     0.002 C 
HETATM   23  C17 UNL     1     119.700   7.491  26.772  1.00  0.00     0.026 C 
ENDBRANCH  10  18
TORSDOF 2
ENDMDL
MODEL 2
REMARK VINA RESULT: -7.823134071      0.644      1.058
REMARK  2 active torsions:
REMARK  status: ('A' for Active; 'I' for Inactive)
REMARK    1  A    between atoms: C4_4  and  C5_5 
REMARK    2  A    between atoms: N2_14  and  C12_15 
ROOT
HETATM    1  C5  UNL     1     122.833   8.267  26.155  1.00  0.00     0.136 A 
HETATM    2  N1  UNL     1     123.644   9.348  26.303  1.00  0.00    -0.339 N 
ATOM      3  H1  UNL     1     124.627   9.312  26.575  1.00  0.00     0.167 HD
HETATM    4  C6  UNL     1     122.961  10.461  26.040  1.00  0.00     0.060 A 
HETATM    5  C7  UNL     1     123.337  11.815  26.050  1.00  0.00     0.032 A 
HETATM    6  C8  UNL     1     122.419  12.786  25.734  1.00  0.00     0.002 A 
HETATM    7  C9  UNL     1     121.138  12.411  25.409  1.00  0.00     0.002 A 
HETATM    8  C10 UNL     1     120.795  11.056  25.406  1.00  0.00     0.032 A 
HETATM    9  C11 UNL     1     121.690  10.055  25.719  1.00  0.00     0.063 A 
HETATM   10  N2  UNL     1     121.611   8.679  25.792  1.00  0.00    -0.325 N 
ENDROOT
BRANCH   1  11
HETATM   11  C4  UNL     1     123.317   6.916  26.380  1.00  0.00     0.076 A 
HETATM   12  C3  UNL     1     123.024   6.277  27.597  1.00  0.00     0.033 A 
HETATM   13  C2  UNL     1     123.486   5.009  27.792  1.00  0.00     0.004 A 
HETATM   14  C1  UNL     1     124.220   4.397  26.800  1.00  0.00     0.017 A 
HETATM   15  C18 UNL     1     124.506   5.032  25.605  1.00  0.00     0.088 A 
HETATM   16  N3  UNL     1     124.031   6.274  25.461  1.00  0.00    -0.363 N 
ATOM     17  H3  UNL     1     124.229   6.761  24.588  1.00  0.00     0.165 HD
ENDBRANCH   1  11
BRANCH  10  18
HETATM   18  C12 UNL     1     120.398   7.965  25.506  1.00  0.00     0.092 C 
HETATM   19  C13 UNL     1     120.720   6.897  24.494  1.00  0.00     0.026 C 
HETATM   20  C14 UNL     1     119.724   5.800  24.384  1.00  0.00     0.002 C 
HETATM   21  C15 UNL     1     119.350   5.208  25.719  1.00  0.00     0.000 C 
HETATM   22  C16 UNL     1     118.819   6.308  26.573  1.00  0.00     0.002 C 
HETATM   23  C17 UNL     1     119.712   7.479  26.757  1.00  0.00     0.026 C 
ENDBRANCH  10  18
TORSDOF 2
ENDMDL
MODEL 3
REMARK VINA RESULT: -7.503241513      1.070      3.689
REMARK  2 active torsions:
REMARK  status: ('A' for Active; 'I' for Inactive)
REMARK    1  A    between atoms: C4_4  and  C5_5 
REMARK    2  A    between atoms: N2_14  and  C12_15 
ROOT
HETATM    1  C5  UNL     1     121.119   8.535  25.460  1.00  0.00     0.136 A 
HETATM    2  N1  UNL     1     120.613   9.767  25.189  1.00  0.00    -0.339 N 
ATOM      3  H1  UNL     1     119.699   9.949  24.773  1.00  0.00     0.167 HD
HETATM    4  C6  UNL     1     121.492  10.702  25.549  1.00  0.00     0.060 A 
HETATM    5  C7  UNL     1     121.448  12.105  25.479  1.00  0.00     0.032 A 
HETATM    6  C8  UNL     1     122.511  12.850  25.926  1.00  0.00     0.002 A 
HETATM    7  C9  UNL     1     123.608  12.202  26.441  1.00  0.00     0.002 A 
HETATM    8  C10 UNL     1     123.622  10.806  26.498  1.00  0.00     0.032 A 
HETATM    9  C11 UNL     1     122.573  10.027  26.057  1.00  0.00     0.063 A 
HETATM   10  N2  UNL     1     122.338   8.668  26.001  1.00  0.00    -0.325 N 
ENDROOT
BRANCH   1  11
HETATM   11  C4  UNL     1     120.371   7.324  25.168  1.00  0.00     0.076 A 
HETATM   12  C3  UNL     1     120.721   6.558  24.044  1.00  0.00     0.033 A 
HETATM   13  C2  UNL     1     120.008   5.425  23.784  1.00  0.00     0.004 A 
HETATM   14  C1  UNL     1     118.976   5.068  24.624  1.00  0.00     0.017 A 
HETATM   15  C18 UNL     1     118.637   5.827  25.729  1.00  0.00     0.088 A 
HETATM   16  N3  UNL     1     119.365   6.929  25.941  1.00  0.00    -0.363 N 
ATOM     17  H3  UNL     1     119.132   7.505  26.750  1.00  0.00     0.165 HD
ENDBRANCH   1  11
BRANCH  10  18
HETATM   18  C12 UNL     1     123.296   7.705  26.467  1.00  0.00     0.092 C 
HETATM   19  C13 UNL     1     122.564   6.704  27.323  1.00  0.00     0.026 C 
HETATM   20  C14 UNL     1     123.272   5.418  27.549  1.00  0.00     0.002 C 
HETATM   21  C15 UNL     1     123.782   4.794  26.275  1.00  0.00     0.000 C 
HETATM   22  C16 UNL     1     124.687   5.777  25.616  1.00  0.00     0.002 C 
HETATM   23  C17 UNL     1     124.108   7.115  25.342  1.00  0.00     0.026 C 
ENDBRANCH  10  18
TORSDOF 2
ENDMDL
MODEL 4
REMARK VINA RESULT: -7.315814979      1.505      4.001
REMARK  2 active torsions:
REMARK  status: ('A' for Active; 'I' for Inactive)
REMARK    1  A    between atoms: C4_4  and  C5_5 
REMARK    2  A    between atoms: N2_14  and  C12_15 
ROOT
HETATM    1  C5  UNL     1     120.799   7.224  26.580  1.00  0.00     0.136 A 
HETATM    2  N1  UNL     1     120.100   8.335  26.228  1.00  0.00    -0.339 N 
ATOM      3  H1  UNL     1     119.083   8.398  26.182  1.00  0.00     0.167 HD
HETATM    4  C6  UNL     1     120.944   9.328  25.952  1.00  0.00     0.060 A 
HETATM    5  C7  UNL     1     120.727  10.656  25.548  1.00  0.00     0.032 A 
HETATM    6  C8  UNL     1     121.795  11.490  25.325  1.00  0.00     0.002 A 
HETATM    7  C9  UNL     1     123.068  11.006  25.505  1.00  0.00     0.002 A 
HETATM    8  C10 UNL     1     123.251   9.680  25.908  1.00  0.00     0.032 A 
HETATM    9  C11 UNL     1     122.203   8.815  26.140  1.00  0.00     0.063 A 
HETATM   10  N2  UNL     1     122.111   7.495  26.534  1.00  0.00    -0.325 N 
ENDROOT
BRANCH   1  11
HETATM   11  C4  UNL     1     120.131   5.984  26.934  1.00  0.00     0.076 A 
HETATM   12  C3  UNL     1     119.442   5.902  28.156  1.00  0.00     0.033 A 
HETATM   13  C2  UNL     1     118.820   4.730  28.473  1.00  0.00     0.004 A 
HETATM   14  C1  UNL     1     118.885   3.671  27.594  1.00  0.00     0.017 A 
HETATM   15  C18 UNL     1     119.565   3.759  26.393  1.00  0.00     0.088 A 
HETATM   16  N3  UNL     1     120.158   4.928  26.128  1.00  0.00    -0.363 N 
ATOM     17  H3  UNL     1     120.666   5.015  25.248  1.00  0.00     0.165 HD
ENDBRANCH   1  11
BRANCH  10  18
HETATM   18  C12 UNL     1     123.272   6.695  26.808  1.00  0.00     0.092 C 
HETATM   19  C13 UNL     1     123.034   5.968  28.105  1.00  0.00     0.026 C 
HETATM   20  C14 UNL     1     123.908   4.792  28.348  1.00  0.00     0.002 C 
HETATM   21  C15 UNL     1     123.955   3.842  27.179  1.00  0.00     0.000 C 
HETATM   22  C16 UNL     1     124.430   4.605  25.990  1.00  0.00     0.002 C 
HETATM   23  C17 UNL     1     123.650   5.819  25.641  1.00  0.00     0.026 C 
ENDBRANCH  10  18
TORSDOF 2
ENDMDL
MODEL 5
REMARK VINA RESULT: -7.141206576      1.842      4.535
REMARK  2 active torsions:
REMARK  status: ('A' for Active; 'I' for Inactive)
REMARK    1  A    between atoms: C4_4  and  C5_5 
REMARK    2  A    between atoms: N2_14  and  C12_15 
ROOT
HETATM    1  C5  UNL     1     119.781   7.197  26.642  1.00  0.00     0.136 A 
HETATM    2  N1  UNL     1     119.643   8.541  26.495  1.00  0.00    -0.339 N 
ATOM      3  H1  UNL     1     118.759   9.049  26.540  1.00  0.00     0.167 HD
HETATM    4  C6  UNL     1     120.836   9.094  26.283  1.00  0.00     0.060 A 
HETATM    5  C7  UNL     1     121.226  10.428  26.074  1.00  0.00     0.032 A 
HETATM    6  C8  UNL     1     122.550  10.734  25.875  1.00  0.00     0.002 A 
HETATM    7  C9  UNL     1     123.478   9.720  25.887  1.00  0.00     0.002 A 
HETATM    8  C10 UNL     1     123.059   8.403  26.098  1.00  0.00     0.032 A 
HETATM    9  C11 UNL     1     121.739   8.060  26.300  1.00  0.00     0.063 A 
HETATM   10  N2  UNL     1     121.075   6.870  26.526  1.00  0.00    -0.325 N 
ENDROOT
BRANCH   1  11
HETATM   11  C4  UNL     1     118.636   6.336  26.885  1.00  0.00     0.076 A 
HETATM   12  C3  UNL     1     118.598   5.561  28.057  1.00  0.00     0.033 A 
HETATM   13  C2  UNL     1     117.516   4.758  28.268  1.00  0.00     0.004 A 
HETATM   14  C1  UNL     1     116.501   4.731  27.337  1.00  0.00     0.017 A 
HETATM   15  C18 UNL     1     116.546   5.496  26.185  1.00  0.00     0.088 A 
HETATM   16  N3  UNL     1     117.627   6.267  26.023  1.00  0.00    -0.363 N 
ATOM     17  H3  UNL     1     117.681   6.839  25.181  1.00  0.00     0.165 HD
ENDBRANCH   1  11
BRANCH  10  18
HETATM   18  C12 UNL     1     121.763   5.611  26.597  1.00  0.00     0.092 C 
HETATM   19  C13 UNL     1     122.299   5.302  25.224  1.00  0.00     0.026 C 
HETATM   20  C14 UNL     1     123.378   4.282  25.175  1.00  0.00     0.002 C 
HETATM   21  C15 UNL     1     124.488   4.551  26.159  1.00  0.00     0.000 C 
HETATM   22  C16 UNL     1     123.887   4.606  27.521  1.00  0.00     0.002 C 
HETATM   23  C17 UNL     1     122.783   5.580  27.707  1.00  0.00     0.026 C 
ENDBRANCH  10  18
TORSDOF 2
ENDMDL
