MODEL 1
REMARK VINA RESULT: -5.991681332      0.000      0.000
REMARK  2 active torsions:
REMARK  status: ('A' for Active; 'I' for Inactive)
REMARK    1  A    between atoms: C3_4  and  C4_5 
REMARK    2  A    between atoms: N2_10  and  C7_11 
ROOT
HETATM    1  C4  UNL     1     121.658   6.646  25.831  1.00  0.00     0.069 A 
HETATM    2  C5  UNL     1     120.771   6.687  24.716  1.00  0.00     0.119 A 
HETATM    3  N1  UNL     1     120.284   5.470  24.619  1.00  0.00    -0.360 N 
ATOM      4  H1  UNL     1     119.613   5.157  23.917  1.00  0.00     0.166 HD
HETATM    5  C6  UNL     1     120.802   4.714  25.575  1.00  0.00     0.184 A 
HETATM    6  N2  UNL     1     121.677   5.453  26.357  1.00  0.00    -0.330 N 
ENDROOT
BRANCH   6   7
HETATM    7  C7  UNL     1     122.308   4.885  27.478  1.00  0.00     0.043 C 
HETATM    8  C8  UNL     1     123.807   4.612  27.325  1.00  0.00     0.036 C 
HETATM    9  C9  UNL     1     124.160   4.233  28.746  1.00  0.00    -0.011 C 
HETATM   10  C10 UNL     1     123.481   2.954  29.202  1.00  0.00     0.009 C 
HETATM   11  C14 UNL     1     123.498   5.367  29.506  1.00  0.00     0.012 C 
HETATM   12  C11 UNL     1     122.000   3.060  28.985  1.00  0.00    -0.011 C 
HETATM   13  C12 UNL     1     121.382   4.266  29.655  1.00  0.00     0.012 C 
HETATM   14  C15 UNL     1     121.755   3.421  27.557  1.00  0.00     0.036 C 
HETATM   15  C13 UNL     1     122.110   5.358  28.830  1.00  0.00     0.015 C 
ENDBRANCH   6   7
BRANCH   1  16
HETATM   16  C3  UNL     1     122.335   7.879  26.218  1.00  0.00     0.033 A 
HETATM   17  S1  UNL     1     121.650   9.490  26.120  1.00  0.00    -0.100 SA
HETATM   18  C2  UNL     1     122.996  10.405  26.595  1.00  0.00     0.050 A 
HETATM   19  C1  UNL     1     123.940   9.450  26.816  1.00  0.00     0.008 A 
HETATM   20  C16 UNL     1     123.595   8.174  26.621  1.00  0.00     0.021 A 
ENDBRANCH   1  16
TORSDOF 2
ENDMDL
MODEL 2
REMARK VINA RESULT: -5.965681287      0.965      1.185
REMARK  2 active torsions:
REMARK  status: ('A' for Active; 'I' for Inactive)
REMARK    1  A    between atoms: C3_4  and  C4_5 
REMARK    2  A    between atoms: N2_10  and  C7_11 
ROOT
HETATM    1  C4  UNL     1     121.324   6.721  25.488  1.00  0.00     0.069 A 
HETATM    2  C5  UNL     1     120.747   6.886  24.195  1.00  0.00     0.119 A 
HETATM    3  N1  UNL     1     120.036   5.798  23.994  1.00  0.00    -0.360 N 
ATOM      4  H1  UNL     1     119.490   5.596  23.156  1.00  0.00     0.166 HD
HETATM    5  C6  UNL     1     120.140   5.007  25.051  1.00  0.00     0.184 A 
HETATM    6  N2  UNL     1     120.956   5.585  26.012  1.00  0.00    -0.330 N 
ENDROOT
BRANCH   6   7
HETATM    7  C7  UNL     1     121.171   4.963  27.254  1.00  0.00     0.043 C 
HETATM    8  C8  UNL     1     122.563   4.358  27.457  1.00  0.00     0.036 C 
HETATM    9  C9  UNL     1     122.491   3.998  28.924  1.00  0.00    -0.011 C 
HETATM   10  C10 UNL     1     121.453   2.930  29.220  1.00  0.00     0.009 C 
HETATM   11  C14 UNL     1     121.951   5.294  29.499  1.00  0.00     0.012 C 
HETATM   12  C11 UNL     1     120.123   3.345  28.662  1.00  0.00    -0.011 C 
HETATM   13  C12 UNL     1     119.662   4.696  29.159  1.00  0.00     0.012 C 
HETATM   14  C15 UNL     1     120.295   3.663  27.214  1.00  0.00     0.036 C 
HETATM   15  C13 UNL     1     120.786   5.549  28.518  1.00  0.00     0.015 C 
ENDBRANCH   6   7
BRANCH   1  16
HETATM   16  C3  UNL     1     122.152   7.800  26.015  1.00  0.00     0.033 A 
HETATM   17  S1  UNL     1     121.666   9.479  26.158  1.00  0.00    -0.100 SA
HETATM   18  C2  UNL     1     123.121  10.155  26.707  1.00  0.00     0.050 A 
HETATM   19  C1  UNL     1     123.946   9.073  26.764  1.00  0.00     0.008 A 
HETATM   20  C16 UNL     1     123.445   7.886  26.410  1.00  0.00     0.021 A 
ENDBRANCH   1  16
TORSDOF 2
ENDMDL
MODEL 3
REMARK VINA RESULT: -5.850320819      2.496      3.743
REMARK  2 active torsions:
REMARK  status: ('A' for Active; 'I' for Inactive)
REMARK    1  A    between atoms: C3_4  and  C4_5 
REMARK    2  A    between atoms: N2_10  and  C7_11 
ROOT
HETATM    1  C4  UNL     1     120.430   5.927  24.412  1.00  0.00     0.069 A 
HETATM    2  C5  UNL     1     120.512   5.922  22.989  1.00  0.00     0.119 A 
HETATM    3  N1  UNL     1     119.600   5.061  22.594  1.00  0.00    -0.360 N 
ATOM      4  H1  UNL     1     119.397   4.819  21.624  1.00  0.00     0.166 HD
HETATM    5  C6  UNL     1     118.986   4.558  23.655  1.00  0.00     0.184 A 
HETATM    6  N2  UNL     1     119.505   5.104  24.819  1.00  0.00    -0.330 N 
ENDROOT
BRANCH   6   7
HETATM    7  C7  UNL     1     118.972   4.772  26.078  1.00  0.00     0.043 C 
HETATM    8  C8  UNL     1     117.814   3.771  26.062  1.00  0.00     0.036 C 
HETATM    9  C9  UNL     1     117.668   3.501  27.542  1.00  0.00    -0.011 C 
HETATM   10  C10 UNL     1     117.234   4.728  28.326  1.00  0.00     0.009 C 
HETATM   11  C14 UNL     1     119.114   3.239  27.919  1.00  0.00     0.012 C 
HETATM   12  C11 UNL     1     118.163   5.870  28.037  1.00  0.00    -0.011 C 
HETATM   13  C12 UNL     1     119.614   5.543  28.307  1.00  0.00     0.012 C 
HETATM   14  C15 UNL     1     118.229   6.065  26.558  1.00  0.00     0.036 C 
HETATM   15  C13 UNL     1     119.786   4.445  27.228  1.00  0.00     0.015 C 
ENDBRANCH   6   7
BRANCH   1  16
HETATM   16  C3  UNL     1     121.309   6.828  25.149  1.00  0.00     0.033 A 
HETATM   17  S1  UNL     1     120.968   8.507  25.517  1.00  0.00    -0.100 SA
HETATM   18  C2  UNL     1     122.432   8.945  26.253  1.00  0.00     0.050 A 
HETATM   19  C1  UNL     1     123.149   7.789  26.195  1.00  0.00     0.008 A 
HETATM   20  C16 UNL     1     122.571   6.723  25.632  1.00  0.00     0.021 A 
ENDBRANCH   1  16
TORSDOF 2
ENDMDL
MODEL 4
REMARK VINA RESULT: -5.753026879      2.684      3.936
REMARK  2 active torsions:
REMARK  status: ('A' for Active; 'I' for Inactive)
REMARK    1  A    between atoms: C3_4  and  C4_5 
REMARK    2  A    between atoms: N2_10  and  C7_11 
ROOT
HETATM    1  C4  UNL     1     120.396   5.846  24.280  1.00  0.00     0.069 A 
HETATM    2  C5  UNL     1     120.613   5.763  22.873  1.00  0.00     0.119 A 
HETATM    3  N1  UNL     1     119.716   4.906  22.437  1.00  0.00    -0.360 N 
ATOM      4  H1  UNL     1     119.598   4.617  21.466  1.00  0.00     0.166 HD
HETATM    5  C6  UNL     1     118.989   4.476  23.458  1.00  0.00     0.184 A 
HETATM    6  N2  UNL     1     119.411   5.071  24.638  1.00  0.00    -0.330 N 
ENDROOT
BRANCH   6   7
HETATM    7  C7  UNL     1     118.752   4.821  25.855  1.00  0.00     0.043 C 
HETATM    8  C8  UNL     1     119.549   4.016  26.885  1.00  0.00     0.036 C 
HETATM    9  C9  UNL     1     118.642   4.141  28.088  1.00  0.00    -0.011 C 
HETATM   10  C10 UNL     1     117.296   3.468  27.886  1.00  0.00     0.009 C 
HETATM   11  C14 UNL     1     118.381   5.636  28.082  1.00  0.00     0.012 C 
HETATM   12  C11 UNL     1     116.657   3.977  26.627  1.00  0.00    -0.011 C 
HETATM   13  C12 UNL     1     116.517   5.481  26.594  1.00  0.00     0.012 C 
HETATM   14  C15 UNL     1     117.620   3.797  25.501  1.00  0.00     0.036 C 
HETATM   15  C13 UNL     1     118.027   5.832  26.592  1.00  0.00     0.015 C 
ENDBRANCH   6   7
BRANCH   1  16
HETATM   16  C3  UNL     1     121.229   6.763  25.051  1.00  0.00     0.033 A 
HETATM   17  S1  UNL     1     120.821   8.421  25.447  1.00  0.00    -0.100 SA
HETATM   18  C2  UNL     1     122.255   8.895  26.218  1.00  0.00     0.050 A 
HETATM   19  C1  UNL     1     123.014   7.767  26.150  1.00  0.00     0.008 A 
HETATM   20  C16 UNL     1     122.485   6.693  25.556  1.00  0.00     0.021 A 
ENDBRANCH   1  16
TORSDOF 2
ENDMDL
MODEL 5
REMARK VINA RESULT: -5.620524023      2.383      4.390
REMARK  2 active torsions:
REMARK  status: ('A' for Active; 'I' for Inactive)
REMARK    1  A    between atoms: C3_4  and  C4_5 
REMARK    2  A    between atoms: N2_10  and  C7_11 
ROOT
HETATM    1  C4  UNL     1     122.598   6.494  27.046  1.00  0.00     0.069 A 
HETATM    2  C5  UNL     1     123.282   7.640  26.544  1.00  0.00     0.119 A 
HETATM    3  N1  UNL     1     122.379   8.309  25.862  1.00  0.00    -0.360 N 
ATOM      4  H1  UNL     1     122.542   9.187  25.369  1.00  0.00     0.166 HD
HETATM    5  C6  UNL     1     121.224   7.663  25.916  1.00  0.00     0.184 A 
HETATM    6  N2  UNL     1     121.350   6.506  26.670  1.00  0.00    -0.330 N 
ENDROOT
BRANCH   6   7
HETATM    7  C7  UNL     1     120.241   5.680  26.926  1.00  0.00     0.043 C 
HETATM    8  C8  UNL     1     118.917   6.143  26.309  1.00  0.00     0.036 C 
HETATM    9  C9  UNL     1     118.049   4.938  26.596  1.00  0.00    -0.011 C 
HETATM   10  C10 UNL     1     117.834   4.705  28.082  1.00  0.00     0.009 C 
HETATM   11  C14 UNL     1     118.957   3.823  26.112  1.00  0.00     0.012 C 
HETATM   12  C11 UNL     1     119.159   4.640  28.783  1.00  0.00    -0.011 C 
HETATM   13  C12 UNL     1     120.092   3.601  28.204  1.00  0.00     0.012 C 
HETATM   14  C15 UNL     1     119.932   5.874  28.450  1.00  0.00     0.036 C 
HETATM   15  C13 UNL     1     120.273   4.240  26.803  1.00  0.00     0.015 C 
ENDBRANCH   6   7
BRANCH   1  16
HETATM   16  C3  UNL     1     123.341   5.563  27.887  1.00  0.00     0.033 A 
HETATM   17  S1  UNL     1     124.137   4.103  27.332  1.00  0.00    -0.100 SA
HETATM   18  C2  UNL     1     124.664   3.479  28.819  1.00  0.00     0.050 A 
HETATM   19  C1  UNL     1     124.213   4.408  29.706  1.00  0.00     0.008 A 
HETATM   20  C16 UNL     1     123.543   5.459  29.223  1.00  0.00     0.021 A 
ENDBRANCH   1  16
TORSDOF 2
ENDMDL
