MODEL 1
REMARK VINA RESULT: -6.912334785      0.000      0.000
REMARK  3 active torsions:
REMARK  status: ('A' for Active; 'I' for Inactive)
REMARK    1  A    between atoms: N3_6  and  O1_7 
REMARK    2  A    between atoms: C6_11  and  C7_12 
REMARK    3  A    between atoms: N4_21  and  O2_22 
ROOT
HETATM    1  N1  UNL     1      25.175  21.337  17.922  1.00  0.00    -0.190 NA
HETATM    2  C1  UNL     1      24.589  21.604  18.885  1.00  0.00     0.123 C 
HETATM    3  C2  UNL     1      23.887  21.934  20.084  1.00  0.00     0.186 A 
HETATM    4  C3  UNL     1      23.890  21.024  21.121  1.00  0.00     0.184 A 
HETATM    5  N2  UNL     1      24.556  19.778  21.063  1.00  0.00    -0.077 NA
HETATM    6  N3  UNL     1      23.235  21.342  22.226  1.00  0.00    -0.206 N 
HETATM    7  C4  UNL     1      22.574  22.528  22.344  1.00  0.00     0.094 A 
HETATM    8  C5  UNL     1      21.902  22.829  23.497  1.00  0.00     0.046 A 
HETATM    9  C6  UNL     1      21.225  24.023  23.640  1.00  0.00    -0.024 A 
HETATM   10  C13 UNL     1      21.205  24.944  22.622  1.00  0.00     0.014 A 
HETATM   11  C14 UNL     1      21.878  24.646  21.459  1.00  0.00     0.035 A 
HETATM   12  C15 UNL     1      22.564  23.442  21.313  1.00  0.00     0.093 A 
HETATM   13  N4  UNL     1      23.231  23.118  20.193  1.00  0.00    -0.209 N 
ENDROOT
BRANCH  13  14
HETATM   14  O2  UNL     1      23.226  24.029  19.153  1.00  0.00    -0.281 OA
ATOM     15  H2  UNL     1      23.290  24.963  19.318  1.00  0.00     0.245 HD
ENDBRANCH  13  14
BRANCH   6  16
HETATM   16  O1  UNL     1      23.204  20.476  23.293  1.00  0.00    -0.281 OA
ATOM     17  H1  UNL     1      22.408  20.003  23.508  1.00  0.00     0.245 HD
ENDBRANCH   6  16
BRANCH   9  18
HETATM   18  C7  UNL     1      20.530  24.257  24.918  1.00  0.00    -0.026 A 
HETATM   19  C8  UNL     1      19.230  23.852  25.137  1.00  0.00     0.012 A 
HETATM   20  C9  UNL     1      18.611  24.094  26.360  1.00  0.00     0.001 A 
HETATM   21  C10 UNL     1      19.258  24.740  27.392  1.00  0.00     0.000 A 
HETATM   22  C11 UNL     1      20.555  25.144  27.169  1.00  0.00     0.001 A 
HETATM   23  C12 UNL     1      21.172  24.904  25.954  1.00  0.00     0.012 A 
ENDBRANCH   9  18
TORSDOF 3
ENDMDL
MODEL 2
REMARK VINA RESULT: -6.895952989      0.138      1.036
REMARK  3 active torsions:
REMARK  status: ('A' for Active; 'I' for Inactive)
REMARK    1  A    between atoms: N3_6  and  O1_7 
REMARK    2  A    between atoms: C6_11  and  C7_12 
REMARK    3  A    between atoms: N4_21  and  O2_22 
ROOT
HETATM    1  N1  UNL     1      25.062  21.435  17.735  1.00  0.00    -0.190 NA
HETATM    2  C1  UNL     1      24.500  21.692  18.716  1.00  0.00     0.123 C 
HETATM    3  C2  UNL     1      23.830  22.008  19.935  1.00  0.00     0.186 A 
HETATM    4  C3  UNL     1      23.869  21.093  20.966  1.00  0.00     0.184 A 
HETATM    5  N2  UNL     1      24.543  19.853  20.882  1.00  0.00    -0.077 NA
HETATM    6  N3  UNL     1      23.242  21.398  22.091  1.00  0.00    -0.206 N 
HETATM    7  C4  UNL     1      22.574  22.578  22.234  1.00  0.00     0.094 A 
HETATM    8  C5  UNL     1      21.933  22.866  23.408  1.00  0.00     0.046 A 
HETATM    9  C6  UNL     1      21.249  24.054  23.576  1.00  0.00    -0.024 A 
HETATM   10  C13 UNL     1      21.194  24.981  22.565  1.00  0.00     0.014 A 
HETATM   11  C14 UNL     1      21.837  24.695  21.382  1.00  0.00     0.035 A 
HETATM   12  C15 UNL     1      22.528  23.498  21.209  1.00  0.00     0.093 A 
HETATM   13  N4  UNL     1      23.166  23.187  20.069  1.00  0.00    -0.209 N 
ENDROOT
BRANCH  13  14
HETATM   14  O2  UNL     1      23.125  24.104  19.036  1.00  0.00    -0.281 OA
ATOM     15  H2  UNL     1      23.922  24.488  18.688  1.00  0.00     0.245 HD
ENDBRANCH  13  14
BRANCH   6  16
HETATM   16  O1  UNL     1      23.247  20.526  23.153  1.00  0.00    -0.281 OA
ATOM     17  H1  UNL     1      23.876  20.627  23.858  1.00  0.00     0.245 HD
ENDBRANCH   6  16
BRANCH   9  18
HETATM   18  C7  UNL     1      20.588  24.275  24.874  1.00  0.00    -0.026 A 
HETATM   19  C8  UNL     1      21.225  24.888  25.932  1.00  0.00     0.012 A 
HETATM   20  C9  UNL     1      20.565  25.077  27.142  1.00  0.00     0.001 A 
HETATM   21  C10 UNL     1      19.262  24.667  27.337  1.00  0.00     0.000 A 
HETATM   22  C11 UNL     1      18.629  24.056  26.278  1.00  0.00     0.001 A 
HETATM   23  C12 UNL     1      19.286  23.866  25.075  1.00  0.00     0.012 A 
ENDBRANCH   9  18
TORSDOF 3
ENDMDL
MODEL 3
REMARK VINA RESULT: -5.915906567      1.546      2.807
REMARK  3 active torsions:
REMARK  status: ('A' for Active; 'I' for Inactive)
REMARK    1  A    between atoms: N3_6  and  O1_7 
REMARK    2  A    between atoms: C6_11  and  C7_12 
REMARK    3  A    between atoms: N4_21  and  O2_22 
ROOT
HETATM    1  N1  UNL     1      25.123  21.650  16.769  1.00  0.00    -0.190 NA
HETATM    2  C1  UNL     1      24.592  22.074  17.708  1.00  0.00     0.123 C 
HETATM    3  C2  UNL     1      23.917  22.595  18.853  1.00  0.00     0.186 A 
HETATM    4  C3  UNL     1      23.284  23.816  18.746  1.00  0.00     0.184 A 
HETATM    5  N2  UNL     1      23.264  24.583  17.558  1.00  0.00    -0.077 NA
HETATM    6  N3  UNL     1      22.663  24.288  19.815  1.00  0.00    -0.206 N 
HETATM    7  C4  UNL     1      22.647  23.596  20.990  1.00  0.00     0.094 A 
HETATM    8  C5  UNL     1      21.999  24.110  22.080  1.00  0.00     0.046 A 
HETATM    9  C6  UNL     1      21.970  23.429  23.281  1.00  0.00    -0.024 A 
HETATM   10  C13 UNL     1      22.593  22.213  23.413  1.00  0.00     0.014 A 
HETATM   11  C14 UNL     1      23.246  21.693  22.319  1.00  0.00     0.035 A 
HETATM   12  C15 UNL     1      23.277  22.377  21.107  1.00  0.00     0.093 A 
HETATM   13  N4  UNL     1      23.905  21.899  20.019  1.00  0.00    -0.209 N 
ENDROOT
BRANCH  13  14
HETATM   14  O2  UNL     1      24.541  20.676  20.128  1.00  0.00    -0.281 OA
ATOM     15  H2  UNL     1      25.490  20.616  20.145  1.00  0.00     0.245 HD
ENDBRANCH  13  14
BRANCH   6  16
HETATM   16  O1  UNL     1      22.014  25.498  19.769  1.00  0.00    -0.281 OA
ATOM     17  H1  UNL     1      21.453  25.718  19.035  1.00  0.00     0.245 HD
ENDBRANCH   6  16
BRANCH   9  18
HETATM   18  C7  UNL     1      21.249  24.062  24.399  1.00  0.00    -0.026 A 
HETATM   19  C8  UNL     1      20.284  23.398  25.126  1.00  0.00     0.012 A 
HETATM   20  C9  UNL     1      19.626  24.033  26.175  1.00  0.00     0.001 A 
HETATM   21  C10 UNL     1      19.905  25.336  26.532  1.00  0.00     0.000 A 
HETATM   22  C11 UNL     1      20.869  25.996  25.804  1.00  0.00     0.001 A 
HETATM   23  C12 UNL     1      21.523  25.366  24.760  1.00  0.00     0.012 A 
ENDBRANCH   9  18
TORSDOF 3
ENDMDL
MODEL 4
REMARK VINA RESULT: -5.914776773      1.526      2.942
REMARK  3 active torsions:
REMARK  status: ('A' for Active; 'I' for Inactive)
REMARK    1  A    between atoms: N3_6  and  O1_7 
REMARK    2  A    between atoms: C6_11  and  C7_12 
REMARK    3  A    between atoms: N4_21  and  O2_22 
ROOT
HETATM    1  N1  UNL     1      25.197  22.308  16.987  1.00  0.00    -0.190 NA
HETATM    2  C1  UNL     1      24.612  22.641  17.930  1.00  0.00     0.123 C 
HETATM    3  C2  UNL     1      23.871  23.049  19.079  1.00  0.00     0.186 A 
HETATM    4  C3  UNL     1      23.182  24.244  19.030  1.00  0.00     0.184 A 
HETATM    5  N2  UNL     1      23.168  25.089  17.897  1.00  0.00    -0.077 NA
HETATM    6  N3  UNL     1      22.500  24.611  20.103  1.00  0.00    -0.206 N 
HETATM    7  C4  UNL     1      22.475  23.840  21.227  1.00  0.00     0.094 A 
HETATM    8  C5  UNL     1      21.763  24.246  22.323  1.00  0.00     0.046 A 
HETATM    9  C6  UNL     1      21.723  23.483  23.473  1.00  0.00    -0.024 A 
HETATM   10  C13 UNL     1      22.400  22.291  23.548  1.00  0.00     0.014 A 
HETATM   11  C14 UNL     1      23.118  21.879  22.448  1.00  0.00     0.035 A 
HETATM   12  C15 UNL     1      23.160  22.646  21.286  1.00  0.00     0.093 A 
HETATM   13  N4  UNL     1      23.850  22.275  20.195  1.00  0.00    -0.209 N 
ENDROOT
BRANCH  13  14
HETATM   14  O2  UNL     1      24.542  21.079  20.247  1.00  0.00    -0.281 OA
ATOM     15  H2  UNL     1      25.144  20.890  20.957  1.00  0.00     0.245 HD
ENDBRANCH  13  14
BRANCH   6  16
HETATM   16  O1  UNL     1      21.795  25.790  20.113  1.00  0.00    -0.281 OA
ATOM     17  H1  UNL     1      21.605  26.233  20.932  1.00  0.00     0.245 HD
ENDBRANCH   6  16
BRANCH   9  18
HETATM   18  C7  UNL     1      20.931  24.003  24.601  1.00  0.00    -0.026 A 
HETATM   19  C8  UNL     1      21.421  24.956  25.470  1.00  0.00     0.012 A 
HETATM   20  C9  UNL     1      20.640  25.419  26.524  1.00  0.00     0.001 A 
HETATM   21  C10 UNL     1      19.360  24.955  26.746  1.00  0.00     0.000 A 
HETATM   22  C11 UNL     1      18.875  24.004  25.877  1.00  0.00     0.001 A 
HETATM   23  C12 UNL     1      19.651  23.541  24.829  1.00  0.00     0.012 A 
ENDBRANCH   9  18
TORSDOF 3
ENDMDL
MODEL 5
REMARK VINA RESULT: -5.323758213      0.965      1.003
REMARK  3 active torsions:
REMARK  status: ('A' for Active; 'I' for Inactive)
REMARK    1  A    between atoms: N3_6  and  O1_7 
REMARK    2  A    between atoms: C6_11  and  C7_12 
REMARK    3  A    between atoms: N4_21  and  O2_22 
ROOT
HETATM    1  N1  UNL     1      24.494  21.762  16.740  1.00  0.00    -0.190 NA
HETATM    2  C1  UNL     1      24.085  21.985  17.802  1.00  0.00     0.123 C 
HETATM    3  C2  UNL     1      23.602  22.267  19.115  1.00  0.00     0.186 A 
HETATM    4  C3  UNL     1      24.114  21.546  20.174  1.00  0.00     0.184 A 
HETATM    5  N2  UNL     1      25.097  20.540  20.030  1.00  0.00    -0.077 NA
HETATM    6  N3  UNL     1      23.658  21.816  21.387  1.00  0.00    -0.206 N 
HETATM    7  C4  UNL     1      22.710  22.775  21.591  1.00  0.00     0.094 A 
HETATM    8  C5  UNL     1      22.254  23.031  22.856  1.00  0.00     0.046 A 
HETATM    9  C6  UNL     1      21.295  23.996  23.088  1.00  0.00    -0.024 A 
HETATM   10  C13 UNL     1      20.768  24.726  22.051  1.00  0.00     0.014 A 
HETATM   11  C14 UNL     1      21.223  24.471  20.778  1.00  0.00     0.035 A 
HETATM   12  C15 UNL     1      22.192  23.499  20.540  1.00  0.00     0.093 A 
HETATM   13  N4  UNL     1      22.658  23.224  19.310  1.00  0.00    -0.209 N 
ENDROOT
BRANCH  13  14
HETATM   14  O2  UNL     1      22.143  23.945  18.249  1.00  0.00    -0.281 OA
ATOM     15  H2  UNL     1      22.677  24.575  17.779  1.00  0.00     0.245 HD
ENDBRANCH  13  14
BRANCH   6  16
HETATM   16  O1  UNL     1      24.131  21.132  22.480  1.00  0.00    -0.281 OA
ATOM     17  H1  UNL     1      24.055  21.502  23.352  1.00  0.00     0.245 HD
ENDBRANCH   6  16
BRANCH   9  18
HETATM   18  C7  UNL     1      20.866  24.200  24.483  1.00  0.00    -0.026 A 
HETATM   19  C8  UNL     1      19.702  23.655  24.985  1.00  0.00     0.012 A 
HETATM   20  C9  UNL     1      19.333  23.874  26.308  1.00  0.00     0.001 A 
HETATM   21  C10 UNL     1      20.101  24.632  27.167  1.00  0.00     0.000 A 
HETATM   22  C11 UNL     1      21.262  25.174  26.662  1.00  0.00     0.001 A 
HETATM   23  C12 UNL     1      21.630  24.959  25.346  1.00  0.00     0.012 A 
ENDBRANCH   9  18
TORSDOF 3
ENDMDL
