MODEL 1
REMARK VINA RESULT: -7.844013046      0.000      0.000
REMARK  2 active torsions:
REMARK  status: ('A' for Active; 'I' for Inactive)
REMARK    1  A    between atoms: C7_7  and  O1_8 
REMARK    2  A    between atoms: C10_12  and  C11_13 
ROOT
HETATM    1  C1  UNL     1      25.033  24.033  16.896  1.00  0.00     0.026 C 
HETATM    2  C2  UNL     1      24.737  23.459  18.041  1.00  0.00    -0.012 A 
HETATM    3  C3  UNL     1      25.372  22.314  18.437  1.00  0.00     0.015 A 
HETATM    4  C4  UNL     1      25.044  21.734  19.635  1.00  0.00     0.031 A 
HETATM    5  C5  UNL     1      24.060  22.328  20.436  1.00  0.00     0.043 A 
HETATM    6  C6  UNL     1      23.413  23.484  20.050  1.00  0.00     0.006 A 
HETATM    7  C7  UNL     1      23.756  24.067  18.819  1.00  0.00     0.084 A 
HETATM    8  C8  UNL     1      22.405  24.393  20.592  1.00  0.00     0.072 C 
HETATM    9  C9  UNL     1      21.994  24.277  21.993  1.00  0.00    -0.007 C 
HETATM   10  C10 UNL     1      21.948  23.552  23.081  1.00  0.00     0.003 C 
HETATM   11  C16 UNL     1      22.434  22.196  23.366  1.00  0.00     0.089 A 
HETATM   12  C17 UNL     1      23.288  21.378  22.659  1.00  0.00     0.134 A 
HETATM   13  N2  UNL     1      23.984  21.535  21.444  1.00  0.00    -0.340 N 
ATOM     14  H2  UNL     1      24.645  20.767  21.327  1.00  0.00     0.167 HD
HETATM   15  N3  UNL     1      22.765  20.886  23.857  1.00  0.00    -0.337 N 
ATOM     16  H3  UNL     1      22.680  20.149  24.558  1.00  0.00     0.167 HD
ENDROOT
BRANCH  10  17
HETATM   17  C11 UNL     1      21.317  24.137  24.238  1.00  0.00    -0.008 A 
HETATM   18  C12 UNL     1      20.246  23.428  24.830  1.00  0.00     0.015 A 
HETATM   19  C13 UNL     1      19.562  23.877  25.932  1.00  0.00     0.018 A 
HETATM   20  C14 UNL     1      19.954  25.076  26.474  1.00  0.00     0.087 A 
HETATM   21  N1  UNL     1      20.958  25.772  25.946  1.00  0.00    -0.374 N 
HETATM   22  C15 UNL     1      21.635  25.321  24.848  1.00  0.00     0.100 A 
ATOM     23  H1  UNL     1      21.227  26.661  26.368  1.00  0.00     0.164 HD
ENDBRANCH  10  17
BRANCH   7  24
HETATM   24  O1  UNL     1      23.145  25.207  18.381  1.00  0.00    -0.359 OA
ATOM     25  H1  UNL     1      22.287  25.163  17.977  1.00  0.00     0.217 HD
ENDBRANCH   7  24
TORSDOF 2
ENDMDL
MODEL 2
REMARK VINA RESULT: -7.573908783      0.686      1.065
REMARK  2 active torsions:
REMARK  status: ('A' for Active; 'I' for Inactive)
REMARK    1  A    between atoms: C7_7  and  O1_8 
REMARK    2  A    between atoms: C10_12  and  C11_13 
ROOT
HETATM    1  C1  UNL     1      24.882  24.519  17.033  1.00  0.00     0.026 C 
HETATM    2  C2  UNL     1      24.621  23.868  18.145  1.00  0.00    -0.012 A 
HETATM    3  C3  UNL     1      25.364  22.781  18.513  1.00  0.00     0.015 A 
HETATM    4  C4  UNL     1      25.070  22.119  19.677  1.00  0.00     0.031 A 
HETATM    5  C5  UNL     1      24.010  22.572  20.473  1.00  0.00     0.043 A 
HETATM    6  C6  UNL     1      23.254  23.670  20.115  1.00  0.00     0.006 A 
HETATM    7  C7  UNL     1      23.563  24.337  18.918  1.00  0.00     0.084 A 
HETATM    8  C8  UNL     1      22.143  24.444  20.664  1.00  0.00     0.072 C 
HETATM    9  C9  UNL     1      21.714  24.226  22.047  1.00  0.00    -0.007 C 
HETATM   10  C10 UNL     1      21.719  23.454  23.104  1.00  0.00     0.003 C 
HETATM   11  C16 UNL     1      22.338  22.146  23.348  1.00  0.00     0.089 A 
HETATM   12  C17 UNL     1      23.290  21.452  22.633  1.00  0.00     0.134 A 
HETATM   13  N2  UNL     1      23.994  21.733  21.446  1.00  0.00    -0.340 N 
ATOM     14  H2  UNL     1      24.735  21.044  21.317  1.00  0.00     0.167 HD
HETATM   15  N3  UNL     1      22.794  20.858  23.796  1.00  0.00    -0.337 N 
ATOM     16  H3  UNL     1      22.771  20.087  24.464  1.00  0.00     0.167 HD
ENDROOT
BRANCH  10  17
HETATM   17  C11 UNL     1      21.002  23.921  24.265  1.00  0.00    -0.008 A 
HETATM   18  C12 UNL     1      21.554  25.007  24.983  1.00  0.00     0.015 A 
HETATM   19  C13 UNL     1      20.971  25.543  26.105  1.00  0.00     0.018 A 
HETATM   20  C14 UNL     1      19.793  24.983  26.534  1.00  0.00     0.087 A 
HETATM   21  N1  UNL     1      19.243  23.960  25.884  1.00  0.00    -0.374 N 
HETATM   22  C15 UNL     1      19.827  23.431  24.769  1.00  0.00     0.100 A 
ATOM     23  H1  UNL     1      18.367  23.563  26.226  1.00  0.00     0.164 HD
ENDBRANCH  10  17
BRANCH   7  24
HETATM   24  O1  UNL     1      22.845  25.425  18.509  1.00  0.00    -0.359 OA
ATOM     25  H1  UNL     1      23.226  26.293  18.560  1.00  0.00     0.217 HD
ENDBRANCH   7  24
TORSDOF 2
ENDMDL
MODEL 3
REMARK VINA RESULT: -6.973478940      2.317      3.256
REMARK  2 active torsions:
REMARK  status: ('A' for Active; 'I' for Inactive)
REMARK    1  A    between atoms: C7_7  and  O1_8 
REMARK    2  A    between atoms: C10_12  and  C11_13 
ROOT
HETATM    1  C1  UNL     1      25.446  19.133  19.450  1.00  0.00     0.026 C 
HETATM    2  C2  UNL     1      24.705  20.201  19.644  1.00  0.00    -0.012 A 
HETATM    3  C3  UNL     1      24.259  20.947  18.588  1.00  0.00     0.015 A 
HETATM    4  C4  UNL     1      23.489  22.058  18.819  1.00  0.00     0.031 A 
HETATM    5  C5  UNL     1      23.169  22.408  20.137  1.00  0.00     0.043 A 
HETATM    6  C6  UNL     1      23.610  21.662  21.211  1.00  0.00     0.006 A 
HETATM    7  C7  UNL     1      24.401  20.528  20.962  1.00  0.00     0.084 A 
HETATM    8  C8  UNL     1      23.469  21.671  22.665  1.00  0.00     0.072 C 
HETATM    9  C9  UNL     1      22.482  22.548  23.299  1.00  0.00    -0.007 C 
HETATM   10  C10 UNL     1      21.696  23.589  23.200  1.00  0.00     0.003 C 
HETATM   11  C16 UNL     1      21.454  24.523  22.093  1.00  0.00     0.089 A 
HETATM   12  C17 UNL     1      21.795  24.448  20.760  1.00  0.00     0.134 A 
HETATM   13  N2  UNL     1      22.477  23.481  19.996  1.00  0.00    -0.340 N 
ATOM     14  H2  UNL     1      22.395  23.709  19.005  1.00  0.00     0.167 HD
HETATM   15  N3  UNL     1      21.102  25.583  21.188  1.00  0.00    -0.337 N 
ATOM     16  H3  UNL     1      20.669  26.488  21.000  1.00  0.00     0.167 HD
ENDROOT
BRANCH  10  17
HETATM   17  C11 UNL     1      20.902  23.928  24.355  1.00  0.00    -0.008 A 
HETATM   18  C12 UNL     1      21.498  24.745  25.344  1.00  0.00     0.015 A 
HETATM   19  C13 UNL     1      20.851  25.137  26.489  1.00  0.00     0.018 A 
HETATM   20  C14 UNL     1      19.559  24.706  26.664  1.00  0.00     0.087 A 
HETATM   21  N1  UNL     1      18.964  23.937  25.756  1.00  0.00    -0.374 N 
HETATM   22  C15 UNL     1      19.613  23.549  24.618  1.00  0.00     0.100 A 
ATOM     23  H1  UNL     1      18.003  23.629  25.912  1.00  0.00     0.164 HD
ENDBRANCH  10  17
BRANCH   7  24
HETATM   24  O1  UNL     1      24.872  19.756  21.985  1.00  0.00    -0.359 OA
ATOM     25  H1  UNL     1      25.602  20.057  22.512  1.00  0.00     0.217 HD
ENDBRANCH   7  24
TORSDOF 2
ENDMDL
MODEL 4
REMARK VINA RESULT: -6.683328160      2.274      3.132
REMARK  2 active torsions:
REMARK  status: ('A' for Active; 'I' for Inactive)
REMARK    1  A    between atoms: C7_7  and  O1_8 
REMARK    2  A    between atoms: C10_12  and  C11_13 
ROOT
HETATM    1  C1  UNL     1      25.501  18.913  19.412  1.00  0.00     0.026 C 
HETATM    2  C2  UNL     1      24.765  19.990  19.578  1.00  0.00    -0.012 A 
HETATM    3  C3  UNL     1      24.239  20.653  18.503  1.00  0.00     0.015 A 
HETATM    4  C4  UNL     1      23.476  21.774  18.704  1.00  0.00     0.031 A 
HETATM    5  C5  UNL     1      23.246  22.221  20.012  1.00  0.00     0.043 A 
HETATM    6  C6  UNL     1      23.768  21.560  21.104  1.00  0.00     0.006 A 
HETATM    7  C7  UNL     1      24.551  20.414  20.885  1.00  0.00     0.084 A 
HETATM    8  C8  UNL     1      23.730  21.678  22.560  1.00  0.00     0.072 C 
HETATM    9  C9  UNL     1      22.781  22.596  23.195  1.00  0.00    -0.007 C 
HETATM   10  C10 UNL     1      21.980  23.623  23.074  1.00  0.00     0.003 C 
HETATM   11  C16 UNL     1      21.652  24.470  21.921  1.00  0.00     0.089 A 
HETATM   12  C17 UNL     1      21.900  24.296  20.577  1.00  0.00     0.134 A 
HETATM   13  N2  UNL     1      22.536  23.278  19.840  1.00  0.00    -0.340 N 
ATOM     14  H2  UNL     1      22.382  23.430  18.843  1.00  0.00     0.167 HD
HETATM   15  N3  UNL     1      21.227  25.457  20.966  1.00  0.00    -0.337 N 
ATOM     16  H3  UNL     1      20.774  26.344  20.742  1.00  0.00     0.167 HD
ENDROOT
BRANCH  10  17
HETATM   17  C11 UNL     1      21.266  24.044  24.255  1.00  0.00    -0.008 A 
HETATM   18  C12 UNL     1      20.017  23.435  24.517  1.00  0.00     0.015 A 
HETATM   19  C13 UNL     1      19.239  23.748  25.604  1.00  0.00     0.018 A 
HETATM   20  C14 UNL     1      19.716  24.702  26.469  1.00  0.00     0.087 A 
HETATM   21  N1  UNL     1      20.887  25.297  26.256  1.00  0.00    -0.374 N 
HETATM   22  C15 UNL     1      21.657  24.982  25.172  1.00  0.00     0.100 A 
ATOM     23  H1  UNL     1      21.217  26.003  26.914  1.00  0.00     0.164 HD
ENDBRANCH  10  17
BRANCH   7  24
HETATM   24  O1  UNL     1      25.100  19.723  21.928  1.00  0.00    -0.359 OA
ATOM     25  H1  UNL     1      24.898  19.970  22.822  1.00  0.00     0.217 HD
ENDBRANCH   7  24
TORSDOF 2
ENDMDL
MODEL 5
REMARK VINA RESULT: -6.101304692      2.798      3.365
REMARK  2 active torsions:
REMARK  status: ('A' for Active; 'I' for Inactive)
REMARK    1  A    between atoms: C7_7  and  O1_8 
REMARK    2  A    between atoms: C10_12  and  C11_13 
ROOT
HETATM    1  C1  UNL     1      24.900  18.478  19.720  1.00  0.00     0.026 C 
HETATM    2  C2  UNL     1      23.959  19.384  19.871  1.00  0.00    -0.012 A 
HETATM    3  C3  UNL     1      22.926  19.478  18.980  1.00  0.00     0.015 A 
HETATM    4  C4  UNL     1      21.958  20.432  19.160  1.00  0.00     0.031 A 
HETATM    5  C5  UNL     1      22.044  21.296  20.259  1.00  0.00     0.043 A 
HETATM    6  C6  UNL     1      23.080  21.210  21.167  1.00  0.00     0.006 A 
HETATM    7  C7  UNL     1      24.067  20.230  20.970  1.00  0.00     0.084 A 
HETATM    8  C8  UNL     1      23.490  21.868  22.406  1.00  0.00     0.072 C 
HETATM    9  C9  UNL     1      22.566  22.771  23.095  1.00  0.00    -0.007 C 
HETATM   10  C10 UNL     1      21.488  23.511  23.040  1.00  0.00     0.003 C 
HETATM   11  C16 UNL     1      20.546  23.777  21.946  1.00  0.00     0.089 A 
HETATM   12  C17 UNL     1      20.376  23.149  20.731  1.00  0.00     0.134 A 
HETATM   13  N2  UNL     1      21.021  22.059  20.114  1.00  0.00    -0.340 N 
ATOM     14  H2  UNL     1      20.506  21.787  19.276  1.00  0.00     0.167 HD
HETATM   15  N3  UNL     1      19.539  24.229  21.025  1.00  0.00    -0.337 N 
ATOM     16  H3  UNL     1      18.781  24.863  20.773  1.00  0.00     0.167 HD
ENDROOT
BRANCH  10  17
HETATM   17  C11 UNL     1      21.110  24.216  24.241  1.00  0.00    -0.008 A 
HETATM   18  C12 UNL     1      20.251  23.552  25.148  1.00  0.00     0.015 A 
HETATM   19  C13 UNL     1      19.817  24.112  26.324  1.00  0.00     0.018 A 
HETATM   20  C14 UNL     1      20.251  25.382  26.616  1.00  0.00     0.087 A 
HETATM   21  N1  UNL     1      21.060  26.039  25.787  1.00  0.00    -0.374 N 
HETATM   22  C15 UNL     1      21.488  25.476  24.619  1.00  0.00     0.100 A 
ATOM     23  H1  UNL     1      21.366  26.981  26.029  1.00  0.00     0.164 HD
ENDBRANCH  10  17
BRANCH   7  24
HETATM   24  O1  UNL     1      25.119  20.103  21.832  1.00  0.00    -0.359 OA
ATOM     25  H1  UNL     1      25.942  20.540  21.648  1.00  0.00     0.217 HD
ENDBRANCH   7  24
TORSDOF 2
ENDMDL
