MODEL 1
REMARK VINA RESULT: -6.723909132      0.000      0.000
REMARK  5 active torsions:
REMARK  status: ('A' for Active; 'I' for Inactive)
REMARK    1  A    between atoms: N1_2  and  C2_4 
REMARK    2  A    between atoms: C2_4  and  N4_10 
REMARK    3  A    between atoms: C3_5  and  N2_6 
REMARK    4  A    between atoms: N2_6  and  N3_7 
REMARK    5  A    between atoms: N4_10  and  C4_12 
ROOT
HETATM    1  C4  UNL     1      21.226  23.498  23.197  1.00  0.00     0.153 A 
HETATM    2  N5  UNL     1      22.220  22.790  22.690  1.00  0.00    -0.320 N 
ATOM      3  H5  UNL     1      22.590  21.978  23.183  1.00  0.00     0.169 HD
HETATM    4  C5  UNL     1      22.722  23.164  21.525  1.00  0.00     0.142 A 
HETATM    5  N6  UNL     1      23.754  22.555  20.838  1.00  0.00    -0.338 N 
ATOM      6  H6  UNL     1      24.202  21.729  21.236  1.00  0.00     0.167 HD
HETATM    7  C6  UNL     1      24.176  23.027  19.663  1.00  0.00     0.060 A 
HETATM    8  C7  UNL     1      25.232  22.362  19.015  1.00  0.00     0.032 A 
HETATM    9  C8  UNL     1      25.641  22.877  17.806  1.00  0.00     0.002 A 
HETATM   10  C9  UNL     1      25.078  23.987  17.211  1.00  0.00     0.002 A 
HETATM   11  C10 UNL     1      24.052  24.617  17.862  1.00  0.00     0.032 A 
HETATM   12  C11 UNL     1      23.625  24.135  19.056  1.00  0.00     0.060 A 
HETATM   13  N7  UNL     1      22.617  24.742  19.711  1.00  0.00    -0.346 N 
ATOM     14  H7  UNL     1      22.174  25.567  19.306  1.00  0.00     0.167 HD
HETATM   15  C12 UNL     1      22.179  24.260  20.922  1.00  0.00     0.122 A 
HETATM   16  S1  UNL     1      20.969  24.717  22.043  1.00  0.00    -0.032 SA
ENDROOT
BRANCH   1  17
HETATM   17  N4  UNL     1      20.576  23.326  24.319  1.00  0.00    -0.321 N 
ATOM     18  H4  UNL     1      20.105  22.439  24.502  1.00  0.00     0.169 HD
BRANCH  17  19
HETATM   19  C2  UNL     1      20.524  24.363  25.279  1.00  0.00     0.134 C 
HETATM   20  C3  UNL     1      19.581  24.285  26.372  1.00  0.00     0.256 C 
BRANCH  19  21
HETATM   21  N1  UNL     1      21.320  25.356  25.155  1.00  0.00    -0.379 N 
HETATM   22  C1  UNL     1      20.981  26.717  25.435  1.00  0.00     0.147 C 
ATOM     23  H1  UNL     1      22.268  25.163  24.834  1.00  0.00     0.160 HD
ENDBRANCH  19  21
BRANCH  20  24
HETATM   24  N2  UNL     1      18.338  24.254  26.163  1.00  0.00    -0.342 NA
BRANCH  24  25
HETATM   25  N3  UNL     1      17.108  24.270  26.158  1.00  0.00    -0.281 N 
ATOM     26  H32 UNL     1      17.154  24.991  25.437  1.00  0.00     0.191 HD
ATOM     27  H31 UNL     1      16.100  24.163  26.275  1.00  0.00     0.191 HD
ENDBRANCH  24  25
ENDBRANCH  20  24
ENDBRANCH  17  19
ENDBRANCH   1  17
TORSDOF 5
ENDMDL
MODEL 2
REMARK VINA RESULT: -6.252264572      1.816      2.488
REMARK  5 active torsions:
REMARK  status: ('A' for Active; 'I' for Inactive)
REMARK    1  A    between atoms: N1_2  and  C2_4 
REMARK    2  A    between atoms: C2_4  and  N4_10 
REMARK    3  A    between atoms: C3_5  and  N2_6 
REMARK    4  A    between atoms: N2_6  and  N3_7 
REMARK    5  A    between atoms: N4_10  and  C4_12 
ROOT
HETATM    1  C4  UNL     1      21.310  24.404  23.870  1.00  0.00     0.153 A 
HETATM    2  N5  UNL     1      21.905  23.232  24.004  1.00  0.00    -0.320 N 
ATOM      3  H5  UNL     1      21.910  22.746  24.901  1.00  0.00     0.169 HD
HETATM    4  C5  UNL     1      22.493  22.705  22.943  1.00  0.00     0.142 A 
HETATM    5  N6  UNL     1      23.161  21.497  22.885  1.00  0.00    -0.338 N 
ATOM      6  H6  UNL     1      23.229  20.922  23.724  1.00  0.00     0.167 HD
HETATM    7  C6  UNL     1      23.717  21.070  21.749  1.00  0.00     0.060 A 
HETATM    8  C7  UNL     1      24.383  19.831  21.756  1.00  0.00     0.032 A 
HETATM    9  C8  UNL     1      24.945  19.422  20.568  1.00  0.00     0.002 A 
HETATM   10  C9  UNL     1      24.887  20.149  19.397  1.00  0.00     0.002 A 
HETATM   11  C10 UNL     1      24.233  21.352  19.416  1.00  0.00     0.032 A 
HETATM   12  C11 UNL     1      23.669  21.784  20.572  1.00  0.00     0.060 A 
HETATM   13  N7  UNL     1      23.022  22.965  20.609  1.00  0.00    -0.346 N 
ATOM     14  H7  UNL     1      22.958  23.534  19.765  1.00  0.00     0.167 HD
HETATM   15  C12 UNL     1      22.447  23.411  21.777  1.00  0.00     0.122 A 
HETATM   16  S1  UNL     1      21.564  24.802  22.239  1.00  0.00    -0.032 SA
ENDROOT
BRANCH   1  17
HETATM   17  N4  UNL     1      20.671  25.114  24.764  1.00  0.00    -0.321 N 
ATOM     18  H4  UNL     1      20.487  26.102  24.590  1.00  0.00     0.169 HD
BRANCH  17  19
HETATM   19  C2  UNL     1      20.236  24.517  25.969  1.00  0.00     0.134 C 
HETATM   20  C3  UNL     1      18.990  23.782  26.001  1.00  0.00     0.256 C 
BRANCH  19  21
HETATM   21  N1  UNL     1      20.961  24.642  27.016  1.00  0.00    -0.379 N 
HETATM   22  C1  UNL     1      20.468  24.647  28.357  1.00  0.00     0.147 C 
ATOM     23  H1  UNL     1      21.966  24.747  26.882  1.00  0.00     0.160 HD
ENDBRANCH  19  21
BRANCH  20  24
HETATM   24  N2  UNL     1      17.893  24.346  25.744  1.00  0.00    -0.342 NA
BRANCH  24  25
HETATM   25  N3  UNL     1      16.763  24.828  25.678  1.00  0.00    -0.281 N 
ATOM     26  H32 UNL     1      17.124  25.651  26.161  1.00  0.00     0.191 HD
ATOM     27  H31 UNL     1      15.784  25.083  25.545  1.00  0.00     0.191 HD
ENDBRANCH  24  25
ENDBRANCH  20  24
ENDBRANCH  17  19
ENDBRANCH   1  17
TORSDOF 5
ENDMDL
MODEL 3
REMARK VINA RESULT: -6.247104283      0.861      1.660
REMARK  5 active torsions:
REMARK  status: ('A' for Active; 'I' for Inactive)
REMARK    1  A    between atoms: N1_2  and  C2_4 
REMARK    2  A    between atoms: C2_4  and  N4_10 
REMARK    3  A    between atoms: C3_5  and  N2_6 
REMARK    4  A    between atoms: N2_6  and  N3_7 
REMARK    5  A    between atoms: N4_10  and  C4_12 
ROOT
HETATM    1  C4  UNL     1      21.153  23.394  23.008  1.00  0.00     0.153 A 
HETATM    2  N5  UNL     1      21.290  24.168  21.945  1.00  0.00    -0.320 N 
ATOM      3  H5  UNL     1      20.669  24.962  21.792  1.00  0.00     0.169 HD
HETATM    4  C5  UNL     1      22.255  23.885  21.087  1.00  0.00     0.142 A 
HETATM    5  N6  UNL     1      22.556  24.572  19.928  1.00  0.00    -0.338 N 
ATOM      6  H6  UNL     1      22.000  25.388  19.671  1.00  0.00     0.167 HD
HETATM    7  C6  UNL     1      23.560  24.188  19.137  1.00  0.00     0.060 A 
HETATM    8  C7  UNL     1      23.814  24.930  17.970  1.00  0.00     0.032 A 
HETATM    9  C8  UNL     1      24.857  24.505  17.179  1.00  0.00     0.002 A 
HETATM   10  C9  UNL     1      25.649  23.413  17.468  1.00  0.00     0.002 A 
HETATM   11  C10 UNL     1      25.382  22.707  18.610  1.00  0.00     0.032 A 
HETATM   12  C11 UNL     1      24.360  23.100  19.412  1.00  0.00     0.060 A 
HETATM   13  N7  UNL     1      24.082  22.417  20.539  1.00  0.00    -0.346 N 
ATOM     14  H7  UNL     1      24.643  21.603  20.788  1.00  0.00     0.167 HD
HETATM   15  C12 UNL     1      23.048  22.808  21.357  1.00  0.00     0.122 A 
HETATM   16  S1  UNL     1      22.385  22.239  22.828  1.00  0.00    -0.032 SA
ENDROOT
BRANCH   1  17
HETATM   17  N4  UNL     1      20.284  23.474  23.982  1.00  0.00    -0.321 N 
ATOM     18  H4  UNL     1      19.425  22.924  23.944  1.00  0.00     0.169 HD
BRANCH  17  19
HETATM   19  C2  UNL     1      20.530  24.320  25.089  1.00  0.00     0.134 C 
HETATM   20  C3  UNL     1      19.755  24.165  26.300  1.00  0.00     0.256 C 
BRANCH  19  21
HETATM   21  N1  UNL     1      21.441  25.212  24.991  1.00  0.00    -0.379 N 
HETATM   22  C1  UNL     1      21.222  26.621  25.093  1.00  0.00     0.147 C 
ATOM     23  H1  UNL     1      22.396  24.894  24.827  1.00  0.00     0.160 HD
ENDBRANCH  19  21
BRANCH  20  24
HETATM   24  N2  UNL     1      18.505  24.328  26.302  1.00  0.00    -0.342 NA
BRANCH  24  25
HETATM   25  N3  UNL     1      17.277  24.289  26.245  1.00  0.00    -0.281 N 
ATOM     26  H32 UNL     1      17.336  24.784  25.355  1.00  0.00     0.191 HD
ATOM     27  H31 UNL     1      16.268  24.175  26.348  1.00  0.00     0.191 HD
ENDBRANCH  24  25
ENDBRANCH  20  24
ENDBRANCH  17  19
ENDBRANCH   1  17
TORSDOF 5
ENDMDL
MODEL 4
REMARK VINA RESULT: -5.880886532      1.149      1.768
REMARK  5 active torsions:
REMARK  status: ('A' for Active; 'I' for Inactive)
REMARK    1  A    between atoms: N1_2  and  C2_4 
REMARK    2  A    between atoms: C2_4  and  N4_10 
REMARK    3  A    between atoms: C3_5  and  N2_6 
REMARK    4  A    between atoms: N2_6  and  N3_7 
REMARK    5  A    between atoms: N4_10  and  C4_12 
ROOT
HETATM    1  C4  UNL     1      21.504  23.294  23.642  1.00  0.00     0.153 A 
HETATM    2  N5  UNL     1      22.413  22.577  23.006  1.00  0.00    -0.320 N 
ATOM      3  H5  UNL     1      22.816  21.743  23.434  1.00  0.00     0.169 HD
HETATM    4  C5  UNL     1      22.785  22.969  21.799  1.00  0.00     0.142 A 
HETATM    5  N6  UNL     1      23.714  22.354  20.982  1.00  0.00    -0.338 N 
ATOM      6  H6  UNL     1      24.183  21.508  21.306  1.00  0.00     0.167 HD
HETATM    7  C6  UNL     1      24.007  22.847  19.777  1.00  0.00     0.060 A 
HETATM    8  C7  UNL     1      24.962  22.175  18.994  1.00  0.00     0.032 A 
HETATM    9  C8  UNL     1      25.241  22.711  17.757  1.00  0.00     0.002 A 
HETATM   10  C9  UNL     1      24.641  23.849  17.258  1.00  0.00     0.002 A 
HETATM   11  C10 UNL     1      23.714  24.486  18.040  1.00  0.00     0.032 A 
HETATM   12  C11 UNL     1      23.418  23.983  19.265  1.00  0.00     0.060 A 
HETATM   13  N7  UNL     1      22.509  24.596  20.047  1.00  0.00    -0.346 N 
ATOM     14  H7  UNL     1      22.044  25.440  19.716  1.00  0.00     0.167 HD
HETATM   15  C12 UNL     1      22.203  24.092  21.290  1.00  0.00     0.122 A 
HETATM   16  S1  UNL     1      21.145  24.548  22.555  1.00  0.00    -0.032 SA
ENDROOT
BRANCH   1  17
HETATM   17  N4  UNL     1      20.985  23.107  24.829  1.00  0.00    -0.321 N 
ATOM     18  H4  UNL     1      21.341  22.362  25.427  1.00  0.00     0.169 HD
BRANCH  17  19
HETATM   19  C2  UNL     1      19.932  23.935  25.284  1.00  0.00     0.134 C 
HETATM   20  C3  UNL     1      20.226  25.085  26.110  1.00  0.00     0.256 C 
BRANCH  19  21
HETATM   21  N1  UNL     1      18.732  23.642  24.953  1.00  0.00    -0.379 N 
HETATM   22  C1  UNL     1      17.569  23.964  25.720  1.00  0.00     0.147 C 
ATOM     23  H1  UNL     1      18.594  23.142  24.075  1.00  0.00     0.160 HD
ENDBRANCH  19  21
BRANCH  20  24
HETATM   24  N2  UNL     1      20.774  24.958  27.238  1.00  0.00    -0.342 NA
BRANCH  24  25
HETATM   25  N3  UNL     1      21.193  24.663  28.356  1.00  0.00    -0.281 N 
ATOM     26  H32 UNL     1      20.450  23.967  28.414  1.00  0.00     0.191 HD
ATOM     27  H31 UNL     1      21.659  24.539  29.255  1.00  0.00     0.191 HD
ENDBRANCH  24  25
ENDBRANCH  20  24
ENDBRANCH  17  19
ENDBRANCH   1  17
TORSDOF 5
ENDMDL
MODEL 5
REMARK VINA RESULT: -5.416062102      1.422      2.185
REMARK  5 active torsions:
REMARK  status: ('A' for Active; 'I' for Inactive)
REMARK    1  A    between atoms: N1_2  and  C2_4 
REMARK    2  A    between atoms: C2_4  and  N4_10 
REMARK    3  A    between atoms: C3_5  and  N2_6 
REMARK    4  A    between atoms: N2_6  and  N3_7 
REMARK    5  A    between atoms: N4_10  and  C4_12 
ROOT
HETATM    1  C4  UNL     1      21.346  24.624  23.823  1.00  0.00     0.153 A 
HETATM    2  N5  UNL     1      21.488  24.986  22.560  1.00  0.00    -0.320 N 
ATOM      3  H5  UNL     1      21.129  25.882  22.228  1.00  0.00     0.169 HD
HETATM    4  C5  UNL     1      22.108  24.157  21.738  1.00  0.00     0.142 A 
HETATM    5  N6  UNL     1      22.353  24.356  20.394  1.00  0.00    -0.338 N 
ATOM      6  H6  UNL     1      22.040  25.220  19.950  1.00  0.00     0.167 HD
HETATM    7  C6  UNL     1      22.993  23.440  19.664  1.00  0.00     0.060 A 
HETATM    8  C7  UNL     1      23.210  23.703  18.300  1.00  0.00     0.032 A 
HETATM    9  C8  UNL     1      23.873  22.736  17.579  1.00  0.00     0.002 A 
HETATM   10  C9  UNL     1      24.325  21.548  18.116  1.00  0.00     0.002 A 
HETATM   11  C10 UNL     1      24.101  21.316  19.446  1.00  0.00     0.032 A 
HETATM   12  C11 UNL     1      23.451  22.249  20.186  1.00  0.00     0.060 A 
HETATM   13  N7  UNL     1      23.221  22.036  21.496  1.00  0.00    -0.346 N 
ATOM     14  H7  UNL     1      23.539  21.170  21.931  1.00  0.00     0.167 HD
HETATM   15  C12 UNL     1      22.562  22.977  22.252  1.00  0.00     0.122 A 
HETATM   16  S1  UNL     1      22.085  23.097  23.891  1.00  0.00    -0.032 SA
ENDROOT
BRANCH   1  17
HETATM   17  N4  UNL     1      20.776  25.268  24.809  1.00  0.00    -0.321 N 
ATOM     18  H4  UNL     1      20.634  26.277  24.742  1.00  0.00     0.169 HD
BRANCH  17  19
HETATM   19  C2  UNL     1      20.355  24.573  25.966  1.00  0.00     0.134 C 
HETATM   20  C3  UNL     1      19.132  23.802  25.939  1.00  0.00     0.256 C 
BRANCH  19  21
HETATM   21  N1  UNL     1      21.075  24.642  27.021  1.00  0.00    -0.379 N 
HETATM   22  C1  UNL     1      20.568  24.659  28.357  1.00  0.00     0.147 C 
ATOM     23  H1  UNL     1      22.086  24.689  26.900  1.00  0.00     0.160 HD
ENDBRANCH  19  21
BRANCH  20  24
HETATM   24  N2  UNL     1      18.019  24.351  25.719  1.00  0.00    -0.342 NA
BRANCH  24  25
HETATM   25  N3  UNL     1      16.878  24.811  25.688  1.00  0.00    -0.281 N 
ATOM     26  H32 UNL     1      17.004  25.095  26.660  1.00  0.00     0.191 HD
ATOM     27  H31 UNL     1      15.930  25.137  25.501  1.00  0.00     0.191 HD
ENDBRANCH  24  25
ENDBRANCH  20  24
ENDBRANCH  17  19
ENDBRANCH   1  17
TORSDOF 5
ENDMDL
