MODEL 1
REMARK VINA RESULT: -6.846986197      0.000      0.000
REMARK  7 active torsions:
REMARK  status: ('A' for Active; 'I' for Inactive)
REMARK    1  A    between atoms: N3_9  and  O1_10 
REMARK    2  A    between atoms: C4_12  and  C5_13 
REMARK    3  A    between atoms: C5_13  and  C6_14 
REMARK    4  A    between atoms: C6_14  and  C7_15 
REMARK    5  A    between atoms: C7_15  and  O2_16 
REMARK    6  A    between atoms: O2_16  and  C8_17 
REMARK    7  A    between atoms: C9_18  and  C10_19 
ROOT
HETATM    1  C1  UNL     1      24.537  23.039  19.147  1.00  0.00     0.071 C 
HETATM    2  C2  UNL     1      24.360  21.648  19.585  1.00  0.00     0.047 A 
HETATM    3  N1  UNL     1      25.025  20.613  19.000  1.00  0.00    -0.333 N 
ATOM      4  H1  UNL     1      25.668  20.808  18.232  1.00  0.00     0.168 HD
HETATM    5  C3  UNL     1      24.859  19.340  19.408  1.00  0.00     0.193 A 
HETATM    6  S1  UNL     1      25.650  18.088  18.715  1.00  0.00    -0.039 SA
HETATM    7  N2  UNL     1      24.015  19.074  20.418  1.00  0.00    -0.248 N 
ATOM      8  H2  UNL     1      23.887  18.111  20.728  1.00  0.00     0.192 HD
HETATM    9  N3  UNL     1      23.350  20.045  21.012  1.00  0.00    -0.151 N 
HETATM   10  C4  UNL     1      23.508  21.339  20.611  1.00  0.00     0.156 A 
ENDROOT
BRANCH  10  11
HETATM   11  C5  UNL     1      22.778  22.393  21.268  1.00  0.00    -0.040 C 
BRANCH  11  12
HETATM   12  C6  UNL     1      22.170  23.266  21.836  1.00  0.00    -0.072 C 
BRANCH  12  13
HETATM   13  C7  UNL     1      21.445  24.320  22.547  1.00  0.00     0.282 C 
BRANCH  13  14
HETATM   14  O2  UNL     1      22.086  24.476  23.799  1.00  0.00    -0.292 OA
BRANCH  14  15
HETATM   15  C8  UNL     1      21.243  24.621  24.889  1.00  0.00     0.056 C 
HETATM   16  C9  UNL     1      20.499  24.762  25.827  1.00  0.00    -0.067 C 
BRANCH  16  17
HETATM   17  C10 UNL     1      19.591  24.956  26.953  1.00  0.00     0.015 C 
HETATM   18  C11 UNL     1      19.399  26.450  27.115  1.00  0.00     0.028 C 
HETATM   19  C12 UNL     1      18.228  24.358  26.697  1.00  0.00     0.028 C 
HETATM   20  C13 UNL     1      20.184  24.423  28.234  1.00  0.00     0.028 C 
ENDBRANCH  16  17
ENDBRANCH  14  15
ENDBRANCH  13  14
ENDBRANCH  12  13
ENDBRANCH  11  12
ENDBRANCH  10  11
BRANCH   9  21
HETATM   21  O1  UNL     1      22.501  19.740  22.036  1.00  0.00    -0.267 OA
ATOM     22  H1  UNL     1      21.621  19.442  21.834  1.00  0.00     0.247 HD
ENDBRANCH   9  21
TORSDOF 7
ENDMDL
MODEL 2
REMARK VINA RESULT: -6.181037672      4.487      9.772
REMARK  7 active torsions:
REMARK  status: ('A' for Active; 'I' for Inactive)
REMARK    1  A    between atoms: N3_9  and  O1_10 
REMARK    2  A    between atoms: C4_12  and  C5_13 
REMARK    3  A    between atoms: C5_13  and  C6_14 
REMARK    4  A    between atoms: C6_14  and  C7_15 
REMARK    5  A    between atoms: C7_15  and  O2_16 
REMARK    6  A    between atoms: O2_16  and  C8_17 
REMARK    7  A    between atoms: C9_18  and  C10_19 
ROOT
HETATM    1  C1  UNL     1      25.099  22.174  18.482  1.00  0.00     0.071 C 
HETATM    2  C2  UNL     1      24.169  21.912  19.589  1.00  0.00     0.047 A 
HETATM    3  N1  UNL     1      23.430  22.902  20.163  1.00  0.00    -0.333 N 
ATOM      4  H1  UNL     1      23.523  23.856  19.816  1.00  0.00     0.168 HD
HETATM    5  C3  UNL     1      22.578  22.655  21.178  1.00  0.00     0.193 A 
HETATM    6  S1  UNL     1      21.685  23.831  21.878  1.00  0.00    -0.039 SA
HETATM    7  N2  UNL     1      22.449  21.402  21.643  1.00  0.00    -0.248 N 
ATOM      8  H2  UNL     1      21.805  21.212  22.411  1.00  0.00     0.192 HD
HETATM    9  N3  UNL     1      23.146  20.414  21.116  1.00  0.00    -0.151 N 
HETATM   10  C4  UNL     1      24.011  20.648  20.089  1.00  0.00     0.156 A 
ENDROOT
BRANCH  10  11
HETATM   11  C5  UNL     1      24.767  19.561  19.520  1.00  0.00    -0.040 C 
BRANCH  11  12
HETATM   12  C6  UNL     1      25.396  18.641  19.060  1.00  0.00    -0.072 C 
BRANCH  12  13
HETATM   13  C7  UNL     1      26.165  17.537  18.483  1.00  0.00     0.282 C 
BRANCH  13  14
HETATM   14  O2  UNL     1      25.293  16.856  17.601  1.00  0.00    -0.292 OA
BRANCH  14  15
HETATM   15  C8  UNL     1      25.259  15.478  17.741  1.00  0.00     0.056 C 
HETATM   16  C9  UNL     1      25.215  14.280  17.876  1.00  0.00    -0.067 C 
BRANCH  16  17
HETATM   17  C10 UNL     1      25.147  12.835  18.061  1.00  0.00     0.015 C 
HETATM   18  C11 UNL     1      24.935  12.222  16.692  1.00  0.00     0.028 C 
HETATM   19  C12 UNL     1      26.435  12.268  18.608  1.00  0.00     0.028 C 
HETATM   20  C13 UNL     1      23.974  12.447  18.928  1.00  0.00     0.028 C 
ENDBRANCH  16  17
ENDBRANCH  14  15
ENDBRANCH  13  14
ENDBRANCH  12  13
ENDBRANCH  11  12
ENDBRANCH  10  11
BRANCH   9  21
HETATM   21  O1  UNL     1      22.991  19.152  21.612  1.00  0.00    -0.267 OA
ATOM     22  H1  UNL     1      23.659  18.794  22.184  1.00  0.00     0.247 HD
ENDBRANCH   9  21
TORSDOF 7
ENDMDL
MODEL 3
REMARK VINA RESULT: -6.058296032      2.940      5.383
REMARK  7 active torsions:
REMARK  status: ('A' for Active; 'I' for Inactive)
REMARK    1  A    between atoms: N3_9  and  O1_10 
REMARK    2  A    between atoms: C4_12  and  C5_13 
REMARK    3  A    between atoms: C5_13  and  C6_14 
REMARK    4  A    between atoms: C6_14  and  C7_15 
REMARK    5  A    between atoms: C7_15  and  O2_16 
REMARK    6  A    between atoms: O2_16  and  C8_17 
REMARK    7  A    between atoms: C9_18  and  C10_19 
ROOT
HETATM    1  C1  UNL     1      22.056  21.223  18.766  1.00  0.00     0.071 C 
HETATM    2  C2  UNL     1      23.196  20.567  19.421  1.00  0.00     0.047 A 
HETATM    3  N1  UNL     1      23.885  19.551  18.830  1.00  0.00    -0.333 N 
ATOM      4  H1  UNL     1      23.601  19.233  17.904  1.00  0.00     0.168 HD
HETATM    5  C3  UNL     1      24.930  18.955  19.436  1.00  0.00     0.193 A 
HETATM    6  S1  UNL     1      25.765  17.734  18.740  1.00  0.00    -0.039 SA
HETATM    7  N2  UNL     1      25.310  19.366  20.656  1.00  0.00    -0.248 N 
ATOM      8  H2  UNL     1      26.101  18.916  21.117  1.00  0.00     0.192 HD
HETATM    9  N3  UNL     1      24.671  20.346  21.265  1.00  0.00    -0.151 N 
HETATM   10  C4  UNL     1      23.612  20.960  20.665  1.00  0.00     0.156 A 
ENDROOT
BRANCH  10  11
HETATM   11  C5  UNL     1      22.921  22.030  21.338  1.00  0.00    -0.040 C 
BRANCH  11  12
HETATM   12  C6  UNL     1      22.348  22.939  21.885  1.00  0.00    -0.072 C 
BRANCH  12  13
HETATM   13  C7  UNL     1      21.660  24.058  22.531  1.00  0.00     0.282 C 
BRANCH  13  14
HETATM   14  O2  UNL     1      21.281  24.948  21.498  1.00  0.00    -0.292 OA
BRANCH  14  15
HETATM   15  C8  UNL     1      22.041  24.878  20.341  1.00  0.00     0.056 C 
HETATM   16  C9  UNL     1      22.686  24.818  19.323  1.00  0.00    -0.067 C 
BRANCH  16  17
HETATM   17  C10 UNL     1      23.443  24.739  18.079  1.00  0.00     0.015 C 
HETATM   18  C11 UNL     1      23.910  26.143  17.755  1.00  0.00     0.028 C 
HETATM   19  C12 UNL     1      24.677  23.880  18.215  1.00  0.00     0.028 C 
HETATM   20  C13 UNL     1      22.576  24.265  16.938  1.00  0.00     0.028 C 
ENDBRANCH  16  17
ENDBRANCH  14  15
ENDBRANCH  13  14
ENDBRANCH  12  13
ENDBRANCH  11  12
ENDBRANCH  10  11
BRANCH   9  21
HETATM   21  O1  UNL     1      25.084  20.740  22.505  1.00  0.00    -0.267 OA
ATOM     22  H1  UNL     1      24.797  21.580  22.842  1.00  0.00     0.247 HD
ENDBRANCH   9  21
TORSDOF 7
ENDMDL
MODEL 4
REMARK VINA RESULT: -5.925753769      1.299      1.781
REMARK  7 active torsions:
REMARK  status: ('A' for Active; 'I' for Inactive)
REMARK    1  A    between atoms: N3_9  and  O1_10 
REMARK    2  A    between atoms: C4_12  and  C5_13 
REMARK    3  A    between atoms: C5_13  and  C6_14 
REMARK    4  A    between atoms: C6_14  and  C7_15 
REMARK    5  A    between atoms: C7_15  and  O2_16 
REMARK    6  A    between atoms: O2_16  and  C8_17 
REMARK    7  A    between atoms: C9_18  and  C10_19 
ROOT
HETATM    1  C1  UNL     1      23.998  20.478  22.835  1.00  0.00     0.071 C 
HETATM    2  C2  UNL     1      24.154  20.441  21.374  1.00  0.00     0.047 A 
HETATM    3  N1  UNL     1      24.847  19.452  20.744  1.00  0.00    -0.333 N 
ATOM      4  H1  UNL     1      25.275  18.713  21.302  1.00  0.00     0.168 HD
HETATM    5  C3  UNL     1      24.985  19.424  19.404  1.00  0.00     0.193 A 
HETATM    6  S1  UNL     1      25.816  18.245  18.634  1.00  0.00    -0.039 SA
HETATM    7  N2  UNL     1      24.428  20.393  18.661  1.00  0.00    -0.248 N 
ATOM      8  H2  UNL     1      24.531  20.374  17.646  1.00  0.00     0.192 HD
HETATM    9  N3  UNL     1      23.748  21.369  19.230  1.00  0.00    -0.151 N 
HETATM   10  C4  UNL     1      23.599  21.412  20.585  1.00  0.00     0.156 A 
ENDROOT
BRANCH  10  11
HETATM   11  C5  UNL     1      22.853  22.482  21.196  1.00  0.00    -0.040 C 
BRANCH  11  12
HETATM   12  C6  UNL     1      22.247  23.384  21.718  1.00  0.00    -0.072 C 
BRANCH  12  13
HETATM   13  C7  UNL     1      21.525  24.476  22.373  1.00  0.00     0.282 C 
BRANCH  13  14
HETATM   14  O2  UNL     1      22.147  24.675  23.628  1.00  0.00    -0.292 OA
BRANCH  14  15
HETATM   15  C8  UNL     1      21.291  24.739  24.716  1.00  0.00     0.056 C 
HETATM   16  C9  UNL     1      20.548  24.815  25.663  1.00  0.00    -0.067 C 
BRANCH  16  17
HETATM   17  C10 UNL     1      19.658  24.931  26.812  1.00  0.00     0.015 C 
HETATM   18  C11 UNL     1      19.422  26.410  27.043  1.00  0.00     0.028 C 
HETATM   19  C12 UNL     1      18.310  24.301  26.557  1.00  0.00     0.028 C 
HETATM   20  C13 UNL     1      20.294  24.364  28.058  1.00  0.00     0.028 C 
ENDBRANCH  16  17
ENDBRANCH  14  15
ENDBRANCH  13  14
ENDBRANCH  12  13
ENDBRANCH  11  12
ENDBRANCH  10  11
BRANCH   9  21
HETATM   21  O1  UNL     1      23.193  22.339  18.445  1.00  0.00    -0.267 OA
ATOM     22  H1  UNL     1      22.308  22.222  18.122  1.00  0.00     0.247 HD
ENDBRANCH   9  21
TORSDOF 7
ENDMDL
MODEL 5
REMARK VINA RESULT: -5.765074636      3.304      5.508
REMARK  7 active torsions:
REMARK  status: ('A' for Active; 'I' for Inactive)
REMARK    1  A    between atoms: N3_9  and  O1_10 
REMARK    2  A    between atoms: C4_12  and  C5_13 
REMARK    3  A    between atoms: C5_13  and  C6_14 
REMARK    4  A    between atoms: C6_14  and  C7_15 
REMARK    5  A    between atoms: C7_15  and  O2_16 
REMARK    6  A    between atoms: O2_16  and  C8_17 
REMARK    7  A    between atoms: C9_18  and  C10_19 
ROOT
HETATM    1  C1  UNL     1      25.506  21.946  18.938  1.00  0.00     0.071 C 
HETATM    2  C2  UNL     1      25.073  20.564  19.184  1.00  0.00     0.047 A 
HETATM    3  N1  UNL     1      25.603  19.507  18.508  1.00  0.00    -0.333 N 
ATOM      4  H1  UNL     1      26.324  19.678  17.806  1.00  0.00     0.168 HD
HETATM    5  C3  UNL     1      25.202  18.242  18.739  1.00  0.00     0.193 A 
HETATM    6  S1  UNL     1      25.829  16.964  17.935  1.00  0.00    -0.039 SA
HETATM    7  N2  UNL     1      24.253  18.006  19.659  1.00  0.00    -0.248 N 
ATOM      8  H2  UNL     1      23.948  17.049  19.836  1.00  0.00     0.192 HD
HETATM    9  N3  UNL     1      23.712  19.000  20.337  1.00  0.00    -0.151 N 
HETATM   10  C4  UNL     1      24.108  20.286  20.115  1.00  0.00     0.156 A 
ENDROOT
BRANCH  10  11
HETATM   11  C5  UNL     1      23.512  21.364  20.861  1.00  0.00    -0.040 C 
BRANCH  11  12
HETATM   12  C6  UNL     1      23.015  22.279  21.469  1.00  0.00    -0.072 C 
BRANCH  12  13
HETATM   13  C7  UNL     1      22.434  23.402  22.207  1.00  0.00     0.282 C 
BRANCH  13  14
HETATM   14  O2  UNL     1      21.669  24.143  21.275  1.00  0.00    -0.292 OA
BRANCH  14  15
HETATM   15  C8  UNL     1      22.315  24.465  20.093  1.00  0.00     0.056 C 
HETATM   16  C9  UNL     1      22.860  24.749  19.055  1.00  0.00    -0.067 C 
BRANCH  16  17
HETATM   17  C10 UNL     1      23.496  25.092  17.788  1.00  0.00     0.015 C 
HETATM   18  C11 UNL     1      22.609  24.550  16.686  1.00  0.00     0.028 C 
HETATM   19  C12 UNL     1      23.596  26.585  17.584  1.00  0.00     0.028 C 
HETATM   20  C13 UNL     1      24.849  24.437  17.658  1.00  0.00     0.028 C 
ENDBRANCH  16  17
ENDBRANCH  14  15
ENDBRANCH  13  14
ENDBRANCH  12  13
ENDBRANCH  11  12
ENDBRANCH  10  11
BRANCH   9  21
HETATM   21  O1  UNL     1      22.751  18.726  21.265  1.00  0.00    -0.267 OA
ATOM     22  H1  UNL     1      22.472  19.413  21.859  1.00  0.00     0.247 HD
ENDBRANCH   9  21
TORSDOF 7
ENDMDL
