MODEL 1
REMARK VINA RESULT: -7.149454045      0.000      0.000
REMARK  2 active torsions:
REMARK  status: ('A' for Active; 'I' for Inactive)
REMARK    1  A    between atoms: O1_1  and  N1_3 
REMARK    2  A    between atoms: N4_22  and  O2_23 
ROOT
HETATM    1  N1  UNL     1      22.502  22.444  23.096  1.00  0.00    -0.120 N 
HETATM    2  C1  UNL     1      21.915  23.646  23.194  1.00  0.00     0.099 A 
HETATM    3  C2  UNL     1      21.271  24.170  24.379  1.00  0.00    -0.005 A 
HETATM    4  C3  UNL     1      20.718  23.396  25.353  1.00  0.00     0.014 A 
HETATM    5  C4  UNL     1      20.133  23.973  26.487  1.00  0.00     0.001 A 
HETATM    6  C5  UNL     1      20.093  25.332  26.659  1.00  0.00     0.000 A 
HETATM    7  C6  UNL     1      20.646  26.134  25.685  1.00  0.00     0.001 A 
HETATM    8  C7  UNL     1      21.218  25.544  24.579  1.00  0.00     0.014 A 
HETATM    9  C8  UNL     1      21.978  24.433  22.038  1.00  0.00     0.085 A 
HETATM   10  C9  UNL     1      22.598  23.996  20.896  1.00  0.00     0.134 A 
HETATM   11  N2  UNL     1      22.762  24.609  19.683  1.00  0.00    -0.339 N 
ATOM     12  H2  UNL     1      22.430  25.539  19.429  1.00  0.00     0.167 HD
HETATM   13  C10 UNL     1      23.438  23.766  18.888  1.00  0.00     0.062 A 
HETATM   14  C11 UNL     1      23.894  23.827  17.572  1.00  0.00     0.032 A 
HETATM   15  C12 UNL     1      24.574  22.775  17.028  1.00  0.00     0.002 A 
HETATM   16  C13 UNL     1      24.823  21.637  17.770  1.00  0.00     0.002 A 
HETATM   17  C14 UNL     1      24.372  21.589  19.060  1.00  0.00     0.034 A 
HETATM   18  C15 UNL     1      23.678  22.639  19.643  1.00  0.00     0.089 A 
HETATM   19  N3  UNL     1      23.158  22.790  20.873  1.00  0.00    -0.194 N 
HETATM   20  N4  UNL     1      23.097  22.052  21.962  1.00  0.00    -0.058 N 
ENDROOT
BRANCH   1  21
HETATM   21  O1  UNL     1      22.542  21.563  24.157  1.00  0.00    -0.265 OA
ATOM     22  H1  UNL     1      22.852  20.671  24.056  1.00  0.00     0.247 HD
ENDBRANCH   1  21
BRANCH  20  23
HETATM   23  O2  UNL     1      23.681  20.786  21.949  1.00  0.00    -0.251 OA
ATOM     24  H2  UNL     1      24.528  20.691  22.368  1.00  0.00     0.248 HD
ENDBRANCH  20  23
TORSDOF 2
ENDMDL
MODEL 2
REMARK VINA RESULT: -6.688461958      1.964      2.922
REMARK  2 active torsions:
REMARK  status: ('A' for Active; 'I' for Inactive)
REMARK    1  A    between atoms: O1_1  and  N1_3 
REMARK    2  A    between atoms: N4_22  and  O2_23 
ROOT
HETATM    1  N1  UNL     1      21.785  24.359  22.494  1.00  0.00    -0.120 N 
HETATM    2  C1  UNL     1      21.734  23.840  23.730  1.00  0.00     0.099 A 
HETATM    3  C2  UNL     1      21.083  24.450  24.869  1.00  0.00    -0.005 A 
HETATM    4  C3  UNL     1      20.892  25.791  25.011  1.00  0.00     0.014 A 
HETATM    5  C4  UNL     1      20.231  26.310  26.131  1.00  0.00     0.001 A 
HETATM    6  C5  UNL     1      19.753  25.493  27.123  1.00  0.00     0.000 A 
HETATM    7  C6  UNL     1      19.937  24.134  26.999  1.00  0.00     0.001 A 
HETATM    8  C7  UNL     1      20.590  23.645  25.888  1.00  0.00     0.014 A 
HETATM    9  C8  UNL     1      22.352  22.592  23.875  1.00  0.00     0.085 A 
HETATM   10  C9  UNL     1      22.961  21.957  22.823  1.00  0.00     0.134 A 
HETATM   11  N2  UNL     1      23.609  20.753  22.766  1.00  0.00    -0.339 N 
ATOM     12  H2  UNL     1      23.745  20.105  23.542  1.00  0.00     0.167 HD
HETATM   13  C10 UNL     1      24.033  20.578  21.506  1.00  0.00     0.062 A 
HETATM   14  C11 UNL     1      24.736  19.568  20.849  1.00  0.00     0.032 A 
HETATM   15  C12 UNL     1      25.026  19.683  19.519  1.00  0.00     0.002 A 
HETATM   16  C13 UNL     1      24.629  20.795  18.804  1.00  0.00     0.002 A 
HETATM   17  C14 UNL     1      23.940  21.778  19.459  1.00  0.00     0.034 A 
HETATM   18  C15 UNL     1      23.629  21.694  20.808  1.00  0.00     0.089 A 
HETATM   19  N3  UNL     1      22.972  22.535  21.625  1.00  0.00    -0.194 N 
HETATM   20  N4  UNL     1      22.390  23.709  21.492  1.00  0.00    -0.058 N 
ENDROOT
BRANCH   1  21
HETATM   21  O1  UNL     1      21.203  25.571  22.187  1.00  0.00    -0.265 OA
ATOM     22  H1  UNL     1      21.275  25.958  21.323  1.00  0.00     0.247 HD
ENDBRANCH   1  21
BRANCH  20  23
HETATM   23  O2  UNL     1      22.397  24.324  20.240  1.00  0.00    -0.251 OA
ATOM     24  H2  UNL     1      22.990  23.975  19.586  1.00  0.00     0.248 HD
ENDBRANCH  20  23
TORSDOF 2
ENDMDL
MODEL 3
REMARK VINA RESULT: -5.150141913      2.009      2.998
REMARK  2 active torsions:
REMARK  status: ('A' for Active; 'I' for Inactive)
REMARK    1  A    between atoms: O1_1  and  N1_3 
REMARK    2  A    between atoms: N4_22  and  O2_23 
ROOT
HETATM    1  N1  UNL     1      22.486  23.922  21.720  1.00  0.00    -0.120 N 
HETATM    2  C1  UNL     1      22.263  23.398  22.934  1.00  0.00     0.099 A 
HETATM    3  C2  UNL     1      21.583  24.066  24.023  1.00  0.00    -0.005 A 
HETATM    4  C3  UNL     1      21.534  25.418  24.176  1.00  0.00     0.014 A 
HETATM    5  C4  UNL     1      20.835  25.998  25.243  1.00  0.00     0.001 A 
HETATM    6  C5  UNL     1      20.178  25.231  26.169  1.00  0.00     0.000 A 
HETATM    7  C6  UNL     1      20.216  23.861  26.033  1.00  0.00     0.001 A 
HETATM    8  C7  UNL     1      20.909  23.313  24.975  1.00  0.00     0.014 A 
HETATM    9  C8  UNL     1      22.717  22.086  23.107  1.00  0.00     0.085 A 
HETATM   10  C9  UNL     1      23.345  21.397  22.101  1.00  0.00     0.134 A 
HETATM   11  N2  UNL     1      23.854  20.126  22.076  1.00  0.00    -0.339 N 
ATOM     12  H2  UNL     1      23.843  19.458  22.847  1.00  0.00     0.167 HD
HETATM   13  C10 UNL     1      24.369  19.917  20.856  1.00  0.00     0.062 A 
HETATM   14  C11 UNL     1      25.010  18.841  20.243  1.00  0.00     0.032 A 
HETATM   15  C12 UNL     1      25.432  18.936  18.948  1.00  0.00     0.002 A 
HETATM   16  C13 UNL     1      25.232  20.095  18.225  1.00  0.00     0.002 A 
HETATM   17  C14 UNL     1      24.603  21.143  18.835  1.00  0.00     0.034 A 
HETATM   18  C15 UNL     1      24.162  21.081  20.149  1.00  0.00     0.089 A 
HETATM   19  N3  UNL     1      23.532  21.983  20.922  1.00  0.00    -0.194 N 
HETATM   20  N4  UNL     1      23.102  23.217  20.762  1.00  0.00    -0.058 N 
ENDROOT
BRANCH   1  21
HETATM   21  O1  UNL     1      22.077  25.197  21.388  1.00  0.00    -0.265 OA
ATOM     22  H1  UNL     1      22.474  25.682  20.675  1.00  0.00     0.247 HD
ENDBRANCH   1  21
BRANCH  20  23
HETATM   23  O2  UNL     1      23.295  23.841  19.530  1.00  0.00    -0.251 OA
ATOM     24  H2  UNL     1      24.081  24.363  19.423  1.00  0.00     0.248 HD
ENDBRANCH  20  23
TORSDOF 2
ENDMDL
MODEL 4
REMARK VINA RESULT: -4.201253175      2.001      6.879
REMARK  2 active torsions:
REMARK  status: ('A' for Active; 'I' for Inactive)
REMARK    1  A    between atoms: O1_1  and  N1_3 
REMARK    2  A    between atoms: N4_22  and  O2_23 
ROOT
HETATM    1  N1  UNL     1      20.992  23.013  20.421  1.00  0.00    -0.120 N 
HETATM    2  C1  UNL     1      22.309  23.257  20.364  1.00  0.00     0.099 A 
HETATM    3  C2  UNL     1      23.139  23.111  19.188  1.00  0.00    -0.005 A 
HETATM    4  C3  UNL     1      22.865  22.258  18.163  1.00  0.00     0.014 A 
HETATM    5  C4  UNL     1      23.701  22.187  17.041  1.00  0.00     0.001 A 
HETATM    6  C5  UNL     1      24.822  22.969  16.934  1.00  0.00     0.000 A 
HETATM    7  C6  UNL     1      25.117  23.838  17.960  1.00  0.00     0.001 A 
HETATM    8  C7  UNL     1      24.280  23.891  19.053  1.00  0.00     0.014 A 
HETATM    9  C8  UNL     1      22.879  23.715  21.558  1.00  0.00     0.085 A 
HETATM   10  C9  UNL     1      22.135  23.896  22.695  1.00  0.00     0.134 A 
HETATM   11  N2  UNL     1      22.504  24.328  23.941  1.00  0.00    -0.339 N 
ATOM     12  H2  UNL     1      23.444  24.598  24.229  1.00  0.00     0.167 HD
HETATM   13  C10 UNL     1      21.408  24.332  24.712  1.00  0.00     0.062 A 
HETATM   14  C11 UNL     1      21.157  24.667  26.043  1.00  0.00     0.032 A 
HETATM   15  C12 UNL     1      19.895  24.563  26.554  1.00  0.00     0.002 A 
HETATM   16  C13 UNL     1      18.849  24.128  25.766  1.00  0.00     0.002 A 
HETATM   17  C14 UNL     1      19.106  23.803  24.463  1.00  0.00     0.034 A 
HETATM   18  C15 UNL     1      20.375  23.896  23.912  1.00  0.00     0.089 A 
HETATM   19  N3  UNL     1      20.832  23.631  22.676  1.00  0.00    -0.194 N 
HETATM   20  N4  UNL     1      20.298  23.201  21.551  1.00  0.00    -0.058 N 
ENDROOT
BRANCH   1  21
HETATM   21  O1  UNL     1      20.282  22.578  19.321  1.00  0.00    -0.265 OA
ATOM     22  H1  UNL     1      19.770  23.174  18.787  1.00  0.00     0.247 HD
ENDBRANCH   1  21
BRANCH  20  23
HETATM   23  O2  UNL     1      18.932  22.920  21.520  1.00  0.00    -0.251 OA
ATOM     24  H2  UNL     1      18.498  22.958  20.677  1.00  0.00     0.248 HD
ENDBRANCH  20  23
TORSDOF 2
ENDMDL
MODEL 5
REMARK VINA RESULT: -4.171159448      0.949      6.605
REMARK  2 active torsions:
REMARK  status: ('A' for Active; 'I' for Inactive)
REMARK    1  A    between atoms: O1_1  and  N1_3 
REMARK    2  A    between atoms: N4_22  and  O2_23 
ROOT
HETATM    1  N1  UNL     1      22.964  21.868  21.908  1.00  0.00    -0.120 N 
HETATM    2  C1  UNL     1      23.037  22.802  20.948  1.00  0.00     0.099 A 
HETATM    3  C2  UNL     1      23.561  22.594  19.615  1.00  0.00    -0.005 A 
HETATM    4  C3  UNL     1      24.489  21.649  19.298  1.00  0.00     0.014 A 
HETATM    5  C4  UNL     1      24.933  21.488  17.980  1.00  0.00     0.001 A 
HETATM    6  C5  UNL     1      24.455  22.272  16.963  1.00  0.00     0.000 A 
HETATM    7  C6  UNL     1      23.516  23.235  17.261  1.00  0.00     0.001 A 
HETATM    8  C7  UNL     1      23.093  23.374  18.565  1.00  0.00     0.014 A 
HETATM    9  C8  UNL     1      22.528  24.057  21.300  1.00  0.00     0.085 A 
HETATM   10  C9  UNL     1      21.996  24.302  22.541  1.00  0.00     0.134 A 
HETATM   11  N2  UNL     1      21.457  25.444  23.068  1.00  0.00    -0.339 N 
ATOM     12  H2  UNL     1      21.363  26.341  22.590  1.00  0.00     0.167 HD
HETATM   13  C10 UNL     1      21.077  25.174  24.324  1.00  0.00     0.062 A 
HETATM   14  C11 UNL     1      20.477  25.918  25.340  1.00  0.00     0.032 A 
HETATM   15  C12 UNL     1      20.206  25.343  26.549  1.00  0.00     0.002 A 
HETATM   16  C13 UNL     1      20.518  24.020  26.785  1.00  0.00     0.002 A 
HETATM   17  C14 UNL     1      21.105  23.299  25.782  1.00  0.00     0.034 A 
HETATM   18  C15 UNL     1      21.395  23.852  24.544  1.00  0.00     0.089 A 
HETATM   19  N3  UNL     1      21.959  23.325  23.443  1.00  0.00    -0.194 N 
HETATM   20  N4  UNL     1      22.438  22.145  23.107  1.00  0.00    -0.058 N 
ENDROOT
BRANCH   1  21
HETATM   21  O1  UNL     1      23.404  20.577  21.705  1.00  0.00    -0.265 OA
ATOM     22  H1  UNL     1      23.148  19.864  22.277  1.00  0.00     0.247 HD
ENDBRANCH   1  21
BRANCH  20  23
HETATM   23  O2  UNL     1      22.404  21.115  24.046  1.00  0.00    -0.251 OA
ATOM     24  H2  UNL     1      21.958  20.314  23.799  1.00  0.00     0.248 HD
ENDBRANCH  20  23
TORSDOF 2
ENDMDL
