MODEL 1
REMARK VINA RESULT: -7.661987106      0.000      0.000
REMARK  2 active torsions:
REMARK  status: ('A' for Active; 'I' for Inactive)
REMARK    1  A    between atoms: C9_16  and  C10_17 
REMARK    2  A    between atoms: C11_18  and  C12_19 
ROOT
HETATM    1  O1  UNL     1      20.949  25.683  21.319  1.00  0.00    -0.267 OA
HETATM    2  C1  UNL     1      21.647  24.654  21.130  1.00  0.00     0.264 A 
HETATM    3  N1  UNL     1      22.155  24.459  19.910  1.00  0.00    -0.332 N 
ATOM      4  H1  UNL     1      21.979  25.124  19.157  1.00  0.00     0.168 HD
HETATM    5  C2  UNL     1      22.903  23.362  19.699  1.00  0.00     0.106 A 
HETATM    6  C3  UNL     1      23.164  22.439  20.683  1.00  0.00     0.025 A 
HETATM    7  C4  UNL     1      23.968  21.286  20.403  1.00  0.00     0.116 A 
HETATM    8  N2  UNL     1      24.482  21.086  19.175  1.00  0.00    -0.352 N 
ATOM      9  H2  UNL     1      24.286  21.773  18.447  1.00  0.00     0.166 HD
HETATM   10  C5  UNL     1      25.239  20.023  18.865  1.00  0.00     0.091 A 
HETATM   11  C6  UNL     1      25.502  19.096  19.851  1.00  0.00     0.034 A 
HETATM   12  C7  UNL     1      24.993  19.273  21.109  1.00  0.00     0.091 A 
HETATM   13  N3  UNL     1      24.234  20.371  21.358  1.00  0.00    -0.352 N 
ATOM     14  H3  UNL     1      23.854  20.508  22.294  1.00  0.00     0.166 HD
HETATM   15  C8  UNL     1      22.634  22.651  21.941  1.00  0.00     0.043 A 
HETATM   16  C9  UNL     1      21.868  23.764  22.178  1.00  0.00     0.087 A 
ENDROOT
BRANCH  16  17
HETATM   17  C10 UNL     1      21.327  23.965  23.490  1.00  0.00    -0.054 C 
HETATM   18  C11 UNL     1      20.852  24.141  24.588  1.00  0.00    -0.043 C 
BRANCH  18  19
HETATM   19  C12 UNL     1      20.269  24.369  25.896  1.00  0.00     0.086 A 
HETATM   20  C13 UNL     1      21.079  24.595  26.995  1.00  0.00     0.039 A 
HETATM   21  C14 UNL     1      20.559  24.813  28.237  1.00  0.00     0.004 A 
HETATM   22  C15 UNL     1      19.169  24.799  28.357  1.00  0.00     0.017 A 
HETATM   23  C16 UNL     1      18.354  24.574  27.266  1.00  0.00     0.089 A 
HETATM   24  N4  UNL     1      18.940  24.368  26.084  1.00  0.00    -0.359 N 
ATOM     25  H4  UNL     1      18.342  24.200  25.275  1.00  0.00     0.166 HD
ENDBRANCH  18  19
ENDBRANCH  16  17
TORSDOF 2
ENDMDL
MODEL 2
REMARK VINA RESULT: -7.644165213      0.589      1.039
REMARK  2 active torsions:
REMARK  status: ('A' for Active; 'I' for Inactive)
REMARK    1  A    between atoms: C9_16  and  C10_17 
REMARK    2  A    between atoms: C11_18  and  C12_19 
ROOT
HETATM    1  O1  UNL     1      20.948  25.681  21.300  1.00  0.00    -0.267 OA
HETATM    2  C1  UNL     1      21.650  24.656  21.105  1.00  0.00     0.264 A 
HETATM    3  N1  UNL     1      22.148  24.465  19.879  1.00  0.00    -0.332 N 
ATOM      4  H1  UNL     1      21.962  25.130  19.129  1.00  0.00     0.168 HD
HETATM    5  C2  UNL     1      22.900  23.373  19.660  1.00  0.00     0.106 A 
HETATM    6  C3  UNL     1      23.175  22.450  20.641  1.00  0.00     0.025 A 
HETATM    7  C4  UNL     1      23.983  21.302  20.353  1.00  0.00     0.116 A 
HETATM    8  N2  UNL     1      24.488  21.106  19.119  1.00  0.00    -0.352 N 
ATOM      9  H2  UNL     1      24.282  21.793  18.394  1.00  0.00     0.166 HD
HETATM   10  C5  UNL     1      25.248  20.049  18.801  1.00  0.00     0.091 A 
HETATM   11  C6  UNL     1      25.525  19.121  19.784  1.00  0.00     0.034 A 
HETATM   12  C7  UNL     1      25.027  19.295  21.046  1.00  0.00     0.091 A 
HETATM   13  N3  UNL     1      24.263  20.388  21.304  1.00  0.00    -0.352 N 
ATOM     14  H3  UNL     1      23.890  20.521  22.244  1.00  0.00     0.166 HD
HETATM   15  C8  UNL     1      22.655  22.658  21.904  1.00  0.00     0.043 A 
HETATM   16  C9  UNL     1      21.885  23.766  22.149  1.00  0.00     0.087 A 
ENDROOT
BRANCH  16  17
HETATM   17  C10 UNL     1      21.355  23.963  23.466  1.00  0.00    -0.054 C 
HETATM   18  C11 UNL     1      20.890  24.136  24.568  1.00  0.00    -0.043 C 
BRANCH  18  19
HETATM   19  C12 UNL     1      20.320  24.364  25.882  1.00  0.00     0.086 A 
HETATM   20  C13 UNL     1      18.952  24.283  26.077  1.00  0.00     0.039 A 
HETATM   21  C14 UNL     1      18.388  24.492  27.301  1.00  0.00     0.004 A 
HETATM   22  C15 UNL     1      19.249  24.793  28.357  1.00  0.00     0.017 A 
HETATM   23  C16 UNL     1      20.615  24.875  28.171  1.00  0.00     0.089 A 
HETATM   24  N4  UNL     1      21.090  24.658  26.942  1.00  0.00    -0.359 N 
ATOM     25  H4  UNL     1      22.098  24.719  26.800  1.00  0.00     0.166 HD
ENDBRANCH  18  19
ENDBRANCH  16  17
TORSDOF 2
ENDMDL
MODEL 3
REMARK VINA RESULT: -7.465771104      2.014      3.404
REMARK  2 active torsions:
REMARK  status: ('A' for Active; 'I' for Inactive)
REMARK    1  A    between atoms: C9_16  and  C10_17 
REMARK    2  A    between atoms: C11_18  and  C12_19 
ROOT
HETATM    1  O1  UNL     1      23.017  20.790  23.645  1.00  0.00    -0.267 OA
HETATM    2  C1  UNL     1      23.187  21.520  22.635  1.00  0.00     0.264 A 
HETATM    3  N1  UNL     1      23.969  21.057  21.655  1.00  0.00    -0.332 N 
ATOM      4  H1  UNL     1      24.413  20.142  21.727  1.00  0.00     0.168 HD
HETATM    5  C2  UNL     1      24.156  21.829  20.571  1.00  0.00     0.106 A 
HETATM    6  C3  UNL     1      23.579  23.069  20.432  1.00  0.00     0.025 A 
HETATM    7  C4  UNL     1      23.814  23.852  19.254  1.00  0.00     0.116 A 
HETATM    8  N2  UNL     1      24.600  23.388  18.264  1.00  0.00    -0.352 N 
ATOM      9  H2  UNL     1      25.026  22.468  18.370  1.00  0.00     0.166 HD
HETATM   10  C5  UNL     1      24.849  24.082  17.144  1.00  0.00     0.091 A 
HETATM   11  C6  UNL     1      24.271  25.327  17.002  1.00  0.00     0.034 A 
HETATM   12  C7  UNL     1      23.467  25.823  17.992  1.00  0.00     0.091 A 
HETATM   13  N3  UNL     1      23.255  25.069  19.101  1.00  0.00    -0.352 N 
ATOM     14  H3  UNL     1      22.655  25.435  19.841  1.00  0.00     0.166 HD
HETATM   15  C8  UNL     1      22.774  23.538  21.451  1.00  0.00     0.043 A 
HETATM   16  C9  UNL     1      22.569  22.765  22.566  1.00  0.00     0.087 A 
ENDROOT
BRANCH  16  17
HETATM   17  C10 UNL     1      21.729  23.270  23.613  1.00  0.00    -0.054 C 
HETATM   18  C11 UNL     1      21.031  23.683  24.509  1.00  0.00    -0.043 C 
BRANCH  18  19
HETATM   19  C12 UNL     1      20.193  24.155  25.594  1.00  0.00     0.086 A 
HETATM   20  C13 UNL     1      20.748  24.830  26.667  1.00  0.00     0.039 A 
HETATM   21  C14 UNL     1      19.985  25.286  27.701  1.00  0.00     0.004 A 
HETATM   22  C15 UNL     1      18.612  25.043  27.636  1.00  0.00     0.017 A 
HETATM   23  C16 UNL     1      18.050  24.370  26.570  1.00  0.00     0.089 A 
HETATM   24  N4  UNL     1      18.865  23.955  25.596  1.00  0.00    -0.359 N 
ATOM     25  H4  UNL     1      18.454  23.457  24.807  1.00  0.00     0.166 HD
ENDBRANCH  18  19
ENDBRANCH  16  17
TORSDOF 2
ENDMDL
MODEL 4
REMARK VINA RESULT: -7.020550761      2.139      3.286
REMARK  2 active torsions:
REMARK  status: ('A' for Active; 'I' for Inactive)
REMARK    1  A    between atoms: C9_16  and  C10_17 
REMARK    2  A    between atoms: C11_18  and  C12_19 
ROOT
HETATM    1  O1  UNL     1      22.942  20.760  24.234  1.00  0.00    -0.267 OA
HETATM    2  C1  UNL     1      23.185  21.310  23.129  1.00  0.00     0.264 A 
HETATM    3  N1  UNL     1      23.889  20.618  22.228  1.00  0.00    -0.332 N 
ATOM      4  H1  UNL     1      24.219  19.675  22.434  1.00  0.00     0.168 HD
HETATM    5  C2  UNL     1      24.153  21.196  21.044  1.00  0.00     0.106 A 
HETATM    6  C3  UNL     1      23.730  22.465  20.726  1.00  0.00     0.025 A 
HETATM    7  C4  UNL     1      24.041  23.035  19.447  1.00  0.00     0.116 A 
HETATM    8  N2  UNL     1      24.749  22.340  18.537  1.00  0.00    -0.352 N 
ATOM      9  H2  UNL     1      25.061  21.399  18.777  1.00  0.00     0.166 HD
HETATM   10  C5  UNL     1      25.064  22.830  17.329  1.00  0.00     0.091 A 
HETATM   11  C6  UNL     1      24.641  24.102  17.007  1.00  0.00     0.034 A 
HETATM   12  C7  UNL     1      23.919  24.831  17.912  1.00  0.00     0.091 A 
HETATM   13  N3  UNL     1      23.633  24.277  19.118  1.00  0.00    -0.352 N 
ATOM     14  H3  UNL     1      23.094  24.817  19.796  1.00  0.00     0.166 HD
HETATM   15  C8  UNL     1      23.003  23.172  21.664  1.00  0.00     0.043 A 
HETATM   16  C9  UNL     1      22.723  22.599  22.879  1.00  0.00     0.087 A 
ENDROOT
BRANCH  16  17
HETATM   17  C10 UNL     1      21.967  23.349  23.839  1.00  0.00    -0.054 C 
HETATM   18  C11 UNL     1      21.343  23.999  24.644  1.00  0.00    -0.043 C 
BRANCH  18  19
HETATM   19  C12 UNL     1      20.613  24.790  25.617  1.00  0.00     0.086 A 
HETATM   20  C13 UNL     1      19.780  24.178  26.535  1.00  0.00     0.039 A 
HETATM   21  C14 UNL     1      19.081  24.896  27.461  1.00  0.00     0.004 A 
HETATM   22  C15 UNL     1      19.242  26.283  27.446  1.00  0.00     0.017 A 
HETATM   23  C16 UNL     1      20.072  26.901  26.532  1.00  0.00     0.089 A 
HETATM   24  N4  UNL     1      20.721  26.128  25.658  1.00  0.00    -0.359 N 
ATOM     25  H4  UNL     1      21.334  26.581  24.980  1.00  0.00     0.166 HD
ENDBRANCH  18  19
ENDBRANCH  16  17
TORSDOF 2
ENDMDL
MODEL 5
REMARK VINA RESULT: -4.417867900      1.807      2.185
REMARK  2 active torsions:
REMARK  status: ('A' for Active; 'I' for Inactive)
REMARK    1  A    between atoms: C9_16  and  C10_17 
REMARK    2  A    between atoms: C11_18  and  C12_19 
ROOT
HETATM    1  O1  UNL     1      18.395  24.221  21.258  1.00  0.00    -0.267 OA
HETATM    2  C1  UNL     1      19.508  23.847  20.806  1.00  0.00     0.264 A 
HETATM    3  N1  UNL     1      19.604  23.619  19.492  1.00  0.00    -0.332 N 
ATOM      4  H1  UNL     1      18.799  23.744  18.880  1.00  0.00     0.168 HD
HETATM    5  C2  UNL     1      20.789  23.220  19.000  1.00  0.00     0.106 A 
HETATM    6  C3  UNL     1      21.899  23.037  19.790  1.00  0.00     0.025 A 
HETATM    7  C4  UNL     1      23.139  22.609  19.212  1.00  0.00     0.116 A 
HETATM    8  N2  UNL     1      23.240  22.379  17.889  1.00  0.00    -0.352 N 
ATOM      9  H2  UNL     1      22.414  22.515  17.306  1.00  0.00     0.166 HD
HETATM   10  C5  UNL     1      24.377  21.977  17.302  1.00  0.00     0.091 A 
HETATM   11  C6  UNL     1      25.493  21.793  18.093  1.00  0.00     0.034 A 
HETATM   12  C7  UNL     1      25.420  22.020  19.440  1.00  0.00     0.091 A 
HETATM   13  N3  UNL     1      24.238  22.425  19.972  1.00  0.00    -0.352 N 
ATOM     14  H3  UNL     1      24.179  22.597  20.976  1.00  0.00     0.166 HD
HETATM   15  C8  UNL     1      21.789  23.275  21.146  1.00  0.00     0.043 A 
HETATM   16  C9  UNL     1      20.588  23.684  21.669  1.00  0.00     0.087 A 
ENDROOT
BRANCH  16  17
HETATM   17  C10 UNL     1      20.495  23.926  23.079  1.00  0.00    -0.054 C 
HETATM   18  C11 UNL     1      20.395  24.133  24.265  1.00  0.00    -0.043 C 
BRANCH  18  19
HETATM   19  C12 UNL     1      20.257  24.398  25.685  1.00  0.00     0.086 A 
HETATM   20  C13 UNL     1      19.016  24.334  26.293  1.00  0.00     0.039 A 
HETATM   21  C14 UNL     1      18.856  24.578  27.625  1.00  0.00     0.004 A 
HETATM   22  C15 UNL     1      20.001  24.898  28.357  1.00  0.00     0.017 A 
HETATM   23  C16 UNL     1      21.243  24.964  27.757  1.00  0.00     0.089 A 
HETATM   24  N4  UNL     1      21.316  24.712  26.448  1.00  0.00    -0.359 N 
ATOM     25  H4  UNL     1      22.231  24.761  26.001  1.00  0.00     0.166 HD
ENDBRANCH  18  19
ENDBRANCH  16  17
TORSDOF 2
ENDMDL
