MODEL 1
REMARK VINA RESULT: -8.199043743      0.000      0.000
REMARK  10 active torsions:
REMARK  status: ('A' for Active; 'I' for Inactive)
REMARK    1  A    between atoms: O1_2  and  C2_3 
REMARK    2  A    between atoms: C2_3  and  C3_5 
REMARK    3  A    between atoms: C5_8  and  O4_9 
REMARK    4  A    between atoms: C8_15  and  C9_16 
REMARK    5  A    between atoms: C10_17  and  C11_18 
REMARK    6  A    between atoms: C11_18  and  O5_19 
REMARK    7  A    between atoms: C11_18  and  C13_23 
REMARK    8  A    between atoms: O5_19  and  C12_20 
REMARK    9  A    between atoms: C15_25  and  C16_26 
REMARK   10  A    between atoms: C18_28  and  C19_29 
ROOT
HETATM    1  C9  UNL     1      22.989  36.594  -6.403  1.00  0.00    -0.021 C 
HETATM    2  C10 UNL     1      23.967  36.306  -7.241  1.00  0.00     0.006 C 
ENDROOT
BRANCH   1   3
HETATM    3  C8  UNL     1      22.713  37.918  -5.777  1.00  0.00     0.045 C 
HETATM    4  C3  UNL     1      22.982  37.900  -4.307  1.00  0.00     0.166 C 
HETATM    5  C4  UNL     1      22.837  39.269  -3.751  1.00  0.00     0.171 C 
HETATM    6  O3  UNL     1      23.416  39.614  -2.753  1.00  0.00    -0.294 OA
HETATM    7  C5  UNL     1      21.952  40.220  -4.455  1.00  0.00     0.208 C 
HETATM    8  C6  UNL     1      20.852  39.485  -5.187  1.00  0.00     0.133 C 
HETATM    9 CL1  UNL     1      19.724  38.882  -3.922  1.00  0.00    -0.121 Cl
HETATM   10  C7  UNL     1      21.336  38.398  -6.065  1.00  0.00     0.088 C 
HETATM   11 BR1  UNL     1      21.125  39.024  -7.897  1.00  0.00    -0.089 Br
BRANCH   4  12
HETATM   12  C2  UNL     1      24.291  37.322  -3.910  1.00  0.00     0.270 C 
HETATM   13  O2  UNL     1      25.352  37.905  -4.204  1.00  0.00    -0.264 OA
BRANCH  12  14
HETATM   14  O1  UNL     1      24.400  36.134  -3.206  1.00  0.00    -0.326 OA
HETATM   15  C1  UNL     1      25.564  35.790  -2.490  1.00  0.00     0.213 C 
ENDBRANCH  12  14
ENDBRANCH   4  12
BRANCH   7  16
HETATM   16  O4  UNL     1      22.649  41.097  -5.274  1.00  0.00    -0.386 OA
ATOM     17  H4  UNL     1      22.523  42.006  -5.030  1.00  0.00     0.210 HD
ENDBRANCH   7  16
ENDBRANCH   1   3
BRANCH   2  18
HETATM   18  C11 UNL     1      24.168  34.953  -7.823  1.00  0.00     0.184 C 
BRANCH  18  19
HETATM   19  O5  UNL     1      25.478  34.553  -7.495  1.00  0.00    -0.292 OA
BRANCH  19  20
HETATM   20  C12 UNL     1      25.951  34.471  -6.200  1.00  0.00     0.373 C 
HETATM   21  N1  UNL     1      25.622  33.373  -5.345  1.00  0.00    -0.032 NA
HETATM   22  O6  UNL     1      26.682  35.354  -5.730  1.00  0.00    -0.242 OA
ENDBRANCH  19  20
ENDBRANCH  18  19
BRANCH  18  23
HETATM   23  C13 UNL     1      24.077  34.928  -9.333  1.00  0.00    -0.050 C 
HETATM   24  C14 UNL     1      25.141  34.129  -9.965  1.00  0.00     0.046 C 
HETATM   25  C15 UNL     1      23.148  35.538  -9.941  1.00  0.00     0.012 C 
BRANCH  25  26
HETATM   26  C16 UNL     1      22.828  35.680 -11.356  1.00  0.00    -0.055 C 
HETATM   27  C17 UNL     1      21.500  35.357 -11.925  1.00  0.00     0.048 C 
HETATM   28  C18 UNL     1      23.779  36.097 -12.194  1.00  0.00     0.091 C 
BRANCH  28  29
HETATM   29  C19 UNL     1      23.780  36.331 -13.584  1.00  0.00     0.199 C 
HETATM   30  O7  UNL     1      24.175  35.627 -14.542  1.00  0.00    -0.644 OA
HETATM   31  O8  UNL     1      23.249  37.572 -14.041  1.00  0.00    -0.644 OA
ENDBRANCH  28  29
ENDBRANCH  25  26
ENDBRANCH  18  23
ENDBRANCH   2  18
TORSDOF 10
ENDMDL
MODEL 2
REMARK VINA RESULT: -7.849563489      1.755      2.297
REMARK  10 active torsions:
REMARK  status: ('A' for Active; 'I' for Inactive)
REMARK    1  A    between atoms: O1_2  and  C2_3 
REMARK    2  A    between atoms: C2_3  and  C3_5 
REMARK    3  A    between atoms: C5_8  and  O4_9 
REMARK    4  A    between atoms: C8_15  and  C9_16 
REMARK    5  A    between atoms: C10_17  and  C11_18 
REMARK    6  A    between atoms: C11_18  and  O5_19 
REMARK    7  A    between atoms: C11_18  and  C13_23 
REMARK    8  A    between atoms: O5_19  and  C12_20 
REMARK    9  A    between atoms: C15_25  and  C16_26 
REMARK   10  A    between atoms: C18_28  and  C19_29 
ROOT
HETATM    1  C9  UNL     1      22.620  36.616  -6.998  1.00  0.00    -0.021 C 
HETATM    2  C10 UNL     1      23.257  36.431  -8.140  1.00  0.00     0.006 C 
ENDROOT
BRANCH   1   3
HETATM    3  C8  UNL     1      22.575  37.871  -6.196  1.00  0.00     0.045 C 
HETATM    4  C3  UNL     1      22.842  37.610  -4.749  1.00  0.00     0.166 C 
HETATM    5  C4  UNL     1      22.932  38.898  -4.014  1.00  0.00     0.171 C 
HETATM    6  O3  UNL     1      23.565  39.004  -2.994  1.00  0.00    -0.294 OA
HETATM    7  C5  UNL     1      22.218  40.070  -4.563  1.00  0.00     0.208 C 
HETATM    8  C6  UNL     1      21.007  39.634  -5.357  1.00  0.00     0.133 C 
HETATM    9 CL1  UNL     1      19.798  39.064  -4.153  1.00  0.00    -0.121 Cl
HETATM   10  C7  UNL     1      21.298  38.608  -6.382  1.00  0.00     0.088 C 
HETATM   11 BR1  UNL     1      21.190  39.501  -8.110  1.00  0.00    -0.089 Br
BRANCH   4  12
HETATM   12  C2  UNL     1      24.035  36.774  -4.466  1.00  0.00     0.270 C 
HETATM   13  O2  UNL     1      23.942  35.772  -3.731  1.00  0.00    -0.264 OA
BRANCH  12  14
HETATM   14  O1  UNL     1      25.285  37.054  -4.992  1.00  0.00    -0.326 OA
HETATM   15  C1  UNL     1      26.474  36.796  -4.281  1.00  0.00     0.213 C 
ENDBRANCH  12  14
ENDBRANCH   4  12
BRANCH   7  16
HETATM   16  O4  UNL     1      23.051  40.919  -5.277  1.00  0.00    -0.386 OA
ATOM     17  H4  UNL     1      23.623  40.454  -5.877  1.00  0.00     0.210 HD
ENDBRANCH   7  16
ENDBRANCH   1   3
BRANCH   2  18
HETATM   18  C11 UNL     1      23.246  35.141  -8.877  1.00  0.00     0.184 C 
BRANCH  18  19
HETATM   19  O5  UNL     1      24.589  34.810  -9.148  1.00  0.00    -0.292 OA
BRANCH  19  20
HETATM   20  C12 UNL     1      25.265  33.783  -8.519  1.00  0.00     0.373 C 
HETATM   21  N1  UNL     1      25.587  33.833  -7.127  1.00  0.00    -0.032 NA
HETATM   22  O6  UNL     1      25.618  32.774  -9.145  1.00  0.00    -0.242 OA
ENDBRANCH  19  20
ENDBRANCH  18  19
BRANCH  18  23
HETATM   23  C13 UNL     1      22.546  35.219 -10.216  1.00  0.00    -0.050 C 
HETATM   24  C14 UNL     1      22.167  33.900 -10.751  1.00  0.00     0.046 C 
HETATM   25  C15 UNL     1      22.319  36.336 -10.769  1.00  0.00     0.012 C 
BRANCH  25  26
HETATM   26  C16 UNL     1      21.678  36.696 -12.028  1.00  0.00    -0.055 C 
HETATM   27  C17 UNL     1      22.430  36.988 -13.269  1.00  0.00     0.048 C 
HETATM   28  C18 UNL     1      20.347  36.794 -12.069  1.00  0.00     0.091 C 
BRANCH  28  29
HETATM   29  C19 UNL     1      19.454  37.113 -13.112  1.00  0.00     0.199 C 
HETATM   30  O7  UNL     1      18.979  36.415 -14.038  1.00  0.00    -0.644 OA
HETATM   31  O8  UNL     1      18.970  38.452 -13.175  1.00  0.00    -0.644 OA
ENDBRANCH  28  29
ENDBRANCH  25  26
ENDBRANCH  18  23
ENDBRANCH   2  18
TORSDOF 10
ENDMDL
MODEL 3
REMARK VINA RESULT: -7.720594875      3.469      6.248
REMARK  10 active torsions:
REMARK  status: ('A' for Active; 'I' for Inactive)
REMARK    1  A    between atoms: O1_2  and  C2_3 
REMARK    2  A    between atoms: C2_3  and  C3_5 
REMARK    3  A    between atoms: C5_8  and  O4_9 
REMARK    4  A    between atoms: C8_15  and  C9_16 
REMARK    5  A    between atoms: C10_17  and  C11_18 
REMARK    6  A    between atoms: C11_18  and  O5_19 
REMARK    7  A    between atoms: C11_18  and  C13_23 
REMARK    8  A    between atoms: O5_19  and  C12_20 
REMARK    9  A    between atoms: C15_25  and  C16_26 
REMARK   10  A    between atoms: C18_28  and  C19_29 
ROOT
HETATM    1  C9  UNL     1      20.658  40.033  -6.536  1.00  0.00    -0.021 C 
HETATM    2  C10 UNL     1      21.867  39.662  -6.916  1.00  0.00     0.006 C 
ENDROOT
BRANCH   1   3
HETATM    3  C8  UNL     1      20.286  41.314  -5.871  1.00  0.00     0.045 C 
HETATM    4  C3  UNL     1      19.690  41.081  -4.521  1.00  0.00     0.166 C 
HETATM    5  C4  UNL     1      19.470  42.381  -3.837  1.00  0.00     0.171 C 
HETATM    6  O3  UNL     1      19.444  42.470  -2.636  1.00  0.00    -0.294 OA
HETATM    7  C5  UNL     1      19.279  43.587  -4.670  1.00  0.00     0.208 C 
HETATM    8  C6  UNL     1      18.672  43.223  -6.006  1.00  0.00     0.133 C 
HETATM    9 CL1  UNL     1      16.957  42.792  -5.677  1.00  0.00    -0.121 Cl
HETATM   10  C7  UNL     1      19.390  42.144  -6.718  1.00  0.00     0.088 C 
HETATM   11 BR1  UNL     1      20.327  42.984  -8.205  1.00  0.00    -0.089 Br
BRANCH   4  12
HETATM   12  C2  UNL     1      20.454  40.162  -3.641  1.00  0.00     0.270 C 
HETATM   13  O2  UNL     1      19.964  39.071  -3.292  1.00  0.00    -0.264 OA
BRANCH  12  14
HETATM   14  O1  UNL     1      21.723  40.460  -3.174  1.00  0.00    -0.326 OA
HETATM   15  C1  UNL     1      22.830  39.623  -3.424  1.00  0.00     0.213 C 
ENDBRANCH  12  14
ENDBRANCH   4  12
BRANCH   7  16
HETATM   16  O4  UNL     1      20.435  44.342  -4.793  1.00  0.00    -0.386 OA
ATOM     17  H4  UNL     1      20.758  44.377  -5.686  1.00  0.00     0.210 HD
ENDBRANCH   7  16
ENDBRANCH   1   3
BRANCH   2  18
HETATM   18  C11 UNL     1      22.149  38.362  -7.578  1.00  0.00     0.184 C 
BRANCH  18  19
HETATM   19  O5  UNL     1      20.920  37.868  -8.056  1.00  0.00    -0.292 OA
BRANCH  19  20
HETATM   20  C12 UNL     1      20.610  37.756  -9.397  1.00  0.00     0.373 C 
HETATM   21  N1  UNL     1      20.951  36.593 -10.156  1.00  0.00    -0.032 NA
HETATM   22  O6  UNL     1      20.022  38.668  -9.995  1.00  0.00    -0.242 OA
ENDBRANCH  19  20
ENDBRANCH  18  19
BRANCH  18  23
HETATM   23  C13 UNL     1      22.696  37.313  -6.635  1.00  0.00    -0.050 C 
HETATM   24  C14 UNL     1      21.649  36.458  -6.049  1.00  0.00     0.046 C 
HETATM   25  C15 UNL     1      23.940  37.215  -6.419  1.00  0.00     0.012 C 
BRANCH  25  26
HETATM   26  C16 UNL     1      24.723  36.318  -5.578  1.00  0.00    -0.055 C 
HETATM   27  C17 UNL     1      25.704  35.348  -6.115  1.00  0.00     0.048 C 
HETATM   28  C18 UNL     1      24.537  36.346  -4.256  1.00  0.00     0.091 C 
BRANCH  28  29
HETATM   29  C19 UNL     1      25.128  35.622  -3.201  1.00  0.00     0.199 C 
HETATM   30  O7  UNL     1      25.438  34.413  -3.099  1.00  0.00    -0.644 OA
HETATM   31  O8  UNL     1      25.452  36.340  -2.013  1.00  0.00    -0.644 OA
ENDBRANCH  28  29
ENDBRANCH  25  26
ENDBRANCH  18  23
ENDBRANCH   2  18
TORSDOF 10
ENDMDL
MODEL 4
REMARK VINA RESULT: -7.720192917      3.559      5.919
REMARK  10 active torsions:
REMARK  status: ('A' for Active; 'I' for Inactive)
REMARK    1  A    between atoms: O1_2  and  C2_3 
REMARK    2  A    between atoms: C2_3  and  C3_5 
REMARK    3  A    between atoms: C5_8  and  O4_9 
REMARK    4  A    between atoms: C8_15  and  C9_16 
REMARK    5  A    between atoms: C10_17  and  C11_18 
REMARK    6  A    between atoms: C11_18  and  O5_19 
REMARK    7  A    between atoms: C11_18  and  C13_23 
REMARK    8  A    between atoms: O5_19  and  C12_20 
REMARK    9  A    between atoms: C15_25  and  C16_26 
REMARK   10  A    between atoms: C18_28  and  C19_29 
ROOT
HETATM    1  C9  UNL     1      20.598  40.177  -6.553  1.00  0.00    -0.021 C 
HETATM    2  C10 UNL     1      21.815  39.783  -6.879  1.00  0.00     0.006 C 
ENDROOT
BRANCH   1   3
HETATM    3  C8  UNL     1      20.227  41.449  -5.869  1.00  0.00     0.045 C 
HETATM    4  C3  UNL     1      19.612  41.195  -4.530  1.00  0.00     0.166 C 
HETATM    5  C4  UNL     1      19.392  42.484  -3.826  1.00  0.00     0.171 C 
HETATM    6  O3  UNL     1      19.352  42.552  -2.624  1.00  0.00    -0.294 OA
HETATM    7  C5  UNL     1      19.219  43.707  -4.639  1.00  0.00     0.208 C 
HETATM    8  C6  UNL     1      18.627  43.371  -5.989  1.00  0.00     0.133 C 
HETATM    9 CL1  UNL     1      16.905  42.945  -5.689  1.00  0.00    -0.121 Cl
HETATM   10  C7  UNL     1      19.347  42.300  -6.712  1.00  0.00     0.088 C 
HETATM   11 BR1  UNL     1      20.307  43.161  -8.171  1.00  0.00    -0.089 Br
BRANCH   4  12
HETATM   12  C2  UNL     1      20.360  40.255  -3.658  1.00  0.00     0.270 C 
HETATM   13  O2  UNL     1      19.872  39.148  -3.361  1.00  0.00    -0.264 OA
BRANCH  12  14
HETATM   14  O1  UNL     1      21.610  40.551  -3.142  1.00  0.00    -0.326 OA
HETATM   15  C1  UNL     1      22.729  39.723  -3.366  1.00  0.00     0.213 C 
ENDBRANCH  12  14
ENDBRANCH   4  12
BRANCH   7  16
HETATM   16  O4  UNL     1      20.383  44.456  -4.734  1.00  0.00    -0.386 OA
ATOM     17  H4  UNL     1      20.495  45.053  -4.004  1.00  0.00     0.210 HD
ENDBRANCH   7  16
ENDBRANCH   1   3
BRANCH   2  18
HETATM   18  C11 UNL     1      22.097  38.495  -7.565  1.00  0.00     0.184 C 
BRANCH  18  19
HETATM   19  O5  UNL     1      20.862  37.992  -8.019  1.00  0.00    -0.292 OA
BRANCH  19  20
HETATM   20  C12 UNL     1      20.564  37.785  -9.352  1.00  0.00     0.373 C 
HETATM   21  N1  UNL     1      20.196  38.862 -10.218  1.00  0.00    -0.032 NA
HETATM   22  O6  UNL     1      20.605  36.650  -9.847  1.00  0.00    -0.242 OA
ENDBRANCH  19  20
ENDBRANCH  18  19
BRANCH  18  23
HETATM   23  C13 UNL     1      22.680  37.441  -6.650  1.00  0.00    -0.050 C 
HETATM   24  C14 UNL     1      21.673  36.802  -5.786  1.00  0.00     0.046 C 
HETATM   25  C15 UNL     1      23.916  37.165  -6.677  1.00  0.00     0.012 C 
BRANCH  25  26
HETATM   26  C16 UNL     1      24.727  36.217  -5.924  1.00  0.00    -0.055 C 
HETATM   27  C17 UNL     1      25.431  36.567  -4.669  1.00  0.00     0.048 C 
HETATM   28  C18 UNL     1      24.870  34.975  -6.391  1.00  0.00     0.091 C 
BRANCH  28  29
HETATM   29  C19 UNL     1      25.570  33.854  -5.902  1.00  0.00     0.199 C 
HETATM   30  O7  UNL     1      25.775  33.451  -4.735  1.00  0.00    -0.644 OA
HETATM   31  O8  UNL     1      26.177  32.989  -6.860  1.00  0.00    -0.644 OA
ENDBRANCH  28  29
ENDBRANCH  25  26
ENDBRANCH  18  23
ENDBRANCH   2  18
TORSDOF 10
ENDMDL
MODEL 5
REMARK VINA RESULT: -7.597055928      1.218      1.803
REMARK  10 active torsions:
REMARK  status: ('A' for Active; 'I' for Inactive)
REMARK    1  A    between atoms: O1_2  and  C2_3 
REMARK    2  A    between atoms: C2_3  and  C3_5 
REMARK    3  A    between atoms: C5_8  and  O4_9 
REMARK    4  A    between atoms: C8_15  and  C9_16 
REMARK    5  A    between atoms: C10_17  and  C11_18 
REMARK    6  A    between atoms: C11_18  and  O5_19 
REMARK    7  A    between atoms: C11_18  and  C13_23 
REMARK    8  A    between atoms: O5_19  and  C12_20 
REMARK    9  A    between atoms: C15_25  and  C16_26 
REMARK   10  A    between atoms: C18_28  and  C19_29 
ROOT
HETATM    1  C9  UNL     1      22.725  36.608  -7.126  1.00  0.00    -0.021 C 
HETATM    2  C10 UNL     1      23.346  36.467  -8.282  1.00  0.00     0.006 C 
ENDROOT
BRANCH   1   3
HETATM    3  C8  UNL     1      22.643  37.849  -6.303  1.00  0.00     0.045 C 
HETATM    4  C3  UNL     1      22.870  37.564  -4.854  1.00  0.00     0.166 C 
HETATM    5  C4  UNL     1      22.925  38.839  -4.094  1.00  0.00     0.171 C 
HETATM    6  O3  UNL     1      23.526  38.934  -3.054  1.00  0.00    -0.294 OA
HETATM    7  C5  UNL     1      22.215  40.014  -4.643  1.00  0.00     0.208 C 
HETATM    8  C6  UNL     1      21.033  39.580  -5.480  1.00  0.00     0.133 C 
HETATM    9 CL1  UNL     1      19.794  38.976  -4.323  1.00  0.00    -0.121 Cl
HETATM   10  C7  UNL     1      21.364  38.576  -6.514  1.00  0.00     0.088 C 
HETATM   11 BR1  UNL     1      21.298  39.498  -8.228  1.00  0.00    -0.089 Br
BRANCH   4  12
HETATM   12  C2  UNL     1      24.063  36.735  -4.550  1.00  0.00     0.270 C 
HETATM   13  O2  UNL     1      23.960  35.723  -3.831  1.00  0.00    -0.264 OA
BRANCH  12  14
HETATM   14  O1  UNL     1      25.323  37.033  -5.040  1.00  0.00    -0.326 OA
HETATM   15  C1  UNL     1      26.492  36.826  -4.281  1.00  0.00     0.213 C 
ENDBRANCH  12  14
ENDBRANCH   4  12
BRANCH   7  16
HETATM   16  O4  UNL     1      23.060  40.884  -5.317  1.00  0.00    -0.386 OA
ATOM     17  H4  UNL     1      23.907  40.973  -4.896  1.00  0.00     0.210 HD
ENDBRANCH   7  16
ENDBRANCH   1   3
BRANCH   2  18
HETATM   18  C11 UNL     1      23.375  35.189  -9.040  1.00  0.00     0.184 C 
BRANCH  18  19
HETATM   19  O5  UNL     1      24.726  34.803  -9.144  1.00  0.00    -0.292 OA
BRANCH  19  20
HETATM   20  C12 UNL     1      25.281  33.763  -8.424  1.00  0.00     0.373 C 
HETATM   21  N1  UNL     1      25.505  33.856  -7.015  1.00  0.00    -0.032 NA
HETATM   22  O6  UNL     1      25.608  32.705  -8.980  1.00  0.00    -0.242 OA
ENDBRANCH  19  20
ENDBRANCH  18  19
BRANCH  18  23
HETATM   23  C13 UNL     1      22.855  35.316 -10.454  1.00  0.00    -0.050 C 
HETATM   24  C14 UNL     1      21.726  34.414 -10.741  1.00  0.00     0.046 C 
HETATM   25  C15 UNL     1      23.366  36.144 -11.266  1.00  0.00     0.012 C 
BRANCH  25  26
HETATM   26  C16 UNL     1      23.070  36.468 -12.656  1.00  0.00    -0.055 C 
HETATM   27  C17 UNL     1      21.722  36.855 -13.131  1.00  0.00     0.048 C 
HETATM   28  C18 UNL     1      24.050  36.391 -13.560  1.00  0.00     0.091 C 
BRANCH  28  29
HETATM   29  C19 UNL     1      24.079  36.637 -14.947  1.00  0.00     0.199 C 
HETATM   30  O7  UNL     1      23.830  37.670 -15.610  1.00  0.00    -0.644 OA
HETATM   31  O8  UNL     1      24.450  35.555 -15.798  1.00  0.00    -0.644 OA
ENDBRANCH  28  29
ENDBRANCH  25  26
ENDBRANCH  18  23
ENDBRANCH   2  18
TORSDOF 10
ENDMDL
