MODEL 1
REMARK VINA RESULT: -7.545328127      0.000      0.000
REMARK  9 active torsions:
REMARK  status: ('A' for Active; 'I' for Inactive)
REMARK    1  A    between atoms: C1_2  and  C2_4 
REMARK    2  A    between atoms: C2_4  and  C3_5 
REMARK    3  A    between atoms: C3_5  and  C4_6 
REMARK    4  A    between atoms: C4_6  and  O3_7 
REMARK    5  A    between atoms: O3_7  and  C5_8 
REMARK    6  A    between atoms: N1_18  and  C12_19 
REMARK    7  A    between atoms: C12_19  and  C13_20 
REMARK    8  A    between atoms: C15_22  and  O5_23 
REMARK    9  A    between atoms: C17_27  and  O7_28 
ROOT
HETATM    1  C5  UNL     1      23.213  36.176  -7.017  1.00  0.00     0.104 A 
HETATM    2  C6  UNL     1      23.954  35.274  -7.719  1.00  0.00     0.046 A 
HETATM    3 BR1  UNL     1      25.369  34.363  -6.803  1.00  0.00    -0.048 Br
HETATM    4  C7  UNL     1      23.746  34.987  -9.051  1.00  0.00     0.034 A 
HETATM    5  C8  UNL     1      22.719  35.665  -9.706  1.00  0.00     0.009 A 
HETATM    6  C9  UNL     1      21.940  36.584  -9.052  1.00  0.00     0.063 A 
HETATM    7  C10 UNL     1      22.195  36.830  -7.715  1.00  0.00     0.062 A 
HETATM    8 BR2  UNL     1      21.105  38.108  -6.822  1.00  0.00    -0.047 Br
HETATM    9  C11 UNL     1      20.969  37.105 -10.010  1.00  0.00     0.258 A 
HETATM   10  O4  UNL     1      20.102  37.972  -9.722  1.00  0.00    -0.267 OA
HETATM   11  N1  UNL     1      21.191  36.470 -11.253  1.00  0.00    -0.315 N 
HETATM   12  C17 UNL     1      22.273  35.561 -11.111  1.00  0.00     0.258 A 
ENDROOT
BRANCH  11  13
HETATM   13  C12 UNL     1      20.438  36.698 -12.497  1.00  0.00     0.161 C 
BRANCH  13  14
HETATM   14  C13 UNL     1      21.407  37.148 -13.566  1.00  0.00     0.142 C 
HETATM   15  C14 UNL     1      21.991  38.505 -13.259  1.00  0.00     0.067 C 
HETATM   16  C15 UNL     1      22.101  39.054 -14.691  1.00  0.00     0.144 C 
HETATM   17  C16 UNL     1      20.806  38.504 -15.260  1.00  0.00     0.200 C 
HETATM   18  O6  UNL     1      20.782  37.222 -14.779  1.00  0.00    -0.382 OA
BRANCH  16  19
HETATM   19  O5  UNL     1      22.177  40.419 -14.726  1.00  0.00    -0.393 OA
ATOM     20  H5  UNL     1      21.686  40.794 -15.448  1.00  0.00     0.210 HD
ENDBRANCH  16  19
ENDBRANCH  13  14
ENDBRANCH  11  13
BRANCH  12  21
HETATM   21  O7  UNL     1      21.793  34.259 -11.293  1.00  0.00    -0.372 OA
ATOM     22  H7  UNL     1      20.859  34.327 -11.455  1.00  0.00     0.212 HD
ENDBRANCH  12  21
BRANCH   1  23
HETATM   23  O3  UNL     1      23.378  36.499  -5.683  1.00  0.00    -0.348 OA
BRANCH  23  24
HETATM   24  C4  UNL     1      24.189  37.629  -5.325  1.00  0.00     0.176 C 
BRANCH  24  25
HETATM   25  C3  UNL     1      24.634  37.527  -3.904  1.00  0.00     0.037 C 
BRANCH  25  26
HETATM   26  C2  UNL     1      25.754  36.570  -3.732  1.00  0.00     0.115 C 
BRANCH  26  27
HETATM   27  C1  UNL     1      25.598  35.586  -2.651  1.00  0.00     0.172 C 
HETATM   28  O1  UNL     1      25.657  36.012  -1.469  1.00  0.00    -0.648 OA
HETATM   29  O2  UNL     1      25.393  34.257  -2.946  1.00  0.00    -0.648 OA
ENDBRANCH  26  27
ENDBRANCH  25  26
ENDBRANCH  24  25
ENDBRANCH  23  24
ENDBRANCH   1  23
TORSDOF 9
ENDMDL
MODEL 2
REMARK VINA RESULT: -7.330772615      2.379      3.209
REMARK  9 active torsions:
REMARK  status: ('A' for Active; 'I' for Inactive)
REMARK    1  A    between atoms: C1_2  and  C2_4 
REMARK    2  A    between atoms: C2_4  and  C3_5 
REMARK    3  A    between atoms: C3_5  and  C4_6 
REMARK    4  A    between atoms: C4_6  and  O3_7 
REMARK    5  A    between atoms: O3_7  and  C5_8 
REMARK    6  A    between atoms: N1_18  and  C12_19 
REMARK    7  A    between atoms: C12_19  and  C13_20 
REMARK    8  A    between atoms: C15_22  and  O5_23 
REMARK    9  A    between atoms: C17_27  and  O7_28 
ROOT
HETATM    1  C5  UNL     1      23.628  36.306  -5.924  1.00  0.00     0.104 A 
HETATM    2  C6  UNL     1      24.661  35.457  -6.187  1.00  0.00     0.046 A 
HETATM    3 BR1  UNL     1      25.830  34.986  -4.744  1.00  0.00    -0.048 Br
HETATM    4  C7  UNL     1      24.914  34.927  -7.434  1.00  0.00     0.034 A 
HETATM    5  C8  UNL     1      24.060  35.286  -8.475  1.00  0.00     0.009 A 
HETATM    6  C9  UNL     1      23.004  36.136  -8.271  1.00  0.00     0.063 A 
HETATM    7  C10 UNL     1      22.799  36.637  -6.998  1.00  0.00     0.062 A 
HETATM    8 BR2  UNL     1      21.330  37.815  -6.731  1.00  0.00    -0.047 Br
HETATM    9  C11 UNL     1      22.317  36.306  -9.548  1.00  0.00     0.258 A 
HETATM   10  O4  UNL     1      21.298  37.030  -9.700  1.00  0.00    -0.267 OA
HETATM   11  N1  UNL     1      22.993  35.533 -10.519  1.00  0.00    -0.315 N 
HETATM   12  C17 UNL     1      24.087  34.877  -9.894  1.00  0.00     0.258 A 
ENDROOT
BRANCH  11  13
HETATM   13  C12 UNL     1      22.638  35.413 -11.942  1.00  0.00     0.161 C 
BRANCH  13  14
HETATM   14  C13 UNL     1      23.334  36.519 -12.702  1.00  0.00     0.142 C 
HETATM   15  C14 UNL     1      22.363  37.340 -13.515  1.00  0.00     0.067 C 
HETATM   16  C15 UNL     1      23.257  37.648 -14.727  1.00  0.00     0.144 C 
HETATM   17  C16 UNL     1      23.959  36.308 -14.856  1.00  0.00     0.200 C 
HETATM   18  O6  UNL     1      24.266  36.000 -13.556  1.00  0.00    -0.382 OA
BRANCH  16  19
HETATM   19  O5  UNL     1      22.536  37.995 -15.836  1.00  0.00    -0.393 OA
ATOM     20  H5  UNL     1      22.292  37.244 -16.363  1.00  0.00     0.210 HD
ENDBRANCH  16  19
ENDBRANCH  13  14
ENDBRANCH  11  13
BRANCH  12  21
HETATM   21  O7  UNL     1      23.861  33.496  -9.927  1.00  0.00    -0.372 OA
ATOM     22  H7  UNL     1      23.062  33.357 -10.423  1.00  0.00     0.212 HD
ENDBRANCH  12  21
BRANCH   1  23
HETATM   23  O3  UNL     1      23.330  36.863  -4.694  1.00  0.00    -0.348 OA
BRANCH  23  24
HETATM   24  C4  UNL     1      24.098  37.980  -4.220  1.00  0.00     0.176 C 
BRANCH  24  25
HETATM   25  C3  UNL     1      23.253  38.881  -3.382  1.00  0.00     0.037 C 
BRANCH  25  26
HETATM   26  C2  UNL     1      22.807  40.085  -4.123  1.00  0.00     0.115 C 
BRANCH  26  27
HETATM   27  C1  UNL     1      21.379  40.418  -4.007  1.00  0.00     0.172 C 
HETATM   28  O1  UNL     1      21.024  41.571  -4.361  1.00  0.00    -0.648 OA
HETATM   29  O2  UNL     1      20.486  39.487  -3.527  1.00  0.00    -0.648 OA
ENDBRANCH  26  27
ENDBRANCH  25  26
ENDBRANCH  24  25
ENDBRANCH  23  24
ENDBRANCH   1  23
TORSDOF 9
ENDMDL
MODEL 3
REMARK VINA RESULT: -7.328826811      4.030      5.193
REMARK  9 active torsions:
REMARK  status: ('A' for Active; 'I' for Inactive)
REMARK    1  A    between atoms: C1_2  and  C2_4 
REMARK    2  A    between atoms: C2_4  and  C3_5 
REMARK    3  A    between atoms: C3_5  and  C4_6 
REMARK    4  A    between atoms: C4_6  and  O3_7 
REMARK    5  A    between atoms: O3_7  and  C5_8 
REMARK    6  A    between atoms: N1_18  and  C12_19 
REMARK    7  A    between atoms: C12_19  and  C13_20 
REMARK    8  A    between atoms: C15_22  and  O5_23 
REMARK    9  A    between atoms: C17_27  and  O7_28 
ROOT
HETATM    1  C5  UNL     1      22.742  36.434  -7.216  1.00  0.00     0.104 A 
HETATM    2  C6  UNL     1      22.399  36.469  -8.535  1.00  0.00     0.046 A 
HETATM    3 BR1  UNL     1      23.195  35.178  -9.707  1.00  0.00    -0.048 Br
HETATM    4  C7  UNL     1      21.519  37.384  -9.071  1.00  0.00     0.034 A 
HETATM    5  C8  UNL     1      20.956  38.322  -8.207  1.00  0.00     0.009 A 
HETATM    6  C9  UNL     1      21.262  38.336  -6.870  1.00  0.00     0.063 A 
HETATM    7  C10 UNL     1      22.152  37.393  -6.389  1.00  0.00     0.062 A 
HETATM    8 BR2  UNL     1      22.567  37.425  -4.534  1.00  0.00    -0.047 Br
HETATM    9  C11 UNL     1      20.513  39.427  -6.254  1.00  0.00     0.258 A 
HETATM   10  O4  UNL     1      20.573  39.709  -5.029  1.00  0.00    -0.267 OA
HETATM   11  N1  UNL     1      19.752  40.063  -7.261  1.00  0.00    -0.315 N 
HETATM   12  C17 UNL     1      19.994  39.406  -8.496  1.00  0.00     0.258 A 
ENDROOT
BRANCH  11  13
HETATM   13  C12 UNL     1      18.851  41.213  -7.079  1.00  0.00     0.161 C 
BRANCH  13  14
HETATM   14  C13 UNL     1      19.295  42.318  -8.011  1.00  0.00     0.142 C 
HETATM   15  C14 UNL     1      20.600  42.934  -7.571  1.00  0.00     0.067 C 
HETATM   16  C15 UNL     1      20.339  44.389  -7.992  1.00  0.00     0.144 C 
HETATM   17  C16 UNL     1      18.875  44.493  -7.605  1.00  0.00     0.200 C 
HETATM   18  O6  UNL     1      18.356  43.309  -8.060  1.00  0.00    -0.382 OA
BRANCH  16  19
HETATM   19  O5  UNL     1      21.142  45.279  -7.333  1.00  0.00    -0.393 OA
ATOM     20  H5  UNL     1      21.714  45.759  -7.920  1.00  0.00     0.210 HD
ENDBRANCH  16  19
ENDBRANCH  13  14
ENDBRANCH  11  13
BRANCH  12  21
HETATM   21  O7  UNL     1      18.808  38.797  -8.922  1.00  0.00    -0.372 OA
ATOM     22  H7  UNL     1      18.941  38.529  -9.824  1.00  0.00     0.212 HD
ENDBRANCH  12  21
BRANCH   1  23
HETATM   23  O3  UNL     1      23.615  35.538  -6.629  1.00  0.00    -0.348 OA
BRANCH  23  24
HETATM   24  C4  UNL     1      25.030  35.774  -6.712  1.00  0.00     0.176 C 
BRANCH  24  25
HETATM   25  C3  UNL     1      25.741  35.099  -5.585  1.00  0.00     0.037 C 
BRANCH  25  26
HETATM   26  C2  UNL     1      25.990  36.017  -4.447  1.00  0.00     0.115 C 
BRANCH  26  27
HETATM   27  C1  UNL     1      25.526  35.550  -3.132  1.00  0.00     0.172 C 
HETATM   28  O1  UNL     1      25.216  36.425  -2.284  1.00  0.00    -0.648 OA
HETATM   29  O2  UNL     1      25.441  34.202  -2.865  1.00  0.00    -0.648 OA
ENDBRANCH  26  27
ENDBRANCH  25  26
ENDBRANCH  24  25
ENDBRANCH  23  24
ENDBRANCH   1  23
TORSDOF 9
ENDMDL
MODEL 4
REMARK VINA RESULT: -7.285142788      1.398      1.997
REMARK  9 active torsions:
REMARK  status: ('A' for Active; 'I' for Inactive)
REMARK    1  A    between atoms: C1_2  and  C2_4 
REMARK    2  A    between atoms: C2_4  and  C3_5 
REMARK    3  A    between atoms: C3_5  and  C4_6 
REMARK    4  A    between atoms: C4_6  and  O3_7 
REMARK    5  A    between atoms: O3_7  and  C5_8 
REMARK    6  A    between atoms: N1_18  and  C12_19 
REMARK    7  A    between atoms: C12_19  and  C13_20 
REMARK    8  A    between atoms: C15_22  and  O5_23 
REMARK    9  A    between atoms: C17_27  and  O7_28 
ROOT
HETATM    1  C5  UNL     1      23.320  36.043  -7.013  1.00  0.00     0.104 A 
HETATM    2  C6  UNL     1      24.035  35.140  -7.741  1.00  0.00     0.046 A 
HETATM    3 BR1  UNL     1      25.438  34.180  -6.857  1.00  0.00    -0.048 Br
HETATM    4  C7  UNL     1      23.809  34.885  -9.076  1.00  0.00     0.034 A 
HETATM    5  C8  UNL     1      22.790  35.598  -9.707  1.00  0.00     0.009 A 
HETATM    6  C9  UNL     1      22.037  36.519  -9.027  1.00  0.00     0.063 A 
HETATM    7  C10 UNL     1      22.310  36.733  -7.688  1.00  0.00     0.062 A 
HETATM    8 BR2  UNL     1      21.256  38.015  -6.759  1.00  0.00    -0.047 Br
HETATM    9  C11 UNL     1      21.069  37.081  -9.964  1.00  0.00     0.258 A 
HETATM   10  O4  UNL     1      20.224  37.960  -9.651  1.00  0.00    -0.267 OA
HETATM   11  N1  UNL     1      21.266  36.467 -11.222  1.00  0.00    -0.315 N 
HETATM   12  C17 UNL     1      22.329  35.532 -11.109  1.00  0.00     0.258 A 
ENDROOT
BRANCH  11  13
HETATM   13  C12 UNL     1      20.506  36.736 -12.454  1.00  0.00     0.161 C 
BRANCH  13  14
HETATM   14  C13 UNL     1      21.483  37.117 -13.543  1.00  0.00     0.142 C 
HETATM   15  C14 UNL     1      22.116  38.462 -13.284  1.00  0.00     0.067 C 
HETATM   16  C15 UNL     1      22.235  38.960 -14.733  1.00  0.00     0.144 C 
HETATM   17  C16 UNL     1      20.916  38.439 -15.277  1.00  0.00     0.200 C 
HETATM   18  O6  UNL     1      20.852  37.174 -14.754  1.00  0.00    -0.382 OA
BRANCH  16  19
HETATM   19  O5  UNL     1      22.358  40.320 -14.813  1.00  0.00    -0.393 OA
ATOM     20  H5  UNL     1      21.539  40.749 -15.032  1.00  0.00     0.210 HD
ENDBRANCH  16  19
ENDBRANCH  13  14
ENDBRANCH  11  13
BRANCH  12  21
HETATM   21  O7  UNL     1      21.819  34.245 -11.313  1.00  0.00    -0.372 OA
ATOM     22  H7  UNL     1      22.216  33.912 -12.110  1.00  0.00     0.212 HD
ENDBRANCH  12  21
BRANCH   1  23
HETATM   23  O3  UNL     1      23.504  36.334  -5.675  1.00  0.00    -0.348 OA
BRANCH  23  24
HETATM   24  C4  UNL     1      24.609  37.162  -5.278  1.00  0.00     0.176 C 
BRANCH  24  25
HETATM   25  C3  UNL     1      24.428  37.642  -3.875  1.00  0.00     0.037 C 
BRANCH  25  26
HETATM   26  C2  UNL     1      23.113  38.296  -3.669  1.00  0.00     0.115 C 
BRANCH  26  27
HETATM   27  C1  UNL     1      23.139  39.760  -3.532  1.00  0.00     0.172 C 
HETATM   28  O1  UNL     1      23.414  40.229  -2.398  1.00  0.00    -0.648 OA
HETATM   29  O2  UNL     1      22.871  40.564  -4.617  1.00  0.00    -0.648 OA
ENDBRANCH  26  27
ENDBRANCH  25  26
ENDBRANCH  24  25
ENDBRANCH  23  24
ENDBRANCH   1  23
TORSDOF 9
ENDMDL
MODEL 5
REMARK VINA RESULT: -7.212489515      1.479      2.614
REMARK  9 active torsions:
REMARK  status: ('A' for Active; 'I' for Inactive)
REMARK    1  A    between atoms: C1_2  and  C2_4 
REMARK    2  A    between atoms: C2_4  and  C3_5 
REMARK    3  A    between atoms: C3_5  and  C4_6 
REMARK    4  A    between atoms: C4_6  and  O3_7 
REMARK    5  A    between atoms: O3_7  and  C5_8 
REMARK    6  A    between atoms: N1_18  and  C12_19 
REMARK    7  A    between atoms: C12_19  and  C13_20 
REMARK    8  A    between atoms: C15_22  and  O5_23 
REMARK    9  A    between atoms: C17_27  and  O7_28 
ROOT
HETATM    1  C5  UNL     1      23.230  35.800  -7.642  1.00  0.00     0.104 A 
HETATM    2  C6  UNL     1      22.257  36.599  -7.123  1.00  0.00     0.046 A 
HETATM    3 BR1  UNL     1      22.260  36.910  -5.232  1.00  0.00    -0.048 Br
HETATM    4  C7  UNL     1      21.269  37.189  -7.881  1.00  0.00     0.034 A 
HETATM    5  C8  UNL     1      21.274  36.946  -9.254  1.00  0.00     0.009 A 
HETATM    6  C9  UNL     1      22.228  36.150  -9.833  1.00  0.00     0.063 A 
HETATM    7  C10 UNL     1      23.196  35.585  -9.022  1.00  0.00     0.062 A 
HETATM    8 BR2  UNL     1      24.512  34.484  -9.841  1.00  0.00    -0.047 Br
HETATM    9  C11 UNL     1      21.955  36.100 -11.266  1.00  0.00     0.258 A 
HETATM   10  O4  UNL     1      22.653  35.449 -12.088  1.00  0.00    -0.267 OA
HETATM   11  N1  UNL     1      20.811  36.889 -11.524  1.00  0.00    -0.315 N 
HETATM   12  C17 UNL     1      20.353  37.439 -10.297  1.00  0.00     0.258 A 
ENDROOT
BRANCH  11  13
HETATM   13  C12 UNL     1      20.185  37.117 -12.837  1.00  0.00     0.161 C 
BRANCH  13  14
HETATM   14  C13 UNL     1      20.777  38.372 -13.437  1.00  0.00     0.142 C 
HETATM   15  C14 UNL     1      20.946  38.255 -14.932  1.00  0.00     0.067 C 
HETATM   16  C15 UNL     1      22.241  39.066 -15.097  1.00  0.00     0.144 C 
HETATM   17  C16 UNL     1      22.979  38.598 -13.855  1.00  0.00     0.200 C 
HETATM   18  O6  UNL     1      22.004  38.629 -12.893  1.00  0.00    -0.382 OA
BRANCH  16  19
HETATM   19  O5  UNL     1      22.897  38.778 -16.262  1.00  0.00    -0.393 OA
ATOM     20  H5  UNL     1      23.836  38.702 -16.144  1.00  0.00     0.210 HD
ENDBRANCH  16  19
ENDBRANCH  13  14
ENDBRANCH  11  13
BRANCH  12  21
HETATM   21  O7  UNL     1      20.496  38.830 -10.347  1.00  0.00    -0.372 OA
ATOM     22  H7  UNL     1      20.190  39.111 -11.202  1.00  0.00     0.212 HD
ENDBRANCH  12  21
BRANCH   1  23
HETATM   23  O3  UNL     1      24.243  35.187  -6.928  1.00  0.00    -0.348 OA
BRANCH  23  24
HETATM   24  C4  UNL     1      25.485  35.880  -6.726  1.00  0.00     0.176 C 
BRANCH  24  25
HETATM   25  C3  UNL     1      26.174  35.377  -5.501  1.00  0.00     0.037 C 
BRANCH  25  26
HETATM   26  C2  UNL     1      26.229  36.397  -4.427  1.00  0.00     0.115 C 
BRANCH  26  27
HETATM   27  C1  UNL     1      25.416  36.118  -3.234  1.00  0.00     0.172 C 
HETATM   28  O1  UNL     1      24.791  37.081  -2.721  1.00  0.00    -0.648 OA
HETATM   29  O2  UNL     1      25.355  34.842  -2.719  1.00  0.00    -0.648 OA
ENDBRANCH  26  27
ENDBRANCH  25  26
ENDBRANCH  24  25
ENDBRANCH  23  24
ENDBRANCH   1  23
TORSDOF 9
ENDMDL
