MODEL 1
REMARK VINA RESULT: -8.373624297      0.000      0.000
REMARK  8 active torsions:
REMARK  status: ('A' for Active; 'I' for Inactive)
REMARK       I    between atoms: C2_2  and  N1_4 
REMARK    1  A    between atoms: N1_4  and  C3_6 
REMARK    2  A    between atoms: C4_11  and  C5_12 
REMARK    3  A    between atoms: C5_12  and  C6_13 
REMARK    4  A    between atoms: C6_13  and  C7_14 
REMARK    5  A    between atoms: C7_14  and  C8_15 
REMARK    6  A    between atoms: C8_15  and  C9_16 
REMARK       I    between atoms: N6_22  and  C11_24 
REMARK    7  A    between atoms: C11_24  and  C12_26 
REMARK    8  A    between atoms: C12_26  and  N7_29 
REMARK       I    between atoms: N7_29  and  C14_31 
ROOT
HETATM    1  C9  UNL     1      23.719  36.336  -6.588  1.00  0.00     0.069 A 
HETATM    2  N4  UNL     1      22.553  35.736  -6.403  1.00  0.00    -0.296 N 
ATOM      3  H4  UNL     1      22.515  34.724  -6.277  1.00  0.00     0.187 HD
HETATM    4  N5  UNL     1      21.483  36.413  -6.383  1.00  0.00    -0.279 N 
ATOM      5  H5  UNL     1      20.583  35.955  -6.242  1.00  0.00     0.189 HD
HETATM    6  C10 UNL     1      21.553  37.737  -6.551  1.00  0.00     0.167 A 
HETATM    7  N6  UNL     1      20.558  38.596  -6.560  1.00  0.00    -0.303 N 
ATOM      8  H6  UNL     1      19.588  38.312  -6.432  1.00  0.00     0.171 HD
HETATM    9  C11 UNL     1      20.942  39.969  -6.763  1.00  0.00     0.263 C 
HETATM   10  O2  UNL     1      21.540  40.343  -7.792  1.00  0.00    -0.269 OA
HETATM   11  S1  UNL     1      23.239  37.970  -6.741  1.00  0.00    -0.038 SA
ENDROOT
BRANCH   1  12
HETATM   12  C8  UNL     1      25.095  35.715  -6.644  1.00  0.00     0.066 C 
BRANCH  12  13
HETATM   13  C7  UNL     1      25.039  34.715  -7.781  1.00  0.00     0.007 C 
BRANCH  13  14
HETATM   14  C6  UNL     1      24.700  35.351  -9.089  1.00  0.00     0.007 C 
BRANCH  14  15
HETATM   15  C5  UNL     1      23.558  34.600  -9.736  1.00  0.00     0.066 C 
BRANCH  15  16
HETATM   16  C4  UNL     1      23.070  35.328 -10.959  1.00  0.00     0.069 A 
HETATM   17  N3  UNL     1      23.749  35.695 -12.036  1.00  0.00    -0.296 N 
HETATM   18  N2  UNL     1      23.172  36.308 -12.983  1.00  0.00    -0.279 N 
ATOM     19  H3  UNL     1      24.744  35.483 -12.102  1.00  0.00     0.187 HD
HETATM   20  C3  UNL     1      21.866  36.575 -12.872  1.00  0.00     0.167 A 
ATOM     21  H2  UNL     1      23.692  36.591 -13.812  1.00  0.00     0.189 HD
HETATM   22  S2  UNL     1      21.502  35.904 -11.342  1.00  0.00    -0.038 SA
BRANCH  20  23
HETATM   23  N1  UNL     1      21.102  37.196 -13.745  1.00  0.00    -0.306 N 
HETATM   24  C2  UNL     1      19.720  37.340 -13.458  1.00  0.00     0.219 C 
HETATM   25  C1  UNL     1      19.165  38.552 -12.825  1.00  0.00     0.117 C 
HETATM   26  O1  UNL     1      18.944  36.400 -13.753  1.00  0.00    -0.274 OA
ATOM     27  H1  UNL     1      21.495  37.567 -14.610  1.00  0.00     0.171 HD
ENDBRANCH  20  23
ENDBRANCH  15  16
ENDBRANCH  14  15
ENDBRANCH  13  14
ENDBRANCH  12  13
ENDBRANCH   1  12
BRANCH   9  28
HETATM   28  C12 UNL     1      20.608  40.950  -5.711  1.00  0.00     0.170 C 
HETATM   29  C13 UNL     1      20.406  42.323  -6.320  1.00  0.00     0.062 C 
HETATM   30 BR1  UNL     1      18.941  40.430  -4.855  1.00  0.00    -0.051 Br
BRANCH  28  31
HETATM   31  N7  UNL     1      21.679  41.015  -4.756  1.00  0.00    -0.321 N 
HETATM   32  C14 UNL     1      21.848  40.045  -3.742  1.00  0.00     0.316 C 
HETATM   33  O3  UNL     1      21.114  39.044  -3.560  1.00  0.00    -0.254 OA
HETATM   34 CL1  UNL     1      23.193  40.203  -2.600  1.00  0.00    -0.020 Cl
ATOM     35  H7  UNL     1      22.342  41.788  -4.812  1.00  0.00     0.165 HD
ENDBRANCH  28  31
ENDBRANCH   9  28
TORSDOF 8
ENDMDL
MODEL 2
REMARK VINA RESULT: -8.302627154      2.743      3.576
REMARK  8 active torsions:
REMARK  status: ('A' for Active; 'I' for Inactive)
REMARK       I    between atoms: C2_2  and  N1_4 
REMARK    1  A    between atoms: N1_4  and  C3_6 
REMARK    2  A    between atoms: C4_11  and  C5_12 
REMARK    3  A    between atoms: C5_12  and  C6_13 
REMARK    4  A    between atoms: C6_13  and  C7_14 
REMARK    5  A    between atoms: C7_14  and  C8_15 
REMARK    6  A    between atoms: C8_15  and  C9_16 
REMARK       I    between atoms: N6_22  and  C11_24 
REMARK    7  A    between atoms: C11_24  and  C12_26 
REMARK    8  A    between atoms: C12_26  and  N7_29 
REMARK       I    between atoms: N7_29  and  C14_31 
ROOT
HETATM    1  C9  UNL     1      23.980  37.228  -4.271  1.00  0.00     0.069 A 
HETATM    2  N4  UNL     1      22.980  36.507  -4.755  1.00  0.00    -0.296 N 
ATOM      3  H4  UNL     1      23.046  35.489  -4.767  1.00  0.00     0.187 HD
HETATM    4  N5  UNL     1      21.942  37.077  -5.203  1.00  0.00    -0.279 N 
ATOM      5  H5  UNL     1      21.169  36.525  -5.577  1.00  0.00     0.189 HD
HETATM    6  C10 UNL     1      21.875  38.410  -5.178  1.00  0.00     0.167 A 
HETATM    7  N6  UNL     1      20.886  39.170  -5.595  1.00  0.00    -0.303 N 
ATOM      8  H6  UNL     1      20.032  38.786  -5.998  1.00  0.00     0.171 HD
HETATM    9  C11 UNL     1      21.098  40.586  -5.439  1.00  0.00     0.263 C 
HETATM   10  O2  UNL     1      22.051  41.175  -5.989  1.00  0.00    -0.269 OA
HETATM   11  S1  UNL     1      23.383  38.817  -4.476  1.00  0.00    -0.038 SA
ENDROOT
BRANCH   1  12
HETATM   12  C8  UNL     1      25.291  36.746  -3.696  1.00  0.00     0.066 C 
BRANCH  12  13
HETATM   13  C7  UNL     1      25.437  35.315  -4.172  1.00  0.00     0.007 C 
BRANCH  13  14
HETATM   14  C6  UNL     1      26.154  35.215  -5.478  1.00  0.00     0.007 C 
BRANCH  14  15
HETATM   15  C5  UNL     1      25.785  33.916  -6.159  1.00  0.00     0.066 C 
BRANCH  15  16
HETATM   16  C4  UNL     1      25.266  34.176  -7.548  1.00  0.00     0.069 A 
HETATM   17  N3  UNL     1      25.422  33.450  -8.645  1.00  0.00    -0.296 N 
HETATM   18  N2  UNL     1      24.910  33.823  -9.742  1.00  0.00    -0.279 N 
ATOM     19  H3  UNL     1      25.959  32.584  -8.605  1.00  0.00     0.187 HD
HETATM   20  C3  UNL     1      24.211  34.962  -9.769  1.00  0.00     0.167 A 
ATOM     21  H2  UNL     1      25.029  33.265 -10.587  1.00  0.00     0.189 HD
HETATM   22  S2  UNL     1      24.321  35.476  -8.142  1.00  0.00    -0.038 SA
BRANCH  20  23
HETATM   23  N1  UNL     1      23.610  35.505 -10.806  1.00  0.00    -0.306 N 
HETATM   24  C2  UNL     1      22.192  35.516 -10.842  1.00  0.00     0.219 C 
HETATM   25  C1  UNL     1      21.397  36.669 -10.381  1.00  0.00     0.117 C 
HETATM   26  O1  UNL     1      21.594  34.504 -11.283  1.00  0.00    -0.274 OA
ATOM     27  H1  UNL     1      24.153  35.911 -11.569  1.00  0.00     0.171 HD
ENDBRANCH  20  23
ENDBRANCH  15  16
ENDBRANCH  14  15
ENDBRANCH  13  14
ENDBRANCH  12  13
ENDBRANCH   1  12
BRANCH   9  28
HETATM   28  C12 UNL     1      20.150  41.346  -4.601  1.00  0.00     0.170 C 
HETATM   29  C13 UNL     1      18.746  40.800  -4.771  1.00  0.00     0.062 C 
HETATM   30 BR1  UNL     1      20.642  41.144  -2.731  1.00  0.00    -0.051 Br
BRANCH  28  31
HETATM   31  N7  UNL     1      20.165  42.729  -4.992  1.00  0.00    -0.321 N 
HETATM   32  C14 UNL     1      19.333  43.696  -4.383  1.00  0.00     0.316 C 
HETATM   33  O3  UNL     1      18.514  43.475  -3.457  1.00  0.00    -0.254 OA
HETATM   34 CL1  UNL     1      19.410  45.379  -4.928  1.00  0.00    -0.020 Cl
ATOM     35  H7  UNL     1      20.798  43.023  -5.735  1.00  0.00     0.165 HD
ENDBRANCH  28  31
ENDBRANCH   9  28
TORSDOF 8
ENDMDL
MODEL 3
REMARK VINA RESULT: -8.255819223      3.527      5.717
REMARK  8 active torsions:
REMARK  status: ('A' for Active; 'I' for Inactive)
REMARK       I    between atoms: C2_2  and  N1_4 
REMARK    1  A    between atoms: N1_4  and  C3_6 
REMARK    2  A    between atoms: C4_11  and  C5_12 
REMARK    3  A    between atoms: C5_12  and  C6_13 
REMARK    4  A    between atoms: C6_13  and  C7_14 
REMARK    5  A    between atoms: C7_14  and  C8_15 
REMARK    6  A    between atoms: C8_15  and  C9_16 
REMARK       I    between atoms: N6_22  and  C11_24 
REMARK    7  A    between atoms: C11_24  and  C12_26 
REMARK    8  A    between atoms: C12_26  and  N7_29 
REMARK       I    between atoms: N7_29  and  C14_31 
ROOT
HETATM    1  C9  UNL     1      20.550  37.727  -9.255  1.00  0.00     0.069 A 
HETATM    2  N4  UNL     1      19.381  38.333  -9.404  1.00  0.00    -0.296 N 
ATOM      3  H4  UNL     1      18.729  38.012 -10.120  1.00  0.00     0.187 HD
HETATM    4  N5  UNL     1      19.070  39.309  -8.660  1.00  0.00    -0.279 N 
ATOM      5  H5  UNL     1      18.172  39.779  -8.771  1.00  0.00     0.189 HD
HETATM    6  C10 UNL     1      19.937  39.713  -7.728  1.00  0.00     0.167 A 
HETATM    7  N6  UNL     1      19.790  40.700  -6.871  1.00  0.00    -0.303 N 
ATOM      8  H6  UNL     1      18.950  41.278  -6.840  1.00  0.00     0.171 HD
HETATM    9  C11 UNL     1      20.902  40.903  -5.980  1.00  0.00     0.263 C 
HETATM   10  O2  UNL     1      22.045  41.171  -6.399  1.00  0.00    -0.269 OA
HETATM   11  S1  UNL     1      21.234  38.620  -7.968  1.00  0.00    -0.038 SA
ENDROOT
BRANCH   1  12
HETATM   12  C8  UNL     1      21.105  36.557 -10.032  1.00  0.00     0.066 C 
BRANCH  12  13
HETATM   13  C7  UNL     1      22.418  36.213  -9.359  1.00  0.00     0.007 C 
BRANCH  13  14
HETATM   14  C6  UNL     1      23.029  34.961  -9.898  1.00  0.00     0.007 C 
BRANCH  14  15
HETATM   15  C5  UNL     1      24.532  35.027  -9.748  1.00  0.00     0.066 C 
BRANCH  15  16
HETATM   16  C4  UNL     1      24.931  34.801  -8.314  1.00  0.00     0.069 A 
HETATM   17  N3  UNL     1      25.371  33.693  -7.737  1.00  0.00    -0.296 N 
HETATM   18  N2  UNL     1      25.665  33.681  -6.505  1.00  0.00    -0.279 N 
ATOM     19  H3  UNL     1      25.474  32.842  -8.290  1.00  0.00     0.187 HD
HETATM   20  C3  UNL     1      25.522  34.810  -5.802  1.00  0.00     0.167 A 
ATOM     21  H2  UNL     1      26.004  32.829  -6.059  1.00  0.00     0.189 HD
HETATM   22  S2  UNL     1      24.945  35.892  -6.993  1.00  0.00    -0.038 SA
BRANCH  20  23
HETATM   23  N1  UNL     1      25.775  34.990  -4.523  1.00  0.00    -0.306 N 
HETATM   24  C2  UNL     1      25.804  36.315  -4.016  1.00  0.00     0.219 C 
HETATM   25  C1  UNL     1      24.630  36.946  -3.385  1.00  0.00     0.117 C 
HETATM   26  O1  UNL     1      26.869  36.972  -4.111  1.00  0.00    -0.274 OA
ATOM     27  H1  UNL     1      25.946  34.194  -3.909  1.00  0.00     0.171 HD
ENDBRANCH  20  23
ENDBRANCH  15  16
ENDBRANCH  14  15
ENDBRANCH  13  14
ENDBRANCH  12  13
ENDBRANCH   1  12
BRANCH   9  28
HETATM   28  C12 UNL     1      20.662  40.788  -4.527  1.00  0.00     0.170 C 
HETATM   29  C13 UNL     1      19.537  39.809  -4.258  1.00  0.00     0.062 C 
HETATM   30 BR1  UNL     1      22.264  40.103  -3.665  1.00  0.00    -0.051 Br
BRANCH  28  31
HETATM   31  N7  UNL     1      20.300  42.074  -3.996  1.00  0.00    -0.321 N 
HETATM   32  C14 UNL     1      19.733  42.229  -2.711  1.00  0.00     0.316 C 
HETATM   33  O3  UNL     1      19.490  41.299  -1.904  1.00  0.00    -0.254 OA
HETATM   34 CL1  UNL     1      19.311  43.849  -2.135  1.00  0.00    -0.020 Cl
ATOM     35  H7  UNL     1      20.459  42.904  -4.567  1.00  0.00     0.165 HD
ENDBRANCH  28  31
ENDBRANCH   9  28
TORSDOF 8
ENDMDL
MODEL 4
REMARK VINA RESULT: -8.241743726      2.326      3.117
REMARK  8 active torsions:
REMARK  status: ('A' for Active; 'I' for Inactive)
REMARK       I    between atoms: C2_2  and  N1_4 
REMARK    1  A    between atoms: N1_4  and  C3_6 
REMARK    2  A    between atoms: C4_11  and  C5_12 
REMARK    3  A    between atoms: C5_12  and  C6_13 
REMARK    4  A    between atoms: C6_13  and  C7_14 
REMARK    5  A    between atoms: C7_14  and  C8_15 
REMARK    6  A    between atoms: C8_15  and  C9_16 
REMARK       I    between atoms: N6_22  and  C11_24 
REMARK    7  A    between atoms: C11_24  and  C12_26 
REMARK    8  A    between atoms: C12_26  and  N7_29 
REMARK       I    between atoms: N7_29  and  C14_31 
ROOT
HETATM    1  C9  UNL     1      23.732  37.070  -4.644  1.00  0.00     0.069 A 
HETATM    2  N4  UNL     1      22.742  36.207  -4.816  1.00  0.00    -0.296 N 
ATOM      3  H4  UNL     1      22.771  35.299  -4.352  1.00  0.00     0.187 HD
HETATM    4  N5  UNL     1      21.758  36.507  -5.554  1.00  0.00    -0.279 N 
ATOM      5  H5  UNL     1      20.992  35.846  -5.690  1.00  0.00     0.189 HD
HETATM    6  C10 UNL     1      21.737  37.701  -6.151  1.00  0.00     0.167 A 
HETATM    7  N6  UNL     1      20.807  38.183  -6.946  1.00  0.00    -0.303 N 
ATOM      8  H6  UNL     1      19.969  37.657  -7.191  1.00  0.00     0.171 HD
HETATM    9  C11 UNL     1      21.060  39.510  -7.444  1.00  0.00     0.263 C 
HETATM   10  O2  UNL     1      22.068  39.778  -8.128  1.00  0.00    -0.269 OA
HETATM   11  S1  UNL     1      23.209  38.384  -5.602  1.00  0.00    -0.038 SA
ENDROOT
BRANCH   1  12
HETATM   12  C8  UNL     1      24.983  36.907  -3.812  1.00  0.00     0.066 C 
BRANCH  12  13
HETATM   13  C7  UNL     1      25.493  35.514  -4.121  1.00  0.00     0.007 C 
BRANCH  13  14
HETATM   14  C6  UNL     1      26.118  35.418  -5.473  1.00  0.00     0.007 C 
BRANCH  14  15
HETATM   15  C5  UNL     1      25.758  34.091  -6.104  1.00  0.00     0.066 C 
BRANCH  15  16
HETATM   16  C4  UNL     1      25.249  34.293  -7.506  1.00  0.00     0.069 A 
HETATM   17  N3  UNL     1      25.411  33.520  -8.570  1.00  0.00    -0.296 N 
HETATM   18  N2  UNL     1      24.906  33.846  -9.685  1.00  0.00    -0.279 N 
ATOM     19  H3  UNL     1      25.946  32.655  -8.490  1.00  0.00     0.187 HD
HETATM   20  C3  UNL     1      24.209  34.984  -9.765  1.00  0.00     0.167 A 
ATOM     21  H2  UNL     1      25.030  33.252 -10.505  1.00  0.00     0.189 HD
HETATM   22  S2  UNL     1      24.310  35.567  -8.161  1.00  0.00    -0.038 SA
BRANCH  20  23
HETATM   23  N1  UNL     1      23.617  35.484 -10.828  1.00  0.00    -0.306 N 
HETATM   24  C2  UNL     1      22.199  35.510 -10.867  1.00  0.00     0.219 C 
HETATM   25  C1  UNL     1      21.418  36.695 -10.463  1.00  0.00     0.117 C 
HETATM   26  O1  UNL     1      21.588  34.486 -11.259  1.00  0.00    -0.274 OA
ATOM     27  H1  UNL     1      24.165  35.845 -11.609  1.00  0.00     0.171 HD
ENDBRANCH  20  23
ENDBRANCH  15  16
ENDBRANCH  14  15
ENDBRANCH  13  14
ENDBRANCH  12  13
ENDBRANCH   1  12
BRANCH   9  28
HETATM   28  C12 UNL     1      20.086  40.573  -7.126  1.00  0.00     0.170 C 
HETATM   29  C13 UNL     1      20.753  41.932  -7.189  1.00  0.00     0.062 C 
HETATM   30 BR1  UNL     1      18.659  40.550  -8.447  1.00  0.00    -0.051 Br
BRANCH  28  31
HETATM   31  N7  UNL     1      19.565  40.368  -5.802  1.00  0.00    -0.321 N 
HETATM   32  C14 UNL     1      20.285  40.733  -4.642  1.00  0.00     0.316 C 
HETATM   33  O3  UNL     1      21.421  41.266  -4.625  1.00  0.00    -0.254 OA
HETATM   34 CL1  UNL     1      19.573  40.440  -3.047  1.00  0.00    -0.020 Cl
ATOM     35  H7  UNL     1      18.644  39.943  -5.696  1.00  0.00     0.165 HD
ENDBRANCH  28  31
ENDBRANCH   9  28
TORSDOF 8
ENDMDL
MODEL 5
REMARK VINA RESULT: -8.221930685      1.729      1.860
REMARK  8 active torsions:
REMARK  status: ('A' for Active; 'I' for Inactive)
REMARK       I    between atoms: C2_2  and  N1_4 
REMARK    1  A    between atoms: N1_4  and  C3_6 
REMARK    2  A    between atoms: C4_11  and  C5_12 
REMARK    3  A    between atoms: C5_12  and  C6_13 
REMARK    4  A    between atoms: C6_13  and  C7_14 
REMARK    5  A    between atoms: C7_14  and  C8_15 
REMARK    6  A    between atoms: C8_15  and  C9_16 
REMARK       I    between atoms: N6_22  and  C11_24 
REMARK    7  A    between atoms: C11_24  and  C12_26 
REMARK    8  A    between atoms: C12_26  and  N7_29 
REMARK       I    between atoms: N7_29  and  C14_31 
ROOT
HETATM    1  C9  UNL     1      23.876  36.242  -6.419  1.00  0.00     0.069 A 
HETATM    2  N4  UNL     1      22.737  35.576  -6.296  1.00  0.00    -0.296 N 
ATOM      3  H4  UNL     1      22.727  34.561  -6.397  1.00  0.00     0.187 HD
HETATM    4  N5  UNL     1      21.660  36.196  -6.054  1.00  0.00    -0.279 N 
ATOM      5  H5  UNL     1      20.780  35.689  -5.959  1.00  0.00     0.189 HD
HETATM    6  C10 UNL     1      21.695  37.526  -5.924  1.00  0.00     0.167 A 
HETATM    7  N6  UNL     1      20.687  38.332  -5.673  1.00  0.00    -0.303 N 
ATOM      8  H6  UNL     1      19.733  37.994  -5.548  1.00  0.00     0.171 HD
HETATM    9  C11 UNL     1      21.030  39.727  -5.589  1.00  0.00     0.263 C 
HETATM   10  O2  UNL     1      21.545  40.341  -6.545  1.00  0.00    -0.269 OA
HETATM   11  S1  UNL     1      23.358  37.851  -6.168  1.00  0.00    -0.038 SA
ENDROOT
BRANCH   1  12
HETATM   12  C8  UNL     1      25.255  35.695  -6.704  1.00  0.00     0.066 C 
BRANCH  12  13
HETATM   13  C7  UNL     1      25.067  34.699  -7.830  1.00  0.00     0.007 C 
BRANCH  13  14
HETATM   14  C6  UNL     1      24.706  35.355  -9.123  1.00  0.00     0.007 C 
BRANCH  14  15
HETATM   15  C5  UNL     1      23.553  34.613  -9.761  1.00  0.00     0.066 C 
BRANCH  15  16
HETATM   16  C4  UNL     1      23.058  35.350 -10.977  1.00  0.00     0.069 A 
HETATM   17  N3  UNL     1      23.731  35.729 -12.052  1.00  0.00    -0.296 N 
HETATM   18  N2  UNL     1      23.149  36.347 -12.992  1.00  0.00    -0.279 N 
ATOM     19  H3  UNL     1      24.727  35.521 -12.124  1.00  0.00     0.187 HD
HETATM   20  C3  UNL     1      21.843  36.607 -12.875  1.00  0.00     0.167 A 
ATOM     21  H2  UNL     1      23.665  36.639 -13.821  1.00  0.00     0.189 HD
HETATM   22  S2  UNL     1      21.487  35.923 -11.349  1.00  0.00    -0.038 SA
BRANCH  20  23
HETATM   23  N1  UNL     1      21.073  37.233 -13.740  1.00  0.00    -0.306 N 
HETATM   24  C2  UNL     1      19.693  37.378 -13.442  1.00  0.00     0.219 C 
HETATM   25  C1  UNL     1      19.145  38.588 -12.801  1.00  0.00     0.117 C 
HETATM   26  O1  UNL     1      18.913  36.440 -13.734  1.00  0.00    -0.274 OA
ATOM     27  H1  UNL     1      21.460  37.606 -14.607  1.00  0.00     0.171 HD
ENDBRANCH  20  23
ENDBRANCH  15  16
ENDBRANCH  14  15
ENDBRANCH  13  14
ENDBRANCH  12  13
ENDBRANCH   1  12
BRANCH   9  28
HETATM   28  C12 UNL     1      20.756  40.438  -4.324  1.00  0.00     0.170 C 
HETATM   29  C13 UNL     1      19.581  39.802  -3.609  1.00  0.00     0.062 C 
HETATM   30 BR1  UNL     1      22.307  40.295  -3.159  1.00  0.00    -0.051 Br
BRANCH  28  31
HETATM   31  N7  UNL     1      20.446  41.813  -4.602  1.00  0.00    -0.321 N 
HETATM   32  C14 UNL     1      19.802  42.649  -3.661  1.00  0.00     0.316 C 
HETATM   33  O3  UNL     1      19.441  42.308  -2.509  1.00  0.00    -0.254 OA
HETATM   34 CL1  UNL     1      19.451  44.332  -4.087  1.00  0.00    -0.020 Cl
ATOM     35  H7  UNL     1      20.698  42.200  -5.512  1.00  0.00     0.165 HD
ENDBRANCH  28  31
ENDBRANCH   9  28
TORSDOF 8
ENDMDL
