MODEL 1
REMARK VINA RESULT: -8.121194071      0.000      0.000
REMARK  8 active torsions:
REMARK  status: ('A' for Active; 'I' for Inactive)
REMARK    1  A    between atoms: N1_1  and  N2_4 
REMARK       I    between atoms: C1_6  and  N4_8 
REMARK       I    between atoms: N4_8  and  C2_10 
REMARK    2  A    between atoms: C2_10  and  C3_12 
REMARK    3  A    between atoms: C3_12  and  C4_13 
REMARK    4  A    between atoms: C4_13  and  S1_14 
REMARK    5  A    between atoms: S1_14  and  C5_15 
REMARK    6  A    between atoms: C5_15  and  C6_16 
REMARK    7  A    between atoms: N5_22  and  S2_24 
REMARK    8  A    between atoms: S2_24  and  C10_27 
ROOT
HETATM    1  C3  UNL     1      20.128  40.168  -6.604  1.00  0.00     0.097 C 
HETATM    2  N5  UNL     1      21.076  39.405  -6.307  1.00  0.00    -0.278 N 
ATOM      3  H5  UNL     1      21.303  38.716  -7.025  1.00  0.00     0.179 HD
ENDROOT
BRANCH   1   4
HETATM    4  C2  UNL     1      19.615  41.225  -5.758  1.00  0.00     0.271 C 
HETATM    5  N4  UNL     1      20.274  42.480  -5.666  1.00  0.00    -0.295 N 
HETATM    6  C1  UNL     1      19.781  43.517  -4.846  1.00  0.00     0.209 C 
ATOM      7  H4  UNL     1      21.126  42.635  -6.206  1.00  0.00     0.171 HD
HETATM    8  N2  UNL     1      20.363  44.667  -4.744  1.00  0.00    -0.280 N 
HETATM    9  N3  UNL     1      18.596  43.323  -4.092  1.00  0.00    -0.062 NA
ATOM     10  H2  UNL     1      21.219  44.832  -5.275  1.00  0.00     0.189 HD
HETATM   11  O1  UNL     1      18.554  41.050  -5.075  1.00  0.00    -0.266 OA
BRANCH   8  12
HETATM   12  N1  UNL     1      19.872  45.683  -3.941  1.00  0.00    -0.343 N 
ATOM     13  H12 UNL     1      19.254  46.371  -4.371  1.00  0.00     0.176 HD
ATOM     14  H11 UNL     1      20.106  45.763  -2.951  1.00  0.00     0.176 HD
ENDBRANCH   8  12
ENDBRANCH   1   4
BRANCH   1  15
HETATM   15  C4  UNL     1      19.476  39.966  -7.950  1.00  0.00     0.137 C 
BRANCH  15  16
HETATM   16  S1  UNL     1      20.621  39.214  -9.129  1.00  0.00    -0.156 SA
BRANCH  16  17
HETATM   17  C5  UNL     1      20.218  37.478  -9.437  1.00  0.00     0.139 C 
BRANCH  17  18
HETATM   18  C6  UNL     1      21.340  36.702  -9.973  1.00  0.00     0.063 A 
HETATM   19  C7  UNL     1      21.540  36.491 -11.341  1.00  0.00     0.037 A 
HETATM   20  C8  UNL     1      22.673  35.728 -11.493  1.00  0.00     0.048 A 
HETATM   21  C9  UNL     1      23.127  35.499 -10.213  1.00  0.00     0.121 A 
HETATM   22 BR1  UNL     1      24.667  34.505  -9.690  1.00  0.00    -0.023 Br
HETATM   23  O2  UNL     1      22.321  36.083  -9.369  1.00  0.00    -0.307 OA
ENDBRANCH  17  18
ENDBRANCH  16  17
ENDBRANCH  15  16
ENDBRANCH   1  15
BRANCH   2  24
HETATM   24  S2  UNL     1      22.044  39.317  -4.924  1.00  0.00     0.263 S 
HETATM   25  O3  UNL     1      21.287  38.921  -3.669  1.00  0.00    -0.200 OA
HETATM   26  O4  UNL     1      22.791  40.582  -4.611  1.00  0.00    -0.200 OA
BRANCH  24  27
HETATM   27  C10 UNL     1      23.212  38.000  -5.149  1.00  0.00     0.080 A 
HETATM   28  C11 UNL     1      23.910  37.480  -4.097  1.00  0.00     0.027 A 
HETATM   29  C12 UNL     1      24.832  36.456  -4.192  1.00  0.00     0.025 A 
HETATM   30  C13 UNL     1      25.045  35.936  -5.461  1.00  0.00     0.034 A 
HETATM   31 CL1  UNL     1      26.207  34.634  -5.633  1.00  0.00    -0.084 Cl
HETATM   32  C14 UNL     1      24.357  36.435  -6.556  1.00  0.00     0.025 A 
HETATM   33  C15 UNL     1      23.445  37.463  -6.399  1.00  0.00     0.027 A 
ENDBRANCH  24  27
ENDBRANCH   2  24
TORSDOF 8
ENDMDL
MODEL 2
REMARK VINA RESULT: -8.055465101      2.199      4.443
REMARK  8 active torsions:
REMARK  status: ('A' for Active; 'I' for Inactive)
REMARK    1  A    between atoms: N1_1  and  N2_4 
REMARK       I    between atoms: C1_6  and  N4_8 
REMARK       I    between atoms: N4_8  and  C2_10 
REMARK    2  A    between atoms: C2_10  and  C3_12 
REMARK    3  A    between atoms: C3_12  and  C4_13 
REMARK    4  A    between atoms: C4_13  and  S1_14 
REMARK    5  A    between atoms: S1_14  and  C5_15 
REMARK    6  A    between atoms: C5_15  and  C6_16 
REMARK    7  A    between atoms: N5_22  and  S2_24 
REMARK    8  A    between atoms: S2_24  and  C10_27 
ROOT
HETATM    1  C3  UNL     1      20.431  39.582  -5.179  1.00  0.00     0.097 C 
HETATM    2  N5  UNL     1      20.544  39.160  -6.353  1.00  0.00    -0.278 N 
ATOM      3  H5  UNL     1      21.018  38.260  -6.432  1.00  0.00     0.179 HD
ENDROOT
BRANCH   1   4
HETATM    4  C2  UNL     1      19.801  40.831  -4.802  1.00  0.00     0.271 C 
HETATM    5  N4  UNL     1      20.420  42.080  -5.075  1.00  0.00    -0.295 N 
HETATM    6  C1  UNL     1      19.813  43.302  -4.713  1.00  0.00     0.209 C 
ATOM      7  H4  UNL     1      21.326  42.094  -5.544  1.00  0.00     0.171 HD
HETATM    8  N2  UNL     1      20.357  44.451  -4.949  1.00  0.00    -0.280 N 
HETATM    9  N3  UNL     1      18.552  43.303  -4.065  1.00  0.00    -0.062 NA
ATOM     10  H2  UNL     1      21.265  44.478  -5.413  1.00  0.00     0.189 HD
HETATM   11  O1  UNL     1      18.671  40.834  -4.214  1.00  0.00    -0.266 OA
BRANCH   8  12
HETATM   12  N1  UNL     1      19.755  45.647  -4.595  1.00  0.00    -0.343 N 
ATOM     13  H12 UNL     1      18.983  45.611  -3.930  1.00  0.00     0.176 HD
ATOM     14  H11 UNL     1      20.055  46.546  -4.973  1.00  0.00     0.176 HD
ENDBRANCH   8  12
ENDBRANCH   1   4
BRANCH   1  15
HETATM   15  C4  UNL     1      20.995  38.719  -4.078  1.00  0.00     0.137 C 
BRANCH  15  16
HETATM   16  S1  UNL     1      21.831  37.264  -4.746  1.00  0.00    -0.156 SA
BRANCH  16  17
HETATM   17  C5  UNL     1      23.574  37.598  -5.099  1.00  0.00     0.139 C 
BRANCH  17  18
HETATM   18  C6  UNL     1      24.202  36.589  -5.957  1.00  0.00     0.063 A 
HETATM   19  C7  UNL     1      25.170  35.689  -5.498  1.00  0.00     0.037 A 
HETATM   20  C8  UNL     1      25.543  34.890  -6.553  1.00  0.00     0.048 A 
HETATM   21  C9  UNL     1      24.791  35.329  -7.620  1.00  0.00     0.121 A 
HETATM   22 BR1  UNL     1      24.807  34.656  -9.403  1.00  0.00    -0.023 Br
HETATM   23  O2  UNL     1      24.031  36.314  -7.224  1.00  0.00    -0.307 OA
ENDBRANCH  17  18
ENDBRANCH  16  17
ENDBRANCH  15  16
ENDBRANCH   1  15
BRANCH   2  24
HETATM   24  S2  UNL     1      20.049  39.820  -7.828  1.00  0.00     0.263 S 
HETATM   25  O3  UNL     1      20.795  41.084  -8.216  1.00  0.00    -0.200 OA
HETATM   26  O4  UNL     1      18.581  40.132  -7.904  1.00  0.00    -0.200 OA
BRANCH  24  27
HETATM   27  C10 UNL     1      20.461  38.671  -9.116  1.00  0.00     0.080 A 
HETATM   28  C11 UNL     1      21.085  37.488  -8.842  1.00  0.00     0.027 A 
HETATM   29  C12 UNL     1      21.435  36.544  -9.788  1.00  0.00     0.025 A 
HETATM   30  C13 UNL     1      21.118  36.847 -11.105  1.00  0.00     0.034 A 
HETATM   31 CL1  UNL     1      21.542  35.679 -12.343  1.00  0.00    -0.084 Cl
HETATM   32  C14 UNL     1      20.484  38.037 -11.426  1.00  0.00     0.025 A 
HETATM   33  C15 UNL     1      20.158  38.945 -10.434  1.00  0.00     0.027 A 
ENDBRANCH  24  27
ENDBRANCH   2  24
TORSDOF 8
ENDMDL
MODEL 3
REMARK VINA RESULT: -8.030873971      1.610      1.740
REMARK  8 active torsions:
REMARK  status: ('A' for Active; 'I' for Inactive)
REMARK    1  A    between atoms: N1_1  and  N2_4 
REMARK       I    between atoms: C1_6  and  N4_8 
REMARK       I    between atoms: N4_8  and  C2_10 
REMARK    2  A    between atoms: C2_10  and  C3_12 
REMARK    3  A    between atoms: C3_12  and  C4_13 
REMARK    4  A    between atoms: C4_13  and  S1_14 
REMARK    5  A    between atoms: S1_14  and  C5_15 
REMARK    6  A    between atoms: C5_15  and  C6_16 
REMARK    7  A    between atoms: N5_22  and  S2_24 
REMARK    8  A    between atoms: S2_24  and  C10_27 
ROOT
HETATM    1  C3  UNL     1      20.073  40.188  -6.516  1.00  0.00     0.097 C 
HETATM    2  N5  UNL     1      21.052  39.443  -6.283  1.00  0.00    -0.278 N 
ATOM      3  H5  UNL     1      21.241  38.755  -7.012  1.00  0.00     0.179 HD
ENDROOT
BRANCH   1   4
HETATM    4  C2  UNL     1      19.601  41.240  -5.639  1.00  0.00     0.271 C 
HETATM    5  N4  UNL     1      20.251  42.502  -5.589  1.00  0.00    -0.295 N 
HETATM    6  C1  UNL     1      19.798  43.535  -4.740  1.00  0.00     0.209 C 
ATOM      7  H4  UNL     1      21.065  42.667  -6.181  1.00  0.00     0.171 HD
HETATM    8  N2  UNL     1      20.372  44.691  -4.675  1.00  0.00    -0.280 N 
HETATM    9  N3  UNL     1      18.664  43.328  -3.913  1.00  0.00    -0.062 NA
ATOM     10  H2  UNL     1      21.191  44.866  -5.259  1.00  0.00     0.189 HD
HETATM   11  O1  UNL     1      18.587  41.054  -4.891  1.00  0.00    -0.266 OA
BRANCH   8  12
HETATM   12  N1  UNL     1      19.921  45.703  -3.843  1.00  0.00    -0.343 N 
ATOM     13  H12 UNL     1      19.112  46.242  -4.150  1.00  0.00     0.176 HD
ATOM     14  H11 UNL     1      20.365  45.920  -2.951  1.00  0.00     0.176 HD
ENDBRANCH   8  12
ENDBRANCH   1   4
BRANCH   1  15
HETATM   15  C4  UNL     1      19.332  39.968  -7.812  1.00  0.00     0.137 C 
BRANCH  15  16
HETATM   16  S1  UNL     1      20.450  39.428  -9.125  1.00  0.00    -0.156 SA
BRANCH  16  17
HETATM   17  C5  UNL     1      20.583  37.625  -9.189  1.00  0.00     0.139 C 
BRANCH  17  18
HETATM   18  C6  UNL     1      20.665  37.092 -10.552  1.00  0.00     0.063 A 
HETATM   19  C7  UNL     1      21.552  36.076 -10.925  1.00  0.00     0.037 A 
HETATM   20  C8  UNL     1      21.368  35.820 -12.262  1.00  0.00     0.048 A 
HETATM   21  C9  UNL     1      20.374  36.687 -12.661  1.00  0.00     0.121 A 
HETATM   22 BR1  UNL     1      19.624  36.865 -14.404  1.00  0.00    -0.023 Br
HETATM   23  O2  UNL     1      20.001  37.402 -11.635  1.00  0.00    -0.307 OA
ENDBRANCH  17  18
ENDBRANCH  16  17
ENDBRANCH  15  16
ENDBRANCH   1  15
BRANCH   2  24
HETATM   24  S2  UNL     1      22.116  39.378  -4.971  1.00  0.00     0.263 S 
HETATM   25  O3  UNL     1      21.444  39.047  -3.651  1.00  0.00    -0.200 OA
HETATM   26  O4  UNL     1      22.913  40.634  -4.759  1.00  0.00    -0.200 OA
BRANCH  24  27
HETATM   27  C10 UNL     1      23.234  38.024  -5.230  1.00  0.00     0.080 A 
HETATM   28  C11 UNL     1      24.033  37.558  -4.226  1.00  0.00     0.027 A 
HETATM   29  C12 UNL     1      24.924  36.510  -4.350  1.00  0.00     0.025 A 
HETATM   30  C13 UNL     1      24.992  35.905  -5.597  1.00  0.00     0.034 A 
HETATM   31 CL1  UNL     1      26.109  34.570  -5.805  1.00  0.00    -0.084 Cl
HETATM   32  C14 UNL     1      24.198  36.348  -6.644  1.00  0.00     0.025 A 
HETATM   33  C15 UNL     1      23.323  37.404  -6.459  1.00  0.00     0.027 A 
ENDBRANCH  24  27
ENDBRANCH   2  24
TORSDOF 8
ENDMDL
MODEL 4
REMARK VINA RESULT: -8.027502895      2.495      4.505
REMARK  8 active torsions:
REMARK  status: ('A' for Active; 'I' for Inactive)
REMARK    1  A    between atoms: N1_1  and  N2_4 
REMARK       I    between atoms: C1_6  and  N4_8 
REMARK       I    between atoms: N4_8  and  C2_10 
REMARK    2  A    between atoms: C2_10  and  C3_12 
REMARK    3  A    between atoms: C3_12  and  C4_13 
REMARK    4  A    between atoms: C4_13  and  S1_14 
REMARK    5  A    between atoms: S1_14  and  C5_15 
REMARK    6  A    between atoms: C5_15  and  C6_16 
REMARK    7  A    between atoms: N5_22  and  S2_24 
REMARK    8  A    between atoms: S2_24  and  C10_27 
ROOT
HETATM    1  C3  UNL     1      20.029  39.882  -5.343  1.00  0.00     0.097 C 
HETATM    2  N5  UNL     1      20.185  39.418  -6.495  1.00  0.00    -0.278 N 
ATOM      3  H5  UNL     1      20.597  38.485  -6.520  1.00  0.00     0.179 HD
ENDROOT
BRANCH   1   4
HETATM    4  C2  UNL     1      19.467  41.182  -5.039  1.00  0.00     0.271 C 
HETATM    5  N4  UNL     1      20.246  42.365  -5.146  1.00  0.00    -0.295 N 
HETATM    6  C1  UNL     1      19.708  43.636  -4.855  1.00  0.00     0.209 C 
ATOM      7  H4  UNL     1      21.220  42.293  -5.442  1.00  0.00     0.171 HD
HETATM    8  N2  UNL     1      20.397  44.726  -4.943  1.00  0.00    -0.280 N 
HETATM    9  N3  UNL     1      18.355  43.757  -4.447  1.00  0.00    -0.062 NA
ATOM     10  H2  UNL     1      21.373  44.667  -5.233  1.00  0.00     0.189 HD
HETATM   11  O1  UNL     1      18.253  41.292  -4.667  1.00  0.00    -0.266 OA
BRANCH   8  12
HETATM   12  N1  UNL     1      19.862  45.972  -4.660  1.00  0.00    -0.343 N 
ATOM     13  H12 UNL     1      18.866  46.023  -4.445  1.00  0.00     0.176 HD
ATOM     14  H11 UNL     1      20.423  46.824  -4.659  1.00  0.00     0.176 HD
ENDBRANCH   8  12
ENDBRANCH   1   4
BRANCH   1  15
HETATM   15  C4  UNL     1      20.459  39.015  -4.185  1.00  0.00     0.137 C 
BRANCH  15  16
HETATM   16  S1  UNL     1      21.383  37.571  -4.754  1.00  0.00    -0.156 SA
BRANCH  16  17
HETATM   17  C5  UNL     1      23.126  37.963  -5.041  1.00  0.00     0.139 C 
BRANCH  17  18
HETATM   18  C6  UNL     1      23.852  36.913  -5.761  1.00  0.00     0.063 A 
HETATM   19  C7  UNL     1      24.041  36.925  -7.147  1.00  0.00     0.037 A 
HETATM   20  C8  UNL     1      24.755  35.802  -7.490  1.00  0.00     0.048 A 
HETATM   21  C9  UNL     1      24.979  35.142  -6.302  1.00  0.00     0.121 A 
HETATM   22 BR1  UNL     1      25.917  33.502  -6.047  1.00  0.00    -0.023 Br
HETATM   23  O2  UNL     1      24.436  35.825  -5.331  1.00  0.00    -0.307 OA
ENDBRANCH  17  18
ENDBRANCH  16  17
ENDBRANCH  15  16
ENDBRANCH   1  15
BRANCH   2  24
HETATM   24  S2  UNL     1      19.832  40.067  -8.015  1.00  0.00     0.263 S 
HETATM   25  O3  UNL     1      20.673  41.279  -8.375  1.00  0.00    -0.200 OA
HETATM   26  O4  UNL     1      18.393  40.454  -8.203  1.00  0.00    -0.200 OA
BRANCH  24  27
HETATM   27  C10 UNL     1      20.270  38.866  -9.246  1.00  0.00     0.080 A 
HETATM   28  C11 UNL     1      20.877  37.690  -8.909  1.00  0.00     0.027 A 
HETATM   29  C12 UNL     1      21.245  36.708  -9.808  1.00  0.00     0.025 A 
HETATM   30  C13 UNL     1      20.967  36.960 -11.143  1.00  0.00     0.034 A 
HETATM   31 CL1  UNL     1      21.415  35.743 -12.324  1.00  0.00    -0.084 Cl
HETATM   32  C14 UNL     1      20.351  38.142 -11.528  1.00  0.00     0.025 A 
HETATM   33  C15 UNL     1      20.006  39.090 -10.581  1.00  0.00     0.027 A 
ENDBRANCH  24  27
ENDBRANCH   2  24
TORSDOF 8
ENDMDL
MODEL 5
REMARK VINA RESULT: -7.992647971      2.341      2.738
REMARK  8 active torsions:
REMARK  status: ('A' for Active; 'I' for Inactive)
REMARK    1  A    between atoms: N1_1  and  N2_4 
REMARK       I    between atoms: C1_6  and  N4_8 
REMARK       I    between atoms: N4_8  and  C2_10 
REMARK    2  A    between atoms: C2_10  and  C3_12 
REMARK    3  A    between atoms: C3_12  and  C4_13 
REMARK    4  A    between atoms: C4_13  and  S1_14 
REMARK    5  A    between atoms: S1_14  and  C5_15 
REMARK    6  A    between atoms: C5_15  and  C6_16 
REMARK    7  A    between atoms: N5_22  and  S2_24 
REMARK    8  A    between atoms: S2_24  and  C10_27 
ROOT
HETATM    1  C3  UNL     1      21.804  39.991  -6.308  1.00  0.00     0.097 C 
HETATM    2  N5  UNL     1      22.597  39.038  -6.133  1.00  0.00    -0.278 N 
ATOM      3  H5  UNL     1      23.130  38.776  -6.963  1.00  0.00     0.179 HD
ENDROOT
BRANCH   1   4
HETATM    4  C2  UNL     1      20.936  40.549  -5.292  1.00  0.00     0.271 C 
HETATM    5  N4  UNL     1      21.354  40.641  -3.937  1.00  0.00    -0.295 N 
HETATM    6  C1  UNL     1      20.517  41.185  -2.939  1.00  0.00     0.209 C 
ATOM      7  H4  UNL     1      22.282  40.305  -3.679  1.00  0.00     0.171 HD
HETATM    8  N2  UNL     1      20.873  41.277  -1.700  1.00  0.00    -0.280 N 
HETATM    9  N3  UNL     1      19.225  41.661  -3.279  1.00  0.00    -0.062 NA
ATOM     10  H2  UNL     1      21.797  40.940  -1.429  1.00  0.00     0.189 HD
HETATM   11  O1  UNL     1      19.773  40.972  -5.594  1.00  0.00    -0.266 OA
BRANCH   8  12
HETATM   12  N1  UNL     1      20.049  41.816  -0.725  1.00  0.00    -0.343 N 
ATOM     13  H12 UNL     1      20.490  42.337   0.033  1.00  0.00     0.176 HD
ATOM     14  H11 UNL     1      19.035  41.710  -0.743  1.00  0.00     0.176 HD
ENDBRANCH   8  12
ENDBRANCH   1   4
BRANCH   1  15
HETATM   15  C4  UNL     1      21.753  40.602  -7.687  1.00  0.00     0.137 C 
BRANCH  15  16
HETATM   16  S1  UNL     1      20.614  39.703  -8.764  1.00  0.00    -0.156 SA
BRANCH  16  17
HETATM   17  C5  UNL     1      20.941  37.924  -8.745  1.00  0.00     0.139 C 
BRANCH  17  18
HETATM   18  C6  UNL     1      20.845  37.296 -10.066  1.00  0.00     0.063 A 
HETATM   19  C7  UNL     1      21.582  36.165 -10.432  1.00  0.00     0.037 A 
HETATM   20  C8  UNL     1      21.254  35.844 -11.728  1.00  0.00     0.048 A 
HETATM   21  C9  UNL     1      20.328  36.790 -12.109  1.00  0.00     0.121 A 
HETATM   22 BR1  UNL     1      19.451  36.937 -13.795  1.00  0.00    -0.023 Br
HETATM   23  O2  UNL     1      20.126  37.608 -11.113  1.00  0.00    -0.307 OA
ENDBRANCH  17  18
ENDBRANCH  16  17
ENDBRANCH  15  16
ENDBRANCH   1  15
BRANCH   2  24
HETATM   24  S2  UNL     1      22.938  38.110  -4.762  1.00  0.00     0.263 S 
HETATM   25  O3  UNL     1      21.708  37.509  -4.105  1.00  0.00    -0.200 OA
HETATM   26  O4  UNL     1      23.698  38.843  -3.693  1.00  0.00    -0.200 OA
BRANCH  24  27
HETATM   27  C10 UNL     1      23.881  36.695  -5.272  1.00  0.00     0.080 A 
HETATM   28  C11 UNL     1      23.673  36.098  -6.482  1.00  0.00     0.027 A 
HETATM   29  C12 UNL     1      24.367  34.999  -6.948  1.00  0.00     0.025 A 
HETATM   30  C13 UNL     1      25.340  34.483  -6.104  1.00  0.00     0.034 A 
HETATM   31 CL1  UNL     1      26.249  33.086  -6.651  1.00  0.00    -0.084 Cl
HETATM   32  C14 UNL     1      25.584  35.059  -4.867  1.00  0.00     0.025 A 
HETATM   33  C15 UNL     1      24.856  36.161  -4.454  1.00  0.00     0.027 A 
ENDBRANCH  24  27
ENDBRANCH   2  24
TORSDOF 8
ENDMDL
