MODEL 1
REMARK VINA RESULT: -7.505767383      0.000      0.000
REMARK  8 active torsions:
REMARK  status: ('A' for Active; 'I' for Inactive)
REMARK    1  A    between atoms: C1_2  and  C2_4 
REMARK    2  A    between atoms: C8_13  and  C9_14 
REMARK    3  A    between atoms: C9_14  and  O3_15 
REMARK    4  A    between atoms: C9_14  and  N2_17 
REMARK    5  A    between atoms: N2_17  and  C10_19 
REMARK    6  A    between atoms: C10_19  and  C11_20 
REMARK    7  A    between atoms: N3_25  and  S1_26 
REMARK    8  A    between atoms: S1_26  and  C15_29 
ROOT
HETATM    1  C2  UNL     1      19.439  41.447  -7.673  1.00  0.00     0.292 C 
HETATM    2  N1  UNL     1      19.873  41.333  -6.312  1.00  0.00    -0.056 N 
ATOM      3  H11 UNL     1      19.683  40.469  -5.804  1.00  0.00     0.278 HD
ATOM      4  H12 UNL     1      19.400  41.884  -5.595  1.00  0.00     0.278 HD
HETATM    5  C3  UNL     1      21.208  41.649  -6.649  1.00  0.00     0.196 C 
HETATM    6  C4  UNL     1      22.219  40.631  -6.124  1.00  0.00     0.060 C 
HETATM    7  C5  UNL     1      22.468  39.631  -7.174  1.00  0.00     0.106 C 
HETATM    8  C6  UNL     1      21.470  39.976  -8.338  1.00  0.00     0.049 C 
HETATM    9  C7  UNL     1      20.911  41.290  -8.064  1.00  0.00     0.066 C 
HETATM   10  C8  UNL     1      20.736  38.752  -7.997  1.00  0.00     0.177 C 
HETATM   11  N3  UNL     1      21.911  38.411  -7.160  1.00  0.00    -0.288 N 
ENDROOT
BRANCH  10  12
HETATM   12  C9  UNL     1      20.544  37.720  -9.020  1.00  0.00     0.140 C 
BRANCH  12  13
HETATM   13  O3  UNL     1      19.899  36.636  -8.662  1.00  0.00    -0.348 OA
ATOM     14  H3  UNL     1      19.360  36.215  -9.321  1.00  0.00     0.219 HD
ENDBRANCH  12  13
BRANCH  12  15
HETATM   15  N2  UNL     1      20.966  37.813 -10.316  1.00  0.00    -0.346 N 
ATOM     16  H2  UNL     1      21.881  38.242 -10.182  1.00  0.00     0.167 HD
BRANCH  15  17
HETATM   17  C10 UNL     1      20.944  37.699 -11.673  1.00  0.00     0.127 C 
BRANCH  17  18
HETATM   18  C11 UNL     1      22.084  37.296 -12.491  1.00  0.00     0.090 A 
HETATM   19  C12 UNL     1      22.856  36.148 -12.249  1.00  0.00     0.040 A 
HETATM   20  C13 UNL     1      23.833  36.137 -13.220  1.00  0.00     0.027 A 
HETATM   21  C14 UNL     1      23.584  37.271 -13.973  1.00  0.00     0.142 A 
HETATM   22  O4  UNL     1      22.572  37.924 -13.541  1.00  0.00    -0.321 OA
ENDBRANCH  17  18
ENDBRANCH  15  17
ENDBRANCH  12  15
ENDBRANCH  10  12
BRANCH  11  23
HETATM   23  S1  UNL     1      22.475  36.896  -7.052  1.00  0.00     0.265 S 
HETATM   24  O5  UNL     1      22.871  36.310  -8.457  1.00  0.00    -0.200 OA
HETATM   25  O6  UNL     1      21.519  35.835  -6.532  1.00  0.00    -0.200 OA
BRANCH  23  26
HETATM   26  C15 UNL     1      23.960  36.687  -6.105  1.00  0.00     0.123 A 
HETATM   27  C16 UNL     1      25.057  36.053  -6.624  1.00  0.00     0.059 A 
HETATM   28 CL1  UNL     1      25.093  35.484  -8.271  1.00  0.00    -0.083 Cl
HETATM   29  C17 UNL     1      26.167  35.824  -5.841  1.00  0.00     0.025 A 
HETATM   30  C18 UNL     1      26.211  36.238  -4.497  1.00  0.00     0.003 A 
HETATM   31  C19 UNL     1      25.103  36.867  -3.984  1.00  0.00     0.025 A 
HETATM   32  C20 UNL     1      24.010  37.073  -4.807  1.00  0.00     0.059 A 
HETATM   33 CL2  UNL     1      22.603  37.886  -4.083  1.00  0.00    -0.083 Cl
ENDBRANCH  23  26
ENDBRANCH  11  23
BRANCH   1  34
HETATM   34  C1  UNL     1      19.092  42.879  -7.967  1.00  0.00     0.205 C 
HETATM   35  O1  UNL     1      18.337  43.539  -7.227  1.00  0.00    -0.646 OA
HETATM   36  O2  UNL     1      19.616  43.506  -9.118  1.00  0.00    -0.646 OA
ENDBRANCH   1  34
TORSDOF 8
ENDMDL
MODEL 2
REMARK VINA RESULT: -7.475945676      2.763      6.185
REMARK  8 active torsions:
REMARK  status: ('A' for Active; 'I' for Inactive)
REMARK    1  A    between atoms: C1_2  and  C2_4 
REMARK    2  A    between atoms: C8_13  and  C9_14 
REMARK    3  A    between atoms: C9_14  and  O3_15 
REMARK    4  A    between atoms: C9_14  and  N2_17 
REMARK    5  A    between atoms: N2_17  and  C10_19 
REMARK    6  A    between atoms: C10_19  and  C11_20 
REMARK    7  A    between atoms: N3_25  and  S1_26 
REMARK    8  A    between atoms: S1_26  and  C15_29 
ROOT
HETATM    1  C2  UNL     1      24.706  35.107  -8.522  1.00  0.00     0.292 C 
HETATM    2  N1  UNL     1      25.661  36.075  -8.072  1.00  0.00    -0.056 N 
ATOM      3  H11 UNL     1      25.433  37.066  -8.147  1.00  0.00     0.278 HD
ATOM      4  H12 UNL     1      26.518  36.209  -8.609  1.00  0.00     0.278 HD
HETATM    5  C3  UNL     1      25.742  35.487  -6.790  1.00  0.00     0.196 C 
HETATM    6  C4  UNL     1      25.525  36.486  -5.654  1.00  0.00     0.060 C 
HETATM    7  C5  UNL     1      24.101  36.472  -5.281  1.00  0.00     0.106 C 
HETATM    8  C6  UNL     1      23.397  35.525  -6.320  1.00  0.00     0.049 C 
HETATM    9  C7  UNL     1      24.438  34.812  -7.043  1.00  0.00     0.066 C 
HETATM   10  C8  UNL     1      22.756  36.717  -6.889  1.00  0.00     0.177 C 
HETATM   11  N3  UNL     1      23.239  37.421  -5.677  1.00  0.00    -0.288 N 
ENDROOT
BRANCH  10  12
HETATM   12  C9  UNL     1      21.294  36.787  -6.950  1.00  0.00     0.140 C 
BRANCH  12  13
HETATM   13  O3  UNL     1      20.631  36.355  -5.904  1.00  0.00    -0.348 OA
ATOM     14  H3  UNL     1      21.126  36.211  -5.107  1.00  0.00     0.219 HD
ENDBRANCH  12  13
BRANCH  12  15
HETATM   15  N2  UNL     1      20.576  37.287  -7.999  1.00  0.00    -0.346 N 
ATOM     16  H2  UNL     1      19.656  37.375  -7.567  1.00  0.00     0.167 HD
BRANCH  15  17
HETATM   17  C10 UNL     1      20.305  37.744  -9.253  1.00  0.00     0.127 C 
BRANCH  17  18
HETATM   18  C11 UNL     1      20.630  37.032 -10.485  1.00  0.00     0.090 A 
HETATM   19  C12 UNL     1      21.611  36.032 -10.576  1.00  0.00     0.040 A 
HETATM   20  C13 UNL     1      21.622  35.632 -11.894  1.00  0.00     0.027 A 
HETATM   21  C14 UNL     1      20.654  36.413 -12.500  1.00  0.00     0.142 A 
HETATM   22  O4  UNL     1      20.091  37.211 -11.674  1.00  0.00    -0.321 OA
ENDBRANCH  17  18
ENDBRANCH  15  17
ENDBRANCH  12  15
ENDBRANCH  10  12
BRANCH  11  23
HETATM   23  S1  UNL     1      22.343  38.539  -4.922  1.00  0.00     0.265 S 
HETATM   24  O5  UNL     1      23.219  39.512  -4.051  1.00  0.00    -0.200 OA
HETATM   25  O6  UNL     1      21.327  38.045  -3.906  1.00  0.00    -0.200 OA
BRANCH  23  26
HETATM   26  C15 UNL     1      21.445  39.651  -5.973  1.00  0.00     0.123 A 
HETATM   27  C16 UNL     1      20.109  39.888  -5.790  1.00  0.00     0.059 A 
HETATM   28 CL1  UNL     1      19.225  39.176  -4.467  1.00  0.00    -0.083 Cl
HETATM   29  C17 UNL     1      19.414  40.687  -6.671  1.00  0.00     0.025 A 
HETATM   30  C18 UNL     1      20.052  41.285  -7.773  1.00  0.00     0.003 A 
HETATM   31  C19 UNL     1      21.391  41.036  -7.952  1.00  0.00     0.025 A 
HETATM   32  C20 UNL     1      22.047  40.225  -7.042  1.00  0.00     0.059 A 
HETATM   33 CL2  UNL     1      23.778  39.934  -7.331  1.00  0.00    -0.083 Cl
ENDBRANCH  23  26
ENDBRANCH  11  23
BRANCH   1  34
HETATM   34  C1  UNL     1      25.428  33.901  -9.051  1.00  0.00     0.205 C 
HETATM   35  O1  UNL     1      25.892  33.867 -10.207  1.00  0.00    -0.646 OA
HETATM   36  O2  UNL     1      25.582  32.760  -8.234  1.00  0.00    -0.646 OA
ENDBRANCH   1  34
TORSDOF 8
ENDMDL
MODEL 3
REMARK VINA RESULT: -7.403422254      2.639      5.763
REMARK  8 active torsions:
REMARK  status: ('A' for Active; 'I' for Inactive)
REMARK    1  A    between atoms: C1_2  and  C2_4 
REMARK    2  A    between atoms: C8_13  and  C9_14 
REMARK    3  A    between atoms: C9_14  and  O3_15 
REMARK    4  A    between atoms: C9_14  and  N2_17 
REMARK    5  A    between atoms: N2_17  and  C10_19 
REMARK    6  A    between atoms: C10_19  and  C11_20 
REMARK    7  A    between atoms: N3_25  and  S1_26 
REMARK    8  A    between atoms: S1_26  and  C15_29 
ROOT
HETATM    1  C2  UNL     1      20.782  41.122  -7.503  1.00  0.00     0.292 C 
HETATM    2  N1  UNL     1      20.935  41.904  -8.692  1.00  0.00    -0.056 N 
ATOM      3  H11 UNL     1      21.620  41.614  -9.390  1.00  0.00     0.278 HD
ATOM      4  H12 UNL     1      21.364  42.827  -8.624  1.00  0.00     0.278 HD
HETATM    5  C3  UNL     1      19.560  41.811  -9.003  1.00  0.00     0.196 C 
HETATM    6  C4  UNL     1      19.296  41.321 -10.427  1.00  0.00     0.060 C 
HETATM    7  C5  UNL     1      19.120  39.860 -10.397  1.00  0.00     0.106 C 
HETATM    8  C6  UNL     1      19.420  39.424  -8.917  1.00  0.00     0.049 C 
HETATM    9  C7  UNL     1      19.462  40.628  -8.102  1.00  0.00     0.066 C 
HETATM   10  C8  UNL     1      20.652  38.797  -9.409  1.00  0.00     0.177 C 
HETATM   11  N3  UNL     1      20.086  39.005 -10.764  1.00  0.00    -0.288 N 
ENDROOT
BRANCH  10  12
HETATM   12  C9  UNL     1      20.872  37.366  -9.182  1.00  0.00     0.140 C 
BRANCH  12  13
HETATM   13  O3  UNL     1      19.821  36.640  -8.888  1.00  0.00    -0.348 OA
ATOM     14  H3  UNL     1      18.968  37.026  -9.049  1.00  0.00     0.219 HD
ENDBRANCH  12  13
BRANCH  12  15
HETATM   15  N2  UNL     1      22.079  36.734  -9.276  1.00  0.00    -0.346 N 
ATOM     16  H2  UNL     1      22.478  37.218 -10.080  1.00  0.00     0.167 HD
BRANCH  15  17
HETATM   17  C10 UNL     1      23.089  35.870  -8.982  1.00  0.00     0.127 C 
BRANCH  17  18
HETATM   18  C11 UNL     1      23.876  35.900  -7.753  1.00  0.00     0.090 A 
HETATM   19  C12 UNL     1      24.889  34.976  -7.448  1.00  0.00     0.040 A 
HETATM   20  C13 UNL     1      25.367  35.334  -6.207  1.00  0.00     0.027 A 
HETATM   21  C14 UNL     1      24.613  36.439  -5.852  1.00  0.00     0.142 A 
HETATM   22  O4  UNL     1      23.763  36.753  -6.755  1.00  0.00    -0.321 OA
ENDBRANCH  17  18
ENDBRANCH  15  17
ENDBRANCH  12  15
ENDBRANCH  10  12
BRANCH  11  23
HETATM   23  S1  UNL     1      20.255  37.906 -11.940  1.00  0.00     0.265 S 
HETATM   24  O5  UNL     1      19.206  38.107 -13.095  1.00  0.00    -0.200 OA
HETATM   25  O6  UNL     1      20.029  36.450 -11.568  1.00  0.00    -0.200 OA
BRANCH  23  26
HETATM   26  C15 UNL     1      21.802  37.928 -12.807  1.00  0.00     0.123 A 
HETATM   27  C16 UNL     1      22.267  39.064 -13.414  1.00  0.00     0.059 A 
HETATM   28 CL1  UNL     1      21.410  40.578 -13.304  1.00  0.00    -0.083 Cl
HETATM   29  C17 UNL     1      23.428  39.035 -14.156  1.00  0.00     0.025 A 
HETATM   30  C18 UNL     1      24.169  37.849 -14.306  1.00  0.00     0.003 A 
HETATM   31  C19 UNL     1      23.691  36.713 -13.700  1.00  0.00     0.025 A 
HETATM   32  C20 UNL     1      22.520  36.790 -12.966  1.00  0.00     0.059 A 
HETATM   33 CL2  UNL     1      21.947  35.284 -12.211  1.00  0.00    -0.083 Cl
ENDBRANCH  23  26
ENDBRANCH  11  23
BRANCH   1  34
HETATM   34  C1  UNL     1      20.398  42.020  -6.361  1.00  0.00     0.205 C 
HETATM   35  O1  UNL     1      19.595  41.657  -5.480  1.00  0.00    -0.646 OA
HETATM   36  O2  UNL     1      20.943  43.319  -6.277  1.00  0.00    -0.646 OA
ENDBRANCH   1  34
TORSDOF 8
ENDMDL
MODEL 4
REMARK VINA RESULT: -7.360271614      3.139      7.668
REMARK  8 active torsions:
REMARK  status: ('A' for Active; 'I' for Inactive)
REMARK    1  A    between atoms: C1_2  and  C2_4 
REMARK    2  A    between atoms: C8_13  and  C9_14 
REMARK    3  A    between atoms: C9_14  and  O3_15 
REMARK    4  A    between atoms: C9_14  and  N2_17 
REMARK    5  A    between atoms: N2_17  and  C10_19 
REMARK    6  A    between atoms: C10_19  and  C11_20 
REMARK    7  A    between atoms: N3_25  and  S1_26 
REMARK    8  A    between atoms: S1_26  and  C15_29 
ROOT
HETATM    1  C2  UNL     1      23.545  36.555  -4.209  1.00  0.00     0.292 C 
HETATM    2  N1  UNL     1      23.633  36.127  -5.573  1.00  0.00    -0.056 N 
ATOM      3  H11 UNL     1      22.773  35.959  -6.094  1.00  0.00     0.278 HD
ATOM      4  H12 UNL     1      23.966  35.184  -5.774  1.00  0.00     0.278 HD
HETATM    5  C3  UNL     1      24.443  37.229  -5.928  1.00  0.00     0.196 C 
HETATM    6  C4  UNL     1      23.913  38.003  -7.136  1.00  0.00     0.060 C 
HETATM    7  C5  UNL     1      23.074  39.111  -6.653  1.00  0.00     0.106 C 
HETATM    8  C6  UNL     1      22.979  38.928  -5.095  1.00  0.00     0.049 C 
HETATM    9  C7  UNL     1      23.972  37.939  -4.706  1.00  0.00     0.066 C 
HETATM   10  C8  UNL     1      21.571  38.558  -5.279  1.00  0.00     0.177 C 
HETATM   11  N3  UNL     1      21.733  39.063  -6.664  1.00  0.00    -0.288 N 
ENDROOT
BRANCH  10  12
HETATM   12  C9  UNL     1      20.530  39.329  -4.593  1.00  0.00     0.140 C 
BRANCH  12  13
HETATM   13  O3  UNL     1      19.392  38.720  -4.360  1.00  0.00    -0.348 OA
ATOM     14  H3  UNL     1      18.875  38.463  -5.115  1.00  0.00     0.219 HD
ENDBRANCH  12  13
BRANCH  12  15
HETATM   15  N2  UNL     1      20.664  40.618  -4.163  1.00  0.00    -0.346 N 
ATOM     16  H2  UNL     1      21.681  40.694  -4.123  1.00  0.00     0.167 HD
BRANCH  15  17
HETATM   17  C10 UNL     1      20.308  41.867  -3.752  1.00  0.00     0.127 C 
BRANCH  17  18
HETATM   18  C11 UNL     1      19.702  42.881  -4.609  1.00  0.00     0.090 A 
HETATM   19  C12 UNL     1      18.398  42.796  -5.122  1.00  0.00     0.040 A 
HETATM   20  C13 UNL     1      18.218  43.927  -5.888  1.00  0.00     0.027 A 
HETATM   21  C14 UNL     1      19.417  44.609  -5.784  1.00  0.00     0.142 A 
HETATM   22  O4  UNL     1      20.258  43.994  -5.041  1.00  0.00    -0.321 OA
ENDBRANCH  17  18
ENDBRANCH  15  17
ENDBRANCH  12  15
ENDBRANCH  10  12
BRANCH  11  23
HETATM   23  S1  UNL     1      20.565  39.896  -7.414  1.00  0.00     0.265 S 
HETATM   24  O5  UNL     1      20.840  41.444  -7.404  1.00  0.00    -0.200 OA
HETATM   25  O6  UNL     1      19.169  39.826  -6.817  1.00  0.00    -0.200 OA
BRANCH  23  26
HETATM   26  C15 UNL     1      20.349  39.546  -9.140  1.00  0.00     0.123 A 
HETATM   27  C16 UNL     1      19.937  40.510 -10.020  1.00  0.00     0.059 A 
HETATM   28 CL1  UNL     1      19.677  42.159  -9.517  1.00  0.00    -0.083 Cl
HETATM   29  C17 UNL     1      19.692  40.195 -11.338  1.00  0.00     0.025 A 
HETATM   30  C18 UNL     1      19.863  38.883 -11.818  1.00  0.00     0.003 A 
HETATM   31  C19 UNL     1      20.269  37.922 -10.927  1.00  0.00     0.025 A 
HETATM   32  C20 UNL     1      20.502  38.285  -9.612  1.00  0.00     0.059 A 
HETATM   33 CL2  UNL     1      21.019  36.994  -8.503  1.00  0.00    -0.083 Cl
ENDBRANCH  23  26
ENDBRANCH  11  23
BRANCH   1  34
HETATM   34  C1  UNL     1      24.719  36.019  -3.441  1.00  0.00     0.205 C 
HETATM   35  O1  UNL     1      25.107  36.543  -2.379  1.00  0.00    -0.646 OA
HETATM   36  O2  UNL     1      25.425  34.898  -3.930  1.00  0.00    -0.646 OA
ENDBRANCH   1  34
TORSDOF 8
ENDMDL
MODEL 5
REMARK VINA RESULT: -7.359361600      2.363      3.298
REMARK  8 active torsions:
REMARK  status: ('A' for Active; 'I' for Inactive)
REMARK    1  A    between atoms: C1_2  and  C2_4 
REMARK    2  A    between atoms: C8_13  and  C9_14 
REMARK    3  A    between atoms: C9_14  and  O3_15 
REMARK    4  A    between atoms: C9_14  and  N2_17 
REMARK    5  A    between atoms: N2_17  and  C10_19 
REMARK    6  A    between atoms: C10_19  and  C11_20 
REMARK    7  A    between atoms: N3_25  and  S1_26 
REMARK    8  A    between atoms: S1_26  and  C15_29 
ROOT
HETATM    1  C2  UNL     1      20.290  39.616  -3.972  1.00  0.00     0.292 C 
HETATM    2  N1  UNL     1      21.588  39.739  -3.378  1.00  0.00    -0.056 N 
ATOM      3  H11 UNL     1      22.116  38.893  -3.167  1.00  0.00     0.278 HD
ATOM      4  H12 UNL     1      21.660  40.053  -2.410  1.00  0.00     0.278 HD
HETATM    5  C3  UNL     1      22.044  40.590  -4.410  1.00  0.00     0.196 C 
HETATM    6  C4  UNL     1      23.355  40.122  -5.041  1.00  0.00     0.060 C 
HETATM    7  C5  UNL     1      23.043  39.297  -6.219  1.00  0.00     0.106 C 
HETATM    8  C6  UNL     1      21.478  39.144  -6.230  1.00  0.00     0.049 C 
HETATM    9  C7  UNL     1      20.935  40.097  -5.274  1.00  0.00     0.066 C 
HETATM   10  C8  UNL     1      21.668  37.734  -5.873  1.00  0.00     0.177 C 
HETATM   11  N3  UNL     1      23.097  37.957  -6.200  1.00  0.00    -0.288 N 
ENDROOT
BRANCH  10  12
HETATM   12  C9  UNL     1      21.121  36.691  -6.744  1.00  0.00     0.140 C 
BRANCH  12  13
HETATM   13  O3  UNL     1      21.070  35.473  -6.261  1.00  0.00    -0.348 OA
ATOM     14  H3  UNL     1      20.256  34.997  -6.372  1.00  0.00     0.219 HD
ENDBRANCH  12  13
BRANCH  12  15
HETATM   15  N2  UNL     1      20.643  36.896  -8.007  1.00  0.00    -0.346 N 
ATOM     16  H2  UNL     1      20.049  36.074  -8.115  1.00  0.00     0.167 HD
BRANCH  15  17
HETATM   17  C10 UNL     1      20.452  37.498  -9.214  1.00  0.00     0.127 C 
BRANCH  17  18
HETATM   18  C11 UNL     1      20.770  36.893 -10.504  1.00  0.00     0.090 A 
HETATM   19  C12 UNL     1      20.309  37.385 -11.735  1.00  0.00     0.040 A 
HETATM   20  C13 UNL     1      20.809  36.532 -12.694  1.00  0.00     0.027 A 
HETATM   21  C14 UNL     1      21.530  35.592 -11.979  1.00  0.00     0.142 A 
HETATM   22  O4  UNL     1      21.499  35.817 -10.720  1.00  0.00    -0.321 OA
ENDBRANCH  17  18
ENDBRANCH  15  17
ENDBRANCH  12  15
ENDBRANCH  10  12
BRANCH  11  23
HETATM   23  S1  UNL     1      23.986  36.838  -6.961  1.00  0.00     0.265 S 
HETATM   24  O5  UNL     1      25.270  37.453  -7.629  1.00  0.00    -0.200 OA
HETATM   25  O6  UNL     1      23.342  36.118  -8.134  1.00  0.00    -0.200 OA
BRANCH  23  26
HETATM   26  C15 UNL     1      24.654  35.552  -5.937  1.00  0.00     0.123 A 
HETATM   27  C16 UNL     1      24.775  35.704  -4.582  1.00  0.00     0.059 A 
HETATM   28 CL1  UNL     1      24.205  37.136  -3.767  1.00  0.00    -0.083 Cl
HETATM   29  C17 UNL     1      25.377  34.728  -3.820  1.00  0.00     0.025 A 
HETATM   30  C18 UNL     1      25.877  33.550  -4.405  1.00  0.00     0.003 A 
HETATM   31  C19 UNL     1      25.758  33.409  -5.765  1.00  0.00     0.025 A 
HETATM   32  C20 UNL     1      25.147  34.417  -6.490  1.00  0.00     0.059 A 
HETATM   33 CL2  UNL     1      25.030  34.181  -8.250  1.00  0.00    -0.083 Cl
ENDBRANCH  23  26
ENDBRANCH  11  23
BRANCH   1  34
HETATM   34  C1  UNL     1      19.419  40.749  -3.508  1.00  0.00     0.205 C 
HETATM   35  O1  UNL     1      19.411  41.129  -2.321  1.00  0.00    -0.646 OA
HETATM   36  O2  UNL     1      18.570  41.403  -4.427  1.00  0.00    -0.646 OA
ENDBRANCH   1  34
TORSDOF 8
ENDMDL
