MODEL 1
REMARK VINA RESULT: -9.120376557      0.000      0.000
REMARK  8 active torsions:
REMARK  status: ('A' for Active; 'I' for Inactive)
REMARK    1  A    between atoms: C2_2  and  C3_3 
REMARK    2  A    between atoms: C10_11  and  O2_13 
REMARK    3  A    between atoms: C15_20  and  O5_21 
REMARK    4  A    between atoms: O5_21  and  C16_22 
REMARK    5  A    between atoms: C20_26  and  O6_28 
REMARK    6  A    between atoms: C26_34  and  O7_35 
REMARK    7  A    between atoms: C31_41  and  C32_42 
REMARK    8  A    between atoms: C32_42  and  O8_44 
ROOT
HETATM    1  C3  UNL     1       2.723  37.667  27.890  1.00  0.00    -0.009 C 
HETATM    2  C4  UNL     1       3.202  38.992  28.391  1.00  0.00     0.024 C 
HETATM    3  C5  UNL     1       1.484  37.662  27.075  1.00  0.00    -0.017 C 
HETATM    4  C6  UNL     1       1.362  38.139  25.726  1.00  0.00    -0.019 C 
HETATM    5  C7  UNL     1       2.315  38.983  25.025  1.00  0.00     0.079 C 
HETATM    6  C8  UNL     1       2.619  38.719  23.584  1.00  0.00     0.062 C 
HETATM    7  C9  UNL     1       1.258  39.133  22.980  1.00  0.00     0.180 C 
HETATM    8  O1  UNL     1       0.870  40.238  23.699  1.00  0.00    -0.354 OA
HETATM    9  C10 UNL     1       1.739  40.401  24.758  1.00  0.00     0.165 C 
HETATM   10  C11 UNL     1       1.001  40.989  25.891  1.00  0.00     0.079 C 
HETATM   11  C12 UNL     1       3.047  37.453  23.074  1.00  0.00     0.130 A 
HETATM   12  C13 UNL     1       2.397  37.246  21.672  1.00  0.00     0.052 C 
HETATM   13  O3  UNL     1       2.906  36.271  23.725  1.00  0.00    -0.226 OA
HETATM   14  O4  UNL     1       4.101  35.874  23.582  1.00  0.00    -0.229 OA
HETATM   15  C14 UNL     1       4.467  37.062  22.994  1.00  0.00     0.229 A 
HETATM   16  C15 UNL     1       5.508  37.840  23.646  1.00  0.00     0.186 C 
HETATM   17  C26 UNL     1       6.323  37.060  24.655  1.00  0.00     0.153 C 
HETATM   18  C27 UNL     1       6.267  37.740  26.004  1.00  0.00     0.076 C 
HETATM   19  C28 UNL     1       6.349  36.871  27.192  1.00  0.00     0.082 C 
HETATM   20  C29 UNL     1       7.427  37.367  28.133  1.00  0.00     0.009 C 
HETATM   21  C30 UNL     1       8.256  36.403  28.435  1.00  0.00     0.006 C 
HETATM   22  C31 UNL     1       7.785  35.211  27.719  1.00  0.00     0.174 C 
HETATM   23  O9  UNL     1       6.783  35.614  26.892  1.00  0.00    -0.364 OA
HETATM   24  C34 UNL     1       5.106  36.855  28.059  1.00  0.00     0.043 C 
HETATM   25  C35 UNL     1       3.833  36.829  27.283  1.00  0.00     0.020 C 
ENDROOT
BRANCH  16  26
HETATM   26  O5  UNL     1       6.450  38.263  22.671  1.00  0.00    -0.370 OA
BRANCH  26  27
HETATM   27  C16 UNL     1       6.502  39.618  22.490  1.00  0.00     0.158 C 
HETATM   28  C17 UNL     1       7.649  40.103  23.350  1.00  0.00    -0.057 C 
HETATM   29  C18 UNL     1       7.371  40.913  24.343  1.00  0.00     0.017 C 
HETATM   30  C19 UNL     1       9.037  39.699  23.098  1.00  0.00     0.073 C 
HETATM   31  C20 UNL     1       9.294  39.124  21.757  1.00  0.00     0.059 C 
HETATM   32  C21 UNL     1      10.419  39.924  21.087  1.00  0.00     0.046 C 
HETATM   33  C22 UNL     1       8.148  38.978  20.836  1.00  0.00     0.049 C 
HETATM   34  C23 UNL     1       6.979  39.891  21.078  1.00  0.00    -0.015 C 
HETATM   35  C24 UNL     1       5.940  39.566  20.031  1.00  0.00     0.018 C 
HETATM   36  C25 UNL     1       7.347  41.344  20.887  1.00  0.00     0.018 C 
BRANCH  31  37
HETATM   37  O6  UNL     1       9.849  37.834  21.942  1.00  0.00    -0.390 OA
ATOM     38  H6  UNL     1      10.697  37.822  21.514  1.00  0.00     0.210 HD
ENDBRANCH  31  37
ENDBRANCH  26  27
ENDBRANCH  16  26
BRANCH  17  39
HETATM   39  O7  UNL     1       6.019  35.726  24.683  1.00  0.00    -0.393 OA
ATOM     40  H7  UNL     1       6.783  35.164  24.620  1.00  0.00     0.210 HD
ENDBRANCH  17  39
BRANCH   9  41
HETATM   41  O2  UNL     1       2.806  41.222  24.375  1.00  0.00    -0.365 OA
ATOM     42  H2  UNL     1       2.437  41.998  23.971  1.00  0.00     0.213 HD
ENDBRANCH   9  41
BRANCH  22  43
HETATM   43  C32 UNL     1       8.936  34.717  26.830  1.00  0.00     0.146 C 
HETATM   44  C33 UNL     1       9.552  33.485  27.423  1.00  0.00     0.042 C 
BRANCH  43  45
HETATM   45  O8  UNL     1       8.429  34.536  25.558  1.00  0.00    -0.393 OA
ATOM     46  H8  UNL     1       9.132  34.707  24.943  1.00  0.00     0.210 HD
ENDBRANCH  43  45
ENDBRANCH  22  43
BRANCH   1  47
HETATM   47  C2  UNL     1       2.356  36.916  29.152  1.00  0.00    -0.024 C 
HETATM   48  C1  UNL     1       1.554  35.889  29.152  1.00  0.00     0.008 C 
ENDBRANCH   1  47
TORSDOF 8
ENDMDL
MODEL 2
REMARK VINA RESULT: -7.908007258      0.866      1.556
REMARK  8 active torsions:
REMARK  status: ('A' for Active; 'I' for Inactive)
REMARK    1  A    between atoms: C2_2  and  C3_3 
REMARK    2  A    between atoms: C10_11  and  O2_13 
REMARK    3  A    between atoms: C15_20  and  O5_21 
REMARK    4  A    between atoms: O5_21  and  C16_22 
REMARK    5  A    between atoms: C20_26  and  O6_28 
REMARK    6  A    between atoms: C26_34  and  O7_35 
REMARK    7  A    between atoms: C31_41  and  C32_42 
REMARK    8  A    between atoms: C32_42  and  O8_44 
ROOT
HETATM    1  C3  UNL     1       2.565  37.385  27.916  1.00  0.00    -0.009 C 
HETATM    2  C4  UNL     1       2.978  38.716  28.460  1.00  0.00     0.024 C 
HETATM    3  C5  UNL     1       1.319  37.342  27.114  1.00  0.00    -0.017 C 
HETATM    4  C6  UNL     1       1.157  37.859  25.784  1.00  0.00    -0.019 C 
HETATM    5  C7  UNL     1       2.055  38.777  25.104  1.00  0.00     0.079 C 
HETATM    6  C8  UNL     1       2.357  38.580  23.652  1.00  0.00     0.062 C 
HETATM    7  C9  UNL     1       0.968  38.942  23.076  1.00  0.00     0.180 C 
HETATM    8  O1  UNL     1       0.530  39.998  23.838  1.00  0.00    -0.354 OA
HETATM    9  C10 UNL     1       1.402  40.171  24.894  1.00  0.00     0.165 C 
HETATM   10  C11 UNL     1       0.646  40.678  26.054  1.00  0.00     0.079 C 
HETATM   11  C12 UNL     1       2.845  37.358  23.094  1.00  0.00     0.130 A 
HETATM   12  C13 UNL     1       2.192  37.166  21.691  1.00  0.00     0.052 C 
HETATM   13  O3  UNL     1       2.776  36.148  23.703  1.00  0.00    -0.226 OA
HETATM   14  O4  UNL     1       3.988  35.822  23.535  1.00  0.00    -0.229 OA
HETATM   15  C14 UNL     1       4.284  37.047  22.986  1.00  0.00     0.229 A 
HETATM   16  C15 UNL     1       5.289  37.856  23.656  1.00  0.00     0.186 C 
HETATM   17  C26 UNL     1       6.155  37.087  24.628  1.00  0.00     0.153 C 
HETATM   18  C27 UNL     1       6.079  37.715  26.002  1.00  0.00     0.076 C 
HETATM   19  C28 UNL     1       6.220  36.810  27.157  1.00  0.00     0.082 C 
HETATM   20  C29 UNL     1       7.281  37.331  28.105  1.00  0.00     0.009 C 
HETATM   21  C30 UNL     1       8.164  36.403  28.364  1.00  0.00     0.006 C 
HETATM   22  C31 UNL     1       7.749  35.212  27.611  1.00  0.00     0.174 C 
HETATM   23  O9  UNL     1       6.718  35.590  26.808  1.00  0.00    -0.364 OA
HETATM   24  C34 UNL     1       4.989  36.697  28.034  1.00  0.00     0.043 C 
HETATM   25  C35 UNL     1       3.711  36.630  27.270  1.00  0.00     0.020 C 
ENDROOT
BRANCH  16  26
HETATM   26  O5  UNL     1       6.196  38.364  22.688  1.00  0.00    -0.370 OA
BRANCH  26  27
HETATM   27  C16 UNL     1       7.274  39.019  23.216  1.00  0.00     0.158 C 
HETATM   28  C17 UNL     1       8.388  38.859  22.205  1.00  0.00    -0.057 C 
HETATM   29  C18 UNL     1       9.455  38.188  22.569  1.00  0.00     0.017 C 
HETATM   30  C19 UNL     1       8.304  39.430  20.856  1.00  0.00     0.073 C 
HETATM   31  C20 UNL     1       7.271  40.476  20.677  1.00  0.00     0.059 C 
HETATM   32  C21 UNL     1       7.944  41.741  20.127  1.00  0.00     0.046 C 
HETATM   33  C22 UNL     1       6.416  40.810  21.835  1.00  0.00     0.049 C 
HETATM   34  C23 UNL     1       6.985  40.506  23.192  1.00  0.00    -0.015 C 
HETATM   35  C24 UNL     1       5.950  40.924  24.209  1.00  0.00     0.018 C 
HETATM   36  C25 UNL     1       8.228  41.318  23.479  1.00  0.00     0.018 C 
BRANCH  31  37
HETATM   37  O6  UNL     1       6.414  40.058  19.630  1.00  0.00    -0.390 OA
ATOM     38  H6  UNL     1       5.997  39.249  19.906  1.00  0.00     0.210 HD
ENDBRANCH  31  37
ENDBRANCH  26  27
ENDBRANCH  16  26
BRANCH  17  39
HETATM   39  O7  UNL     1       5.924  35.738  24.612  1.00  0.00    -0.393 OA
ATOM     40  H7  UNL     1       5.422  35.432  25.358  1.00  0.00     0.210 HD
ENDBRANCH  17  39
BRANCH   9  41
HETATM   41  O2  UNL     1       2.418  41.060  24.530  1.00  0.00    -0.365 OA
ATOM     42  H2  UNL     1       2.220  41.899  24.930  1.00  0.00     0.213 HD
ENDBRANCH   9  41
BRANCH  22  43
HETATM   43  C32 UNL     1       8.914  34.813  26.694  1.00  0.00     0.146 C 
HETATM   44  C33 UNL     1       9.522  33.526  27.166  1.00  0.00     0.042 C 
BRANCH  43  45
HETATM   45  O8  UNL     1       8.428  34.764  25.402  1.00  0.00    -0.393 OA
ATOM     46  H8  UNL     1       9.006  35.287  24.859  1.00  0.00     0.210 HD
ENDBRANCH  43  45
ENDBRANCH  22  43
BRANCH   1  47
HETATM   47  C2  UNL     1       2.253  36.572  29.155  1.00  0.00    -0.024 C 
HETATM   48  C1  UNL     1       1.439  35.554  29.142  1.00  0.00     0.008 C 
ENDBRANCH   1  47
TORSDOF 8
ENDMDL
MODEL 3
REMARK VINA RESULT: -7.709403084      1.425      2.040
REMARK  8 active torsions:
REMARK  status: ('A' for Active; 'I' for Inactive)
REMARK    1  A    between atoms: C2_2  and  C3_3 
REMARK    2  A    between atoms: C10_11  and  O2_13 
REMARK    3  A    between atoms: C15_20  and  O5_21 
REMARK    4  A    between atoms: O5_21  and  C16_22 
REMARK    5  A    between atoms: C20_26  and  O6_28 
REMARK    6  A    between atoms: C26_34  and  O7_35 
REMARK    7  A    between atoms: C31_41  and  C32_42 
REMARK    8  A    between atoms: C32_42  and  O8_44 
ROOT
HETATM    1  C3  UNL     1       1.878  37.934  26.981  1.00  0.00    -0.009 C 
HETATM    2  C4  UNL     1       2.211  39.071  27.895  1.00  0.00     0.024 C 
HETATM    3  C5  UNL     1       0.801  38.161  25.988  1.00  0.00    -0.017 C 
HETATM    4  C6  UNL     1       0.896  38.985  24.816  1.00  0.00    -0.019 C 
HETATM    5  C7  UNL     1       1.923  39.978  24.546  1.00  0.00     0.079 C 
HETATM    6  C8  UNL     1       2.483  40.110  23.165  1.00  0.00     0.062 C 
HETATM    7  C9  UNL     1       1.232  40.685  22.462  1.00  0.00     0.180 C 
HETATM    8  O1  UNL     1       0.682  41.558  23.370  1.00  0.00    -0.354 OA
HETATM    9  C10 UNL     1       1.347  41.421  24.571  1.00  0.00     0.165 C 
HETATM   10  C11 UNL     1       0.401  41.688  25.669  1.00  0.00     0.079 C 
HETATM   11  C12 UNL     1       3.041  39.025  22.420  1.00  0.00     0.130 A 
HETATM   12  C13 UNL     1       2.654  39.210  20.921  1.00  0.00     0.052 C 
HETATM   13  O3  UNL     1       2.836  37.712  22.696  1.00  0.00    -0.226 OA
HETATM   14  O4  UNL     1       4.052  37.358  22.667  1.00  0.00    -0.229 OA
HETATM   15  C14 UNL     1       4.468  38.656  22.493  1.00  0.00     0.229 A 
HETATM   16  C15 UNL     1       5.349  39.220  23.503  1.00  0.00     0.186 C 
HETATM   17  C26 UNL     1       6.006  38.189  24.394  1.00  0.00     0.153 C 
HETATM   18  C27 UNL     1       5.690  38.480  25.844  1.00  0.00     0.076 C 
HETATM   19  C28 UNL     1       5.598  37.322  26.752  1.00  0.00     0.082 C 
HETATM   20  C29 UNL     1       6.477  37.536  27.968  1.00  0.00     0.009 C 
HETATM   21  C30 UNL     1       7.278  36.518  28.143  1.00  0.00     0.006 C 
HETATM   22  C31 UNL     1       6.985  35.568  27.063  1.00  0.00     0.174 C 
HETATM   23  O9  UNL     1       6.127  36.189  26.209  1.00  0.00    -0.364 OA
HETATM   24  C34 UNL     1       4.225  37.084  27.347  1.00  0.00     0.043 C 
HETATM   25  C35 UNL     1       3.108  37.281  26.380  1.00  0.00     0.020 C 
ENDROOT
BRANCH  16  26
HETATM   26  O5  UNL     1       6.429  39.881  22.860  1.00  0.00    -0.370 OA
BRANCH  26  27
HETATM   27  C16 UNL     1       6.919  39.224  21.765  1.00  0.00     0.158 C 
HETATM   28  C17 UNL     1       6.750  40.179  20.604  1.00  0.00    -0.057 C 
HETATM   29  C18 UNL     1       5.945  39.824  19.631  1.00  0.00     0.017 C 
HETATM   30  C19 UNL     1       7.456  41.464  20.541  1.00  0.00     0.073 C 
HETATM   31  C20 UNL     1       8.612  41.594  21.458  1.00  0.00     0.059 C 
HETATM   32  C21 UNL     1       9.852  41.968  20.635  1.00  0.00     0.046 C 
HETATM   33  C22 UNL     1       8.913  40.461  22.356  1.00  0.00     0.049 C 
HETATM   34  C23 UNL     1       8.423  39.111  21.913  1.00  0.00    -0.015 C 
HETATM   35  C24 UNL     1       8.839  38.119  22.973  1.00  0.00     0.018 C 
HETATM   36  C25 UNL     1       9.076  38.668  20.624  1.00  0.00     0.018 C 
BRANCH  31  37
HETATM   37  O6  UNL     1       8.384  42.728  22.276  1.00  0.00    -0.390 OA
ATOM     38  H6  UNL     1       9.086  43.347  22.111  1.00  0.00     0.210 HD
ENDBRANCH  31  37
ENDBRANCH  26  27
ENDBRANCH  16  26
BRANCH  17  39
HETATM   39  O7  UNL     1       5.755  36.899  24.011  1.00  0.00    -0.393 OA
ATOM     40  H7  UNL     1       5.277  36.836  23.192  1.00  0.00     0.210 HD
ENDBRANCH  17  39
BRANCH   9  41
HETATM   41  O2  UNL     1       2.431  42.305  24.616  1.00  0.00    -0.365 OA
ATOM     42  H2  UNL     1       2.318  42.931  23.911  1.00  0.00     0.213 HD
ENDBRANCH   9  41
BRANCH  22  43
HETATM   43  C32 UNL     1       8.291  35.321  26.293  1.00  0.00     0.146 C 
HETATM   44  C33 UNL     1       8.997  34.121  26.849  1.00  0.00     0.042 C 
BRANCH  43  45
HETATM   45  O8  UNL     1       7.970  35.215  24.954  1.00  0.00    -0.393 OA
ATOM     46  H8  UNL     1       8.733  35.480  24.455  1.00  0.00     0.210 HD
ENDBRANCH  43  45
ENDBRANCH  22  43
BRANCH   1  47
HETATM   47  C2  UNL     1       1.327  36.874  27.911  1.00  0.00    -0.024 C 
HETATM   48  C1  UNL     1       0.663  35.838  27.482  1.00  0.00     0.008 C 
ENDBRANCH   1  47
TORSDOF 8
ENDMDL
MODEL 4
REMARK VINA RESULT: -7.000714263      2.186      3.052
REMARK  8 active torsions:
REMARK  status: ('A' for Active; 'I' for Inactive)
REMARK    1  A    between atoms: C2_2  and  C3_3 
REMARK    2  A    between atoms: C10_11  and  O2_13 
REMARK    3  A    between atoms: C15_20  and  O5_21 
REMARK    4  A    between atoms: O5_21  and  C16_22 
REMARK    5  A    between atoms: C20_26  and  O6_28 
REMARK    6  A    between atoms: C26_34  and  O7_35 
REMARK    7  A    between atoms: C31_41  and  C32_42 
REMARK    8  A    between atoms: C32_42  and  O8_44 
ROOT
HETATM    1  C3  UNL     1       2.193  39.025  28.305  1.00  0.00    -0.009 C 
HETATM    2  C4  UNL     1       1.843  40.392  27.809  1.00  0.00     0.024 C 
HETATM    3  C5  UNL     1       1.497  37.880  27.671  1.00  0.00    -0.017 C 
HETATM    4  C6  UNL     1       1.731  37.383  26.344  1.00  0.00    -0.019 C 
HETATM    5  C7  UNL     1       2.441  38.075  25.281  1.00  0.00     0.079 C 
HETATM    6  C8  UNL     1       3.367  37.310  24.389  1.00  0.00     0.062 C 
HETATM    7  C9  UNL     1       2.314  36.470  23.630  1.00  0.00     0.180 C 
HETATM    8  O1  UNL     1       1.258  37.323  23.423  1.00  0.00    -0.354 OA
HETATM    9  C10 UNL     1       1.488  38.488  24.126  1.00  0.00     0.165 C 
HETATM   10  C11 UNL     1       0.194  39.041  24.563  1.00  0.00     0.079 C 
HETATM   11  C12 UNL     1       4.440  36.492  24.860  1.00  0.00     0.130 A 
HETATM   12  C13 UNL     1       4.544  35.241  23.935  1.00  0.00     0.052 C 
HETATM   13  O3  UNL     1       4.557  36.025  26.128  1.00  0.00    -0.226 OA
HETATM   14  O4  UNL     1       5.758  36.381  26.313  1.00  0.00    -0.229 OA
HETATM   15  C14 UNL     1       5.801  37.014  25.093  1.00  0.00     0.229 A 
HETATM   16  C15 UNL     1       6.079  38.440  25.088  1.00  0.00     0.186 C 
HETATM   17  C26 UNL     1       6.673  38.960  26.378  1.00  0.00     0.153 C 
HETATM   18  C27 UNL     1       5.817  40.076  26.933  1.00  0.00     0.076 C 
HETATM   19  C28 UNL     1       5.775  40.219  28.399  1.00  0.00     0.082 C 
HETATM   20  C29 UNL     1       6.087  41.647  28.797  1.00  0.00     0.009 C 
HETATM   21  C30 UNL     1       7.047  41.680  29.683  1.00  0.00     0.006 C 
HETATM   22  C31 UNL     1       7.433  40.285  29.931  1.00  0.00     0.174 C 
HETATM   23  O9  UNL     1       6.768  39.522  29.021  1.00  0.00    -0.364 OA
HETATM   24  C34 UNL     1       4.419  39.966  29.028  1.00  0.00     0.043 C 
HETATM   25  C35 UNL     1       3.689  38.809  28.435  1.00  0.00     0.020 C 
ENDROOT
BRANCH  16  26
HETATM   26  O5  UNL     1       7.062  38.717  24.101  1.00  0.00    -0.370 OA
BRANCH  26  27
HETATM   27  C16 UNL     1       6.881  39.903  23.444  1.00  0.00     0.158 C 
HETATM   28  C17 UNL     1       8.215  40.615  23.507  1.00  0.00    -0.057 C 
HETATM   29  C18 UNL     1       8.274  41.749  24.163  1.00  0.00     0.017 C 
HETATM   30  C19 UNL     1       9.417  40.078  22.859  1.00  0.00     0.073 C 
HETATM   31  C20 UNL     1       9.170  39.033  21.838  1.00  0.00     0.059 C 
HETATM   32  C21 UNL     1       9.826  39.470  20.521  1.00  0.00     0.046 C 
HETATM   33  C22 UNL     1       7.774  38.613  21.602  1.00  0.00     0.049 C 
HETATM   34  C23 UNL     1       6.708  39.608  21.968  1.00  0.00    -0.015 C 
HETATM   35  C24 UNL     1       5.378  38.969  21.646  1.00  0.00     0.018 C 
HETATM   36  C25 UNL     1       6.799  40.866  21.135  1.00  0.00     0.018 C 
BRANCH  31  37
HETATM   37  O6  UNL     1       9.896  37.879  22.221  1.00  0.00    -0.390 OA
ATOM     38  H6  UNL     1      10.482  37.658  21.506  1.00  0.00     0.210 HD
ENDBRANCH  31  37
ENDBRANCH  26  27
ENDBRANCH  16  26
BRANCH  17  39
HETATM   39  O7  UNL     1       6.963  37.971  27.279  1.00  0.00    -0.393 OA
ATOM     40  H7  UNL     1       7.887  37.915  27.494  1.00  0.00     0.210 HD
ENDBRANCH  17  39
BRANCH   9  41
HETATM   41  O2  UNL     1       2.178  39.400  23.319  1.00  0.00    -0.365 OA
ATOM     42  H2  UNL     1       1.644  39.560  22.550  1.00  0.00     0.213 HD
ENDBRANCH   9  41
BRANCH  22  43
HETATM   43  C32 UNL     1       8.931  40.155  29.622  1.00  0.00     0.146 C 
HETATM   44  C33 UNL     1       9.738  40.810  30.704  1.00  0.00     0.042 C 
BRANCH  43  45
HETATM   45  O8  UNL     1       9.205  38.812  29.451  1.00  0.00    -0.393 OA
ATOM     46  H8  UNL     1       9.251  38.646  28.517  1.00  0.00     0.210 HD
ENDBRANCH  43  45
ENDBRANCH  22  43
BRANCH   1  47
HETATM   47  C2  UNL     1       1.704  39.026  29.738  1.00  0.00    -0.024 C 
HETATM   48  C1  UNL     1       0.927  38.096  30.217  1.00  0.00     0.008 C 
ENDBRANCH   1  47
TORSDOF 8
ENDMDL
MODEL 5
REMARK VINA RESULT: -6.925291257      2.185      6.482
REMARK  8 active torsions:
REMARK  status: ('A' for Active; 'I' for Inactive)
REMARK    1  A    between atoms: C2_2  and  C3_3 
REMARK    2  A    between atoms: C10_11  and  O2_13 
REMARK    3  A    between atoms: C15_20  and  O5_21 
REMARK    4  A    between atoms: O5_21  and  C16_22 
REMARK    5  A    between atoms: C20_26  and  O6_28 
REMARK    6  A    between atoms: C26_34  and  O7_35 
REMARK    7  A    between atoms: C31_41  and  C32_42 
REMARK    8  A    between atoms: C32_42  and  O8_44 
ROOT
HETATM    1  C3  UNL     1       6.133  37.156  26.424  1.00  0.00    -0.009 C 
HETATM    2  C4  UNL     1       6.336  38.434  27.174  1.00  0.00     0.024 C 
HETATM    3  C5  UNL     1       5.293  36.121  27.071  1.00  0.00    -0.017 C 
HETATM    4  C6  UNL     1       3.867  36.173  27.230  1.00  0.00    -0.019 C 
HETATM    5  C7  UNL     1       3.029  37.351  27.080  1.00  0.00     0.079 C 
HETATM    6  C8  UNL     1       1.701  37.235  26.402  1.00  0.00     0.062 C 
HETATM    7  C9  UNL     1       0.964  36.403  27.477  1.00  0.00     0.180 C 
HETATM    8  O1  UNL     1       1.395  36.912  28.678  1.00  0.00    -0.354 OA
HETATM    9  C10 UNL     1       2.422  37.801  28.438  1.00  0.00     0.165 C 
HETATM   10  C11 UNL     1       3.359  37.761  29.575  1.00  0.00     0.079 C 
HETATM   11  C12 UNL     1       1.513  36.678  25.099  1.00  0.00     0.130 A 
HETATM   12  C13 UNL     1       0.170  35.885  25.095  1.00  0.00     0.052 C 
HETATM   13  O3  UNL     1       2.411  35.888  24.459  1.00  0.00    -0.226 OA
HETATM   14  O4  UNL     1       2.411  36.515  23.359  1.00  0.00    -0.229 OA
HETATM   15  C14 UNL     1       1.581  37.487  23.866  1.00  0.00     0.229 A 
HETATM   16  C15 UNL     1       2.078  38.852  23.879  1.00  0.00     0.186 C 
HETATM   17  C26 UNL     1       3.271  39.086  22.978  1.00  0.00     0.153 C 
HETATM   18  C27 UNL     1       4.425  39.646  23.778  1.00  0.00     0.076 C 
HETATM   19  C28 UNL     1       5.783  39.291  23.327  1.00  0.00     0.082 C 
HETATM   20  C29 UNL     1       6.628  40.539  23.168  1.00  0.00     0.009 C 
HETATM   21  C30 UNL     1       7.175  40.577  21.983  1.00  0.00     0.006 C 
HETATM   22  C31 UNL     1       6.734  39.365  21.281  1.00  0.00     0.174 C 
HETATM   23  O9  UNL     1       5.797  38.770  22.068  1.00  0.00    -0.364 OA
HETATM   24  C34 UNL     1       6.580  38.448  24.303  1.00  0.00     0.043 C 
HETATM   25  C35 UNL     1       5.780  37.378  24.965  1.00  0.00     0.020 C 
ENDROOT
BRANCH  16  26
HETATM   26  O5  UNL     1       1.071  39.718  23.376  1.00  0.00    -0.370 OA
BRANCH  26  27
HETATM   27  C16 UNL     1       0.755  40.757  24.207  1.00  0.00     0.158 C 
HETATM   28  C17 UNL     1       1.123  42.014  23.451  1.00  0.00    -0.057 C 
HETATM   29  C18 UNL     1       2.069  42.774  23.949  1.00  0.00     0.017 C 
HETATM   30  C19 UNL     1       0.454  42.398  22.203  1.00  0.00     0.073 C 
HETATM   31  C20 UNL     1      -0.832  41.712  21.940  1.00  0.00     0.059 C 
HETATM   32  C21 UNL     1      -1.918  42.775  21.720  1.00  0.00     0.046 C 
HETATM   33  C22 UNL     1      -1.291  40.703  22.917  1.00  0.00     0.049 C 
HETATM   34  C23 UNL     1      -0.754  40.837  24.314  1.00  0.00    -0.015 C 
HETATM   35  C24 UNL     1      -1.351  39.712  25.126  1.00  0.00     0.018 C 
HETATM   36  C25 UNL     1      -1.197  42.126  24.968  1.00  0.00     0.018 C 
BRANCH  31  37
HETATM   37  O6  UNL     1      -0.724  41.063  20.686  1.00  0.00    -0.390 OA
ATOM     38  H6  UNL     1      -1.491  41.296  20.175  1.00  0.00     0.210 HD
ENDBRANCH  31  37
ENDBRANCH  26  27
ENDBRANCH  16  26
BRANCH  17  39
HETATM   39  O7  UNL     1       3.592  37.998  22.211  1.00  0.00    -0.393 OA
ATOM     40  H7  UNL     1       4.208  37.409  22.631  1.00  0.00     0.210 HD
ENDBRANCH  17  39
BRANCH   9  41
HETATM   41  O2  UNL     1       1.903  39.088  28.259  1.00  0.00    -0.365 OA
ATOM     42  H2  UNL     1       0.964  39.037  28.390  1.00  0.00     0.213 HD
ENDBRANCH   9  41
BRANCH  22  43
HETATM   43  C32 UNL     1       6.029  39.806  19.990  1.00  0.00     0.146 C 
HETATM   44  C33 UNL     1       7.009  39.844  18.856  1.00  0.00     0.042 C 
BRANCH  43  45
HETATM   45  O8  UNL     1       4.965  38.949  19.785  1.00  0.00    -0.393 OA
ATOM     46  H8  UNL     1       5.167  38.419  19.024  1.00  0.00     0.210 HD
ENDBRANCH  43  45
ENDBRANCH  22  43
BRANCH   1  47
HETATM   47  C2  UNL     1       7.519  36.548  26.369  1.00  0.00    -0.024 C 
HETATM   48  C1  UNL     1       7.885  35.560  27.136  1.00  0.00     0.008 C 
ENDBRANCH   1  47
TORSDOF 8
ENDMDL
