MODEL 1
REMARK VINA RESULT: -7.434622637      0.000      0.000
REMARK  10 active torsions:
REMARK  status: ('A' for Active; 'I' for Inactive)
REMARK    1  A    between atoms: C3_3  and  C5_5 
REMARK    2  A    between atoms: C5_5  and  O2_7 
REMARK    3  A    between atoms: O2_7  and  C6_8 
REMARK    4  A    between atoms: C7_9  and  O3_10 
REMARK    5  A    between atoms: O3_10  and  C8_11 
REMARK    6  A    between atoms: C12_16  and  O5_17 
REMARK    7  A    between atoms: C13_19  and  O6_20 
REMARK    8  A    between atoms: C25_33  and  C26_34 
REMARK    9  A    between atoms: C26_34  and  O7_37 
REMARK   10  A    between atoms: C35_46  and  O9_47 
ROOT
HETATM    1  C6  UNL     1       4.577  37.416  24.572  1.00  0.00     0.227 C 
HETATM    2  C7  UNL     1       3.524  37.990  25.473  1.00  0.00     0.167 C 
HETATM    3  C10 UNL     1       3.321  39.454  25.380  1.00  0.00     0.038 C 
HETATM    4  C11 UNL     1       4.601  40.260  25.330  1.00  0.00     0.049 C 
HETATM    5  C12 UNL     1       5.401  39.762  24.193  1.00  0.00     0.150 C 
HETATM    6  C13 UNL     1       6.830  40.301  24.151  1.00  0.00     0.120 C 
HETATM    7  C14 UNL     1       6.855  41.482  23.271  1.00  0.00     0.044 C 
HETATM    8  C15 UNL     1       8.231  41.880  22.755  1.00  0.00     0.009 C 
HETATM    9  C16 UNL     1       9.077  40.659  22.698  1.00  0.00     0.001 C 
HETATM   10  C17 UNL     1       8.164  39.531  22.292  1.00  0.00     0.023 C 
HETATM   11  C18 UNL     1       8.776  38.445  21.507  1.00  0.00     0.008 C 
HETATM   12  C19 UNL     1       9.405  39.013  20.267  1.00  0.00     0.006 C 
HETATM   13  C20 UNL     1       9.748  40.483  20.428  1.00  0.00    -0.006 C 
HETATM   14  C21 UNL     1      10.587  40.938  19.296  1.00  0.00     0.006 C 
HETATM   15  C22 UNL     1      11.037  42.365  19.452  1.00  0.00     0.010 C 
HETATM   16  C23 UNL     1      11.759  42.569  20.760  1.00  0.00    -0.033 C 
HETATM   17  C24 UNL     1      13.050  41.804  20.683  1.00  0.00     0.016 C 
HETATM   18  C25 UNL     1      11.914  43.984  21.162  1.00  0.00     0.028 C 
HETATM   19  C29 UNL     1      12.110  43.903  22.660  1.00  0.00     0.009 C 
HETATM   20  C30 UNL     1      11.573  42.532  23.092  1.00  0.00     0.007 C 
HETATM   21  C31 UNL     1      10.842  42.120  21.860  1.00  0.00     0.003 C 
HETATM   22  C32 UNL     1      10.306  40.770  21.803  1.00  0.00    -0.032 C 
HETATM   23  C33 UNL     1      11.249  39.683  22.280  1.00  0.00     0.016 C 
HETATM   24  C34 UNL     1       7.544  39.085  23.603  1.00  0.00     0.167 C 
HETATM   25  O8  UNL     1       6.644  38.063  23.481  1.00  0.00    -0.341 OA
HETATM   26  C35 UNL     1       5.755  38.298  24.495  1.00  0.00     0.227 C 
ENDROOT
BRANCH   1  27
HETATM   27  O2  UNL     1       4.069  37.007  23.322  1.00  0.00    -0.304 OA
BRANCH  27  28
HETATM   28  C5  UNL     1       2.793  36.501  23.135  1.00  0.00     0.289 C 
HETATM   29  O1  UNL     1       2.205  36.925  22.084  1.00  0.00    -0.260 OA
BRANCH  28  30
HETATM   30  C3  UNL     1       2.115  35.578  23.992  1.00  0.00     0.009 C 
HETATM   31  C2  UNL     1       2.505  34.330  24.213  1.00  0.00    -0.018 C 
HETATM   32  C1  UNL     1       3.704  33.787  23.568  1.00  0.00     0.036 C 
HETATM   33  C4  UNL     1       0.877  36.029  24.703  1.00  0.00     0.054 C 
ENDBRANCH  28  30
ENDBRANCH  27  28
ENDBRANCH   1  27
BRANCH   2  34
HETATM   34  O3  UNL     1       3.829  37.662  26.817  1.00  0.00    -0.314 OA
BRANCH  34  35
HETATM   35  C8  UNL     1       4.028  36.362  27.238  1.00  0.00     0.255 C 
HETATM   36  C9  UNL     1       2.865  35.544  27.693  1.00  0.00     0.126 C 
HETATM   37  O4  UNL     1       5.167  35.880  27.237  1.00  0.00    -0.266 OA
ENDBRANCH  34  35
ENDBRANCH   2  34
BRANCH  26  38
HETATM   38  O9  UNL     1       6.397  38.324  25.739  1.00  0.00    -0.361 OA
ATOM     39  H9  UNL     1       6.794  39.177  25.870  1.00  0.00     0.213 HD
ENDBRANCH  26  38
BRANCH   5  40
HETATM   40  O5  UNL     1       4.828  39.902  22.959  1.00  0.00    -0.381 OA
ATOM     41  H5  UNL     1       5.099  39.268  22.305  1.00  0.00     0.211 HD
ENDBRANCH   5  40
BRANCH   6  42
HETATM   42  O6  UNL     1       7.255  40.594  25.465  1.00  0.00    -0.384 OA
ATOM     43  H6  UNL     1       8.088  41.051  25.431  1.00  0.00     0.210 HD
ENDBRANCH   6  42
BRANCH  18  44
HETATM   44  C26 UNL     1      12.987  44.784  20.535  1.00  0.00     0.055 C 
HETATM   45  C27 UNL     1      13.900  45.242  21.690  1.00  0.00     0.045 C 
HETATM   46  C28 UNL     1      12.490  46.057  19.893  1.00  0.00     0.045 C 
BRANCH  44  47
HETATM   47  O7  UNL     1      13.828  44.077  19.694  1.00  0.00    -0.390 OA
ATOM     48  H7  UNL     1      14.070  44.530  18.894  1.00  0.00     0.210 HD
ENDBRANCH  44  47
ENDBRANCH  18  44
TORSDOF 10
ENDMDL
MODEL 2
REMARK VINA RESULT: -7.366285335      1.637      2.281
REMARK  10 active torsions:
REMARK  status: ('A' for Active; 'I' for Inactive)
REMARK    1  A    between atoms: C3_3  and  C5_5 
REMARK    2  A    between atoms: C5_5  and  O2_7 
REMARK    3  A    between atoms: O2_7  and  C6_8 
REMARK    4  A    between atoms: C7_9  and  O3_10 
REMARK    5  A    between atoms: O3_10  and  C8_11 
REMARK    6  A    between atoms: C12_16  and  O5_17 
REMARK    7  A    between atoms: C13_19  and  O6_20 
REMARK    8  A    between atoms: C25_33  and  C26_34 
REMARK    9  A    between atoms: C26_34  and  O7_37 
REMARK   10  A    between atoms: C35_46  and  O9_47 
ROOT
HETATM    1  C6  UNL     1       4.964  37.724  23.908  1.00  0.00     0.227 C 
HETATM    2  C7  UNL     1       4.627  38.033  25.337  1.00  0.00     0.167 C 
HETATM    3  C10 UNL     1       4.716  39.458  25.729  1.00  0.00     0.038 C 
HETATM    4  C11 UNL     1       5.947  40.172  25.214  1.00  0.00     0.049 C 
HETATM    5  C12 UNL     1       5.971  40.023  23.744  1.00  0.00     0.150 C 
HETATM    6  C13 UNL     1       7.276  40.473  23.092  1.00  0.00     0.120 C 
HETATM    7  C14 UNL     1       7.117  41.871  22.654  1.00  0.00     0.044 C 
HETATM    8  C15 UNL     1       8.118  42.343  21.608  1.00  0.00     0.009 C 
HETATM    9  C16 UNL     1       8.553  41.162  20.815  1.00  0.00     0.001 C 
HETATM   10  C17 UNL     1       7.345  40.272  20.687  1.00  0.00     0.023 C 
HETATM   11  C18 UNL     1       7.256  39.463  19.458  1.00  0.00     0.008 C 
HETATM   12  C19 UNL     1       7.308  40.366  18.258  1.00  0.00     0.006 C 
HETATM   13  C20 UNL     1       7.985  41.688  18.571  1.00  0.00    -0.006 C 
HETATM   14  C21 UNL     1       8.243  42.437  17.321  1.00  0.00     0.006 C 
HETATM   15  C22 UNL     1       8.999  43.715  17.563  1.00  0.00     0.010 C 
HETATM   16  C23 UNL     1      10.290  43.453  18.297  1.00  0.00    -0.033 C 
HETATM   17  C24 UNL     1      11.188  42.688  17.368  1.00  0.00     0.016 C 
HETATM   18  C25 UNL     1      10.913  44.656  18.892  1.00  0.00     0.028 C 
HETATM   19  C29 UNL     1      11.789  44.090  19.989  1.00  0.00     0.009 C 
HETATM   20  C30 UNL     1      11.256  42.683  20.285  1.00  0.00     0.007 C 
HETATM   21  C31 UNL     1       9.951  42.723  19.565  1.00  0.00     0.003 C 
HETATM   22  C32 UNL     1       9.186  41.491  19.468  1.00  0.00    -0.032 C 
HETATM   23  C33 UNL     1       9.990  40.262  19.092  1.00  0.00     0.016 C 
HETATM   24  C34 UNL     1       7.362  39.462  21.970  1.00  0.00     0.167 C 
HETATM   25  O8  UNL     1       6.325  38.580  22.092  1.00  0.00    -0.341 OA
HETATM   26  C35 UNL     1       6.111  38.523  23.443  1.00  0.00     0.227 C 
ENDROOT
BRANCH   1  27
HETATM   27  O2  UNL     1       3.840  37.762  23.056  1.00  0.00    -0.304 OA
BRANCH  27  28
HETATM   28  C5  UNL     1       3.027  36.669  22.801  1.00  0.00     0.289 C 
HETATM   29  O1  UNL     1       2.460  36.688  21.657  1.00  0.00    -0.260 OA
BRANCH  28  30
HETATM   30  C3  UNL     1       2.786  35.569  23.684  1.00  0.00     0.009 C 
HETATM   31  C2  UNL     1       1.875  35.563  24.647  1.00  0.00    -0.018 C 
HETATM   32  C1  UNL     1       1.017  36.728  24.884  1.00  0.00     0.036 C 
HETATM   33  C4  UNL     1       3.607  34.327  23.529  1.00  0.00     0.054 C 
ENDBRANCH  28  30
ENDBRANCH  27  28
ENDBRANCH   1  27
BRANCH   2  34
HETATM   34  O3  UNL     1       5.470  37.277  26.189  1.00  0.00    -0.314 OA
BRANCH  34  35
HETATM   35  C8  UNL     1       4.976  36.437  27.168  1.00  0.00     0.255 C 
HETATM   36  C9  UNL     1       3.567  36.590  27.635  1.00  0.00     0.126 C 
HETATM   37  O4  UNL     1       5.703  35.563  27.654  1.00  0.00    -0.266 OA
ENDBRANCH  34  35
ENDBRANCH   2  34
BRANCH  26  38
HETATM   38  O9  UNL     1       7.265  38.117  24.125  1.00  0.00    -0.361 OA
ATOM     39  H9  UNL     1       8.032  38.388  23.633  1.00  0.00     0.213 HD
ENDBRANCH  26  38
BRANCH   5  40
HETATM   40  O5  UNL     1       4.914  40.579  23.076  1.00  0.00    -0.381 OA
ATOM     41  H5  UNL     1       4.703  40.182  22.239  1.00  0.00     0.211 HD
ENDBRANCH   5  40
BRANCH   6  42
HETATM   42  O6  UNL     1       8.336  40.309  24.010  1.00  0.00    -0.384 OA
ATOM     43  H6  UNL     1       8.139  40.790  24.805  1.00  0.00     0.210 HD
ENDBRANCH   6  42
BRANCH  18  44
HETATM   44  C26 UNL     1      11.687  45.558  18.015  1.00  0.00     0.055 C 
HETATM   45  C27 UNL     1      12.256  46.655  18.937  1.00  0.00     0.045 C 
HETATM   46  C28 UNL     1      10.835  46.291  17.006  1.00  0.00     0.045 C 
BRANCH  44  47
HETATM   47  O7  UNL     1      12.804  44.990  17.430  1.00  0.00    -0.390 OA
ATOM     48  H7  UNL     1      13.605  45.492  17.520  1.00  0.00     0.210 HD
ENDBRANCH  44  47
ENDBRANCH  18  44
TORSDOF 10
ENDMDL
MODEL 3
REMARK VINA RESULT: -7.322740274      1.686      2.375
REMARK  10 active torsions:
REMARK  status: ('A' for Active; 'I' for Inactive)
REMARK    1  A    between atoms: C3_3  and  C5_5 
REMARK    2  A    between atoms: C5_5  and  O2_7 
REMARK    3  A    between atoms: O2_7  and  C6_8 
REMARK    4  A    between atoms: C7_9  and  O3_10 
REMARK    5  A    between atoms: O3_10  and  C8_11 
REMARK    6  A    between atoms: C12_16  and  O5_17 
REMARK    7  A    between atoms: C13_19  and  O6_20 
REMARK    8  A    between atoms: C25_33  and  C26_34 
REMARK    9  A    between atoms: C26_34  and  O7_37 
REMARK   10  A    between atoms: C35_46  and  O9_47 
ROOT
HETATM    1  C6  UNL     1       2.932  38.212  26.195  1.00  0.00     0.227 C 
HETATM    2  C7  UNL     1       2.780  38.517  27.656  1.00  0.00     0.167 C 
HETATM    3  C10 UNL     1       3.517  39.702  28.150  1.00  0.00     0.038 C 
HETATM    4  C11 UNL     1       4.937  39.812  27.638  1.00  0.00     0.049 C 
HETATM    5  C12 UNL     1       4.885  39.796  26.162  1.00  0.00     0.150 C 
HETATM    6  C13 UNL     1       6.249  39.651  25.490  1.00  0.00     0.120 C 
HETATM    7  C14 UNL     1       6.752  40.998  25.165  1.00  0.00     0.044 C 
HETATM    8  C15 UNL     1       7.855  41.045  24.117  1.00  0.00     0.009 C 
HETATM    9  C16 UNL     1       7.693  39.870  23.219  1.00  0.00     0.001 C 
HETATM   10  C17 UNL     1       6.210  39.648  23.077  1.00  0.00     0.023 C 
HETATM   11  C18 UNL     1       5.754  39.080  21.795  1.00  0.00     0.008 C 
HETATM   12  C19 UNL     1       6.213  39.958  20.665  1.00  0.00     0.006 C 
HETATM   13  C20 UNL     1       7.425  40.789  21.047  1.00  0.00    -0.006 C 
HETATM   14  C21 UNL     1       7.995  41.440  19.847  1.00  0.00     0.006 C 
HETATM   15  C22 UNL     1       9.257  42.202  20.152  1.00  0.00     0.010 C 
HETATM   16  C23 UNL     1      10.283  41.314  20.810  1.00  0.00    -0.033 C 
HETATM   17  C24 UNL     1      10.724  40.305  19.788  1.00  0.00     0.016 C 
HETATM   18  C25 UNL     1      11.393  42.040  21.466  1.00  0.00     0.028 C 
HETATM   19  C29 UNL     1      11.912  41.042  22.479  1.00  0.00     0.009 C 
HETATM   20  C30 UNL     1      10.791  40.018  22.691  1.00  0.00     0.007 C 
HETATM   21  C31 UNL     1       9.650  40.715  22.032  1.00  0.00     0.003 C 
HETATM   22  C32 UNL     1       8.402  39.986  21.875  1.00  0.00    -0.032 C 
HETATM   23  C33 UNL     1       8.548  38.563  21.374  1.00  0.00     0.016 C 
HETATM   24  C34 UNL     1       5.855  38.814  24.293  1.00  0.00     0.167 C 
HETATM   25  O8  UNL     1       4.529  38.500  24.393  1.00  0.00    -0.341 OA
HETATM   26  C35 UNL     1       4.316  38.432  25.743  1.00  0.00     0.227 C 
ENDROOT
BRANCH   1  27
HETATM   27  O2  UNL     1       1.950  38.835  25.398  1.00  0.00    -0.304 OA
BRANCH  27  28
HETATM   28  C5  UNL     1       1.203  38.175  24.436  1.00  0.00     0.289 C 
HETATM   29  O1  UNL     1       0.368  38.914  23.815  1.00  0.00    -0.260 OA
BRANCH  28  30
HETATM   30  C3  UNL     1       1.293  36.787  24.100  1.00  0.00     0.009 C 
HETATM   31  C2  UNL     1       1.880  36.313  23.010  1.00  0.00    -0.018 C 
HETATM   32  C1  UNL     1       2.501  37.213  22.033  1.00  0.00     0.036 C 
HETATM   33  C4  UNL     1       0.692  35.779  25.029  1.00  0.00     0.054 C 
ENDBRANCH  28  30
ENDBRANCH  27  28
ENDBRANCH   1  27
BRANCH   2  34
HETATM   34  O3  UNL     1       3.182  37.388  28.413  1.00  0.00    -0.314 OA
BRANCH  34  35
HETATM   35  C8  UNL     1       2.619  36.139  28.241  1.00  0.00     0.255 C 
HETATM   36  C9  UNL     1       1.249  35.864  28.764  1.00  0.00     0.126 C 
HETATM   37  O4  UNL     1       3.252  35.253  27.654  1.00  0.00    -0.266 OA
ENDBRANCH  34  35
ENDBRANCH   2  34
BRANCH  26  38
HETATM   38  O9  UNL     1       5.155  37.484  26.343  1.00  0.00    -0.361 OA
ATOM     39  H9  UNL     1       4.669  37.011  27.009  1.00  0.00     0.213 HD
ENDBRANCH  26  38
BRANCH   5  40
HETATM   40  O5  UNL     1       4.202  40.831  25.583  1.00  0.00    -0.381 OA
ATOM     41  H5  UNL     1       4.566  41.159  24.769  1.00  0.00     0.211 HD
ENDBRANCH   5  40
BRANCH   6  42
HETATM   42  O6  UNL     1       7.117  38.940  26.348  1.00  0.00    -0.384 OA
ATOM     43  H6  UNL     1       8.010  39.227  26.198  1.00  0.00     0.210 HD
ENDBRANCH   6  42
BRANCH  18  44
HETATM   44  C26 UNL     1      12.493  42.558  20.627  1.00  0.00     0.055 C 
HETATM   45  C27 UNL     1      13.592  43.013  21.608  1.00  0.00     0.045 C 
HETATM   46  C28 UNL     1      12.121  43.796  19.846  1.00  0.00     0.045 C 
BRANCH  44  47
HETATM   47  O7  UNL     1      13.115  41.614  19.830  1.00  0.00    -0.390 OA
ATOM     48  H7  UNL     1      12.977  40.711  20.093  1.00  0.00     0.210 HD
ENDBRANCH  44  47
ENDBRANCH  18  44
TORSDOF 10
ENDMDL
MODEL 4
REMARK VINA RESULT: -7.316051430      4.037     11.351
REMARK  10 active torsions:
REMARK  status: ('A' for Active; 'I' for Inactive)
REMARK    1  A    between atoms: C3_3  and  C5_5 
REMARK    2  A    between atoms: C5_5  and  O2_7 
REMARK    3  A    between atoms: O2_7  and  C6_8 
REMARK    4  A    between atoms: C7_9  and  O3_10 
REMARK    5  A    between atoms: O3_10  and  C8_11 
REMARK    6  A    between atoms: C12_16  and  O5_17 
REMARK    7  A    between atoms: C13_19  and  O6_20 
REMARK    8  A    between atoms: C25_33  and  C26_34 
REMARK    9  A    between atoms: C26_34  and  O7_37 
REMARK   10  A    between atoms: C35_46  and  O9_47 
ROOT
HETATM    1  C6  UNL     1       6.745  36.831  25.236  1.00  0.00     0.227 C 
HETATM    2  C7  UNL     1       7.519  37.982  24.663  1.00  0.00     0.167 C 
HETATM    3  C10 UNL     1       7.082  39.331  25.088  1.00  0.00     0.038 C 
HETATM    4  C11 UNL     1       5.582  39.532  25.088  1.00  0.00     0.049 C 
HETATM    5  C12 UNL     1       4.989  38.487  25.947  1.00  0.00     0.150 C 
HETATM    6  C13 UNL     1       3.468  38.394  25.860  1.00  0.00     0.120 C 
HETATM    7  C14 UNL     1       2.890  39.203  26.947  1.00  0.00     0.044 C 
HETATM    8  C15 UNL     1       1.442  38.885  27.296  1.00  0.00     0.009 C 
HETATM    9  C16 UNL     1       1.185  37.460  26.958  1.00  0.00     0.001 C 
HETATM   10  C17 UNL     1       2.457  36.716  27.270  1.00  0.00     0.023 C 
HETATM   11  C18 UNL     1       2.305  35.315  27.701  1.00  0.00     0.008 C 
HETATM   12  C19 UNL     1       1.413  35.253  28.907  1.00  0.00     0.006 C 
HETATM   13  C20 UNL     1       0.497  36.460  28.998  1.00  0.00    -0.006 C 
HETATM   14  C21 UNL     1      -0.529  36.244  30.042  1.00  0.00     0.006 C 
HETATM   15  C22 UNL     1      -1.525  37.371  30.111  1.00  0.00     0.010 C 
HETATM   16  C23 UNL     1      -2.176  37.604  28.771  1.00  0.00    -0.033 C 
HETATM   17  C24 UNL     1      -3.029  36.404  28.470  1.00  0.00     0.016 C 
HETATM   18  C25 UNL     1      -2.883  38.898  28.649  1.00  0.00     0.028 C 
HETATM   19  C29 UNL     1      -2.924  39.134  27.154  1.00  0.00     0.009 C 
HETATM   20  C30 UNL     1      -1.834  38.243  26.546  1.00  0.00     0.007 C 
HETATM   21  C31 UNL     1      -1.083  37.848  27.771  1.00  0.00     0.003 C 
HETATM   22  C32 UNL     1      -0.035  36.849  27.637  1.00  0.00    -0.032 C 
HETATM   23  C33 UNL     1      -0.400  35.643  26.796  1.00  0.00     0.016 C 
HETATM   24  C34 UNL     1       3.294  36.900  26.018  1.00  0.00     0.167 C 
HETATM   25  O8  UNL     1       4.529  36.317  26.075  1.00  0.00    -0.341 OA
HETATM   26  C35 UNL     1       5.304  37.131  25.296  1.00  0.00     0.227 C 
ENDROOT
BRANCH   1  27
HETATM   27  O2  UNL     1       7.292  36.347  26.443  1.00  0.00    -0.304 OA
BRANCH  27  28
HETATM   28  C5  UNL     1       8.192  35.296  26.516  1.00  0.00     0.289 C 
HETATM   29  O1  UNL     1       8.514  34.795  25.387  1.00  0.00    -0.260 OA
BRANCH  28  30
HETATM   30  C3  UNL     1       8.765  34.755  27.711  1.00  0.00     0.009 C 
HETATM   31  C2  UNL     1       8.607  35.272  28.921  1.00  0.00    -0.018 C 
HETATM   32  C1  UNL     1       7.806  36.481  29.130  1.00  0.00     0.036 C 
HETATM   33  C4  UNL     1       9.603  33.519  27.613  1.00  0.00     0.054 C 
ENDBRANCH  28  30
ENDBRANCH  27  28
ENDBRANCH   1  27
BRANCH   2  34
HETATM   34  O3  UNL     1       7.471  37.918  23.248  1.00  0.00    -0.314 OA
BRANCH  34  35
HETATM   35  C8  UNL     1       8.502  38.370  22.449  1.00  0.00     0.255 C 
HETATM   36  C9  UNL     1       8.726  39.837  22.288  1.00  0.00     0.126 C 
HETATM   37  O4  UNL     1       9.234  37.560  21.869  1.00  0.00    -0.266 OA
ENDBRANCH  34  35
ENDBRANCH   2  34
BRANCH  26  38
HETATM   38  O9  UNL     1       4.797  37.223  23.994  1.00  0.00    -0.361 OA
ATOM     39  H9  UNL     1       3.847  37.238  24.027  1.00  0.00     0.213 HD
ENDBRANCH  26  38
BRANCH   5  40
HETATM   40  O5  UNL     1       5.367  38.517  27.263  1.00  0.00    -0.381 OA
ATOM     41  H5  UNL     1       6.191  38.953  27.443  1.00  0.00     0.211 HD
ENDBRANCH   5  40
BRANCH   6  42
HETATM   42  O6  UNL     1       3.048  38.825  24.582  1.00  0.00    -0.384 OA
ATOM     43  H6  UNL     1       3.210  39.757  24.496  1.00  0.00     0.210 HD
ENDBRANCH   6  42
BRANCH  18  44
HETATM   44  C26 UNL     1      -4.232  39.025  29.238  1.00  0.00     0.055 C 
HETATM   45  C27 UNL     1      -4.789  40.369  28.727  1.00  0.00     0.045 C 
HETATM   46  C28 UNL     1      -4.220  39.147  30.743  1.00  0.00     0.045 C 
BRANCH  44  47
HETATM   47  O7  UNL     1      -5.151  38.087  28.804  1.00  0.00    -0.390 OA
ATOM     48  H7  UNL     1      -4.824  37.195  28.759  1.00  0.00     0.210 HD
ENDBRANCH  44  47
ENDBRANCH  18  44
TORSDOF 10
ENDMDL
MODEL 5
REMARK VINA RESULT: -7.269566609      1.976      2.942
REMARK  10 active torsions:
REMARK  status: ('A' for Active; 'I' for Inactive)
REMARK    1  A    between atoms: C3_3  and  C5_5 
REMARK    2  A    between atoms: C5_5  and  O2_7 
REMARK    3  A    between atoms: O2_7  and  C6_8 
REMARK    4  A    between atoms: C7_9  and  O3_10 
REMARK    5  A    between atoms: O3_10  and  C8_11 
REMARK    6  A    between atoms: C12_16  and  O5_17 
REMARK    7  A    between atoms: C13_19  and  O6_20 
REMARK    8  A    between atoms: C25_33  and  C26_34 
REMARK    9  A    between atoms: C26_34  and  O7_37 
REMARK   10  A    between atoms: C35_46  and  O9_47 
ROOT
HETATM    1  C6  UNL     1       3.488  37.949  23.770  1.00  0.00     0.227 C 
HETATM    2  C7  UNL     1       3.218  37.533  25.185  1.00  0.00     0.167 C 
HETATM    3  C10 UNL     1       4.028  38.209  26.225  1.00  0.00     0.038 C 
HETATM    4  C11 UNL     1       5.497  38.337  25.886  1.00  0.00     0.049 C 
HETATM    5  C12 UNL     1       5.601  39.041  24.592  1.00  0.00     0.150 C 
HETATM    6  C13 UNL     1       7.003  39.034  23.987  1.00  0.00     0.120 C 
HETATM    7  C14 UNL     1       7.686  40.278  24.384  1.00  0.00     0.044 C 
HETATM    8  C15 UNL     1       8.892  40.657  23.535  1.00  0.00     0.009 C 
HETATM    9  C16 UNL     1       8.695  40.098  22.171  1.00  0.00     0.001 C 
HETATM   10  C17 UNL     1       7.220  40.198  21.883  1.00  0.00     0.023 C 
HETATM   11  C18 UNL     1       6.841  40.392  20.472  1.00  0.00     0.008 C 
HETATM   12  C19 UNL     1       7.513  41.624  19.936  1.00  0.00     0.006 C 
HETATM   13  C20 UNL     1       8.763  41.976  20.722  1.00  0.00    -0.006 C 
HETATM   14  C21 UNL     1       9.527  43.031  20.018  1.00  0.00     0.006 C 
HETATM   15  C22 UNL     1      10.827  43.352  20.705  1.00  0.00     0.010 C 
HETATM   16  C23 UNL     1      11.671  42.115  20.880  1.00  0.00    -0.033 C 
HETATM   17  C24 UNL     1      12.102  41.669  19.512  1.00  0.00     0.016 C 
HETATM   18  C25 UNL     1      12.780  42.260  21.849  1.00  0.00     0.028 C 
HETATM   19  C29 UNL     1      13.074  40.833  22.260  1.00  0.00     0.009 C 
HETATM   20  C30 UNL     1      11.828  40.015  21.900  1.00  0.00     0.007 C 
HETATM   21  C31 UNL     1      10.849  41.105  21.626  1.00  0.00     0.003 C 
HETATM   22  C32 UNL     1       9.550  40.738  21.085  1.00  0.00    -0.032 C 
HETATM   23  C33 UNL     1       9.587  39.727  19.956  1.00  0.00     0.016 C 
HETATM   24  C34 UNL     1       6.646  38.945  22.519  1.00  0.00     0.167 C 
HETATM   25  O8  UNL     1       5.290  38.825  22.402  1.00  0.00    -0.341 OA
HETATM   26  C35 UNL     1       4.929  38.149  23.536  1.00  0.00     0.227 C 
ENDROOT
BRANCH   1  27
HETATM   27  O2  UNL     1       2.673  39.019  23.345  1.00  0.00    -0.304 OA
BRANCH  27  28
HETATM   28  C5  UNL     1       1.765  38.931  22.302  1.00  0.00     0.289 C 
HETATM   29  O1  UNL     1       1.746  37.800  21.710  1.00  0.00    -0.260 OA
BRANCH  28  30
HETATM   30  C3  UNL     1       0.884  39.968  21.858  1.00  0.00     0.009 C 
HETATM   31  C2  UNL     1      -0.047  40.537  22.612  1.00  0.00    -0.018 C 
HETATM   32  C1  UNL     1      -0.247  40.129  24.005  1.00  0.00     0.036 C 
HETATM   33  C4  UNL     1       1.001  40.462  20.450  1.00  0.00     0.054 C 
ENDBRANCH  28  30
ENDBRANCH  27  28
ENDBRANCH   1  27
BRANCH   2  34
HETATM   34  O3  UNL     1       3.407  36.134  25.305  1.00  0.00    -0.314 OA
BRANCH  34  35
HETATM   35  C8  UNL     1       2.645  35.218  24.607  1.00  0.00     0.255 C 
HETATM   36  C9  UNL     1       3.313  34.212  23.731  1.00  0.00     0.126 C 
HETATM   37  O4  UNL     1       1.413  35.236  24.710  1.00  0.00    -0.266 OA
ENDBRANCH  34  35
ENDBRANCH   2  34
BRANCH  26  38
HETATM   38  O9  UNL     1       5.587  36.916  23.624  1.00  0.00    -0.361 OA
ATOM     39  H9  UNL     1       6.331  36.998  24.210  1.00  0.00     0.213 HD
ENDBRANCH  26  38
BRANCH   5  40
HETATM   40  O5  UNL     1       5.103  40.316  24.570  1.00  0.00    -0.381 OA
ATOM     41  H5  UNL     1       5.748  41.009  24.644  1.00  0.00     0.211 HD
ENDBRANCH   5  40
BRANCH   6  42
HETATM   42  O6  UNL     1       7.689  37.877  24.416  1.00  0.00    -0.384 OA
ATOM     43  H6  UNL     1       8.620  38.062  24.458  1.00  0.00     0.210 HD
ENDBRANCH   6  42
BRANCH  18  44
HETATM   44  C26 UNL     1      14.015  42.946  21.414  1.00  0.00     0.055 C 
HETATM   45  C27 UNL     1      15.124  41.876  21.449  1.00  0.00     0.045 C 
HETATM   46  C28 UNL     1      14.472  44.023  22.369  1.00  0.00     0.045 C 
BRANCH  44  47
HETATM   47  O7  UNL     1      14.007  43.389  20.103  1.00  0.00    -0.390 OA
ATOM     48  H7  UNL     1      14.791  43.851  19.831  1.00  0.00     0.210 HD
ENDBRANCH  44  47
ENDBRANCH  18  44
TORSDOF 10
ENDMDL
