MODEL 1
REMARK VINA RESULT: -5.609448255      0.000      0.000
REMARK  3 active torsions:
REMARK  status: ('A' for Active; 'I' for Inactive)
REMARK    1  A    between atoms: C2_2  and  C4_4 
REMARK    2  A    between atoms: C4_4  and  N1_5 
REMARK    3  A    between atoms: C8_13  and  O2_14 
ROOT
HETATM    1  C4  UNL     1      16.222 -14.712 -19.338  1.00  0.00     0.195 C 
HETATM    2  C5  UNL     1      16.203 -15.255 -20.761  1.00  0.00     0.068 C 
HETATM    3  C6  UNL     1      15.027 -14.549 -21.423  1.00  0.00     0.039 C 
HETATM    4  C7  UNL     1      15.069 -13.068 -21.219  1.00  0.00     0.172 C 
HETATM    5  O1  UNL     1      15.543 -12.608 -20.061  1.00  0.00    -0.349 OA
HETATM    6  C8  UNL     1      16.578 -13.291 -19.444  1.00  0.00     0.231 C 
HETATM    7  C9  UNL     1      17.838 -12.992 -20.192  1.00  0.00     0.133 C 
HETATM    8  N2  UNL     1      18.258 -13.930 -21.138  1.00  0.00    -0.372 N 
HETATM    9  C10 UNL     1      19.025 -13.311 -22.184  1.00  0.00     0.154 C 
HETATM   10  C11 UNL     1      17.412 -14.955 -21.554  1.00  0.00     0.070 C 
ENDROOT
BRANCH   1  11
HETATM   11  C2  UNL     1      16.912 -15.570 -18.370  1.00  0.00     0.020 C 
HETATM   12  C1  UNL     1      16.868 -17.032 -18.779  1.00  0.00     0.012 C 
HETATM   13  C3  UNL     1      16.522 -15.516 -16.941  1.00  0.00     0.012 C 
ENDBRANCH   1  11
BRANCH   1  14
HETATM   14  N1  UNL     1      14.792 -14.727 -18.948  1.00  0.00    -0.064 N 
ATOM     15  H13 UNL     1      14.598 -14.212 -18.090  1.00  0.00     0.275 HD
ATOM     16  H12 UNL     1      14.197 -14.172 -19.562  1.00  0.00     0.275 HD
ATOM     17  H11 UNL     1      14.525 -15.710 -18.902  1.00  0.00     0.275 HD
ENDBRANCH   1  14
BRANCH   6  18
HETATM   18  O2  UNL     1      16.649 -12.710 -18.175  1.00  0.00    -0.359 OA
ATOM     19  H2  UNL     1      15.924 -12.111 -18.043  1.00  0.00     0.213 HD
ENDBRANCH   6  18
TORSDOF 3
ENDMDL
MODEL 2
REMARK VINA RESULT: -5.593776493      1.486      1.704
REMARK  3 active torsions:
REMARK  status: ('A' for Active; 'I' for Inactive)
REMARK    1  A    between atoms: C2_2  and  C4_4 
REMARK    2  A    between atoms: C4_4  and  N1_5 
REMARK    3  A    between atoms: C8_13  and  O2_14 
ROOT
HETATM    1  C4  UNL     1      15.391 -14.222 -18.950  1.00  0.00     0.195 C 
HETATM    2  C5  UNL     1      14.405 -14.640 -20.033  1.00  0.00     0.068 C 
HETATM    3  C6  UNL     1      13.269 -13.633 -19.925  1.00  0.00     0.039 C 
HETATM    4  C7  UNL     1      13.765 -12.221 -19.910  1.00  0.00     0.172 C 
HETATM    5  O1  UNL     1      14.924 -11.971 -19.302  1.00  0.00    -0.349 OA
HETATM    6  C8  UNL     1      15.930 -12.921 -19.364  1.00  0.00     0.231 C 
HETATM    7  C9  UNL     1      16.526 -12.873 -20.735  1.00  0.00     0.133 C 
HETATM    8  N2  UNL     1      16.070 -13.811 -21.664  1.00  0.00    -0.372 N 
HETATM    9  C10 UNL     1      16.182 -13.315 -23.008  1.00  0.00     0.154 C 
HETATM   10  C11 UNL     1      14.934 -14.576 -21.410  1.00  0.00     0.070 C 
ENDROOT
BRANCH   1  11
HETATM   11  C2  UNL     1      16.300 -15.287 -18.512  1.00  0.00     0.020 C 
HETATM   12  C1  UNL     1      15.878 -16.645 -19.046  1.00  0.00     0.012 C 
HETATM   13  C3  UNL     1      16.569 -15.464 -17.065  1.00  0.00     0.012 C 
ENDBRANCH   1  11
BRANCH   1  14
HETATM   14  N1  UNL     1      14.518 -13.930 -17.788  1.00  0.00    -0.064 N 
ATOM     15  H13 UNL     1      14.873 -14.301 -16.907  1.00  0.00     0.275 HD
ATOM     16  H12 UNL     1      14.518 -12.947 -17.516  1.00  0.00     0.275 HD
ATOM     17  H11 UNL     1      13.594 -14.284 -18.036  1.00  0.00     0.275 HD
ENDBRANCH   1  14
BRANCH   6  18
HETATM   18  O2  UNL     1      16.874 -12.467 -18.439  1.00  0.00    -0.359 OA
ATOM     19  H2  UNL     1      17.622 -12.090 -18.886  1.00  0.00     0.213 HD
ENDBRANCH   6  18
TORSDOF 3
ENDMDL
MODEL 3
REMARK VINA RESULT: -5.418518546      2.747      4.740
REMARK  3 active torsions:
REMARK  status: ('A' for Active; 'I' for Inactive)
REMARK    1  A    between atoms: C2_2  and  C4_4 
REMARK    2  A    between atoms: C4_4  and  N1_5 
REMARK    3  A    between atoms: C8_13  and  O2_14 
ROOT
HETATM    1  C4  UNL     1      17.331 -11.699 -22.433  1.00  0.00     0.195 C 
HETATM    2  C5  UNL     1      16.250 -12.687 -22.855  1.00  0.00     0.068 C 
HETATM    3  C6  UNL     1      16.934 -13.590 -23.871  1.00  0.00     0.039 C 
HETATM    4  C7  UNL     1      18.237 -14.124 -23.367  1.00  0.00     0.172 C 
HETATM    5  O1  UNL     1      18.977 -13.336 -22.587  1.00  0.00    -0.349 OA
HETATM    6  C8  UNL     1      18.340 -12.480 -21.704  1.00  0.00     0.231 C 
HETATM    7  C9  UNL     1      17.826 -13.296 -20.561  1.00  0.00     0.133 C 
HETATM    8  N2  UNL     1      16.484 -13.681 -20.601  1.00  0.00    -0.372 N 
HETATM    9  C10 UNL     1      16.269 -14.905 -19.881  1.00  0.00     0.154 C 
HETATM   10  C11 UNL     1      15.735 -13.542 -21.767  1.00  0.00     0.070 C 
ENDROOT
BRANCH   1  11
HETATM   11  C2  UNL     1      16.822 -10.448 -21.865  1.00  0.00     0.020 C 
HETATM   12  C1  UNL     1      15.306 -10.375 -21.925  1.00  0.00     0.012 C 
HETATM   13  C3  UNL     1      17.330  -9.154 -22.381  1.00  0.00     0.012 C 
ENDBRANCH   1  11
BRANCH   1  14
HETATM   14  N1  UNL     1      17.976 -11.332 -23.716  1.00  0.00    -0.064 N 
ATOM     15  H13 UNL     1      17.415 -10.699 -24.287  1.00  0.00     0.275 HD
ATOM     16  H12 UNL     1      18.782 -10.716 -23.605  1.00  0.00     0.275 HD
ATOM     17  H11 UNL     1      18.196 -12.212 -24.181  1.00  0.00     0.275 HD
ENDBRANCH   1  14
BRANCH   6  18
HETATM   18  O2  UNL     1      19.365 -11.647 -21.249  1.00  0.00    -0.359 OA
ATOM     19  H2  UNL     1      19.858 -11.298 -21.982  1.00  0.00     0.213 HD
ENDBRANCH   6  18
TORSDOF 3
ENDMDL
MODEL 4
REMARK VINA RESULT: -5.368347309      2.197      4.373
REMARK  3 active torsions:
REMARK  status: ('A' for Active; 'I' for Inactive)
REMARK    1  A    between atoms: C2_2  and  C4_4 
REMARK    2  A    between atoms: C4_4  and  N1_5 
REMARK    3  A    between atoms: C8_13  and  O2_14 
ROOT
HETATM    1  C4  UNL     1      17.768 -12.012 -21.347  1.00  0.00     0.195 C 
HETATM    2  C5  UNL     1      17.350 -12.563 -22.705  1.00  0.00     0.068 C 
HETATM    3  C6  UNL     1      18.341 -13.685 -22.983  1.00  0.00     0.039 C 
HETATM    4  C7  UNL     1      18.463 -14.630 -21.830  1.00  0.00     0.172 C 
HETATM    5  O1  UNL     1      18.364 -14.131 -20.598  1.00  0.00    -0.349 OA
HETATM    6  C8  UNL     1      17.498 -13.076 -20.371  1.00  0.00     0.231 C 
HETATM    7  C9  UNL     1      16.103 -13.615 -20.369  1.00  0.00     0.133 C 
HETATM    8  N2  UNL     1      15.371 -13.498 -21.553  1.00  0.00    -0.372 N 
HETATM    9  C10 UNL     1      14.388 -14.540 -21.666  1.00  0.00     0.154 C 
HETATM   10  C11 UNL     1      15.993 -13.141 -22.747  1.00  0.00     0.070 C 
ENDROOT
BRANCH   1  11
HETATM   11  C2  UNL     1      17.317 -10.642 -21.083  1.00  0.00     0.020 C 
HETATM   12  C1  UNL     1      17.174  -9.837 -22.363  1.00  0.00     0.012 C 
HETATM   13  C3  UNL     1      18.077  -9.797 -20.132  1.00  0.00     0.012 C 
ENDBRANCH   1  11
BRANCH   1  14
HETATM   14  N1  UNL     1      19.245 -11.942 -21.448  1.00  0.00    -0.064 N 
ATOM     15  H13 UNL     1      19.642 -11.097 -21.036  1.00  0.00     0.275 HD
ATOM     16  H12 UNL     1      19.727 -12.610 -20.846  1.00  0.00     0.275 HD
ATOM     17  H11 UNL     1      19.464 -12.054 -22.438  1.00  0.00     0.275 HD
ENDBRANCH   1  14
BRANCH   6  18
HETATM   18  O2  UNL     1      17.825 -12.648 -19.081  1.00  0.00    -0.359 OA
ATOM     19  H2  UNL     1      17.813 -11.699 -19.034  1.00  0.00     0.213 HD
ENDBRANCH   6  18
TORSDOF 3
ENDMDL
MODEL 5
REMARK VINA RESULT: -5.299947940      2.701      4.767
REMARK  3 active torsions:
REMARK  status: ('A' for Active; 'I' for Inactive)
REMARK    1  A    between atoms: C2_2  and  C4_4 
REMARK    2  A    between atoms: C4_4  and  N1_5 
REMARK    3  A    between atoms: C8_13  and  O2_14 
ROOT
HETATM    1  C4  UNL     1      17.986 -12.358 -22.540  1.00  0.00     0.195 C 
HETATM    2  C5  UNL     1      18.064 -11.752 -21.144  1.00  0.00     0.068 C 
HETATM    3  C6  UNL     1      17.534 -10.336 -21.312  1.00  0.00     0.039 C 
HETATM    4  C7  UNL     1      16.226 -10.304 -22.037  1.00  0.00     0.172 C 
HETATM    5  O1  UNL     1      16.024 -11.199 -23.003  1.00  0.00    -0.349 OA
HETATM    6  C8  UNL     1      16.557 -12.469 -22.861  1.00  0.00     0.231 C 
HETATM    7  C9  UNL     1      15.725 -13.210 -21.864  1.00  0.00     0.133 C 
HETATM    8  N2  UNL     1      16.190 -13.253 -20.548  1.00  0.00    -0.372 N 
HETATM    9  C10 UNL     1      15.106 -13.388 -19.614  1.00  0.00     0.154 C 
HETATM   10  C11 UNL     1      17.231 -12.427 -20.129  1.00  0.00     0.070 C 
ENDROOT
BRANCH   1  11
HETATM   11  C2  UNL     1      18.878 -13.501 -22.756  1.00  0.00     0.020 C 
HETATM   12  C1  UNL     1      20.311 -13.063 -23.001  1.00  0.00     0.012 C 
HETATM   13  C3  UNL     1      18.549 -14.490 -23.811  1.00  0.00     0.012 C 
ENDBRANCH   1  11
BRANCH   1  14
HETATM   14  N1  UNL     1      18.498 -11.273 -23.411  1.00  0.00    -0.064 N 
ATOM     15  H13 UNL     1      19.506 -11.312 -23.561  1.00  0.00     0.275 HD
ATOM     16  H12 UNL     1      18.224 -11.372 -24.388  1.00  0.00     0.275 HD
ATOM     17  H11 UNL     1      18.183 -10.401 -22.986  1.00  0.00     0.275 HD
ENDBRANCH   1  14
BRANCH   6  18
HETATM   18  O2  UNL     1      16.385 -13.046 -24.122  1.00  0.00    -0.359 OA
ATOM     19  H2  UNL     1      15.858 -13.834 -24.056  1.00  0.00     0.213 HD
ENDBRANCH   6  18
TORSDOF 3
ENDMDL
