MODEL 1
REMARK VINA RESULT: -5.608431111      0.000      0.000
REMARK  4 active torsions:
REMARK  status: ('A' for Active; 'I' for Inactive)
REMARK    1  A    between atoms: C2_2  and  C3_3 
REMARK    2  A    between atoms: C3_3  and  N1_4 
REMARK    3  A    between atoms: C10_11  and  O1_12 
REMARK    4  A    between atoms: C11_14  and  O2_15 
ROOT
HETATM    1  C3  UNL     1      17.272 -13.081 -21.360  1.00  0.00     0.054 C 
HETATM    2  C9  UNL     1      16.607 -13.475 -22.632  1.00  0.00     0.069 C 
HETATM    3  C10 UNL     1      16.653 -12.244 -23.514  1.00  0.00     0.149 C 
HETATM    4  C11 UNL     1      18.114 -11.832 -23.230  1.00  0.00     0.149 C 
HETATM    5  C12 UNL     1      17.985 -11.761 -21.710  1.00  0.00     0.069 C 
ENDROOT
BRANCH   1   6
HETATM    6  C2  UNL     1      18.382 -14.057 -21.149  1.00  0.00    -0.006 C 
HETATM    7  C1  UNL     1      18.249 -15.355 -21.137  1.00  0.00     0.009 C 
ENDBRANCH   1   6
BRANCH   1   8
HETATM    8  N1  UNL     1      16.503 -12.857 -20.242  1.00  0.00    -0.376 N 
HETATM    9  C4  UNL     1      16.454 -11.646 -19.553  1.00  0.00     0.060 C 
HETATM   10  C5  UNL     1      15.015 -11.216 -19.365  1.00  0.00     0.046 C 
HETATM   11  C6  UNL     1      14.264 -12.258 -20.162  1.00  0.00     0.030 C 
HETATM   12  C7  UNL     1      15.227 -13.443 -20.085  1.00  0.00     0.081 C 
HETATM   13  C8  UNL     1      15.023 -13.995 -18.657  1.00  0.00     0.032 C 
ENDBRANCH   1   8
BRANCH   3  14
HETATM   14  O1  UNL     1      15.883 -11.212 -23.008  1.00  0.00    -0.393 OA
ATOM     15  H1  UNL     1      16.349 -10.707 -22.352  1.00  0.00     0.210 HD
ENDBRANCH   3  14
BRANCH   4  16
HETATM   16  O2  UNL     1      18.425 -10.616 -23.787  1.00  0.00    -0.393 OA
ATOM     17  H2  UNL     1      18.114  -9.892 -23.257  1.00  0.00     0.210 HD
ENDBRANCH   4  16
TORSDOF 4
ENDMDL
MODEL 2
REMARK VINA RESULT: -5.603591592      1.727      2.486
REMARK  4 active torsions:
REMARK  status: ('A' for Active; 'I' for Inactive)
REMARK    1  A    between atoms: C2_2  and  C3_3 
REMARK    2  A    between atoms: C3_3  and  N1_4 
REMARK    3  A    between atoms: C10_11  and  O1_12 
REMARK    4  A    between atoms: C11_14  and  O2_15 
ROOT
HETATM    1  C3  UNL     1      17.664 -13.813 -21.878  1.00  0.00     0.054 C 
HETATM    2  C9  UNL     1      18.269 -14.310 -23.143  1.00  0.00     0.069 C 
HETATM    3  C10 UNL     1      19.343 -13.303 -23.504  1.00  0.00     0.149 C 
HETATM    4  C11 UNL     1      19.956 -13.132 -22.096  1.00  0.00     0.149 C 
HETATM    5  C12 UNL     1      18.661 -12.746 -21.385  1.00  0.00     0.069 C 
ENDROOT
BRANCH   1   6
HETATM    6  C2  UNL     1      17.793 -14.924 -20.888  1.00  0.00    -0.006 C 
HETATM    7  C1  UNL     1      18.039 -16.171 -21.186  1.00  0.00     0.009 C 
ENDBRANCH   1   6
BRANCH   1   8
HETATM    8  N1  UNL     1      16.416 -13.236 -21.911  1.00  0.00    -0.376 N 
HETATM    9  C4  UNL     1      15.222 -13.951 -21.999  1.00  0.00     0.060 C 
HETATM   10  C5  UNL     1      14.270 -13.502 -20.911  1.00  0.00     0.046 C 
HETATM   11  C6  UNL     1      15.127 -12.551 -20.108  1.00  0.00     0.030 C 
HETATM   12  C7  UNL     1      16.114 -12.069 -21.172  1.00  0.00     0.081 C 
HETATM   13  C8  UNL     1      15.297 -11.060 -22.007  1.00  0.00     0.032 C 
ENDBRANCH   1   8
BRANCH   3  14
HETATM   14  O1  UNL     1      18.812 -12.065 -23.818  1.00  0.00    -0.393 OA
ATOM     15  H1  UNL     1      19.483 -11.399 -23.903  1.00  0.00     0.210 HD
ENDBRANCH   3  14
BRANCH   4  16
HETATM   16  O2  UNL     1      20.892 -12.128 -22.060  1.00  0.00    -0.393 OA
ATOM     17  H2  UNL     1      20.491 -11.267 -22.075  1.00  0.00     0.210 HD
ENDBRANCH   4  16
TORSDOF 4
ENDMDL
MODEL 3
REMARK VINA RESULT: -5.583830102      2.113      3.371
REMARK  4 active torsions:
REMARK  status: ('A' for Active; 'I' for Inactive)
REMARK    1  A    between atoms: C2_2  and  C3_3 
REMARK    2  A    between atoms: C3_3  and  N1_4 
REMARK    3  A    between atoms: C10_11  and  O1_12 
REMARK    4  A    between atoms: C11_14  and  O2_15 
ROOT
HETATM    1  C3  UNL     1      16.447 -13.525 -21.252  1.00  0.00     0.054 C 
HETATM    2  C9  UNL     1      15.887 -12.484 -20.349  1.00  0.00     0.069 C 
HETATM    3  C10 UNL     1      17.085 -11.794 -19.729  1.00  0.00     0.149 C 
HETATM    4  C11 UNL     1      17.939 -11.659 -21.009  1.00  0.00     0.149 C 
HETATM    5  C12 UNL     1      17.934 -13.140 -21.382  1.00  0.00     0.069 C 
ENDROOT
BRANCH   1   6
HETATM    6  C2  UNL     1      15.876 -13.255 -22.606  1.00  0.00    -0.006 C 
HETATM    7  C1  UNL     1      16.482 -13.495 -23.738  1.00  0.00     0.009 C 
ENDBRANCH   1   6
BRANCH   1   8
HETATM    8  N1  UNL     1      16.388 -14.846 -20.874  1.00  0.00    -0.376 N 
HETATM    9  C4  UNL     1      17.506 -15.647 -20.647  1.00  0.00     0.060 C 
HETATM   10  C5  UNL     1      17.391 -16.324 -19.298  1.00  0.00     0.046 C 
HETATM   11  C6  UNL     1      16.142 -15.691 -18.728  1.00  0.00     0.030 C 
HETATM   12  C7  UNL     1      15.383 -15.328 -20.005  1.00  0.00     0.081 C 
HETATM   13  C8  UNL     1      14.807 -16.676 -20.490  1.00  0.00     0.032 C 
ENDBRANCH   1   8
BRANCH   3  14
HETATM   14  O1  UNL     1      17.804 -12.641 -18.905  1.00  0.00    -0.393 OA
ATOM     15  H1  UNL     1      18.474 -12.179 -18.414  1.00  0.00     0.210 HD
ENDBRANCH   3  14
BRANCH   4  16
HETATM   16  O2  UNL     1      19.201 -11.192 -20.740  1.00  0.00    -0.393 OA
ATOM     17  H2  UNL     1      19.304 -10.281 -20.986  1.00  0.00     0.210 HD
ENDBRANCH   4  16
TORSDOF 4
ENDMDL
MODEL 4
REMARK VINA RESULT: -5.510010367      2.264      3.754
REMARK  4 active torsions:
REMARK  status: ('A' for Active; 'I' for Inactive)
REMARK    1  A    between atoms: C2_2  and  C3_3 
REMARK    2  A    between atoms: C3_3  and  N1_4 
REMARK    3  A    between atoms: C10_11  and  O1_12 
REMARK    4  A    between atoms: C11_14  and  O2_15 
ROOT
HETATM    1  C3  UNL     1      17.489 -14.244 -21.410  1.00  0.00     0.054 C 
HETATM    2  C9  UNL     1      18.024 -12.906 -21.039  1.00  0.00     0.069 C 
HETATM    3  C10 UNL     1      19.264 -12.713 -21.889  1.00  0.00     0.149 C 
HETATM    4  C11 UNL     1      18.688 -13.229 -23.226  1.00  0.00     0.149 C 
HETATM    5  C12 UNL     1      18.239 -14.595 -22.710  1.00  0.00     0.069 C 
ENDROOT
BRANCH   1   6
HETATM    6  C2  UNL     1      16.078 -14.025 -21.845  1.00  0.00    -0.006 C 
HETATM    7  C1  UNL     1      15.341 -12.999 -21.516  1.00  0.00     0.009 C 
ENDBRANCH   1   6
BRANCH   1   8
HETATM    8  N1  UNL     1      17.648 -15.297 -20.538  1.00  0.00    -0.376 N 
HETATM    9  C4  UNL     1      17.115 -15.337 -19.251  1.00  0.00     0.060 C 
HETATM   10  C5  UNL     1      16.349 -16.627 -19.050  1.00  0.00     0.046 C 
HETATM   11  C6  UNL     1      16.391 -17.243 -20.429  1.00  0.00     0.030 C 
HETATM   12  C7  UNL     1      17.680 -16.637 -20.987  1.00  0.00     0.081 C 
HETATM   13  C8  UNL     1      18.799 -17.444 -20.295  1.00  0.00     0.032 C 
ENDBRANCH   1   8
BRANCH   3  14
HETATM   14  O1  UNL     1      20.265 -13.607 -21.559  1.00  0.00    -0.393 OA
ATOM     15  H1  UNL     1      19.993 -14.510 -21.677  1.00  0.00     0.210 HD
ENDBRANCH   3  14
BRANCH   4  16
HETATM   16  O2  UNL     1      19.652 -13.328 -24.198  1.00  0.00    -0.393 OA
ATOM     17  H2  UNL     1      19.350 -13.821 -24.951  1.00  0.00     0.210 HD
ENDBRANCH   4  16
TORSDOF 4
ENDMDL
MODEL 5
REMARK VINA RESULT: -5.437225775      2.977      5.017
REMARK  4 active torsions:
REMARK  status: ('A' for Active; 'I' for Inactive)
REMARK    1  A    between atoms: C2_2  and  C3_3 
REMARK    2  A    between atoms: C3_3  and  N1_4 
REMARK    3  A    between atoms: C10_11  and  O1_12 
REMARK    4  A    between atoms: C11_14  and  O2_15 
ROOT
HETATM    1  C3  UNL     1      15.822 -14.212 -19.675  1.00  0.00     0.054 C 
HETATM    2  C9  UNL     1      15.467 -15.655 -19.748  1.00  0.00     0.069 C 
HETATM    3  C10 UNL     1      16.374 -16.348 -18.751  1.00  0.00     0.149 C 
HETATM    4  C11 UNL     1      16.230 -15.336 -17.593  1.00  0.00     0.149 C 
HETATM    5  C12 UNL     1      16.656 -14.101 -18.384  1.00  0.00     0.069 C 
ENDROOT
BRANCH   1   6
HETATM    6  C2  UNL     1      14.555 -13.485 -19.360  1.00  0.00    -0.006 C 
HETATM    7  C1  UNL     1      14.359 -12.207 -19.535  1.00  0.00     0.009 C 
ENDBRANCH   1   6
BRANCH   1   8
HETATM    8  N1  UNL     1      16.552 -13.646 -20.694  1.00  0.00    -0.376 N 
HETATM    9  C4  UNL     1      17.821 -13.091 -20.536  1.00  0.00     0.060 C 
HETATM   10  C5  UNL     1      18.770 -13.671 -21.563  1.00  0.00     0.046 C 
HETATM   11  C6  UNL     1      17.918 -14.730 -22.224  1.00  0.00     0.030 C 
HETATM   12  C7  UNL     1      16.515 -14.160 -22.011  1.00  0.00     0.081 C 
HETATM   13  C8  UNL     1      16.409 -13.033 -23.061  1.00  0.00     0.032 C 
ENDBRANCH   1   8
BRANCH   3  14
HETATM   14  O1  UNL     1      17.704 -16.282 -19.123  1.00  0.00    -0.393 OA
ATOM     15  H1  UNL     1      17.846 -15.673 -19.838  1.00  0.00     0.210 HD
ENDBRANCH   3  14
BRANCH   4  16
HETATM   16  O2  UNL     1      17.086 -15.614 -16.556  1.00  0.00    -0.393 OA
ATOM     17  H2  UNL     1      16.828 -15.177 -15.753  1.00  0.00     0.210 HD
ENDBRANCH   4  16
TORSDOF 4
ENDMDL
