MODEL 1
REMARK VINA RESULT: -6.382233406      0.000      0.000
REMARK  3 active torsions:
REMARK  status: ('A' for Active; 'I' for Inactive)
REMARK    1  A    between atoms: N1_1  and  C1_5 
REMARK    2  A    between atoms: C3_7  and  N2_8 
REMARK    3  A    between atoms: C10_15  and  C11_16 
ROOT
HETATM    1  C1  UNL     1      15.034 -14.981 -18.821  1.00  0.00     0.199 C 
HETATM    2  C2  UNL     1      14.110 -15.061 -19.990  1.00  0.00     0.058 C 
HETATM    3  C3  UNL     1      14.310 -16.431 -20.596  1.00  0.00     0.082 C 
HETATM    4  C9  UNL     1      15.575 -16.973 -19.980  1.00  0.00     0.042 C 
HETATM    5  C10 UNL     1      16.195 -15.837 -19.203  1.00  0.00     0.119 C 
ENDROOT
BRANCH   3   6
HETATM    6  N2  UNL     1      13.187 -17.248 -20.484  1.00  0.00    -0.408 N 
HETATM    7  C4  UNL     1      11.897 -16.742 -20.676  1.00  0.00     0.117 C 
HETATM    8  C5  UNL     1      10.945 -17.390 -19.655  1.00  0.00     0.019 C 
HETATM    9  C6  UNL     1      10.913 -18.876 -19.800  1.00  0.00     0.003 C 
HETATM   10  C7  UNL     1      12.163 -19.382 -20.513  1.00  0.00     0.019 C 
HETATM   11  C8  UNL     1      13.313 -18.547 -19.940  1.00  0.00     0.117 C 
ENDBRANCH   3   6
BRANCH   1  12
HETATM   12  N1  UNL     1      15.396 -13.602 -18.540  1.00  0.00    -0.074 N 
ATOM     13  H13 UNL     1      15.004 -12.962 -19.230  1.00  0.00     0.274 HD
ATOM     14  H12 UNL     1      14.918 -13.249 -17.711  1.00  0.00     0.274 HD
ATOM     15  H11 UNL     1      16.409 -13.501 -18.463  1.00  0.00     0.274 HD
ENDBRANCH   1  12
BRANCH   5  16
HETATM   16  C11 UNL     1      16.892 -16.398 -18.027  1.00  0.00     0.179 C 
HETATM   17  O1  UNL     1      16.944 -15.793 -16.934  1.00  0.00    -0.648 OA
HETATM   18  O2  UNL     1      17.507 -17.636 -18.163  1.00  0.00    -0.648 OA
ENDBRANCH   5  16
TORSDOF 3
ENDMDL
MODEL 2
REMARK VINA RESULT: -6.369390526      2.939      5.327
REMARK  3 active torsions:
REMARK  status: ('A' for Active; 'I' for Inactive)
REMARK    1  A    between atoms: N1_1  and  C1_5 
REMARK    2  A    between atoms: C3_7  and  N2_8 
REMARK    3  A    between atoms: C10_15  and  C11_16 
ROOT
HETATM    1  C1  UNL     1      14.393 -19.737 -19.520  1.00  0.00     0.199 C 
HETATM    2  C2  UNL     1      15.592 -18.927 -19.887  1.00  0.00     0.058 C 
HETATM    3  C3  UNL     1      15.078 -17.559 -20.272  1.00  0.00     0.082 C 
HETATM    4  C9  UNL     1      13.589 -17.713 -20.450  1.00  0.00     0.042 C 
HETATM    5  C10 UNL     1      13.299 -19.193 -20.378  1.00  0.00     0.119 C 
ENDROOT
BRANCH   3   6
HETATM    6  N2  UNL     1      15.480 -16.556 -19.392  1.00  0.00    -0.408 N 
HETATM    7  C4  UNL     1      14.851 -15.307 -19.377  1.00  0.00     0.117 C 
HETATM    8  C5  UNL     1      15.912 -14.213 -19.161  1.00  0.00     0.019 C 
HETATM    9  C6  UNL     1      16.646 -14.405 -17.875  1.00  0.00     0.003 C 
HETATM   10  C7  UNL     1      16.541 -15.850 -17.397  1.00  0.00     0.019 C 
HETATM   11  C8  UNL     1      16.684 -16.699 -18.664  1.00  0.00     0.117 C 
ENDBRANCH   3   6
BRANCH   1  12
HETATM   12  N1  UNL     1      14.642 -21.154 -19.726  1.00  0.00    -0.074 N 
ATOM     13  H13 UNL     1      14.157 -21.726 -19.035  1.00  0.00     0.274 HD
ATOM     14  H12 UNL     1      14.178 -21.500 -20.566  1.00  0.00     0.274 HD
ATOM     15  H11 UNL     1      15.643 -21.350 -19.741  1.00  0.00     0.274 HD
ENDBRANCH   1  12
BRANCH   5  16
HETATM   16  C11 UNL     1      11.964 -19.381 -19.773  1.00  0.00     0.179 C 
HETATM   17  O1  UNL     1      11.096 -18.481 -19.786  1.00  0.00    -0.648 OA
HETATM   18  O2  UNL     1      11.687 -20.601 -19.171  1.00  0.00    -0.648 OA
ENDBRANCH   5  16
TORSDOF 3
ENDMDL
MODEL 3
REMARK VINA RESULT: -6.258829455      2.903      5.390
REMARK  3 active torsions:
REMARK  status: ('A' for Active; 'I' for Inactive)
REMARK    1  A    between atoms: N1_1  and  C1_5 
REMARK    2  A    between atoms: C3_7  and  N2_8 
REMARK    3  A    between atoms: C10_15  and  C11_16 
ROOT
HETATM    1  C1  UNL     1      14.423 -19.749 -19.528  1.00  0.00     0.199 C 
HETATM    2  C2  UNL     1      15.589 -18.981 -20.055  1.00  0.00     0.058 C 
HETATM    3  C3  UNL     1      15.059 -17.621 -20.447  1.00  0.00     0.082 C 
HETATM    4  C9  UNL     1      13.557 -17.752 -20.460  1.00  0.00     0.042 C 
HETATM    5  C10 UNL     1      13.253 -19.221 -20.291  1.00  0.00     0.119 C 
ENDROOT
BRANCH   3   6
HETATM    6  N2  UNL     1      15.568 -16.589 -19.661  1.00  0.00    -0.408 N 
HETATM    7  C4  UNL     1      16.735 -16.755 -18.908  1.00  0.00     0.117 C 
HETATM    8  C5  UNL     1      16.565 -16.042 -17.554  1.00  0.00     0.019 C 
HETATM    9  C6  UNL     1      16.302 -14.583 -17.731  1.00  0.00     0.003 C 
HETATM   10  C7  UNL     1      15.761 -14.290 -19.126  1.00  0.00     0.019 C 
HETATM   11  C8  UNL     1      14.786 -15.435 -19.423  1.00  0.00     0.117 C 
ENDBRANCH   3   6
BRANCH   1  12
HETATM   12  N1  UNL     1      14.625 -21.178 -19.694  1.00  0.00    -0.074 N 
ATOM     13  H13 UNL     1      14.889 -21.625 -18.816  1.00  0.00     0.274 HD
ATOM     14  H12 UNL     1      13.745 -21.667 -19.857  1.00  0.00     0.274 HD
ATOM     15  H11 UNL     1      15.304 -21.367 -20.431  1.00  0.00     0.274 HD
ENDBRANCH   1  12
BRANCH   5  16
HETATM   16  C11 UNL     1      11.986 -19.354 -19.541  1.00  0.00     0.179 C 
HETATM   17  O1  UNL     1      11.638 -20.431 -19.011  1.00  0.00    -0.648 OA
HETATM   18  O2  UNL     1      11.169 -18.236 -19.440  1.00  0.00    -0.648 OA
ENDBRANCH   5  16
TORSDOF 3
ENDMDL
MODEL 4
REMARK VINA RESULT: -6.140825018      0.305      1.298
REMARK  3 active torsions:
REMARK  status: ('A' for Active; 'I' for Inactive)
REMARK    1  A    between atoms: N1_1  and  C1_5 
REMARK    2  A    between atoms: C3_7  and  N2_8 
REMARK    3  A    between atoms: C10_15  and  C11_16 
ROOT
HETATM    1  C1  UNL     1      14.891 -14.819 -18.789  1.00  0.00     0.199 C 
HETATM    2  C2  UNL     1      13.880 -15.028 -19.867  1.00  0.00     0.058 C 
HETATM    3  C3  UNL     1      14.094 -16.432 -20.384  1.00  0.00     0.082 C 
HETATM    4  C9  UNL     1      15.429 -16.873 -19.838  1.00  0.00     0.042 C 
HETATM    5  C10 UNL     1      16.057 -15.655 -19.204  1.00  0.00     0.119 C 
ENDROOT
BRANCH   3   6
HETATM    6  N2  UNL     1      13.023 -17.283 -20.116  1.00  0.00    -0.408 N 
HETATM    7  C4  UNL     1      13.226 -18.630 -19.801  1.00  0.00     0.117 C 
HETATM    8  C5  UNL     1      12.127 -19.474 -20.473  1.00  0.00     0.019 C 
HETATM    9  C6  UNL     1      10.765 -19.066 -20.018  1.00  0.00     0.003 C 
HETATM   10  C7  UNL     1      10.779 -17.648 -19.456  1.00  0.00     0.019 C 
HETATM   11  C8  UNL     1      11.702 -16.859 -20.390  1.00  0.00     0.117 C 
ENDBRANCH   3   6
BRANCH   1  12
HETATM   12  N1  UNL     1      15.210 -13.410 -18.644  1.00  0.00    -0.074 N 
ATOM     13  H13 UNL     1      14.771 -12.847 -19.371  1.00  0.00     0.274 HD
ATOM     14  H12 UNL     1      14.748 -13.001 -17.832  1.00  0.00     0.274 HD
ATOM     15  H11 UNL     1      16.220 -13.266 -18.615  1.00  0.00     0.274 HD
ENDBRANCH   1  12
BRANCH   5  16
HETATM   16  C11 UNL     1      16.873 -16.094 -18.052  1.00  0.00     0.179 C 
HETATM   17  O1  UNL     1      17.099 -15.347 -17.076  1.00  0.00    -0.648 OA
HETATM   18  O2  UNL     1      17.399 -17.379 -18.079  1.00  0.00    -0.648 OA
ENDBRANCH   5  16
TORSDOF 3
ENDMDL
MODEL 5
REMARK VINA RESULT: -6.129477467      0.962      1.607
REMARK  3 active torsions:
REMARK  status: ('A' for Active; 'I' for Inactive)
REMARK    1  A    between atoms: N1_1  and  C1_5 
REMARK    2  A    between atoms: C3_7  and  N2_8 
REMARK    3  A    between atoms: C10_15  and  C11_16 
ROOT
HETATM    1  C1  UNL     1      15.607 -15.688 -19.744  1.00  0.00     0.199 C 
HETATM    2  C2  UNL     1      14.542 -15.919 -20.764  1.00  0.00     0.058 C 
HETATM    3  C3  UNL     1      14.233 -17.398 -20.729  1.00  0.00     0.082 C 
HETATM    4  C9  UNL     1      15.353 -18.034 -19.945  1.00  0.00     0.042 C 
HETATM    5  C10 UNL     1      16.391 -16.959 -19.729  1.00  0.00     0.119 C 
ENDROOT
BRANCH   3   6
HETATM    6  N2  UNL     1      12.945 -17.676 -20.274  1.00  0.00    -0.408 N 
HETATM    7  C4  UNL     1      12.651 -18.872 -19.612  1.00  0.00     0.117 C 
HETATM    8  C5  UNL     1      11.267 -19.371 -20.066  1.00  0.00     0.019 C 
HETATM    9  C6  UNL     1      10.198 -18.372 -19.768  1.00  0.00     0.003 C 
HETATM   10  C7  UNL     1      10.787 -16.976 -19.597  1.00  0.00     0.019 C 
HETATM   11  C8  UNL     1      11.863 -16.863 -20.683  1.00  0.00     0.117 C 
ENDBRANCH   3   6
BRANCH   1  12
HETATM   12  N1  UNL     1      16.402 -14.520 -20.080  1.00  0.00    -0.074 N 
ATOM     13  H13 UNL     1      17.016 -14.249 -19.311  1.00  0.00     0.274 HD
ATOM     14  H12 UNL     1      17.114 -14.736 -20.777  1.00  0.00     0.274 HD
ATOM     15  H11 UNL     1      15.806 -13.747 -20.377  1.00  0.00     0.274 HD
ENDBRANCH   1  12
BRANCH   5  16
HETATM   16  C11 UNL     1      17.051 -17.198 -18.429  1.00  0.00     0.179 C 
HETATM   17  O1  UNL     1      17.047 -16.345 -17.516  1.00  0.00    -0.648 OA
HETATM   18  O2  UNL     1      17.694 -18.414 -18.240  1.00  0.00    -0.648 OA
ENDBRANCH   5  16
TORSDOF 3
ENDMDL
