MODEL 1
REMARK VINA RESULT: -7.305052879      0.000      0.000
REMARK  5 active torsions:
REMARK  status: ('A' for Active; 'I' for Inactive)
REMARK    1  A    between atoms: C3_4  and  O1_5 
REMARK    2  A    between atoms: C4_7  and  O2_8 
REMARK    3  A    between atoms: C6_11  and  C7_12 
REMARK    4  A    between atoms: C7_12  and  C8_13 
REMARK    5  A    between atoms: C8_13  and  C9_14 
ROOT
HETATM    1  N1  UNL     1       1.751   2.762   3.049  1.00  0.00    -0.191 NA
HETATM    2  C1  UNL     1       1.278   1.832   3.557  1.00  0.00     0.105 C 
HETATM    3  C2  UNL     1       0.697   0.672   4.180  1.00  0.00     0.119 A 
HETATM    4  C3  UNL     1       0.042  -0.222   3.355  1.00  0.00     0.122 A 
HETATM    5  C4  UNL     1      -0.517  -1.341   3.952  1.00  0.00     0.101 A 
HETATM    6  C5  UNL     1      -0.421  -1.547   5.317  1.00  0.00     0.049 A 
HETATM    7  C6  UNL     1       0.231  -0.657   6.144  1.00  0.00    -0.015 A 
HETATM    8  C15 UNL     1       0.788   0.457   5.543  1.00  0.00     0.146 A 
HETATM    9  F1  UNL     1       1.450   1.377   6.318  1.00  0.00    -0.204 F 
ENDROOT
BRANCH   4  10
HETATM   10  O1  UNL     1      -0.050  -0.005   1.977  1.00  0.00    -0.356 OA
ATOM     11  H1  UNL     1       0.669  -0.219   1.395  1.00  0.00     0.218 HD
ENDBRANCH   4  10
BRANCH   5  12
HETATM   12  O2  UNL     1      -1.170  -2.226   3.105  1.00  0.00    -0.358 OA
ATOM     13  H2  UNL     1      -0.645  -2.935   2.752  1.00  0.00     0.217 HD
ENDBRANCH   5  12
BRANCH   7  14
HETATM   14  C7  UNL     1       0.348  -0.846   7.620  1.00  0.00     0.042 C 
BRANCH  14  15
HETATM   15  C8  UNL     1      -0.982  -0.820   8.300  1.00  0.00     0.009 C 
BRANCH  15  16
HETATM   16  C9  UNL     1      -1.195   0.366   9.218  1.00  0.00    -0.014 C 
HETATM   17  C10 UNL     1      -0.105   0.505  10.179  1.00  0.00     0.004 C 
HETATM   18  C11 UNL     1       0.900   1.588   9.895  1.00  0.00     0.000 C 
HETATM   19  C12 UNL     1       0.146   2.881   9.607  1.00  0.00     0.000 C 
HETATM   20  C13 UNL     1      -0.557   2.634   8.304  1.00  0.00     0.000 C 
HETATM   21  C14 UNL     1      -1.552   1.533   8.377  1.00  0.00     0.004 C 
ENDBRANCH  15  16
ENDBRANCH  14  15
ENDBRANCH   7  14
TORSDOF 5
ENDMDL
MODEL 2
REMARK VINA RESULT: -7.304375566      2.285      3.574
REMARK  5 active torsions:
REMARK  status: ('A' for Active; 'I' for Inactive)
REMARK    1  A    between atoms: C3_4  and  O1_5 
REMARK    2  A    between atoms: C4_7  and  O2_8 
REMARK    3  A    between atoms: C6_11  and  C7_12 
REMARK    4  A    between atoms: C7_12  and  C8_13 
REMARK    5  A    between atoms: C8_13  and  C9_14 
ROOT
HETATM    1  N1  UNL     1      -1.632  -2.763   2.970  1.00  0.00    -0.191 NA
HETATM    2  C1  UNL     1      -1.201  -1.829   3.506  1.00  0.00     0.105 C 
HETATM    3  C2  UNL     1      -0.672  -0.662   4.163  1.00  0.00     0.119 A 
HETATM    4  C3  UNL     1      -0.035   0.271   3.369  1.00  0.00     0.122 A 
HETATM    5  C4  UNL     1       0.474   1.396   3.999  1.00  0.00     0.101 A 
HETATM    6  C5  UNL     1       0.348   1.569   5.366  1.00  0.00     0.049 A 
HETATM    7  C6  UNL     1      -0.287   0.639   6.164  1.00  0.00    -0.015 A 
HETATM    8  C15 UNL     1      -0.794  -0.481   5.529  1.00  0.00     0.146 A 
HETATM    9  F1  UNL     1      -1.435  -1.439   6.273  1.00  0.00    -0.204 F 
ENDROOT
BRANCH   4  10
HETATM   10  O1  UNL     1       0.088   0.088   1.989  1.00  0.00    -0.356 OA
ATOM     11  H1  UNL     1       0.089   0.826   1.392  1.00  0.00     0.218 HD
ENDBRANCH   4  10
BRANCH   5  12
HETATM   12  O2  UNL     1       1.110   2.322   3.184  1.00  0.00    -0.358 OA
ATOM     13  H2  UNL     1       1.952   2.640   3.487  1.00  0.00     0.217 HD
ENDBRANCH   5  12
BRANCH   7  14
HETATM   14  C7  UNL     1      -0.435   0.792   7.641  1.00  0.00     0.042 C 
BRANCH  14  15
HETATM   15  C8  UNL     1       0.885   0.832   8.340  1.00  0.00     0.009 C 
BRANCH  15  16
HETATM   16  C9  UNL     1       1.154  -0.355   9.242  1.00  0.00    -0.014 C 
HETATM   17  C10 UNL     1       0.104  -0.519  10.243  1.00  0.00     0.004 C 
HETATM   18  C11 UNL     1      -0.891  -1.619   9.991  1.00  0.00     0.000 C 
HETATM   19  C12 UNL     1      -0.125  -2.896   9.666  1.00  0.00     0.000 C 
HETATM   20  C13 UNL     1       0.524  -2.629   8.339  1.00  0.00     0.000 C 
HETATM   21  C14 UNL     1       1.500  -1.511   8.381  1.00  0.00     0.004 C 
ENDBRANCH  15  16
ENDBRANCH  14  15
ENDBRANCH   7  14
TORSDOF 5
ENDMDL
MODEL 3
REMARK VINA RESULT: -6.898771279      3.954      6.348
REMARK  5 active torsions:
REMARK  status: ('A' for Active; 'I' for Inactive)
REMARK    1  A    between atoms: C3_4  and  O1_5 
REMARK    2  A    between atoms: C4_7  and  O2_8 
REMARK    3  A    between atoms: C6_11  and  C7_12 
REMARK    4  A    between atoms: C7_12  and  C8_13 
REMARK    5  A    between atoms: C8_13  and  C9_14 
ROOT
HETATM    1  N1  UNL     1      -1.187  -2.811  10.409  1.00  0.00    -0.191 NA
HETATM    2  C1  UNL     1      -0.879  -1.769  10.002  1.00  0.00     0.105 C 
HETATM    3  C2  UNL     1      -0.486  -0.478   9.499  1.00  0.00     0.119 A 
HETATM    4  C3  UNL     1       0.064   0.407  10.406  1.00  0.00     0.122 A 
HETATM    5  C4  UNL     1       0.444   1.650   9.925  1.00  0.00     0.101 A 
HETATM    6  C5  UNL     1       0.276   1.984   8.593  1.00  0.00     0.049 A 
HETATM    7  C6  UNL     1      -0.274   1.103   7.684  1.00  0.00    -0.015 A 
HETATM    8  C15 UNL     1      -0.651  -0.136   8.169  1.00  0.00     0.146 A 
HETATM    9  F1  UNL     1      -1.203  -1.052   7.310  1.00  0.00    -0.204 F 
ENDROOT
BRANCH   4  10
HETATM   10  O1  UNL     1       0.229   0.061  11.750  1.00  0.00    -0.356 OA
ATOM     11  H1  UNL     1      -0.081   0.626  12.447  1.00  0.00     0.218 HD
ENDBRANCH   4  10
BRANCH   5  12
HETATM   12  O2  UNL     1       0.994   2.524  10.852  1.00  0.00    -0.358 OA
ATOM     13  H2  UNL     1       1.902   2.369  11.089  1.00  0.00     0.217 HD
ENDBRANCH   5  12
BRANCH   7  14
HETATM   14  C7  UNL     1      -0.475   1.434   6.243  1.00  0.00     0.042 C 
BRANCH  14  15
HETATM   15  C8  UNL     1       0.768   1.235   5.438  1.00  0.00     0.009 C 
BRANCH  15  16
HETATM   16  C9  UNL     1       0.568   0.451   4.157  1.00  0.00    -0.014 C 
HETATM   17  C10 UNL     1       1.186  -0.869   4.233  1.00  0.00     0.004 C 
HETATM   18  C11 UNL     1       0.255  -2.030   4.455  1.00  0.00     0.000 C 
HETATM   19  C12 UNL     1      -0.891  -1.926   3.456  1.00  0.00     0.000 C 
HETATM   20  C13 UNL     1      -1.660  -0.708   3.875  1.00  0.00     0.000 C 
HETATM   21  C14 UNL     1      -0.864   0.543   3.787  1.00  0.00     0.004 C 
ENDBRANCH  15  16
ENDBRANCH  14  15
ENDBRANCH   7  14
TORSDOF 5
ENDMDL
MODEL 4
REMARK VINA RESULT: -6.896813959      3.493      5.597
REMARK  5 active torsions:
REMARK  status: ('A' for Active; 'I' for Inactive)
REMARK    1  A    between atoms: C3_4  and  O1_5 
REMARK    2  A    between atoms: C4_7  and  O2_8 
REMARK    3  A    between atoms: C6_11  and  C7_12 
REMARK    4  A    between atoms: C7_12  and  C8_13 
REMARK    5  A    between atoms: C8_13  and  C9_14 
ROOT
HETATM    1  N1  UNL     1       1.292   2.778  10.512  1.00  0.00    -0.191 NA
HETATM    2  C1  UNL     1       0.949   1.754  10.088  1.00  0.00     0.105 C 
HETATM    3  C2  UNL     1       0.512   0.487   9.564  1.00  0.00     0.119 A 
HETATM    4  C3  UNL     1      -0.082  -0.388  10.453  1.00  0.00     0.122 A 
HETATM    5  C4  UNL     1      -0.505  -1.609   9.951  1.00  0.00     0.101 A 
HETATM    6  C5  UNL     1      -0.334  -1.932   8.617  1.00  0.00     0.049 A 
HETATM    7  C6  UNL     1       0.260  -1.062   7.726  1.00  0.00    -0.015 A 
HETATM    8  C15 UNL     1       0.679   0.155   8.232  1.00  0.00     0.146 A 
HETATM    9  F1  UNL     1       1.277   1.060   7.391  1.00  0.00    -0.204 F 
ENDROOT
BRANCH   4  10
HETATM   10  O1  UNL     1      -0.251  -0.053  11.799  1.00  0.00    -0.356 OA
ATOM     11  H1  UNL     1      -0.824  -0.555  12.364  1.00  0.00     0.218 HD
ENDBRANCH   4  10
BRANCH   5  12
HETATM   12  O2  UNL     1      -1.100  -2.473  10.860  1.00  0.00    -0.358 OA
ATOM     13  H2  UNL     1      -1.882  -2.923  10.562  1.00  0.00     0.217 HD
ENDBRANCH   5  12
BRANCH   7  14
HETATM   14  C7  UNL     1       0.465  -1.383   6.283  1.00  0.00     0.042 C 
BRANCH  14  15
HETATM   15  C8  UNL     1      -0.788  -1.225   5.485  1.00  0.00     0.009 C 
BRANCH  15  16
HETATM   16  C9  UNL     1      -0.621  -0.433   4.205  1.00  0.00    -0.014 C 
HETATM   17  C10 UNL     1      -1.171   0.914   4.330  1.00  0.00     0.004 C 
HETATM   18  C11 UNL     1      -0.175   2.026   4.515  1.00  0.00     0.000 C 
HETATM   19  C12 UNL     1       0.908   1.885   3.452  1.00  0.00     0.000 C 
HETATM   20  C13 UNL     1       1.640   0.626   3.814  1.00  0.00     0.000 C 
HETATM   21  C14 UNL     1       0.783  -0.585   3.755  1.00  0.00     0.004 C 
ENDBRANCH  15  16
ENDBRANCH  14  15
ENDBRANCH   7  14
TORSDOF 5
ENDMDL
MODEL 5
REMARK VINA RESULT: -6.750415113      2.102      3.054
REMARK  5 active torsions:
REMARK  status: ('A' for Active; 'I' for Inactive)
REMARK    1  A    between atoms: C3_4  and  O1_5 
REMARK    2  A    between atoms: C4_7  and  O2_8 
REMARK    3  A    between atoms: C6_11  and  C7_12 
REMARK    4  A    between atoms: C7_12  and  C8_13 
REMARK    5  A    between atoms: C8_13  and  C9_14 
ROOT
HETATM    1  N1  UNL     1      -2.582  -2.830   3.536  1.00  0.00    -0.191 NA
HETATM    2  C1  UNL     1      -1.812  -1.996   3.776  1.00  0.00     0.105 C 
HETATM    3  C2  UNL     1      -0.865  -0.952   4.068  1.00  0.00     0.119 A 
HETATM    4  C3  UNL     1      -0.249  -0.345   2.991  1.00  0.00     0.122 A 
HETATM    5  C4  UNL     1       0.664   0.661   3.269  1.00  0.00     0.101 A 
HETATM    6  C5  UNL     1       0.942   1.035   4.571  1.00  0.00     0.049 A 
HETATM    7  C6  UNL     1       0.330   0.431   5.650  1.00  0.00    -0.015 A 
HETATM    8  C15 UNL     1      -0.580  -0.572   5.367  1.00  0.00     0.146 A 
HETATM    9  F1  UNL     1      -1.220  -1.207   6.401  1.00  0.00    -0.204 F 
ENDROOT
BRANCH   4  10
HETATM   10  O1  UNL     1      -0.536  -0.729   1.678  1.00  0.00    -0.356 OA
ATOM     11  H1  UNL     1      -0.036  -1.409   1.243  1.00  0.00     0.218 HD
ENDBRANCH   4  10
BRANCH   5  12
HETATM   12  O2  UNL     1       1.271   1.258   2.172  1.00  0.00    -0.358 OA
ATOM     13  H2  UNL     1       2.150   1.594   2.310  1.00  0.00     0.217 HD
ENDBRANCH   5  12
BRANCH   7  14
HETATM   14  C7  UNL     1       0.612   0.806   7.067  1.00  0.00     0.042 C 
BRANCH  14  15
HETATM   15  C8  UNL     1      -0.278   1.904   7.549  1.00  0.00     0.009 C 
BRANCH  15  16
HETATM   16  C9  UNL     1      -0.874   1.672   8.922  1.00  0.00    -0.014 C 
HETATM   17  C10 UNL     1      -1.107   0.253   9.175  1.00  0.00     0.004 C 
HETATM   18  C11 UNL     1      -0.119  -0.434  10.078  1.00  0.00     0.000 C 
HETATM   19  C12 UNL     1       0.052   0.409  11.335  1.00  0.00     0.000 C 
HETATM   20  C13 UNL     1       0.737   1.661  10.870  1.00  0.00     0.000 C 
HETATM   21  C14 UNL     1      -0.073   2.444   9.902  1.00  0.00     0.004 C 
ENDBRANCH  15  16
ENDBRANCH  14  15
ENDBRANCH   7  14
TORSDOF 5
ENDMDL
