MODEL 1
REMARK VINA RESULT: -5.653141518      0.000      0.000
REMARK  4 active torsions:
REMARK  status: ('A' for Active; 'I' for Inactive)
REMARK    1  A    between atoms: N1_2  and  C2_4 
REMARK    2  A    between atoms: C8_13  and  N3_14 
REMARK    3  A    between atoms: N3_14  and  C9_16 
REMARK    4  A    between atoms: C9_16  and  C10_17 
ROOT
HETATM    1  C2  UNL     1       0.112  -0.257   8.653  1.00  0.00     0.145 A 
HETATM    2  N2  UNL     1       0.776   0.624   7.911  1.00  0.00    -0.336 N 
ATOM      3  H2  UNL     1       1.402   1.305   8.341  1.00  0.00     0.168 HD
HETATM    4  C3  UNL     1       0.604   0.593   6.605  1.00  0.00     0.054 A 
HETATM    5  C4  UNL     1       1.213   1.436   5.651  1.00  0.00     0.041 A 
HETATM    6  C5  UNL     1       0.941   1.292   4.324  1.00  0.00    -0.019 A 
HETATM    7  C6  UNL     1       1.588   2.189   3.296  1.00  0.00     0.051 C 
HETATM    8  C7  UNL     1       0.082   0.347   3.805  1.00  0.00     0.150 A 
HETATM    9  F1  UNL     1      -0.170   0.221   2.496  1.00  0.00    -0.203 F 
HETATM   10  C8  UNL     1      -0.518  -0.484   4.732  1.00  0.00     0.087 A 
HETATM   11  C13 UNL     1      -0.248  -0.345   6.098  1.00  0.00     0.064 A 
HETATM   12  S1  UNL     1      -0.774  -1.150   7.505  1.00  0.00    -0.050 SA
ENDROOT
BRANCH  10  13
HETATM   13  N3  UNL     1      -1.423  -1.502   4.363  1.00  0.00    -0.386 N 
ATOM     14  H3  UNL     1      -2.332  -1.561   4.823  1.00  0.00     0.159 HD
BRANCH  13  15
HETATM   15  C9  UNL     1      -1.075  -2.465   3.338  1.00  0.00     0.123 C 
BRANCH  15  16
HETATM   16  C10 UNL     1      -2.272  -2.636   2.438  1.00  0.00    -0.005 C 
HETATM   17  C11 UNL     1      -3.329  -1.639   2.785  1.00  0.00     0.011 C 
HETATM   18  C12 UNL     1      -1.849  -2.555   0.987  1.00  0.00     0.011 C 
ENDBRANCH  15  16
ENDBRANCH  13  15
ENDBRANCH  10  13
BRANCH   1  19
HETATM   19  N1  UNL     1       0.144  -0.392   9.958  1.00  0.00    -0.375 N 
HETATM   20  C1  UNL     1      -0.042   0.813  10.784  1.00  0.00     0.148 C 
ATOM     21  H1  UNL     1       0.293  -1.304  10.388  1.00  0.00     0.161 HD
ENDBRANCH   1  19
TORSDOF 4
ENDMDL
MODEL 2
REMARK VINA RESULT: -5.635985084      1.710      3.946
REMARK  4 active torsions:
REMARK  status: ('A' for Active; 'I' for Inactive)
REMARK    1  A    between atoms: N1_2  and  C2_4 
REMARK    2  A    between atoms: C8_13  and  N3_14 
REMARK    3  A    between atoms: N3_14  and  C9_16 
REMARK    4  A    between atoms: C9_16  and  C10_17 
ROOT
HETATM    1  C2  UNL     1       0.197   0.255   8.488  1.00  0.00     0.145 A 
HETATM    2  N2  UNL     1      -0.487  -0.647   7.792  1.00  0.00    -0.336 N 
ATOM      3  H2  UNL     1      -1.040  -1.363   8.264  1.00  0.00     0.168 HD
HETATM    4  C3  UNL     1      -0.430  -0.592   6.476  1.00  0.00     0.054 A 
HETATM    5  C4  UNL     1      -1.079  -1.452   5.565  1.00  0.00     0.041 A 
HETATM    6  C5  UNL     1      -0.930  -1.279   4.222  1.00  0.00    -0.019 A 
HETATM    7  C6  UNL     1      -1.621  -2.195   3.239  1.00  0.00     0.051 C 
HETATM    8  C7  UNL     1      -0.165  -0.288   3.646  1.00  0.00     0.150 A 
HETATM    9  F1  UNL     1      -0.034  -0.135   2.323  1.00  0.00    -0.203 F 
HETATM   10  C8  UNL     1       0.474   0.560   4.531  1.00  0.00     0.087 A 
HETATM   11  C13 UNL     1       0.330   0.392   5.913  1.00  0.00     0.064 A 
HETATM   12  S1  UNL     1       0.938   1.204   7.283  1.00  0.00    -0.050 SA
ENDROOT
BRANCH  10  13
HETATM   13  N3  UNL     1       1.295   1.625   4.103  1.00  0.00    -0.386 N 
ATOM     14  H3  UNL     1       0.960   2.585   4.183  1.00  0.00     0.159 HD
BRANCH  13  15
HETATM   15  C9  UNL     1       2.610   1.368   3.551  1.00  0.00     0.123 C 
BRANCH  15  16
HETATM   16  C10 UNL     1       2.870   2.394   2.478  1.00  0.00    -0.005 C 
HETATM   17  C11 UNL     1       4.075   2.018   1.682  1.00  0.00     0.011 C 
HETATM   18  C12 UNL     1       1.636   2.574   1.618  1.00  0.00     0.011 C 
ENDBRANCH  15  16
ENDBRANCH  13  15
ENDBRANCH  10  13
BRANCH   1  19
HETATM   19  N1  UNL     1       0.273   0.373   9.794  1.00  0.00    -0.375 N 
HETATM   20  C1  UNL     1      -0.063  -0.801  10.616  1.00  0.00     0.148 C 
ATOM     21  H1  UNL     1       0.555   1.253  10.226  1.00  0.00     0.161 HD
ENDBRANCH   1  19
TORSDOF 4
ENDMDL
MODEL 3
REMARK VINA RESULT: -5.295708458      1.826      5.649
REMARK  4 active torsions:
REMARK  status: ('A' for Active; 'I' for Inactive)
REMARK    1  A    between atoms: N1_2  and  C2_4 
REMARK    2  A    between atoms: C8_13  and  N3_14 
REMARK    3  A    between atoms: N3_14  and  C9_16 
REMARK    4  A    between atoms: C9_16  and  C10_17 
ROOT
HETATM    1  C2  UNL     1      -2.126  -1.912   3.355  1.00  0.00     0.145 A 
HETATM    2  N2  UNL     1      -1.246  -1.098   2.781  1.00  0.00    -0.336 N 
ATOM      3  H2  UNL     1      -1.170  -1.042   1.765  1.00  0.00     0.168 HD
HETATM    4  C3  UNL     1      -0.475  -0.365   3.559  1.00  0.00     0.054 A 
HETATM    5  C4  UNL     1       0.514   0.553   3.148  1.00  0.00     0.041 A 
HETATM    6  C5  UNL     1       1.242   1.247   4.066  1.00  0.00    -0.019 A 
HETATM    7  C6  UNL     1       2.301   2.232   3.635  1.00  0.00     0.051 C 
HETATM    8  C7  UNL     1       1.089   1.125   5.431  1.00  0.00     0.150 A 
HETATM    9  F1  UNL     1       1.815   1.818   6.317  1.00  0.00    -0.203 F 
HETATM   10  C8  UNL     1       0.122   0.228   5.844  1.00  0.00     0.087 A 
HETATM   11  C13 UNL     1      -0.632  -0.491   4.909  1.00  0.00     0.064 A 
HETATM   12  S1  UNL     1      -1.875  -1.653   5.020  1.00  0.00    -0.050 SA
ENDROOT
BRANCH  10  13
HETATM   13  N3  UNL     1      -0.156  -0.014   7.206  1.00  0.00    -0.386 N 
ATOM     14  H3  UNL     1       0.218  -0.849   7.658  1.00  0.00     0.159 HD
BRANCH  13  15
HETATM   15  C9  UNL     1      -0.968   0.913   7.969  1.00  0.00     0.123 C 
BRANCH  15  16
HETATM   16  C10 UNL     1      -0.187   1.310   9.195  1.00  0.00    -0.005 C 
HETATM   17  C11 UNL     1       1.060   0.495   9.303  1.00  0.00     0.011 C 
HETATM   18  C12 UNL     1       0.091   2.799   9.177  1.00  0.00     0.011 C 
ENDBRANCH  15  16
ENDBRANCH  13  15
ENDBRANCH  10  13
BRANCH   1  19
HETATM   19  N1  UNL     1      -2.978  -2.718   2.766  1.00  0.00    -0.375 N 
HETATM   20  C1  UNL     1      -3.833  -2.164   1.703  1.00  0.00     0.148 C 
ATOM     21  H1  UNL     1      -3.047  -3.699   3.036  1.00  0.00     0.161 HD
ENDBRANCH   1  19
TORSDOF 4
ENDMDL
MODEL 4
REMARK VINA RESULT: -5.281471288      2.602      5.607
REMARK  4 active torsions:
REMARK  status: ('A' for Active; 'I' for Inactive)
REMARK    1  A    between atoms: N1_2  and  C2_4 
REMARK    2  A    between atoms: C8_13  and  N3_14 
REMARK    3  A    between atoms: N3_14  and  C9_16 
REMARK    4  A    between atoms: C9_16  and  C10_17 
ROOT
HETATM    1  C2  UNL     1       2.120   1.898   3.406  1.00  0.00     0.145 A 
HETATM    2  N2  UNL     1       1.248   1.084   2.821  1.00  0.00    -0.336 N 
ATOM      3  H2  UNL     1       1.182   1.031   1.805  1.00  0.00     0.168 HD
HETATM    4  C3  UNL     1       0.471   0.348   3.590  1.00  0.00     0.054 A 
HETATM    5  C4  UNL     1      -0.513  -0.571   3.167  1.00  0.00     0.041 A 
HETATM    6  C5  UNL     1      -1.249  -1.268   4.077  1.00  0.00    -0.019 A 
HETATM    7  C6  UNL     1      -2.303  -2.254   3.632  1.00  0.00     0.051 C 
HETATM    8  C7  UNL     1      -1.110  -1.148   5.443  1.00  0.00     0.150 A 
HETATM    9  F1  UNL     1      -1.843  -1.845   6.320  1.00  0.00    -0.203 F 
HETATM   10  C8  UNL     1      -0.149  -0.251   5.868  1.00  0.00     0.087 A 
HETATM   11  C13 UNL     1       0.613   0.472   4.942  1.00  0.00     0.064 A 
HETATM   12  S1  UNL     1       1.853   1.635   5.067  1.00  0.00    -0.050 SA
ENDROOT
BRANCH  10  13
HETATM   13  N3  UNL     1       0.116  -0.012   7.233  1.00  0.00    -0.386 N 
ATOM     14  H3  UNL     1      -0.307   0.793   7.696  1.00  0.00     0.159 HD
BRANCH  13  15
HETATM   15  C9  UNL     1       0.982  -0.899   7.983  1.00  0.00     0.123 C 
BRANCH  15  16
HETATM   16  C10 UNL     1       0.233  -1.346   9.212  1.00  0.00    -0.005 C 
HETATM   17  C11 UNL     1      -0.984  -0.505   9.413  1.00  0.00     0.011 C 
HETATM   18  C12 UNL     1      -0.089  -2.823   9.118  1.00  0.00     0.011 C 
ENDBRANCH  15  16
ENDBRANCH  13  15
ENDBRANCH  10  13
BRANCH   1  19
HETATM   19  N1  UNL     1       2.977   2.707   2.826  1.00  0.00    -0.375 N 
HETATM   20  C1  UNL     1       3.823   2.164   1.751  1.00  0.00     0.148 C 
ATOM     21  H1  UNL     1       3.055   3.683   3.113  1.00  0.00     0.161 HD
ENDBRANCH   1  19
TORSDOF 4
ENDMDL
MODEL 5
REMARK VINA RESULT: -5.192926766      1.991      5.536
REMARK  4 active torsions:
REMARK  status: ('A' for Active; 'I' for Inactive)
REMARK    1  A    between atoms: N1_2  and  C2_4 
REMARK    2  A    between atoms: C8_13  and  N3_14 
REMARK    3  A    between atoms: N3_14  and  C9_16 
REMARK    4  A    between atoms: C9_16  and  C10_17 
ROOT
HETATM    1  C2  UNL     1      -1.823  -1.888   2.694  1.00  0.00     0.145 A 
HETATM    2  N2  UNL     1      -0.903  -0.991   2.356  1.00  0.00    -0.336 N 
ATOM      3  H2  UNL     1      -0.677  -0.816   1.377  1.00  0.00     0.168 HD
HETATM    4  C3  UNL     1      -0.290  -0.334   3.320  1.00  0.00     0.054 A 
HETATM    5  C4  UNL     1       0.710   0.651   3.170  1.00  0.00     0.041 A 
HETATM    6  C5  UNL     1       1.261   1.251   4.262  1.00  0.00    -0.019 A 
HETATM    7  C6  UNL     1       2.331   2.306   4.110  1.00  0.00     0.051 C 
HETATM    8  C7  UNL     1       0.911   0.968   5.564  1.00  0.00     0.150 A 
HETATM    9  F1  UNL     1       1.465   1.572   6.623  1.00  0.00    -0.203 F 
HETATM   10  C8  UNL     1      -0.068   0.005   5.721  1.00  0.00     0.087 A 
HETATM   11  C13 UNL     1      -0.642  -0.619   4.607  1.00  0.00     0.064 A 
HETATM   12  S1  UNL     1      -1.837  -1.816   4.396  1.00  0.00    -0.050 SA
ENDROOT
BRANCH  10  13
HETATM   13  N3  UNL     1      -0.538  -0.399   6.989  1.00  0.00    -0.386 N 
ATOM     14  H3  UNL     1      -1.373   0.038   7.381  1.00  0.00     0.159 HD
BRANCH  13  15
HETATM   15  C9  UNL     1       0.152  -1.428   7.739  1.00  0.00     0.123 C 
BRANCH  15  16
HETATM   16  C10 UNL     1      -0.514  -1.545   9.086  1.00  0.00    -0.005 C 
HETATM   17  C11 UNL     1      -0.482  -2.961   9.559  1.00  0.00     0.011 C 
HETATM   18  C12 UNL     1       0.126  -0.588  10.069  1.00  0.00     0.011 C 
ENDBRANCH  15  16
ENDBRANCH  13  15
ENDBRANCH  10  13
BRANCH   1  19
HETATM   19  N1  UNL     1      -2.543  -2.641   1.894  1.00  0.00    -0.375 N 
HETATM   20  C1  UNL     1      -3.896  -2.181   1.541  1.00  0.00     0.148 C 
ATOM     21  H1  UNL     1      -2.175  -3.519   1.529  1.00  0.00     0.161 HD
ENDBRANCH   1  19
TORSDOF 4
ENDMDL
