MODEL 1
REMARK VINA RESULT: -7.088417325      0.000      0.000
REMARK  3 active torsions:
REMARK  status: ('A' for Active; 'I' for Inactive)
REMARK    1  A    between atoms: C3_4  and  C4_5 
REMARK    2  A    between atoms: C10_13  and  C11_14 
REMARK    3  A    between atoms: C11_14  and  C12_15 
ROOT
HETATM    1  N1  UNL     1      -0.182  -0.448   2.674  1.00  0.00    -0.101 NA
HETATM    2  C1  UNL     1       0.071  -0.067   4.054  1.00  0.00     0.061 A 
HETATM    3  C2  UNL     1      -0.281  -0.805   5.110  1.00  0.00     0.042 A 
HETATM    4  C3  UNL     1       0.017  -0.325   6.353  1.00  0.00    -0.008 A 
HETATM    5  S1  UNL     1       0.787   1.153   6.014  1.00  0.00    -0.096 SA
HETATM    6  C10 UNL     1       0.709   1.121   4.296  1.00  0.00     0.017 A 
ENDROOT
BRANCH   4   7
HETATM    7  C4  UNL     1      -0.269  -0.955   7.670  1.00  0.00     0.059 C 
HETATM    8  C5  UNL     1       0.094  -0.043   8.824  1.00  0.00     0.013 C 
HETATM    9  C6  UNL     1      -0.578  -0.672  10.050  1.00  0.00     0.001 C 
HETATM   10  C7  UNL     1       0.049  -2.038  10.293  1.00  0.00     0.003 C 
HETATM   11  C8  UNL     1      -0.181  -2.927   9.095  1.00  0.00     0.038 C 
HETATM   12  C9  UNL     1       0.470  -2.247   7.892  1.00  0.00     0.179 C 
HETATM   13  F1  UNL     1       1.811  -2.011   8.227  1.00  0.00    -0.249 F 
ENDBRANCH   4   7
BRANCH   6  14
HETATM   14  C11 UNL     1       1.212   2.141   3.309  1.00  0.00     0.161 C 
BRANCH  14  15
HETATM   15  C12 UNL     1       2.673   2.087   3.260  1.00  0.00     0.177 C 
HETATM   16  O1  UNL     1       3.350   2.957   3.850  1.00  0.00    -0.648 OA
HETATM   17  O2  UNL     1       3.355   1.089   2.570  1.00  0.00    -0.648 OA
ENDBRANCH  14  15
ENDBRANCH   6  14
TORSDOF 3
ENDMDL
MODEL 2
REMARK VINA RESULT: -7.032861225      3.387      4.354
REMARK  3 active torsions:
REMARK  status: ('A' for Active; 'I' for Inactive)
REMARK    1  A    between atoms: C3_4  and  C4_5 
REMARK    2  A    between atoms: C10_13  and  C11_14 
REMARK    3  A    between atoms: C11_14  and  C12_15 
ROOT
HETATM    1  N1  UNL     1       0.258   0.373   2.405  1.00  0.00    -0.101 NA
HETATM    2  C1  UNL     1      -0.001   0.054   3.800  1.00  0.00     0.061 A 
HETATM    3  C2  UNL     1       0.388   0.814   4.826  1.00  0.00     0.042 A 
HETATM    4  C3  UNL     1       0.080   0.392   6.088  1.00  0.00    -0.008 A 
HETATM    5  S1  UNL     1      -0.753  -1.063   5.807  1.00  0.00    -0.096 SA
HETATM    6  C10 UNL     1      -0.685  -1.098   4.089  1.00  0.00     0.017 A 
ENDROOT
BRANCH   4   7
HETATM    7  C4  UNL     1       0.400   1.058   7.379  1.00  0.00     0.059 C 
HETATM    8  C5  UNL     1       0.655   0.054   8.484  1.00  0.00     0.013 C 
HETATM    9  C6  UNL     1       1.306   0.866   9.611  1.00  0.00     0.001 C 
HETATM   10  C7  UNL     1       0.297   1.893  10.108  1.00  0.00     0.003 C 
HETATM   11  C8  UNL     1      -0.080   2.826   8.982  1.00  0.00     0.038 C 
HETATM   12  C9  UNL     1      -0.687   1.975   7.870  1.00  0.00     0.179 C 
HETATM   13  F1  UNL     1      -1.744   1.247   8.437  1.00  0.00    -0.249 F 
ENDBRANCH   4   7
BRANCH   6  14
HETATM   14  C11 UNL     1      -1.236  -2.132   3.142  1.00  0.00     0.161 C 
BRANCH  14  15
HETATM   15  C12 UNL     1      -2.698  -2.094   3.183  1.00  0.00     0.177 C 
HETATM   16  O1  UNL     1      -3.325  -2.935   3.864  1.00  0.00    -0.648 OA
HETATM   17  O2  UNL     1      -3.435  -1.144   2.482  1.00  0.00    -0.648 OA
ENDBRANCH  14  15
ENDBRANCH   6  14
TORSDOF 3
ENDMDL
MODEL 3
REMARK VINA RESULT: -6.891740068      1.213      1.863
REMARK  3 active torsions:
REMARK  status: ('A' for Active; 'I' for Inactive)
REMARK    1  A    between atoms: C3_4  and  C4_5 
REMARK    2  A    between atoms: C10_13  and  C11_14 
REMARK    3  A    between atoms: C11_14  and  C12_15 
ROOT
HETATM    1  N1  UNL     1      -0.290  -0.757   3.295  1.00  0.00    -0.101 NA
HETATM    2  C1  UNL     1       0.068  -0.291   4.625  1.00  0.00     0.061 A 
HETATM    3  C2  UNL     1      -0.113  -1.001   5.741  1.00  0.00     0.042 A 
HETATM    4  C3  UNL     1       0.269  -0.439   6.925  1.00  0.00    -0.008 A 
HETATM    5  S1  UNL     1       0.877   1.076   6.448  1.00  0.00    -0.096 SA
HETATM    6  C10 UNL     1       0.627   0.954   4.750  1.00  0.00     0.017 A 
ENDROOT
BRANCH   4   7
HETATM    7  C4  UNL     1       0.171  -1.024   8.289  1.00  0.00     0.059 C 
HETATM    8  C5  UNL     1      -0.498  -2.383   8.274  1.00  0.00     0.013 C 
HETATM    9  C6  UNL     1      -0.200  -2.985   9.653  1.00  0.00     0.001 C 
HETATM   10  C7  UNL     1      -0.875  -2.120  10.710  1.00  0.00     0.003 C 
HETATM   11  C8  UNL     1      -0.321  -0.717  10.654  1.00  0.00     0.038 C 
HETATM   12  C9  UNL     1      -0.605  -0.171   9.256  1.00  0.00     0.179 C 
HETATM   13  F1  UNL     1      -1.985  -0.289   9.039  1.00  0.00    -0.249 F 
ENDBRANCH   4   7
BRANCH   6  14
HETATM   14  C11 UNL     1       0.942   1.961   3.674  1.00  0.00     0.161 C 
BRANCH  14  15
HETATM   15  C12 UNL     1       2.380   1.945   3.404  1.00  0.00     0.177 C 
HETATM   16  O1  UNL     1       2.873   1.038   2.698  1.00  0.00    -0.648 OA
HETATM   17  O2  UNL     1       3.240   2.915   3.911  1.00  0.00    -0.648 OA
ENDBRANCH  14  15
ENDBRANCH   6  14
TORSDOF 3
ENDMDL
MODEL 4
REMARK VINA RESULT: -6.876257511      3.140      4.023
REMARK  3 active torsions:
REMARK  status: ('A' for Active; 'I' for Inactive)
REMARK    1  A    between atoms: C3_4  and  C4_5 
REMARK    2  A    between atoms: C10_13  and  C11_14 
REMARK    3  A    between atoms: C11_14  and  C12_15 
ROOT
HETATM    1  N1  UNL     1       0.553   0.541   3.225  1.00  0.00    -0.101 NA
HETATM    2  C1  UNL     1       0.077   0.145   4.541  1.00  0.00     0.061 A 
HETATM    3  C2  UNL     1       0.269   0.860   5.652  1.00  0.00     0.042 A 
HETATM    4  C3  UNL     1      -0.231   0.368   6.824  1.00  0.00    -0.008 A 
HETATM    5  S1  UNL     1      -0.962  -1.089   6.341  1.00  0.00    -0.096 SA
HETATM    6  C10 UNL     1      -0.610  -1.034   4.658  1.00  0.00     0.017 A 
ENDROOT
BRANCH   4   7
HETATM    7  C4  UNL     1      -0.148   0.973   8.180  1.00  0.00     0.059 C 
HETATM    8  C5  UNL     1       0.509   2.338   8.150  1.00  0.00     0.013 C 
HETATM    9  C6  UNL     1       0.196   2.956   9.519  1.00  0.00     0.001 C 
HETATM   10  C7  UNL     1       0.870   2.113  10.592  1.00  0.00     0.003 C 
HETATM   11  C8  UNL     1       0.330   0.704  10.552  1.00  0.00     0.038 C 
HETATM   12  C9  UNL     1       0.628   0.142   9.165  1.00  0.00     0.179 C 
HETATM   13  F1  UNL     1       2.009   0.269   8.956  1.00  0.00    -0.249 F 
ENDBRANCH   4   7
BRANCH   6  14
HETATM   14  C11 UNL     1      -0.967  -2.030   3.585  1.00  0.00     0.161 C 
BRANCH  14  15
HETATM   15  C12 UNL     1      -2.410  -1.989   3.349  1.00  0.00     0.177 C 
HETATM   16  O1  UNL     1      -2.909  -1.051   2.689  1.00  0.00    -0.648 OA
HETATM   17  O2  UNL     1      -3.270  -2.968   3.840  1.00  0.00    -0.648 OA
ENDBRANCH  14  15
ENDBRANCH   6  14
TORSDOF 3
ENDMDL
MODEL 5
REMARK VINA RESULT: -6.428518882      2.889      3.386
REMARK  3 active torsions:
REMARK  status: ('A' for Active; 'I' for Inactive)
REMARK    1  A    between atoms: C3_4  and  C4_5 
REMARK    2  A    between atoms: C10_13  and  C11_14 
REMARK    3  A    between atoms: C11_14  and  C12_15 
ROOT
HETATM    1  N1  UNL     1       0.381   1.916   3.999  1.00  0.00    -0.101 NA
HETATM    2  C1  UNL     1       0.020   0.905   4.980  1.00  0.00     0.061 A 
HETATM    3  C2  UNL     1      -0.000   1.116   6.298  1.00  0.00     0.042 A 
HETATM    4  C3  UNL     1      -0.358   0.075   7.107  1.00  0.00    -0.008 A 
HETATM    5  S1  UNL     1      -0.661  -1.179   5.999  1.00  0.00    -0.096 SA
HETATM    6  C10 UNL     1      -0.322  -0.344   4.533  1.00  0.00     0.017 A 
ENDROOT
BRANCH   4   7
HETATM    7  C4  UNL     1      -0.455   0.061   8.591  1.00  0.00     0.059 C 
HETATM    8  C5  UNL     1       0.510   1.038   9.229  1.00  0.00     0.013 C 
HETATM    9  C6  UNL     1       0.042   1.161  10.685  1.00  0.00     0.001 C 
HETATM   10  C7  UNL     1       0.204  -0.195  11.358  1.00  0.00     0.003 C 
HETATM   11  C8  UNL     1      -0.647  -1.222  10.651  1.00  0.00     0.038 C 
HETATM   12  C9  UNL     1      -0.173  -1.285   9.200  1.00  0.00     0.179 C 
HETATM   13  F1  UNL     1       1.204  -1.550   9.226  1.00  0.00    -0.249 F 
ENDBRANCH   4   7
BRANCH   6  14
HETATM   14  C11 UNL     1      -0.385  -0.857   3.118  1.00  0.00     0.161 C 
BRANCH  14  15
HETATM   15  C12 UNL     1      -1.592  -1.664   2.950  1.00  0.00     0.177 C 
HETATM   16  O1  UNL     1      -1.507  -2.910   2.890  1.00  0.00    -0.648 OA
HETATM   17  O2  UNL     1      -2.858  -1.093   2.849  1.00  0.00    -0.648 OA
ENDBRANCH  14  15
ENDBRANCH   6  14
TORSDOF 3
ENDMDL
