MODEL 1
REMARK VINA RESULT: -5.248417911      0.000      0.000
REMARK  5 active torsions:
REMARK  status: ('A' for Active; 'I' for Inactive)
REMARK    1  A    between atoms: C3_7  and  C4_8 
REMARK    2  A    between atoms: C4_8  and  N3_9 
REMARK    3  A    between atoms: N3_9  and  C5_11 
REMARK    4  A    between atoms: C5_11  and  N4_13 
REMARK    5  A    between atoms: N4_13  and  C6_15 
ROOT
HETATM    1  N3  UNL     1     -42.959  -0.918  70.259  1.00  0.00    -0.361 N 
ATOM      2  H3  UNL     1     -43.522  -1.767  70.199  1.00  0.00     0.162 HD
ENDROOT
BRANCH   1   3
HETATM    3  C4  UNL     1     -42.822  -0.063  69.100  1.00  0.00     0.188 C 
BRANCH   3   4
HETATM    4  C3  UNL     1     -41.740  -0.608  68.214  1.00  0.00     0.085 A 
HETATM    5  N2  UNL     1     -41.034  -1.723  68.343  1.00  0.00    -0.296 N 
HETATM    6  N1  UNL     1     -40.156  -2.017  67.488  1.00  0.00    -0.298 N 
ATOM      7  H2  UNL     1     -41.202  -2.344  69.134  1.00  0.00     0.187 HD
HETATM    8  C2  UNL     1     -39.935  -1.210  66.455  1.00  0.00     0.064 A 
ATOM      9  H1  UNL     1     -39.613  -2.875  67.588  1.00  0.00     0.187 HD
HETATM   10  C1  UNL     1     -38.933  -1.435  65.377  1.00  0.00     0.078 C 
HETATM   11  S2  UNL     1     -41.070   0.031  66.763  1.00  0.00    -0.059 SA
ENDBRANCH   3   4
ENDBRANCH   1   3
BRANCH   1  12
HETATM   12  C5  UNL     1     -42.317  -0.584  71.476  1.00  0.00     0.168 C 
HETATM   13  S1  UNL     1     -41.551  -1.762  72.296  1.00  0.00    -0.041 SA
BRANCH  12  14
HETATM   14  N4  UNL     1     -42.355   0.744  71.948  1.00  0.00    -0.359 N 
ATOM     15  H4  UNL     1     -41.518   1.316  71.839  1.00  0.00     0.162 HD
BRANCH  14  16
HETATM   16  C6  UNL     1     -43.507   1.341  72.574  1.00  0.00     0.021 C 
HETATM   17  C7  UNL     1     -42.994   2.234  73.690  1.00  0.00     0.037 C 
HETATM   18  C8  UNL     1     -44.230   2.183  71.551  1.00  0.00     0.037 C 
HETATM   19  C9  UNL     1     -44.471   0.304  73.090  1.00  0.00     0.037 C 
ENDBRANCH  14  16
ENDBRANCH  12  14
ENDBRANCH   1  12
TORSDOF 5
ENDMDL
MODEL 2
REMARK VINA RESULT: -5.242474201      1.967      2.479
REMARK  5 active torsions:
REMARK  status: ('A' for Active; 'I' for Inactive)
REMARK    1  A    between atoms: C3_7  and  C4_8 
REMARK    2  A    between atoms: C4_8  and  N3_9 
REMARK    3  A    between atoms: N3_9  and  C5_11 
REMARK    4  A    between atoms: C5_11  and  N4_13 
REMARK    5  A    between atoms: N4_13  and  C6_15 
ROOT
HETATM    1  N3  UNL     1     -43.475  -0.089  70.621  1.00  0.00    -0.361 N 
ATOM      2  H3  UNL     1     -43.839  -0.987  70.301  1.00  0.00     0.162 HD
ENDROOT
BRANCH   1   3
HETATM    3  C4  UNL     1     -42.776   0.775  69.694  1.00  0.00     0.188 C 
BRANCH   3   4
HETATM    4  C3  UNL     1     -41.887  -0.062  68.821  1.00  0.00     0.085 A 
HETATM    5  N2  UNL     1     -41.552  -1.339  68.946  1.00  0.00    -0.296 N 
HETATM    6  N1  UNL     1     -40.782  -1.875  68.102  1.00  0.00    -0.298 N 
ATOM      7  H2  UNL     1     -41.917  -1.888  69.724  1.00  0.00     0.187 HD
HETATM    8  C2  UNL     1     -40.306  -1.161  67.087  1.00  0.00     0.064 A 
ATOM      9  H1  UNL     1     -40.525  -2.857  68.199  1.00  0.00     0.187 HD
HETATM   10  C1  UNL     1     -39.393  -1.667  66.025  1.00  0.00     0.078 C 
HETATM   11  S2  UNL     1     -41.023   0.360  67.393  1.00  0.00    -0.059 SA
ENDBRANCH   3   4
ENDBRANCH   1   3
BRANCH   1  12
HETATM   12  C5  UNL     1     -43.658   0.304  71.968  1.00  0.00     0.168 C 
HETATM   13  S1  UNL     1     -43.749   1.893  72.306  1.00  0.00    -0.041 SA
BRANCH  12  14
HETATM   14  N4  UNL     1     -43.755  -0.675  72.978  1.00  0.00    -0.359 N 
ATOM     15  H4  UNL     1     -44.677  -1.054  73.193  1.00  0.00     0.162 HD
BRANCH  14  16
HETATM   16  C6  UNL     1     -42.628  -1.172  73.725  1.00  0.00     0.021 C 
HETATM   17  C7  UNL     1     -42.541  -0.350  75.000  1.00  0.00     0.037 C 
HETATM   18  C8  UNL     1     -42.882  -2.617  74.078  1.00  0.00     0.037 C 
HETATM   19  C9  UNL     1     -41.349  -1.103  72.930  1.00  0.00     0.037 C 
ENDBRANCH  14  16
ENDBRANCH  12  14
ENDBRANCH   1  12
TORSDOF 5
ENDMDL
MODEL 3
REMARK VINA RESULT: -5.227949144      2.095      2.810
REMARK  5 active torsions:
REMARK  status: ('A' for Active; 'I' for Inactive)
REMARK    1  A    between atoms: C3_7  and  C4_8 
REMARK    2  A    between atoms: C4_8  and  N3_9 
REMARK    3  A    between atoms: N3_9  and  C5_11 
REMARK    4  A    between atoms: C5_11  and  N4_13 
REMARK    5  A    between atoms: N4_13  and  C6_15 
ROOT
HETATM    1  N3  UNL     1     -42.883   0.933  70.297  1.00  0.00    -0.361 N 
ATOM      2  H3  UNL     1     -42.452   1.852  70.192  1.00  0.00     0.162 HD
ENDROOT
BRANCH   1   3
HETATM    3  C4  UNL     1     -42.967   0.045  69.157  1.00  0.00     0.188 C 
BRANCH   3   4
HETATM    4  C3  UNL     1     -41.726   0.195  68.327  1.00  0.00     0.085 A 
HETATM    5  N2  UNL     1     -41.055  -0.727  67.649  1.00  0.00    -0.296 N 
HETATM    6  N1  UNL     1     -40.021  -0.406  67.002  1.00  0.00    -0.298 N 
ATOM      7  H2  UNL     1     -41.375  -1.695  67.651  1.00  0.00     0.187 HD
HETATM    8  C2  UNL     1     -39.602   0.855  66.998  1.00  0.00     0.064 A 
ATOM      9  H1  UNL     1     -39.505  -1.116  66.482  1.00  0.00     0.187 HD
HETATM   10  C1  UNL     1     -38.402   1.367  66.280  1.00  0.00     0.078 C 
HETATM   11  S2  UNL     1     -40.782   1.594  67.990  1.00  0.00    -0.059 SA
ENDBRANCH   3   4
ENDBRANCH   1   3
BRANCH   1  12
HETATM   12  C5  UNL     1     -43.395   0.535  71.555  1.00  0.00     0.168 C 
HETATM   13  S1  UNL     1     -44.115   1.657  72.487  1.00  0.00    -0.041 SA
BRANCH  12  14
HETATM   14  N4  UNL     1     -43.272  -0.807  71.970  1.00  0.00    -0.359 N 
ATOM     15  H4  UNL     1     -44.072  -1.426  71.837  1.00  0.00     0.162 HD
BRANCH  14  16
HETATM   16  C6  UNL     1     -42.084  -1.354  72.572  1.00  0.00     0.021 C 
HETATM   17  C7  UNL     1     -42.536  -2.264  73.701  1.00  0.00     0.037 C 
HETATM   18  C8  UNL     1     -41.350  -2.170  71.536  1.00  0.00     0.037 C 
HETATM   19  C9  UNL     1     -41.151  -0.278  73.064  1.00  0.00     0.037 C 
ENDBRANCH  14  16
ENDBRANCH  12  14
ENDBRANCH   1  12
TORSDOF 5
ENDMDL
MODEL 4
REMARK VINA RESULT: -5.227666354      2.660      3.575
REMARK  5 active torsions:
REMARK  status: ('A' for Active; 'I' for Inactive)
REMARK    1  A    between atoms: C3_7  and  C4_8 
REMARK    2  A    between atoms: C4_8  and  N3_9 
REMARK    3  A    between atoms: N3_9  and  C5_11 
REMARK    4  A    between atoms: C5_11  and  N4_13 
REMARK    5  A    between atoms: N4_13  and  C6_15 
ROOT
HETATM    1  N3  UNL     1     -42.105   0.154  70.618  1.00  0.00    -0.361 N 
ATOM      2  H3  UNL     1     -41.773   1.067  70.305  1.00  0.00     0.162 HD
ENDROOT
BRANCH   1   3
HETATM    3  C4  UNL     1     -42.788  -0.719  69.688  1.00  0.00     0.188 C 
BRANCH   3   4
HETATM    4  C3  UNL     1     -43.681   0.105  68.807  1.00  0.00     0.085 A 
HETATM    5  N2  UNL     1     -44.067   1.365  68.951  1.00  0.00    -0.296 N 
HETATM    6  N1  UNL     1     -44.831   1.893  68.096  1.00  0.00    -0.298 N 
ATOM      7  H2  UNL     1     -43.747   1.909  69.752  1.00  0.00     0.187 HD
HETATM    8  C2  UNL     1     -45.249   1.187  67.051  1.00  0.00     0.064 A 
ATOM      9  H1  UNL     1     -45.127   2.862  68.208  1.00  0.00     0.187 HD
HETATM   10  C1  UNL     1     -46.148   1.684  65.973  1.00  0.00     0.078 C 
HETATM   11  S2  UNL     1     -44.486  -0.314  67.344  1.00  0.00    -0.059 SA
ENDBRANCH   3   4
ENDBRANCH   1   3
BRANCH   1  12
HETATM   12  C5  UNL     1     -41.895  -0.249  71.958  1.00  0.00     0.168 C 
HETATM   13  S1  UNL     1     -41.802  -1.840  72.282  1.00  0.00    -0.041 SA
BRANCH  12  14
HETATM   14  N4  UNL     1     -41.775   0.723  72.973  1.00  0.00    -0.359 N 
ATOM     15  H4  UNL     1     -40.846   1.093  73.175  1.00  0.00     0.162 HD
BRANCH  14  16
HETATM   16  C6  UNL     1     -42.886   1.224  73.740  1.00  0.00     0.021 C 
HETATM   17  C7  UNL     1     -42.963   0.389  75.007  1.00  0.00     0.037 C 
HETATM   18  C8  UNL     1     -42.611   2.663  74.105  1.00  0.00     0.037 C 
HETATM   19  C9  UNL     1     -44.176   1.178  72.963  1.00  0.00     0.037 C 
ENDBRANCH  14  16
ENDBRANCH  12  14
ENDBRANCH   1  12
TORSDOF 5
ENDMDL
MODEL 5
REMARK VINA RESULT: -5.227330288      3.075      4.375
REMARK  5 active torsions:
REMARK  status: ('A' for Active; 'I' for Inactive)
REMARK    1  A    between atoms: C3_7  and  C4_8 
REMARK    2  A    between atoms: C4_8  and  N3_9 
REMARK    3  A    between atoms: N3_9  and  C5_11 
REMARK    4  A    between atoms: C5_11  and  N4_13 
REMARK    5  A    between atoms: N4_13  and  C6_15 
ROOT
HETATM    1  N3  UNL     1     -42.600   0.747  70.282  1.00  0.00    -0.361 N 
ATOM      2  H3  UNL     1     -41.941   1.520  70.183  1.00  0.00     0.162 HD
ENDROOT
BRANCH   1   3
HETATM    3  C4  UNL     1     -42.864  -0.122  69.156  1.00  0.00     0.188 C 
BRANCH   3   4
HETATM    4  C3  UNL     1     -43.896   0.519  68.274  1.00  0.00     0.085 A 
HETATM    5  N2  UNL     1     -44.503   1.690  68.410  1.00  0.00    -0.296 N 
HETATM    6  N1  UNL     1     -45.354   2.064  67.557  1.00  0.00    -0.298 N 
ATOM      7  H2  UNL     1     -44.283   2.290  69.205  1.00  0.00     0.187 HD
HETATM    8  C2  UNL     1     -45.642   1.284  66.519  1.00  0.00     0.064 A 
ATOM      9  H1  UNL     1     -45.821   2.964  67.662  1.00  0.00     0.187 HD
HETATM   10  C1  UNL     1     -46.622   1.601  65.443  1.00  0.00     0.078 C 
HETATM   11  S2  UNL     1     -44.618  -0.051  66.819  1.00  0.00    -0.059 SA
ENDBRANCH   3   4
ENDBRANCH   1   3
BRANCH   1  12
HETATM   12  C5  UNL     1     -43.249   0.533  71.521  1.00  0.00     0.168 C 
HETATM   13  S1  UNL     1     -44.025   1.783  72.216  1.00  0.00    -0.041 SA
BRANCH  12  14
HETATM   14  N4  UNL     1     -43.211  -0.742  72.122  1.00  0.00    -0.359 N 
ATOM     15  H4  UNL     1     -44.053  -1.316  72.085  1.00  0.00     0.162 HD
BRANCH  14  16
HETATM   16  C6  UNL     1     -42.052  -1.282  72.785  1.00  0.00     0.021 C 
HETATM   17  C7  UNL     1     -42.556  -2.199  73.886  1.00  0.00     0.037 C 
HETATM   18  C8  UNL     1     -41.258  -2.090  71.787  1.00  0.00     0.037 C 
HETATM   19  C9  UNL     1     -41.155  -0.200  73.328  1.00  0.00     0.037 C 
ENDBRANCH  14  16
ENDBRANCH  12  14
ENDBRANCH   1  12
TORSDOF 5
ENDMDL
