MODEL 1
REMARK VINA RESULT: -6.979673153      0.000      0.000
REMARK  4 active torsions:
REMARK  status: ('A' for Active; 'I' for Inactive)
REMARK    1  A    between atoms: C2_2  and  C3_3 
REMARK    2  A    between atoms: C3_3  and  C4_4 
REMARK    3  A    between atoms: C11_13  and  O3_14 
REMARK    4  A    between atoms: C11_13  and  C12_16 
ROOT
HETATM    1  C4  UNL     1     -21.608   0.772 -23.833  1.00  0.00     0.092 C 
HETATM    2  C5  UNL     1     -22.431  -0.336 -24.290  1.00  0.00    -0.007 C 
HETATM    3  C6  UNL     1     -22.016  -1.187 -25.212  1.00  0.00     0.007 C 
HETATM    4  C7  UNL     1     -20.681  -1.057 -25.832  1.00  0.00     0.074 C 
HETATM    5  C8  UNL     1     -19.773  -2.102 -25.231  1.00  0.00     0.050 C 
HETATM    6  C9  UNL     1     -20.731  -1.344 -27.332  1.00  0.00     0.050 C 
HETATM    7  O1  UNL     1     -20.185   0.227 -25.703  1.00  0.00    -0.346 OA
HETATM    8  C10 UNL     1     -20.237   0.731 -24.430  1.00  0.00     0.283 C 
HETATM    9  O2  UNL     1     -19.882  -0.151 -23.408  1.00  0.00    -0.318 OA
HETATM   10  C11 UNL     1     -20.758   0.542 -22.608  1.00  0.00     0.241 C 
ENDROOT
BRANCH  10  11
HETATM   11  O3  UNL     1     -20.201   1.729 -22.172  1.00  0.00    -0.360 OA
ATOM     12  H3  UNL     1     -19.445   1.561 -21.621  1.00  0.00     0.213 HD
ENDBRANCH  10  11
BRANCH  10  13
HETATM   13  C12 UNL     1     -21.403  -0.209 -21.489  1.00  0.00     0.416 C 
HETATM   14  F1  UNL     1     -21.071  -1.561 -21.651  1.00  0.00    -0.208 F 
HETATM   15  F2  UNL     1     -21.024   0.203 -20.248  1.00  0.00    -0.208 F 
ENDBRANCH  10  13
BRANCH   1  16
HETATM   16  C3  UNL     1     -22.266   2.122 -23.750  1.00  0.00     0.050 C 
BRANCH  16  17
HETATM   17  C2  UNL     1     -23.253   2.344 -24.834  1.00  0.00    -0.035 C 
HETATM   18  C1  UNL     1     -22.966   2.862 -26.017  1.00  0.00     0.007 C 
ENDBRANCH  16  17
ENDBRANCH   1  16
TORSDOF 4
ENDMDL
MODEL 2
REMARK VINA RESULT: -6.976254183      1.668      3.513
REMARK  4 active torsions:
REMARK  status: ('A' for Active; 'I' for Inactive)
REMARK    1  A    between atoms: C2_2  and  C3_3 
REMARK    2  A    between atoms: C3_3  and  C4_4 
REMARK    3  A    between atoms: C11_13  and  O3_14 
REMARK    4  A    between atoms: C11_13  and  C12_16 
ROOT
HETATM    1  C4  UNL     1     -20.920  -0.778 -23.827  1.00  0.00     0.092 C 
HETATM    2  C5  UNL     1     -20.102   0.340 -24.266  1.00  0.00    -0.007 C 
HETATM    3  C6  UNL     1     -20.509   1.189 -25.195  1.00  0.00     0.007 C 
HETATM    4  C7  UNL     1     -21.830   1.043 -25.841  1.00  0.00     0.074 C 
HETATM    5  C8  UNL     1     -22.763   2.075 -25.257  1.00  0.00     0.050 C 
HETATM    6  C9  UNL     1     -21.754   1.333 -27.339  1.00  0.00     0.050 C 
HETATM    7  O1  UNL     1     -22.312  -0.247 -25.724  1.00  0.00    -0.346 OA
HETATM    8  C10 UNL     1     -22.278  -0.753 -24.451  1.00  0.00     0.283 C 
HETATM    9  O2  UNL     1     -22.665   0.122 -23.435  1.00  0.00    -0.318 OA
HETATM   10  C11 UNL     1     -21.796  -0.562 -22.619  1.00  0.00     0.241 C 
ENDROOT
BRANCH  10  11
HETATM   11  O3  UNL     1     -22.347  -1.756 -22.196  1.00  0.00    -0.360 OA
ATOM     12  H3  UNL     1     -22.998  -2.063 -22.817  1.00  0.00     0.213 HD
ENDBRANCH  10  11
BRANCH  10  13
HETATM   13  C12 UNL     1     -21.183   0.196 -21.486  1.00  0.00     0.416 C 
HETATM   14  F1  UNL     1     -21.538   1.541 -21.646  1.00  0.00    -0.208 F 
HETATM   15  F2  UNL     1     -21.573  -0.231 -20.253  1.00  0.00    -0.208 F 
ENDBRANCH  10  13
BRANCH   1  16
HETATM   16  C3  UNL     1     -20.246  -2.120 -23.733  1.00  0.00     0.050 C 
BRANCH  16  17
HETATM   17  C2  UNL     1     -19.271  -2.348 -24.827  1.00  0.00    -0.035 C 
HETATM   18  C1  UNL     1     -19.575  -2.862 -26.008  1.00  0.00     0.007 C 
ENDBRANCH  16  17
ENDBRANCH   1  16
TORSDOF 4
ENDMDL
MODEL 3
REMARK VINA RESULT: -6.600501449      1.949      3.547
REMARK  4 active torsions:
REMARK  status: ('A' for Active; 'I' for Inactive)
REMARK    1  A    between atoms: C2_2  and  C3_3 
REMARK    2  A    between atoms: C3_3  and  C4_4 
REMARK    3  A    between atoms: C11_13  and  O3_14 
REMARK    4  A    between atoms: C11_13  and  C12_16 
ROOT
HETATM    1  C4  UNL     1     -20.994  -0.293 -24.419  1.00  0.00     0.092 C 
HETATM    2  C5  UNL     1     -20.064   0.547 -25.157  1.00  0.00    -0.007 C 
HETATM    3  C6  UNL     1     -20.315   0.962 -26.387  1.00  0.00     0.007 C 
HETATM    4  C7  UNL     1     -21.565   0.591 -27.083  1.00  0.00     0.074 C 
HETATM    5  C8  UNL     1     -22.488   1.784 -27.072  1.00  0.00     0.050 C 
HETATM    6  C9  UNL     1     -21.308   0.261 -28.553  1.00  0.00     0.050 C 
HETATM    7  O1  UNL     1     -22.136  -0.540 -26.530  1.00  0.00    -0.346 OA
HETATM    8  C10 UNL     1     -22.272  -0.498 -25.167  1.00  0.00     0.283 C 
HETATM    9  O2  UNL     1     -22.711   0.714 -24.633  1.00  0.00    -0.318 OA
HETATM   10  C11 UNL     1     -21.980   0.398 -23.512  1.00  0.00     0.241 C 
ENDROOT
BRANCH  10  11
HETATM   11  O3  UNL     1     -22.647  -0.522 -22.727  1.00  0.00    -0.360 OA
ATOM     12  H3  UNL     1     -23.584  -0.362 -22.746  1.00  0.00     0.213 HD
ENDBRANCH  10  11
BRANCH  10  13
HETATM   13  C12 UNL     1     -21.448   1.535 -22.701  1.00  0.00     0.416 C 
HETATM   14  F1  UNL     1     -22.049   2.705 -23.182  1.00  0.00    -0.208 F 
HETATM   15  F2  UNL     1     -21.679   1.424 -21.365  1.00  0.00    -0.208 F 
ENDBRANCH  10  13
BRANCH   1  16
HETATM   16  C3  UNL     1     -20.419  -1.497 -23.724  1.00  0.00     0.050 C 
BRANCH  16  17
HETATM   17  C2  UNL     1     -19.333  -2.142 -24.500  1.00  0.00    -0.035 C 
HETATM   18  C1  UNL     1     -19.510  -2.805 -25.631  1.00  0.00     0.007 C 
ENDBRANCH  16  17
ENDBRANCH   1  16
TORSDOF 4
ENDMDL
MODEL 4
REMARK VINA RESULT: -6.599059444      1.109      1.275
REMARK  4 active torsions:
REMARK  status: ('A' for Active; 'I' for Inactive)
REMARK    1  A    between atoms: C2_2  and  C3_3 
REMARK    2  A    between atoms: C3_3  and  C4_4 
REMARK    3  A    between atoms: C11_13  and  O3_14 
REMARK    4  A    between atoms: C11_13  and  C12_16 
ROOT
HETATM    1  C4  UNL     1     -21.549   0.380 -24.462  1.00  0.00     0.092 C 
HETATM    2  C5  UNL     1     -22.496  -0.455 -25.183  1.00  0.00    -0.007 C 
HETATM    3  C6  UNL     1     -22.250  -0.907 -26.401  1.00  0.00     0.007 C 
HETATM    4  C7  UNL     1     -20.988  -0.584 -27.099  1.00  0.00     0.074 C 
HETATM    5  C8  UNL     1     -20.094  -1.799 -27.054  1.00  0.00     0.050 C 
HETATM    6  C9  UNL     1     -21.230  -0.285 -28.578  1.00  0.00     0.050 C 
HETATM    7  O1  UNL     1     -20.391   0.545 -26.572  1.00  0.00    -0.346 OA
HETATM    8  C10 UNL     1     -20.263   0.535 -25.207  1.00  0.00     0.283 C 
HETATM    9  O2  UNL     1     -19.856  -0.674 -24.641  1.00  0.00    -0.318 OA
HETATM   10  C11 UNL     1     -20.585  -0.313 -23.532  1.00  0.00     0.241 C 
ENDROOT
BRANCH  10  11
HETATM   11  O3  UNL     1     -19.899   0.610 -22.767  1.00  0.00    -0.360 OA
ATOM     12  H3  UNL     1     -19.893   1.460 -23.192  1.00  0.00     0.213 HD
ENDBRANCH  10  11
BRANCH  10  13
HETATM   13  C12 UNL     1     -21.149  -1.415 -22.696  1.00  0.00     0.416 C 
HETATM   14  F1  UNL     1     -20.392  -2.565 -22.959  1.00  0.00    -0.208 F 
HETATM   15  F2  UNL     1     -21.138  -1.163 -21.359  1.00  0.00    -0.208 F 
ENDBRANCH  10  13
BRANCH   1  16
HETATM   16  C3  UNL     1     -22.097   1.615 -23.799  1.00  0.00     0.050 C 
BRANCH  16  17
HETATM   17  C2  UNL     1     -23.200   2.237 -24.571  1.00  0.00    -0.035 C 
HETATM   18  C1  UNL     1     -23.050   2.846 -25.736  1.00  0.00     0.007 C 
ENDBRANCH  16  17
ENDBRANCH   1  16
TORSDOF 4
ENDMDL
MODEL 5
REMARK VINA RESULT: -6.401484535      2.734      4.804
REMARK  4 active torsions:
REMARK  status: ('A' for Active; 'I' for Inactive)
REMARK    1  A    between atoms: C2_2  and  C3_3 
REMARK    2  A    between atoms: C3_3  and  C4_4 
REMARK    3  A    between atoms: C11_13  and  O3_14 
REMARK    4  A    between atoms: C11_13  and  C12_16 
ROOT
HETATM    1  C4  UNL     1     -21.289  -0.316 -25.404  1.00  0.00     0.092 C 
HETATM    2  C5  UNL     1     -22.473  -0.539 -24.591  1.00  0.00    -0.007 C 
HETATM    3  C6  UNL     1     -22.522  -0.204 -23.313  1.00  0.00     0.007 C 
HETATM    4  C7  UNL     1     -21.365   0.420 -22.638  1.00  0.00     0.074 C 
HETATM    5  C8  UNL     1     -21.645   1.894 -22.476  1.00  0.00     0.050 C 
HETATM    6  C9  UNL     1     -21.174  -0.137 -21.228  1.00  0.00     0.050 C 
HETATM    7  O1  UNL     1     -20.186   0.166 -23.313  1.00  0.00    -0.346 OA
HETATM    8  C10 UNL     1     -20.232   0.433 -24.657  1.00  0.00     0.283 C 
HETATM    9  O2  UNL     1     -20.888   1.609 -25.023  1.00  0.00    -0.318 OA
HETATM   10  C11 UNL     1     -21.223   0.968 -26.193  1.00  0.00     0.241 C 
ENDROOT
BRANCH  10  11
HETATM   11  O3  UNL     1     -20.156   0.946 -27.070  1.00  0.00    -0.360 OA
ATOM     12  H3  UNL     1     -20.187   0.169 -27.617  1.00  0.00     0.213 HD
ENDBRANCH  10  11
BRANCH  10  13
HETATM   13  C12 UNL     1     -22.486   1.393 -26.869  1.00  0.00     0.416 C 
HETATM   14  F1  UNL     1     -22.320   2.729 -27.256  1.00  0.00    -0.208 F 
HETATM   15  F2  UNL     1     -22.816   0.645 -27.956  1.00  0.00    -0.208 F 
ENDBRANCH  10  13
BRANCH   1  16
HETATM   16  C3  UNL     1     -20.824  -1.463 -26.260  1.00  0.00     0.050 C 
BRANCH  16  17
HETATM   17  C2  UNL     1     -19.798  -2.298 -25.588  1.00  0.00    -0.035 C 
HETATM   18  C1  UNL     1     -19.068  -3.221 -26.193  1.00  0.00     0.007 C 
ENDBRANCH  16  17
ENDBRANCH   1  16
TORSDOF 4
ENDMDL
