MODEL 1
REMARK VINA RESULT: -6.424000384      0.000      0.000
REMARK  5 active torsions:
REMARK  status: ('A' for Active; 'I' for Inactive)
REMARK    1  A    between atoms: O1_1  and  C1_3 
REMARK    2  A    between atoms: C1_3  and  C2_4 
REMARK    3  A    between atoms: C1_3  and  C11_15 
REMARK    4  A    between atoms: C2_4  and  C3_5 
REMARK    5  A    between atoms: C2_4  and  N1_10 
ROOT
HETATM    1  C2  UNL     1     -21.265  -0.168 -24.394  1.00  0.00     0.300 C 
ENDROOT
BRANCH   1   2
HETATM    2  C1  UNL     1     -20.506   0.327 -23.217  1.00  0.00     0.264 C 
BRANCH   2   3
HETATM    3  O1  UNL     1     -19.845   1.520 -23.513  1.00  0.00    -0.384 OA
ATOM      4  H1  UNL     1     -20.312   2.266 -23.154  1.00  0.00     0.210 HD
ENDBRANCH   2   3
BRANCH   2   5
HETATM    5  C11 UNL     1     -21.321   0.519 -21.973  1.00  0.00     0.415 C 
HETATM    6  F1  UNL     1     -21.540   1.865 -21.744  1.00  0.00    -0.168 F 
HETATM    7  F2  UNL     1     -22.566  -0.062 -22.116  1.00  0.00    -0.168 F 
HETATM    8  F3  UNL     1     -20.705   0.029 -20.845  1.00  0.00    -0.168 F 
ENDBRANCH   2   5
ENDBRANCH   1   2
BRANCH   1   9
HETATM    9  C3  UNL     1     -21.878   0.922 -25.202  1.00  0.00     0.018 A 
HETATM   10  C4  UNL     1     -21.697   1.158 -26.545  1.00  0.00     0.017 A 
HETATM   11  C5  UNL     1     -22.345   2.193 -27.072  1.00  0.00     0.008 A 
HETATM   12  C6  UNL     1     -23.137   2.944 -26.247  1.00  0.00     0.050 A 
HETATM   13  S1  UNL     1     -22.948   2.167 -24.740  1.00  0.00    -0.104 SA
ENDBRANCH   1   9
BRANCH   1  14
HETATM   14  N1  UNL     1     -20.304  -0.838 -25.283  1.00  0.00     0.107 N 
HETATM   15  C7  UNL     1     -20.989  -1.376 -26.461  1.00  0.00     0.301 C 
HETATM   16  C8  UNL     1     -20.009  -2.413 -26.914  1.00  0.00     0.001 C 
HETATM   17  C9  UNL     1     -19.312  -2.808 -25.855  1.00  0.00     0.001 C 
HETATM   18  C10 UNL     1     -19.801  -2.052 -24.669  1.00  0.00     0.301 C 
ENDBRANCH   1  14
TORSDOF 5
ENDMDL
MODEL 2
REMARK VINA RESULT: -6.415429101      2.026      3.933
REMARK  5 active torsions:
REMARK  status: ('A' for Active; 'I' for Inactive)
REMARK    1  A    between atoms: O1_1  and  C1_3 
REMARK    2  A    between atoms: C1_3  and  C2_4 
REMARK    3  A    between atoms: C1_3  and  C11_15 
REMARK    4  A    between atoms: C2_4  and  C3_5 
REMARK    5  A    between atoms: C2_4  and  N1_10 
ROOT
HETATM    1  C2  UNL     1     -21.297   0.182 -24.403  1.00  0.00     0.300 C 
ENDROOT
BRANCH   1   2
HETATM    2  C1  UNL     1     -22.063  -0.312 -23.231  1.00  0.00     0.264 C 
BRANCH   2   3
HETATM    3  O1  UNL     1     -22.749  -1.488 -23.540  1.00  0.00    -0.384 OA
ATOM      4  H1  UNL     1     -23.581  -1.298 -23.958  1.00  0.00     0.210 HD
ENDBRANCH   2   3
BRANCH   2   5
HETATM    5  C11 UNL     1     -21.250  -0.537 -21.991  1.00  0.00     0.415 C 
HETATM    6  F1  UNL     1     -21.872   0.037 -20.897  1.00  0.00    -0.168 F 
HETATM    7  F2  UNL     1     -21.148  -1.887 -21.718  1.00  0.00    -0.168 F 
HETATM    8  F3  UNL     1     -19.996   0.022 -22.060  1.00  0.00    -0.168 F 
ENDBRANCH   2   5
ENDBRANCH   1   2
BRANCH   1   9
HETATM    9  C3  UNL     1     -20.679  -0.908 -25.206  1.00  0.00     0.018 A 
HETATM   10  C4  UNL     1     -20.847  -1.141 -26.551  1.00  0.00     0.017 A 
HETATM   11  C5  UNL     1     -20.196  -2.177 -27.073  1.00  0.00     0.008 A 
HETATM   12  C6  UNL     1     -19.414  -2.931 -26.242  1.00  0.00     0.050 A 
HETATM   13  S1  UNL     1     -19.616  -2.156 -24.735  1.00  0.00    -0.104 SA
ENDBRANCH   1   9
BRANCH   1  14
HETATM   14  N1  UNL     1     -22.253   0.852 -25.298  1.00  0.00     0.107 N 
HETATM   15  C7  UNL     1     -21.562   1.377 -26.479  1.00  0.00     0.301 C 
HETATM   16  C8  UNL     1     -22.535   2.417 -26.941  1.00  0.00     0.001 C 
HETATM   17  C9  UNL     1     -23.232   2.824 -25.885  1.00  0.00     0.001 C 
HETATM   18  C10 UNL     1     -22.749   2.073 -24.694  1.00  0.00     0.301 C 
ENDBRANCH   1  14
TORSDOF 5
ENDMDL
MODEL 3
REMARK VINA RESULT: -6.289256059      2.630      4.006
REMARK  5 active torsions:
REMARK  status: ('A' for Active; 'I' for Inactive)
REMARK    1  A    between atoms: O1_1  and  C1_3 
REMARK    2  A    between atoms: C1_3  and  C2_4 
REMARK    3  A    between atoms: C1_3  and  C11_15 
REMARK    4  A    between atoms: C2_4  and  C3_5 
REMARK    5  A    between atoms: C2_4  and  N1_10 
ROOT
HETATM    1  C2  UNL     1     -21.061  -0.280 -24.461  1.00  0.00     0.300 C 
ENDROOT
BRANCH   1   2
HETATM    2  C1  UNL     1     -21.978  -1.179 -23.716  1.00  0.00     0.264 C 
BRANCH   2   3
HETATM    3  O1  UNL     1     -23.014  -1.629 -24.536  1.00  0.00    -0.384 OA
ATOM      4  H1  UNL     1     -22.682  -2.192 -25.227  1.00  0.00     0.210 HD
ENDBRANCH   2   3
BRANCH   2   5
HETATM    5  C11 UNL     1     -21.320  -2.363 -23.072  1.00  0.00     0.415 C 
HETATM    6  F1  UNL     1     -20.349  -2.887 -23.905  1.00  0.00    -0.168 F 
HETATM    7  F2  UNL     1     -20.676  -1.984 -21.909  1.00  0.00    -0.168 F 
HETATM    8  F3  UNL     1     -22.197  -3.389 -22.807  1.00  0.00    -0.168 F 
ENDBRANCH   2   5
ENDBRANCH   1   2
BRANCH   1   9
HETATM    9  C3  UNL     1     -21.312  -0.264 -25.928  1.00  0.00     0.018 A 
HETATM   10  C4  UNL     1     -22.055   0.656 -26.629  1.00  0.00     0.017 A 
HETATM   11  C5  UNL     1     -22.152   0.482 -27.945  1.00  0.00     0.008 A 
HETATM   12  C6  UNL     1     -21.510  -0.590 -28.501  1.00  0.00     0.050 A 
HETATM   13  S1  UNL     1     -20.782  -1.332 -27.148  1.00  0.00    -0.104 SA
ENDBRANCH   1   9
BRANCH   1  14
HETATM   14  N1  UNL     1     -21.316   1.090 -23.992  1.00  0.00     0.107 N 
HETATM   15  C7  UNL     1     -20.052   1.780 -23.720  1.00  0.00     0.301 C 
HETATM   16  C8  UNL     1     -20.512   2.868 -22.800  1.00  0.00     0.001 C 
HETATM   17  C9  UNL     1     -21.612   2.448 -22.186  1.00  0.00     0.001 C 
HETATM   18  C10 UNL     1     -21.920   1.076 -22.674  1.00  0.00     0.301 C 
ENDBRANCH   1  14
TORSDOF 5
ENDMDL
MODEL 4
REMARK VINA RESULT: -6.283678318      1.934      2.758
REMARK  5 active torsions:
REMARK  status: ('A' for Active; 'I' for Inactive)
REMARK    1  A    between atoms: O1_1  and  C1_3 
REMARK    2  A    between atoms: C1_3  and  C2_4 
REMARK    3  A    between atoms: C1_3  and  C11_15 
REMARK    4  A    between atoms: C2_4  and  C3_5 
REMARK    5  A    between atoms: C2_4  and  N1_10 
ROOT
HETATM    1  C2  UNL     1     -21.474   0.297 -24.461  1.00  0.00     0.300 C 
ENDROOT
BRANCH   1   2
HETATM    2  C1  UNL     1     -20.549   1.187 -23.714  1.00  0.00     0.264 C 
BRANCH   2   3
HETATM    3  O1  UNL     1     -19.516   1.639 -24.535  1.00  0.00    -0.384 OA
ATOM      4  H1  UNL     1     -18.704   1.183 -24.345  1.00  0.00     0.210 HD
ENDBRANCH   2   3
BRANCH   2   5
HETATM    5  C11 UNL     1     -21.199   2.368 -23.057  1.00  0.00     0.415 C 
HETATM    6  F1  UNL     1     -22.201   2.876 -23.862  1.00  0.00    -0.168 F 
HETATM    7  F2  UNL     1     -21.802   1.990 -21.872  1.00  0.00    -0.168 F 
HETATM    8  F3  UNL     1     -20.325   3.404 -22.825  1.00  0.00    -0.168 F 
ENDBRANCH   2   5
ENDBRANCH   1   2
BRANCH   1   9
HETATM    9  C3  UNL     1     -21.222   0.284 -25.929  1.00  0.00     0.018 A 
HETATM   10  C4  UNL     1     -20.478  -0.634 -26.631  1.00  0.00     0.017 A 
HETATM   11  C5  UNL     1     -20.382  -0.458 -27.947  1.00  0.00     0.008 A 
HETATM   12  C6  UNL     1     -21.025   0.614 -28.501  1.00  0.00     0.050 A 
HETATM   13  S1  UNL     1     -21.754   1.353 -27.147  1.00  0.00    -0.104 SA
ENDBRANCH   1   9
BRANCH   1  14
HETATM   14  N1  UNL     1     -21.229  -1.076 -23.996  1.00  0.00     0.107 N 
HETATM   15  C7  UNL     1     -22.498  -1.754 -23.721  1.00  0.00     0.301 C 
HETATM   16  C8  UNL     1     -22.045  -2.849 -22.806  1.00  0.00     0.001 C 
HETATM   17  C9  UNL     1     -20.938  -2.441 -22.195  1.00  0.00     0.001 C 
HETATM   18  C10 UNL     1     -20.620  -1.071 -22.681  1.00  0.00     0.301 C 
ENDBRANCH   1  14
TORSDOF 5
ENDMDL
MODEL 5
REMARK VINA RESULT: -6.135095518      2.846      3.937
REMARK  5 active torsions:
REMARK  status: ('A' for Active; 'I' for Inactive)
REMARK    1  A    between atoms: O1_1  and  C1_3 
REMARK    2  A    between atoms: C1_3  and  C2_4 
REMARK    3  A    between atoms: C1_3  and  C11_15 
REMARK    4  A    between atoms: C2_4  and  C3_5 
REMARK    5  A    between atoms: C2_4  and  N1_10 
ROOT
HETATM    1  C2  UNL     1     -20.607   0.054 -25.668  1.00  0.00     0.300 C 
ENDROOT
BRANCH   1   2
HETATM    2  C1  UNL     1     -20.414  -1.376 -25.315  1.00  0.00     0.264 C 
BRANCH   2   3
HETATM    3  O1  UNL     1     -19.832  -2.078 -26.371  1.00  0.00    -0.384 OA
ATOM      4  H1  UNL     1     -19.156  -2.668 -26.056  1.00  0.00     0.210 HD
ENDBRANCH   2   3
BRANCH   2   5
HETATM    5  C11 UNL     1     -19.615  -1.619 -24.070  1.00  0.00     0.415 C 
HETATM    6  F1  UNL     1     -18.434  -2.270 -24.376  1.00  0.00    -0.168 F 
HETATM    7  F2  UNL     1     -19.261  -0.421 -23.481  1.00  0.00    -0.168 F 
HETATM    8  F3  UNL     1     -20.268  -2.413 -23.157  1.00  0.00    -0.168 F 
ENDBRANCH   2   5
ENDBRANCH   1   2
BRANCH   1   9
HETATM    9  C3  UNL     1     -20.577   0.309 -27.135  1.00  0.00     0.018 A 
HETATM   10  C4  UNL     1     -19.744   1.171 -27.807  1.00  0.00     0.017 A 
HETATM   11  C5  UNL     1     -19.886   1.246 -29.128  1.00  0.00     0.008 A 
HETATM   12  C6  UNL     1     -20.845   0.468 -29.717  1.00  0.00     0.050 A 
HETATM   13  S1  UNL     1     -21.525  -0.357 -28.387  1.00  0.00    -0.104 SA
ENDBRANCH   1   9
BRANCH   1  14
HETATM   14  N1  UNL     1     -21.953   0.438 -25.218  1.00  0.00     0.107 N 
HETATM   15  C7  UNL     1     -21.869   1.486 -24.198  1.00  0.00     0.301 C 
HETATM   16  C8  UNL     1     -23.201   1.344 -23.531  1.00  0.00     0.001 C 
HETATM   17  C9  UNL     1     -23.609   0.091 -23.692  1.00  0.00     0.001 C 
HETATM   18  C10 UNL     1     -22.568  -0.639 -24.467  1.00  0.00     0.301 C 
ENDBRANCH   1  14
TORSDOF 5
ENDMDL
