MODEL 1
REMARK VINA RESULT: -7.079430494      0.000      0.000
REMARK  5 active torsions:
REMARK  status: ('A' for Active; 'I' for Inactive)
REMARK    1  A    between atoms: C5_5  and  C6_6 
REMARK    2  A    between atoms: C6_6  and  C7_7 
REMARK    3  A    between atoms: C6_6  and  N1_10 
REMARK    4  A    between atoms: C6_6  and  C9_16 
REMARK    5  A    between atoms: N1_10  and  O2_14 
ROOT
HETATM    1  C6  UNL     1     -21.102  -0.516 -23.718  1.00  0.00     0.227 C 
ENDROOT
BRANCH   1   2
HETATM    2  C5  UNL     1     -21.004  -0.273 -25.166  1.00  0.00    -0.014 A 
HETATM    3  C4  UNL     1     -21.354   0.935 -25.766  1.00  0.00     0.011 A 
HETATM    4  C3  UNL     1     -21.278   1.150 -27.125  1.00  0.00     0.007 A 
HETATM    5  C2  UNL     1     -20.849   0.175 -27.974  1.00  0.00    -0.062 A 
HETATM    6  C1  UNL     1     -20.767   0.412 -29.443  1.00  0.00     0.048 C 
HETATM    7  C11 UNL     1     -20.490  -1.041 -27.416  1.00  0.00     0.007 A 
HETATM    8  C10 UNL     1     -20.567  -1.257 -26.054  1.00  0.00     0.011 A 
ENDBRANCH   1   2
BRANCH   1   9
HETATM    9  C7  UNL     1     -20.911  -1.979 -23.429  1.00  0.00     0.191 A 
HETATM   10  C8  UNL     1     -21.689  -2.773 -22.539  1.00  0.00     0.203 A 
HETATM   11  O1  UNL     1     -20.403  -2.243 -22.116  1.00  0.00    -0.378 OA
ENDBRANCH   1   9
BRANCH   1  12
HETATM   12  N1  UNL     1     -20.120   0.300 -23.009  1.00  0.00    -0.181 N 
HETATM   13  N2  UNL     1     -18.937   0.366 -23.427  1.00  0.00    -0.322 N 
ATOM     14  H22 UNL     1     -18.681  -0.151 -24.268  1.00  0.00     0.179 HD
ATOM     15  H21 UNL     1     -18.251   0.936 -22.932  1.00  0.00     0.179 HD
BRANCH  12  16
HETATM   16  O2  UNL     1     -20.464   0.995 -21.879  1.00  0.00    -0.271 OA
ATOM     17  H2  UNL     1     -19.801   1.416 -21.344  1.00  0.00     0.246 HD
ENDBRANCH  12  16
ENDBRANCH   1  12
BRANCH   1  18
HETATM   18  C9  UNL     1     -22.479  -0.083 -23.229  1.00  0.00     0.423 C 
HETATM   19  F1  UNL     1     -22.723  -0.347 -21.913  1.00  0.00    -0.168 F 
HETATM   20  F2  UNL     1     -23.420  -0.800 -23.970  1.00  0.00    -0.168 F 
HETATM   21  F3  UNL     1     -22.689   1.261 -23.505  1.00  0.00    -0.168 F 
ENDBRANCH   1  18
TORSDOF 5
ENDMDL
MODEL 2
REMARK VINA RESULT: -7.061434847      0.033      1.106
REMARK  5 active torsions:
REMARK  status: ('A' for Active; 'I' for Inactive)
REMARK    1  A    between atoms: C5_5  and  C6_6 
REMARK    2  A    between atoms: C6_6  and  C7_7 
REMARK    3  A    between atoms: C6_6  and  N1_10 
REMARK    4  A    between atoms: C6_6  and  C9_16 
REMARK    5  A    between atoms: N1_10  and  O2_14 
ROOT
HETATM    1  C6  UNL     1     -21.098  -0.521 -23.717  1.00  0.00     0.227 C 
ENDROOT
BRANCH   1   2
HETATM    2  C5  UNL     1     -21.014  -0.280 -25.165  1.00  0.00    -0.014 A 
HETATM    3  C4  UNL     1     -20.573  -1.237 -26.078  1.00  0.00     0.011 A 
HETATM    4  C3  UNL     1     -20.478  -0.998 -27.431  1.00  0.00     0.007 A 
HETATM    5  C2  UNL     1     -20.815   0.210 -27.964  1.00  0.00    -0.062 A 
HETATM    6  C1  UNL     1     -20.711   0.463 -29.429  1.00  0.00     0.048 C 
HETATM    7  C11 UNL     1     -21.259   1.188 -27.089  1.00  0.00     0.007 A 
HETATM    8  C10 UNL     1     -21.354   0.949 -25.733  1.00  0.00     0.011 A 
ENDBRANCH   1   2
BRANCH   1   9
HETATM    9  C7  UNL     1     -20.902  -1.983 -23.426  1.00  0.00     0.191 A 
HETATM   10  C8  UNL     1     -21.687  -2.783 -22.548  1.00  0.00     0.203 A 
HETATM   11  O1  UNL     1     -20.411  -2.245 -22.106  1.00  0.00    -0.378 OA
ENDBRANCH   1   9
BRANCH   1  12
HETATM   12  N1  UNL     1     -20.110   0.298 -23.018  1.00  0.00    -0.181 N 
HETATM   13  N2  UNL     1     -18.928   0.352 -23.437  1.00  0.00    -0.322 N 
ATOM     14  H22 UNL     1     -18.675  -0.178 -24.271  1.00  0.00     0.179 HD
ATOM     15  H21 UNL     1     -18.238   0.924 -22.949  1.00  0.00     0.179 HD
BRANCH  12  16
HETATM   16  O2  UNL     1     -20.450   1.010 -21.897  1.00  0.00    -0.271 OA
ATOM     17  H2  UNL     1     -21.276   1.477 -21.846  1.00  0.00     0.246 HD
ENDBRANCH  12  16
ENDBRANCH   1  12
BRANCH   1  18
HETATM   18  C9  UNL     1     -22.471  -0.089 -23.216  1.00  0.00     0.423 C 
HETATM   19  F1  UNL     1     -22.708  -0.366 -21.901  1.00  0.00    -0.168 F 
HETATM   20  F2  UNL     1     -23.418  -0.796 -23.958  1.00  0.00    -0.168 F 
HETATM   21  F3  UNL     1     -22.679   1.258 -23.477  1.00  0.00    -0.168 F 
ENDBRANCH   1  18
TORSDOF 5
ENDMDL
MODEL 3
REMARK VINA RESULT: -7.045047603      2.229      3.221
REMARK  5 active torsions:
REMARK  status: ('A' for Active; 'I' for Inactive)
REMARK    1  A    between atoms: C5_5  and  C6_6 
REMARK    2  A    between atoms: C6_6  and  C7_7 
REMARK    3  A    between atoms: C6_6  and  N1_10 
REMARK    4  A    between atoms: C6_6  and  C9_16 
REMARK    5  A    between atoms: N1_10  and  O2_14 
ROOT
HETATM    1  C6  UNL     1     -21.335   0.556 -23.824  1.00  0.00     0.227 C 
ENDROOT
BRANCH   1   2
HETATM    2  C5  UNL     1     -21.493   0.259 -25.257  1.00  0.00    -0.014 A 
HETATM    3  C4  UNL     1     -21.179  -0.974 -25.824  1.00  0.00     0.011 A 
HETATM    4  C3  UNL     1     -21.310  -1.238 -27.170  1.00  0.00     0.007 A 
HETATM    5  C2  UNL     1     -21.764  -0.291 -28.038  1.00  0.00    -0.062 A 
HETATM    6  C1  UNL     1     -21.905  -0.582 -29.492  1.00  0.00     0.048 C 
HETATM    7  C11 UNL     1     -22.089   0.949 -27.512  1.00  0.00     0.007 A 
HETATM    8  C10 UNL     1     -21.956   1.214 -26.163  1.00  0.00     0.011 A 
ENDBRANCH   1   2
BRANCH   1   9
HETATM    9  C7  UNL     1     -21.534   2.025 -23.579  1.00  0.00     0.191 A 
HETATM   10  C8  UNL     1     -20.848   2.822 -22.619  1.00  0.00     0.203 A 
HETATM   11  O1  UNL     1     -22.181   2.316 -22.333  1.00  0.00    -0.378 OA
ENDBRANCH   1   9
BRANCH   1  12
HETATM   12  N1  UNL     1     -22.274  -0.247 -23.044  1.00  0.00    -0.181 N 
HETATM   13  N2  UNL     1     -23.469  -0.356 -23.415  1.00  0.00    -0.322 N 
ATOM     14  H22 UNL     1     -23.765   0.117 -24.269  1.00  0.00     0.179 HD
ATOM     15  H21 UNL     1     -24.124  -0.917 -22.871  1.00  0.00     0.179 HD
BRANCH  12  16
HETATM   16  O2  UNL     1     -21.875  -0.883 -21.898  1.00  0.00    -0.271 OA
ATOM     17  H2  UNL     1     -20.982  -1.191 -21.795  1.00  0.00     0.246 HD
ENDBRANCH  12  16
ENDBRANCH   1  12
BRANCH   1  18
HETATM   18  C9  UNL     1     -19.932   0.158 -23.382  1.00  0.00     0.423 C 
HETATM   19  F1  UNL     1     -19.660   0.405 -22.068  1.00  0.00    -0.168 F 
HETATM   20  F2  UNL     1     -19.036   0.919 -24.133  1.00  0.00    -0.168 F 
HETATM   21  F3  UNL     1     -19.687  -1.173 -23.690  1.00  0.00    -0.168 F 
ENDBRANCH   1  18
TORSDOF 5
ENDMDL
MODEL 4
REMARK VINA RESULT: -7.003554484      0.406      1.491
REMARK  5 active torsions:
REMARK  status: ('A' for Active; 'I' for Inactive)
REMARK    1  A    between atoms: C5_5  and  C6_6 
REMARK    2  A    between atoms: C6_6  and  C7_7 
REMARK    3  A    between atoms: C6_6  and  N1_10 
REMARK    4  A    between atoms: C6_6  and  C9_16 
REMARK    5  A    between atoms: N1_10  and  O2_14 
ROOT
HETATM    1  C6  UNL     1     -21.304  -0.381 -23.811  1.00  0.00     0.227 C 
ENDROOT
BRANCH   1   2
HETATM    2  C5  UNL     1     -21.162  -0.152 -25.257  1.00  0.00    -0.014 A 
HETATM    3  C4  UNL     1     -20.699  -1.121 -26.145  1.00  0.00     0.011 A 
HETATM    4  C3  UNL     1     -20.550  -0.894 -27.496  1.00  0.00     0.007 A 
HETATM    5  C2  UNL     1     -20.852   0.314 -28.050  1.00  0.00    -0.062 A 
HETATM    6  C1  UNL     1     -20.690   0.555 -29.511  1.00  0.00     0.048 C 
HETATM    7  C11 UNL     1     -21.318   1.304 -27.200  1.00  0.00     0.007 A 
HETATM    8  C10 UNL     1     -21.466   1.077 -25.846  1.00  0.00     0.011 A 
ENDBRANCH   1   2
BRANCH   1   9
HETATM    9  C7  UNL     1     -21.377  -1.855 -23.529  1.00  0.00     0.191 A 
HETATM   10  C8  UNL     1     -21.270  -2.477 -22.252  1.00  0.00     0.203 A 
HETATM   11  O1  UNL     1     -20.121  -2.429 -23.143  1.00  0.00    -0.378 OA
ENDBRANCH   1   9
BRANCH   1  12
HETATM   12  N1  UNL     1     -20.192   0.244 -23.097  1.00  0.00    -0.181 N 
HETATM   13  N2  UNL     1     -19.021   0.137 -23.539  1.00  0.00    -0.322 N 
ATOM     14  H22 UNL     1     -18.865  -0.384 -24.402  1.00  0.00     0.179 HD
ATOM     15  H21 UNL     1     -18.245   0.573 -23.041  1.00  0.00     0.179 HD
BRANCH  12  16
HETATM   16  O2  UNL     1     -20.402   0.943 -21.938  1.00  0.00    -0.271 OA
ATOM     17  H2  UNL     1     -20.431   0.501 -21.098  1.00  0.00     0.246 HD
ENDBRANCH  12  16
ENDBRANCH   1  12
BRANCH   1  18
HETATM   18  C9  UNL     1     -22.582   0.289 -23.321  1.00  0.00     0.423 C 
HETATM   19  F1  UNL     1     -22.630   1.637 -23.523  1.00  0.00    -0.168 F 
HETATM   20  F2  UNL     1     -22.650   0.080 -21.943  1.00  0.00    -0.168 F 
HETATM   21  F3  UNL     1     -23.694  -0.329 -23.876  1.00  0.00    -0.168 F 
ENDBRANCH   1  18
TORSDOF 5
ENDMDL
MODEL 5
REMARK VINA RESULT: -7.000597052      2.233      3.035
REMARK  5 active torsions:
REMARK  status: ('A' for Active; 'I' for Inactive)
REMARK    1  A    between atoms: C5_5  and  C6_6 
REMARK    2  A    between atoms: C6_6  and  C7_7 
REMARK    3  A    between atoms: C6_6  and  N1_10 
REMARK    4  A    between atoms: C6_6  and  C9_16 
REMARK    5  A    between atoms: N1_10  and  O2_14 
ROOT
HETATM    1  C6  UNL     1     -21.332   0.559 -23.830  1.00  0.00     0.227 C 
ENDROOT
BRANCH   1   2
HETATM    2  C5  UNL     1     -21.475   0.270 -25.265  1.00  0.00    -0.014 A 
HETATM    3  C4  UNL     1     -21.956   1.194 -26.190  1.00  0.00     0.011 A 
HETATM    4  C3  UNL     1     -22.105   0.910 -27.530  1.00  0.00     0.007 A 
HETATM    5  C2  UNL     1     -21.785  -0.314 -28.035  1.00  0.00    -0.062 A 
HETATM    6  C1  UNL     1     -21.948  -0.617 -29.485  1.00  0.00     0.048 C 
HETATM    7  C11 UNL     1     -21.302  -1.261 -27.148  1.00  0.00     0.007 A 
HETATM    8  C10 UNL     1     -21.153  -0.977 -25.805  1.00  0.00     0.011 A 
ENDBRANCH   1   2
BRANCH   1   9
HETATM    9  C7  UNL     1     -21.538   2.027 -23.579  1.00  0.00     0.191 A 
HETATM   10  C8  UNL     1     -20.861   2.821 -22.609  1.00  0.00     0.203 A 
HETATM   11  O1  UNL     1     -22.195   2.310 -22.337  1.00  0.00    -0.378 OA
ENDBRANCH   1   9
BRANCH   1  12
HETATM   12  N1  UNL     1     -22.277  -0.250 -23.063  1.00  0.00    -0.181 N 
HETATM   13  N2  UNL     1     -23.470  -0.354 -23.444  1.00  0.00    -0.322 N 
ATOM     14  H22 UNL     1     -23.760   0.128 -24.295  1.00  0.00     0.179 HD
ATOM     15  H21 UNL     1     -24.130  -0.919 -22.909  1.00  0.00     0.179 HD
BRANCH  12  16
HETATM   16  O2  UNL     1     -21.887  -0.897 -21.921  1.00  0.00    -0.271 OA
ATOM     17  H2  UNL     1     -21.055  -1.354 -21.877  1.00  0.00     0.246 HD
ENDBRANCH  12  16
ENDBRANCH   1  12
BRANCH   1  18
HETATM   18  C9  UNL     1     -19.933   0.162 -23.375  1.00  0.00     0.423 C 
HETATM   19  F1  UNL     1     -19.672   0.413 -22.060  1.00  0.00    -0.168 F 
HETATM   20  F2  UNL     1     -19.030   0.920 -24.122  1.00  0.00    -0.168 F 
HETATM   21  F3  UNL     1     -19.686  -1.170 -23.677  1.00  0.00    -0.168 F 
ENDBRANCH   1  18
TORSDOF 5
ENDMDL
