MODEL 1
REMARK VINA RESULT: -8.119018152      0.000      0.000
REMARK  13 active torsions:
REMARK  status: ('A' for Active; 'I' for Inactive)
REMARK    1  A    between atoms: C3_3  and  N1_5 
REMARK    2  A    between atoms: N1_5  and  C5_7 
REMARK    3  A    between atoms: C5_7  and  C6_8 
REMARK    4  A    between atoms: C6_8  and  O1_9 
REMARK    5  A    between atoms: C6_8  and  C7_11 
REMARK    6  A    between atoms: C7_11  and  O2_12 
REMARK    7  A    between atoms: O2_12  and  C8_13 
REMARK    8  A    between atoms: C13_18  and  O3_19 
REMARK    9  A    between atoms: O3_19  and  C14_20 
REMARK   10  A    between atoms: C14_20  and  C15_21 
REMARK   11  A    between atoms: C15_21  and  O4_22 
REMARK   12  A    between atoms: C15_21  and  C16_24 
REMARK   13  A    between atoms: C16_24  and  N2_25 
ROOT
HETATM    1  C1  UNL     1      35.361  17.832  22.009  1.00  0.00     0.014 C 
HETATM    2  C2  UNL     1      35.336  17.852  23.215  1.00  0.00    -0.092 C 
HETATM    3  C3  UNL     1      35.295  17.851  24.713  1.00  0.00     0.155 C 
HETATM    4  C4  UNL     1      33.920  17.309  25.054  1.00  0.00     0.046 C 
ENDROOT
BRANCH   3   5
HETATM    5  N1  UNL     1      36.378  17.044  25.144  1.00  0.00    -0.385 N 
ATOM      6  H1  UNL     1      37.323  17.237  24.814  1.00  0.00     0.160 HD
BRANCH   5   7
HETATM    7  C5  UNL     1      36.143  15.976  26.028  1.00  0.00     0.090 C 
BRANCH   7   8
HETATM    8  C6  UNL     1      36.623  14.609  25.679  1.00  0.00     0.180 C 
BRANCH   8   9
HETATM    9  O1  UNL     1      36.239  13.813  26.811  1.00  0.00    -0.388 OA
ATOM     10  H1  UNL     1      37.035  13.348  27.041  1.00  0.00     0.210 HD
ENDBRANCH   8   9
BRANCH   8  11
HETATM   11  C7  UNL     1      35.712  13.988  24.580  1.00  0.00     0.213 C 
BRANCH  11  12
HETATM   12  O2  UNL     1      36.214  14.371  23.349  1.00  0.00    -0.348 OA
BRANCH  12  13
HETATM   13  C8  UNL     1      37.460  14.298  22.825  1.00  0.00     0.078 A 
HETATM   14  C9  UNL     1      38.215  15.399  22.473  1.00  0.00     0.044 A 
HETATM   15  C10 UNL     1      39.490  15.315  21.927  1.00  0.00    -0.057 A 
HETATM   16  C11 UNL     1      40.282  16.526  21.531  1.00  0.00     0.048 C 
HETATM   17  C12 UNL     1      39.996  14.049  21.742  1.00  0.00     0.044 A 
HETATM   18  C13 UNL     1      39.290  12.924  22.076  1.00  0.00     0.078 A 
HETATM   19  C17 UNL     1      38.034  13.051  22.613  1.00  0.00     0.005 A 
HETATM   20  C18 UNL     1      37.283  11.811  22.998  1.00  0.00     0.054 C 
BRANCH  18  21
HETATM   21  O3  UNL     1      39.868  11.677  21.851  1.00  0.00    -0.348 OA
BRANCH  21  22
HETATM   22  C14 UNL     1      41.271  11.532  21.676  1.00  0.00     0.209 C 
BRANCH  22  23
HETATM   23  C15 UNL     1      41.555  10.803  20.390  1.00  0.00     0.167 C 
BRANCH  23  24
HETATM   24  O4  UNL     1      41.443  11.584  19.265  1.00  0.00    -0.392 OA
ATOM     25  H4  UNL     1      42.240  11.642  18.751  1.00  0.00     0.210 HD
ENDBRANCH  23  24
BRANCH  23  26
HETATM   26  C16 UNL     1      42.955  10.181  20.454  1.00  0.00     0.263 C 
BRANCH  26  27
HETATM   27  N2  UNL     1      43.155   9.612  21.769  1.00  0.00    -0.077 N 
ATOM     28  H23 UNL     1      42.859  10.243  22.514  1.00  0.00     0.274 HD
ATOM     29  H22 UNL     1      42.509   8.847  21.964  1.00  0.00     0.274 HD
ATOM     30  H21 UNL     1      44.131   9.330  21.862  1.00  0.00     0.274 HD
ENDBRANCH  26  27
ENDBRANCH  23  26
ENDBRANCH  22  23
ENDBRANCH  21  22
ENDBRANCH  18  21
ENDBRANCH  12  13
ENDBRANCH  11  12
ENDBRANCH   8  11
ENDBRANCH   7   8
ENDBRANCH   5   7
ENDBRANCH   3   5
TORSDOF 13
ENDMDL
MODEL 2
REMARK VINA RESULT: -8.042162042      1.674      1.960
REMARK  13 active torsions:
REMARK  status: ('A' for Active; 'I' for Inactive)
REMARK    1  A    between atoms: C3_3  and  N1_5 
REMARK    2  A    between atoms: N1_5  and  C5_7 
REMARK    3  A    between atoms: C5_7  and  C6_8 
REMARK    4  A    between atoms: C6_8  and  O1_9 
REMARK    5  A    between atoms: C6_8  and  C7_11 
REMARK    6  A    between atoms: C7_11  and  O2_12 
REMARK    7  A    between atoms: O2_12  and  C8_13 
REMARK    8  A    between atoms: C13_18  and  O3_19 
REMARK    9  A    between atoms: O3_19  and  C14_20 
REMARK   10  A    between atoms: C14_20  and  C15_21 
REMARK   11  A    between atoms: C15_21  and  O4_22 
REMARK   12  A    between atoms: C15_21  and  C16_24 
REMARK   13  A    between atoms: C16_24  and  N2_25 
ROOT
HETATM    1  C1  UNL     1      36.923  17.930  24.101  1.00  0.00     0.014 C 
HETATM    2  C2  UNL     1      36.278  17.445  24.997  1.00  0.00    -0.092 C 
HETATM    3  C3  UNL     1      35.466  16.823  26.092  1.00  0.00     0.155 C 
HETATM    4  C4  UNL     1      34.095  16.616  25.478  1.00  0.00     0.046 C 
ENDROOT
BRANCH   3   5
HETATM    5  N1  UNL     1      36.138  15.632  26.465  1.00  0.00    -0.385 N 
ATOM      6  H1  UNL     1      36.995  15.679  27.017  1.00  0.00     0.160 HD
BRANCH   5   7
HETATM    7  C5  UNL     1      35.620  14.386  26.069  1.00  0.00     0.090 C 
BRANCH   7   8
HETATM    8  C6  UNL     1      36.470  13.449  25.279  1.00  0.00     0.180 C 
BRANCH   8   9
HETATM    9  O1  UNL     1      35.690  12.244  25.226  1.00  0.00    -0.388 OA
ATOM     10  H1  UNL     1      36.305  11.591  24.916  1.00  0.00     0.210 HD
ENDBRANCH   8   9
BRANCH   8  11
HETATM   11  C7  UNL     1      36.457  13.857  23.777  1.00  0.00     0.213 C 
BRANCH  11  12
HETATM   12  O2  UNL     1      37.602  13.347  23.191  1.00  0.00    -0.348 OA
BRANCH  12  13
HETATM   13  C8  UNL     1      38.639  13.953  22.570  1.00  0.00     0.078 A 
HETATM   14  C9  UNL     1      38.734  15.317  22.378  1.00  0.00     0.044 A 
HETATM   15  C10 UNL     1      39.799  15.933  21.731  1.00  0.00    -0.057 A 
HETATM   16  C11 UNL     1      39.867  17.415  21.515  1.00  0.00     0.048 C 
HETATM   17  C12 UNL     1      40.796  15.105  21.270  1.00  0.00     0.044 A 
HETATM   18  C13 UNL     1      40.753  13.746  21.435  1.00  0.00     0.078 A 
HETATM   19  C17 UNL     1      39.684  13.179  22.081  1.00  0.00     0.005 A 
HETATM   20  C18 UNL     1      39.662  11.692  22.277  1.00  0.00     0.054 C 
BRANCH  18  21
HETATM   21  O3  UNL     1      41.799  12.975  20.933  1.00  0.00    -0.348 OA
BRANCH  21  22
HETATM   22  C14 UNL     1      43.154  13.277  21.236  1.00  0.00     0.209 C 
BRANCH  22  23
HETATM   23  C15 UNL     1      43.986  12.025  21.173  1.00  0.00     0.167 C 
BRANCH  23  24
HETATM   24  O4  UNL     1      44.723  11.782  22.307  1.00  0.00    -0.392 OA
ATOM     25  H4  UNL     1      45.129  12.556  22.681  1.00  0.00     0.210 HD
ENDBRANCH  23  24
BRANCH  23  26
HETATM   26  C16 UNL     1      43.080  10.825  20.876  1.00  0.00     0.263 C 
BRANCH  26  27
HETATM   27  N2  UNL     1      42.878  10.076  22.097  1.00  0.00    -0.077 N 
ATOM     28  H23 UNL     1      43.693  10.105  22.710  1.00  0.00     0.274 HD
ATOM     29  H22 UNL     1      42.211  10.526  22.724  1.00  0.00     0.274 HD
ATOM     30  H21 UNL     1      42.605   9.122  21.858  1.00  0.00     0.274 HD
ENDBRANCH  26  27
ENDBRANCH  23  26
ENDBRANCH  22  23
ENDBRANCH  21  22
ENDBRANCH  18  21
ENDBRANCH  12  13
ENDBRANCH  11  12
ENDBRANCH   8  11
ENDBRANCH   7   8
ENDBRANCH   5   7
ENDBRANCH   3   5
TORSDOF 13
ENDMDL
MODEL 3
REMARK VINA RESULT: -7.966066039      1.691      1.858
REMARK  13 active torsions:
REMARK  status: ('A' for Active; 'I' for Inactive)
REMARK    1  A    between atoms: C3_3  and  N1_5 
REMARK    2  A    between atoms: N1_5  and  C5_7 
REMARK    3  A    between atoms: C5_7  and  C6_8 
REMARK    4  A    between atoms: C6_8  and  O1_9 
REMARK    5  A    between atoms: C6_8  and  C7_11 
REMARK    6  A    between atoms: C7_11  and  O2_12 
REMARK    7  A    between atoms: O2_12  and  C8_13 
REMARK    8  A    between atoms: C13_18  and  O3_19 
REMARK    9  A    between atoms: O3_19  and  C14_20 
REMARK   10  A    between atoms: C14_20  and  C15_21 
REMARK   11  A    between atoms: C15_21  and  O4_22 
REMARK   12  A    between atoms: C15_21  and  C16_24 
REMARK   13  A    between atoms: C16_24  and  N2_25 
ROOT
HETATM    1  C1  UNL     1      34.979  18.192  22.521  1.00  0.00     0.014 C 
HETATM    2  C2  UNL     1      34.852  17.761  23.640  1.00  0.00    -0.092 C 
HETATM    3  C3  UNL     1      34.670  17.212  25.023  1.00  0.00     0.155 C 
HETATM    4  C4  UNL     1      33.205  17.451  25.336  1.00  0.00     0.046 C 
ENDROOT
BRANCH   3   5
HETATM    5  N1  UNL     1      35.054  15.849  24.968  1.00  0.00    -0.385 N 
ATOM      6  H1  UNL     1      34.920  15.314  24.110  1.00  0.00     0.160 HD
BRANCH   5   7
HETATM    7  C5  UNL     1      35.619  15.238  26.101  1.00  0.00     0.090 C 
BRANCH   7   8
HETATM    8  C6  UNL     1      36.330  13.935  25.960  1.00  0.00     0.180 C 
BRANCH   8   9
HETATM    9  O1  UNL     1      35.409  12.982  26.515  1.00  0.00    -0.388 OA
ATOM     10  H1  UNL     1      35.961  12.245  26.750  1.00  0.00     0.210 HD
ENDBRANCH   8   9
BRANCH   8  11
HETATM   11  C7  UNL     1      36.332  13.487  24.470  1.00  0.00     0.213 C 
BRANCH  11  12
HETATM   12  O2  UNL     1      37.648  13.436  24.046  1.00  0.00    -0.348 OA
BRANCH  12  13
HETATM   13  C8  UNL     1      38.363  14.254  23.239  1.00  0.00     0.078 A 
HETATM   14  C9  UNL     1      38.198  15.624  23.185  1.00  0.00     0.044 A 
HETATM   15  C10 UNL     1      38.930  16.456  22.347  1.00  0.00    -0.057 A 
HETATM   16  C11 UNL     1      38.716  17.939  22.291  1.00  0.00     0.048 C 
HETATM   17  C12 UNL     1      39.863  15.846  21.541  1.00  0.00     0.044 A 
HETATM   18  C13 UNL     1      40.069  14.492  21.555  1.00  0.00     0.078 A 
HETATM   19  C17 UNL     1      39.325  13.707  22.399  1.00  0.00     0.005 A 
HETATM   20  C18 UNL     1      39.578  12.228  22.423  1.00  0.00     0.054 C 
BRANCH  18  21
HETATM   21  O3  UNL     1      41.027  13.949  20.703  1.00  0.00    -0.348 OA
BRANCH  21  22
HETATM   22  C14 UNL     1      42.401  13.905  21.067  1.00  0.00     0.209 C 
BRANCH  22  23
HETATM   23  C15 UNL     1      43.132  12.923  20.192  1.00  0.00     0.167 C 
BRANCH  23  24
HETATM   24  O4  UNL     1      44.493  12.902  20.384  1.00  0.00    -0.392 OA
ATOM     25  H4  UNL     1      44.983  12.537  19.657  1.00  0.00     0.210 HD
ENDBRANCH  23  24
BRANCH  23  26
HETATM   26  C16 UNL     1      42.556  11.518  20.408  1.00  0.00     0.263 C 
BRANCH  26  27
HETATM   27  N2  UNL     1      41.515  11.283  19.432  1.00  0.00    -0.077 N 
ATOM     28  H23 UNL     1      40.598  11.162  19.862  1.00  0.00     0.274 HD
ATOM     29  H22 UNL     1      41.305  12.115  18.880  1.00  0.00     0.274 HD
ATOM     30  H21 UNL     1      41.780  10.488  18.851  1.00  0.00     0.274 HD
ENDBRANCH  26  27
ENDBRANCH  23  26
ENDBRANCH  22  23
ENDBRANCH  21  22
ENDBRANCH  18  21
ENDBRANCH  12  13
ENDBRANCH  11  12
ENDBRANCH   8  11
ENDBRANCH   7   8
ENDBRANCH   5   7
ENDBRANCH   3   5
TORSDOF 13
ENDMDL
MODEL 4
REMARK VINA RESULT: -7.772101236      1.760      2.170
REMARK  13 active torsions:
REMARK  status: ('A' for Active; 'I' for Inactive)
REMARK    1  A    between atoms: C3_3  and  N1_5 
REMARK    2  A    between atoms: N1_5  and  C5_7 
REMARK    3  A    between atoms: C5_7  and  C6_8 
REMARK    4  A    between atoms: C6_8  and  O1_9 
REMARK    5  A    between atoms: C6_8  and  C7_11 
REMARK    6  A    between atoms: C7_11  and  O2_12 
REMARK    7  A    between atoms: O2_12  and  C8_13 
REMARK    8  A    between atoms: C13_18  and  O3_19 
REMARK    9  A    between atoms: O3_19  and  C14_20 
REMARK   10  A    between atoms: C14_20  and  C15_21 
REMARK   11  A    between atoms: C15_21  and  O4_22 
REMARK   12  A    between atoms: C15_21  and  C16_24 
REMARK   13  A    between atoms: C16_24  and  N2_25 
ROOT
HETATM    1  C1  UNL     1      36.819  17.761  24.572  1.00  0.00     0.014 C 
HETATM    2  C2  UNL     1      36.256  17.025  25.345  1.00  0.00    -0.092 C 
HETATM    3  C3  UNL     1      35.547  16.095  26.282  1.00  0.00     0.155 C 
HETATM    4  C4  UNL     1      34.163  15.933  25.682  1.00  0.00     0.046 C 
ENDROOT
BRANCH   3   5
HETATM    5  N1  UNL     1      36.319  14.907  26.331  1.00  0.00    -0.385 N 
ATOM      6  H1  UNL     1      37.222  14.903  26.807  1.00  0.00     0.160 HD
BRANCH   5   7
HETATM    7  C5  UNL     1      35.836  13.737  25.721  1.00  0.00     0.090 C 
BRANCH   7   8
HETATM    8  C6  UNL     1      36.504  13.213  24.494  1.00  0.00     0.180 C 
BRANCH   8   9
HETATM    9  O1  UNL     1      35.798  13.856  23.421  1.00  0.00    -0.388 OA
ATOM     10  H1  UNL     1      35.549  13.137  22.852  1.00  0.00     0.210 HD
ENDBRANCH   8   9
BRANCH   8  11
HETATM   11  C7  UNL     1      37.909  13.863  24.334  1.00  0.00     0.213 C 
BRANCH  11  12
HETATM   12  O2  UNL     1      38.164  13.989  22.980  1.00  0.00    -0.348 OA
BRANCH  12  13
HETATM   13  C8  UNL     1      39.324  14.084  22.290  1.00  0.00     0.078 A 
HETATM   14  C9  UNL     1      39.873  15.277  21.864  1.00  0.00     0.044 A 
HETATM   15  C10 UNL     1      41.061  15.366  21.148  1.00  0.00    -0.057 A 
HETATM   16  C11 UNL     1      41.627  16.673  20.677  1.00  0.00     0.048 C 
HETATM   17  C12 UNL     1      41.697  14.178  20.866  1.00  0.00     0.044 A 
HETATM   18  C13 UNL     1      41.196  12.968  21.265  1.00  0.00     0.078 A 
HETATM   19  C17 UNL     1      40.021  12.925  21.972  1.00  0.00     0.005 A 
HETATM   20  C18 UNL     1      39.497  11.595  22.425  1.00  0.00     0.054 C 
BRANCH  18  21
HETATM   21  O3  UNL     1      41.894  11.809  20.934  1.00  0.00    -0.348 OA
BRANCH  21  22
HETATM   22  C14 UNL     1      41.989  11.360  19.589  1.00  0.00     0.209 C 
BRANCH  22  23
HETATM   23  C15 UNL     1      41.643   9.898  19.511  1.00  0.00     0.167 C 
BRANCH  23  24
HETATM   24  O4  UNL     1      41.064   9.519  18.323  1.00  0.00    -0.392 OA
ATOM     25  H4  UNL     1      41.385   8.693  17.980  1.00  0.00     0.210 HD
ENDBRANCH  23  24
BRANCH  23  26
HETATM   26  C16 UNL     1      42.902   9.061  19.766  1.00  0.00     0.263 C 
BRANCH  26  27
HETATM   27  N2  UNL     1      44.065   9.848  19.419  1.00  0.00    -0.077 N 
ATOM     28  H23 UNL     1      44.704   9.964  20.206  1.00  0.00     0.274 HD
ATOM     29  H22 UNL     1      44.699   9.350  18.794  1.00  0.00     0.274 HD
ATOM     30  H21 UNL     1      43.758  10.740  19.033  1.00  0.00     0.274 HD
ENDBRANCH  26  27
ENDBRANCH  23  26
ENDBRANCH  22  23
ENDBRANCH  21  22
ENDBRANCH  18  21
ENDBRANCH  12  13
ENDBRANCH  11  12
ENDBRANCH   8  11
ENDBRANCH   7   8
ENDBRANCH   5   7
ENDBRANCH   3   5
TORSDOF 13
ENDMDL
MODEL 5
REMARK VINA RESULT: -7.750972497      1.804      7.705
REMARK  13 active torsions:
REMARK  status: ('A' for Active; 'I' for Inactive)
REMARK    1  A    between atoms: C3_3  and  N1_5 
REMARK    2  A    between atoms: N1_5  and  C5_7 
REMARK    3  A    between atoms: C5_7  and  C6_8 
REMARK    4  A    between atoms: C6_8  and  O1_9 
REMARK    5  A    between atoms: C6_8  and  C7_11 
REMARK    6  A    between atoms: C7_11  and  O2_12 
REMARK    7  A    between atoms: O2_12  and  C8_13 
REMARK    8  A    between atoms: C13_18  and  O3_19 
REMARK    9  A    between atoms: O3_19  and  C14_20 
REMARK   10  A    between atoms: C14_20  and  C15_21 
REMARK   11  A    between atoms: C15_21  and  O4_22 
REMARK   12  A    between atoms: C15_21  and  C16_24 
REMARK   13  A    between atoms: C16_24  and  N2_25 
ROOT
HETATM    1  C1  UNL     1      44.033   9.443  19.680  1.00  0.00     0.014 C 
HETATM    2  C2  UNL     1      43.139   9.963  20.300  1.00  0.00    -0.092 C 
HETATM    3  C3  UNL     1      42.045  10.632  21.076  1.00  0.00     0.155 C 
HETATM    4  C4  UNL     1      42.729  11.152  22.326  1.00  0.00     0.046 C 
ENDROOT
BRANCH   3   5
HETATM    5  N1  UNL     1      41.506  11.633  20.230  1.00  0.00    -0.385 N 
ATOM      6  H1  UNL     1      40.663  11.446  19.687  1.00  0.00     0.160 HD
BRANCH   5   7
HETATM    7  C5  UNL     1      42.139  12.885  20.141  1.00  0.00     0.090 C 
BRANCH   7   8
HETATM    8  C6  UNL     1      41.803  13.805  19.017  1.00  0.00     0.180 C 
BRANCH   8   9
HETATM    9  O1  UNL     1      40.846  13.064  18.244  1.00  0.00    -0.388 OA
ATOM     10  H1  UNL     1      40.174  13.705  18.042  1.00  0.00     0.210 HD
ENDBRANCH   8   9
BRANCH   8  11
HETATM   11  C7  UNL     1      40.906  14.969  19.531  1.00  0.00     0.213 C 
BRANCH  11  12
HETATM   12  O2  UNL     1      40.525  14.669  20.826  1.00  0.00    -0.348 OA
BRANCH  12  13
HETATM   13  C8  UNL     1      39.625  15.247  21.654  1.00  0.00     0.078 A 
HETATM   14  C9  UNL     1      39.311  16.592  21.635  1.00  0.00     0.044 A 
HETATM   15  C10 UNL     1      38.392  17.181  22.495  1.00  0.00    -0.057 A 
HETATM   16  C11 UNL     1      38.085  18.648  22.470  1.00  0.00     0.048 C 
HETATM   17  C12 UNL     1      37.779  16.346  23.401  1.00  0.00     0.044 A 
HETATM   18  C13 UNL     1      38.052  15.005  23.462  1.00  0.00     0.078 A 
HETATM   19  C17 UNL     1      38.966  14.464  22.594  1.00  0.00     0.005 A 
HETATM   20  C18 UNL     1      39.236  12.990  22.653  1.00  0.00     0.054 C 
BRANCH  18  21
HETATM   21  O3  UNL     1      37.395  14.228  24.413  1.00  0.00    -0.348 OA
BRANCH  21  22
HETATM   22  C14 UNL     1      36.072  13.757  24.198  1.00  0.00     0.209 C 
BRANCH  22  23
HETATM   23  C15 UNL     1      35.264  13.902  25.459  1.00  0.00     0.167 C 
BRANCH  23  24
HETATM   24  O4  UNL     1      35.810  13.271  26.551  1.00  0.00    -0.392 OA
ATOM     25  H4  UNL     1      35.169  12.945  27.173  1.00  0.00     0.210 HD
ENDBRANCH  23  24
BRANCH  23  26
HETATM   26  C16 UNL     1      35.060  15.390  25.767  1.00  0.00     0.263 C 
BRANCH  26  27
HETATM   27  N2  UNL     1      36.171  15.860  26.566  1.00  0.00    -0.077 N 
ATOM     28  H23 UNL     1      35.951  15.881  27.562  1.00  0.00     0.274 HD
ATOM     29  H22 UNL     1      36.936  15.186  26.603  1.00  0.00     0.274 HD
ATOM     30  H21 UNL     1      36.470  16.769  26.214  1.00  0.00     0.274 HD
ENDBRANCH  26  27
ENDBRANCH  23  26
ENDBRANCH  22  23
ENDBRANCH  21  22
ENDBRANCH  18  21
ENDBRANCH  12  13
ENDBRANCH  11  12
ENDBRANCH   8  11
ENDBRANCH   7   8
ENDBRANCH   5   7
ENDBRANCH   3   5
TORSDOF 13
ENDMDL
