MODEL 1
REMARK VINA RESULT: -8.101456167      0.000      0.000
REMARK  12 active torsions:
REMARK  status: ('A' for Active; 'I' for Inactive)
REMARK    1  A    between atoms: C2_2  and  O1_3 
REMARK    2  A    between atoms: O1_3  and  C3_4 
REMARK    3  A    between atoms: C6_7  and  C7_8 
REMARK    4  A    between atoms: C7_8  and  C8_9 
REMARK    5  A    between atoms: C8_9  and  N1_10 
REMARK    6  A    between atoms: N1_10  and  C9_12 
REMARK    7  A    between atoms: C9_12  and  C10_13 
REMARK    8  A    between atoms: C10_13  and  O2_14 
REMARK    9  A    between atoms: C10_13  and  C11_16 
REMARK   10  A    between atoms: C11_16  and  O3_17 
REMARK   11  A    between atoms: O3_17  and  C12_18 
REMARK   12  A    between atoms: C14_22  and  N3_23 
ROOT
HETATM    1  C10 UNL     1      42.268  10.455  21.210  1.00  0.00     0.159 C 
ENDROOT
BRANCH   1   2
HETATM    2  C9  UNL     1      41.386  11.298  22.095  1.00  0.00     0.147 C 
BRANCH   2   3
HETATM    3  N1  UNL     1      40.117  11.502  21.472  1.00  0.00    -0.418 N 
ATOM      4  H1  UNL     1      39.955  11.287  20.488  1.00  0.00     0.153 HD
BRANCH   3   5
HETATM    5  C8  UNL     1      39.094  12.021  22.309  1.00  0.00     0.118 C 
BRANCH   5   6
HETATM    6  C7  UNL     1      39.144  13.480  22.597  1.00  0.00     0.057 C 
BRANCH   6   7
HETATM    7  C6  UNL     1      38.082  13.976  23.496  1.00  0.00    -0.057 A 
HETATM    8  C5  UNL     1      37.700  15.286  23.577  1.00  0.00     0.010 A 
HETATM    9  C4  UNL     1      36.713  15.729  24.413  1.00  0.00     0.037 A 
HETATM   10  C3  UNL     1      36.020  14.834  25.259  1.00  0.00     0.068 A 
HETATM   11  C17 UNL     1      36.399  13.515  25.184  1.00  0.00     0.037 A 
HETATM   12  C16 UNL     1      37.417  13.091  24.313  1.00  0.00     0.010 A 
BRANCH  10  13
HETATM   13  O1  UNL     1      35.037  15.341  26.080  1.00  0.00    -0.352 OA
BRANCH  13  14
HETATM   14  C2  UNL     1      34.992  16.666  26.497  1.00  0.00     0.171 C 
HETATM   15  C1  UNL     1      33.762  17.341  25.957  1.00  0.00     0.034 C 
ENDBRANCH  13  14
ENDBRANCH  10  13
ENDBRANCH   6   7
ENDBRANCH   5   6
ENDBRANCH   3   5
ENDBRANCH   2   3
ENDBRANCH   1   2
BRANCH   1  16
HETATM   16  O2  UNL     1      42.967   9.495  21.913  1.00  0.00    -0.392 OA
ATOM     17  H2  UNL     1      42.713   8.610  21.678  1.00  0.00     0.210 HD
ENDBRANCH   1  16
BRANCH   1  18
HETATM   18  C11 UNL     1      43.244  11.361  20.474  1.00  0.00     0.209 C 
BRANCH  18  19
HETATM   19  O3  UNL     1      42.580  12.369  19.774  1.00  0.00    -0.346 OA
BRANCH  19  20
HETATM   20  C12 UNL     1      42.900  13.710  19.834  1.00  0.00     0.100 A 
HETATM   21  C13 UNL     1      42.347  14.659  19.006  1.00  0.00     0.144 A 
HETATM   22  N2  UNL     1      42.722  15.945  19.138  1.00  0.00    -0.199 N 
HETATM   23  C14 UNL     1      43.627  16.344  20.060  1.00  0.00     0.675 A 
ATOM     24  H2  UNL     1      42.308  16.644  18.521  1.00  0.00     0.183 HD
HETATM   25  N4  UNL     1      44.189  15.446  20.886  1.00  0.00    -0.199 N 
HETATM   26  C15 UNL     1      43.827  14.161  20.768  1.00  0.00     0.144 A 
ATOM     27  H4  UNL     1      44.873  15.734  21.584  1.00  0.00     0.183 HD
BRANCH  23  28
HETATM   28  N3  UNL     1      43.968  17.589  20.163  1.00  0.00    -0.234 N 
ATOM     29  H32 UNL     1      44.460  18.032  19.388  1.00  0.00     0.174 HD
ATOM     30  H31 UNL     1      43.750  18.124  21.004  1.00  0.00     0.174 HD
ENDBRANCH  23  28
ENDBRANCH  19  20
ENDBRANCH  18  19
ENDBRANCH   1  18
TORSDOF 12
ENDMDL
MODEL 2
REMARK VINA RESULT: -8.049219628      0.622      1.474
REMARK  12 active torsions:
REMARK  status: ('A' for Active; 'I' for Inactive)
REMARK    1  A    between atoms: C2_2  and  O1_3 
REMARK    2  A    between atoms: O1_3  and  C3_4 
REMARK    3  A    between atoms: C6_7  and  C7_8 
REMARK    4  A    between atoms: C7_8  and  C8_9 
REMARK    5  A    between atoms: C8_9  and  N1_10 
REMARK    6  A    between atoms: N1_10  and  C9_12 
REMARK    7  A    between atoms: C9_12  and  C10_13 
REMARK    8  A    between atoms: C10_13  and  O2_14 
REMARK    9  A    between atoms: C10_13  and  C11_16 
REMARK   10  A    between atoms: C11_16  and  O3_17 
REMARK   11  A    between atoms: O3_17  and  C12_18 
REMARK   12  A    between atoms: C14_22  and  N3_23 
ROOT
HETATM    1  C10 UNL     1      42.287  10.377  21.163  1.00  0.00     0.159 C 
ENDROOT
BRANCH   1   2
HETATM    2  C9  UNL     1      41.377  11.221  22.019  1.00  0.00     0.147 C 
BRANCH   2   3
HETATM    3  N1  UNL     1      40.227  11.617  21.270  1.00  0.00    -0.418 N 
ATOM      4  H1  UNL     1      39.965  11.160  20.397  1.00  0.00     0.153 HD
BRANCH   3   5
HETATM    5  C8  UNL     1      39.472  12.688  21.820  1.00  0.00     0.118 C 
BRANCH   5   6
HETATM    6  C7  UNL     1      38.336  12.317  22.706  1.00  0.00     0.057 C 
BRANCH   6   7
HETATM    7  C6  UNL     1      37.794  13.421  23.523  1.00  0.00    -0.057 A 
HETATM    8  C5  UNL     1      37.176  13.248  24.729  1.00  0.00     0.010 A 
HETATM    9  C4  UNL     1      36.682  14.282  25.474  1.00  0.00     0.037 A 
HETATM   10  C3  UNL     1      36.785  15.617  25.024  1.00  0.00     0.068 A 
HETATM   11  C17 UNL     1      37.404  15.801  23.811  1.00  0.00     0.037 A 
HETATM   12  C16 UNL     1      37.903  14.716  23.070  1.00  0.00     0.010 A 
BRANCH  10  13
HETATM   13  O1  UNL     1      36.266  16.616  25.819  1.00  0.00    -0.352 OA
BRANCH  13  14
HETATM   14  C2  UNL     1      34.961  16.618  26.297  1.00  0.00     0.171 C 
HETATM   15  C1  UNL     1      34.010  17.044  25.213  1.00  0.00     0.034 C 
ENDBRANCH  13  14
ENDBRANCH  10  13
ENDBRANCH   6   7
ENDBRANCH   5   6
ENDBRANCH   3   5
ENDBRANCH   2   3
ENDBRANCH   1   2
BRANCH   1  16
HETATM   16  O2  UNL     1      42.952   9.408  21.886  1.00  0.00    -0.392 OA
ATOM     17  H2  UNL     1      43.894   9.443  21.767  1.00  0.00     0.210 HD
ENDBRANCH   1  16
BRANCH   1  18
HETATM   18  C11 UNL     1      43.296  11.281  20.471  1.00  0.00     0.209 C 
BRANCH  18  19
HETATM   19  O3  UNL     1      42.669  12.330  19.799  1.00  0.00    -0.346 OA
BRANCH  19  20
HETATM   20  C12 UNL     1      43.014  13.661  19.923  1.00  0.00     0.100 A 
HETATM   21  C13 UNL     1      43.930  14.124  20.839  1.00  0.00     0.144 A 
HETATM   22  N2  UNL     1      44.202  15.441  20.887  1.00  0.00    -0.199 N 
HETATM   23  C14 UNL     1      43.606  16.335  20.064  1.00  0.00     0.675 A 
ATOM     24  H2  UNL     1      44.882  15.779  21.568  1.00  0.00     0.183 HD
HETATM   25  N4  UNL     1      42.706  15.919  19.158  1.00  0.00    -0.199 N 
HETATM   26  C15 UNL     1      42.423  14.611  19.096  1.00  0.00     0.144 A 
ATOM     27  H4  UNL     1      42.249  16.582  18.533  1.00  0.00     0.183 HD
BRANCH  23  28
HETATM   28  N3  UNL     1      43.888  17.596  20.134  1.00  0.00    -0.234 N 
ATOM     29  H32 UNL     1      43.125  18.271  20.185  1.00  0.00     0.174 HD
ATOM     30  H31 UNL     1      44.856  17.917  20.140  1.00  0.00     0.174 HD
ENDBRANCH  23  28
ENDBRANCH  19  20
ENDBRANCH  18  19
ENDBRANCH   1  18
TORSDOF 12
ENDMDL
MODEL 3
REMARK VINA RESULT: -7.998869180      1.335      1.758
REMARK  12 active torsions:
REMARK  status: ('A' for Active; 'I' for Inactive)
REMARK    1  A    between atoms: C2_2  and  O1_3 
REMARK    2  A    between atoms: O1_3  and  C3_4 
REMARK    3  A    between atoms: C6_7  and  C7_8 
REMARK    4  A    between atoms: C7_8  and  C8_9 
REMARK    5  A    between atoms: C8_9  and  N1_10 
REMARK    6  A    between atoms: N1_10  and  C9_12 
REMARK    7  A    between atoms: C9_12  and  C10_13 
REMARK    8  A    between atoms: C10_13  and  O2_14 
REMARK    9  A    between atoms: C10_13  and  C11_16 
REMARK   10  A    between atoms: C11_16  and  O3_17 
REMARK   11  A    between atoms: O3_17  and  C12_18 
REMARK   12  A    between atoms: C14_22  and  N3_23 
ROOT
HETATM    1  C10 UNL     1      42.248  10.414  21.184  1.00  0.00     0.159 C 
ENDROOT
BRANCH   1   2
HETATM    2  C9  UNL     1      41.366  11.261  22.066  1.00  0.00     0.147 C 
BRANCH   2   3
HETATM    3  N1  UNL     1      40.137  11.550  21.398  1.00  0.00    -0.418 N 
ATOM      4  H1  UNL     1      39.728  10.913  20.714  1.00  0.00     0.153 HD
BRANCH   3   5
HETATM    5  C8  UNL     1      39.519  12.780  21.747  1.00  0.00     0.118 C 
BRANCH   5   6
HETATM    6  C7  UNL     1      38.952  12.877  23.120  1.00  0.00     0.057 C 
BRANCH   6   7
HETATM    7  C6  UNL     1      38.286  14.157  23.432  1.00  0.00    -0.057 A 
HETATM    8  C5  UNL     1      37.321  14.303  24.389  1.00  0.00     0.010 A 
HETATM    9  C4  UNL     1      36.714  15.496  24.667  1.00  0.00     0.037 A 
HETATM   10  C3  UNL     1      37.062  16.670  23.962  1.00  0.00     0.068 A 
HETATM   11  C17 UNL     1      38.032  16.532  22.997  1.00  0.00     0.037 A 
HETATM   12  C16 UNL     1      38.636  15.291  22.736  1.00  0.00     0.010 A 
BRANCH  10  13
HETATM   13  O1  UNL     1      36.415  17.842  24.287  1.00  0.00    -0.352 OA
BRANCH  13  14
HETATM   14  C2  UNL     1      35.992  18.773  23.345  1.00  0.00     0.171 C 
HETATM   15  C1  UNL     1      34.682  18.345  22.743  1.00  0.00     0.034 C 
ENDBRANCH  13  14
ENDBRANCH  10  13
ENDBRANCH   6   7
ENDBRANCH   5   6
ENDBRANCH   3   5
ENDBRANCH   2   3
ENDBRANCH   1   2
BRANCH   1  16
HETATM   16  O2  UNL     1      42.931   9.443  21.887  1.00  0.00    -0.392 OA
ATOM     17  H2  UNL     1      42.800   8.572  21.531  1.00  0.00     0.210 HD
ENDBRANCH   1  16
BRANCH   1  18
HETATM   18  C11 UNL     1      43.240  11.315  20.464  1.00  0.00     0.209 C 
BRANCH  18  19
HETATM   19  O3  UNL     1      42.591  12.323  19.749  1.00  0.00    -0.346 OA
BRANCH  19  20
HETATM   20  C12 UNL     1      42.900  13.666  19.828  1.00  0.00     0.100 A 
HETATM   21  C13 UNL     1      42.316  14.625  19.032  1.00  0.00     0.144 A 
HETATM   22  N2  UNL     1      42.682  15.912  19.181  1.00  0.00    -0.199 N 
HETATM   23  C14 UNL     1      43.605  16.303  20.089  1.00  0.00     0.675 A 
ATOM     24  H2  UNL     1      42.246  16.619  18.589  1.00  0.00     0.183 HD
HETATM   25  N4  UNL     1      44.196  15.394  20.882  1.00  0.00    -0.199 N 
HETATM   26  C15 UNL     1      43.844  14.109  20.748  1.00  0.00     0.144 A 
ATOM     27  H4  UNL     1      44.894  15.676  21.570  1.00  0.00     0.183 HD
BRANCH  23  28
HETATM   28  N3  UNL     1      43.936  17.548  20.209  1.00  0.00    -0.234 N 
ATOM     29  H32 UNL     1      44.912  17.786  20.383  1.00  0.00     0.174 HD
ATOM     30  H31 UNL     1      43.236  18.286  20.131  1.00  0.00     0.174 HD
ENDBRANCH  23  28
ENDBRANCH  19  20
ENDBRANCH  18  19
ENDBRANCH   1  18
TORSDOF 12
ENDMDL
MODEL 4
REMARK VINA RESULT: -7.920837333      1.684      2.236
REMARK  12 active torsions:
REMARK  status: ('A' for Active; 'I' for Inactive)
REMARK    1  A    between atoms: C2_2  and  O1_3 
REMARK    2  A    between atoms: O1_3  and  C3_4 
REMARK    3  A    between atoms: C6_7  and  C7_8 
REMARK    4  A    between atoms: C7_8  and  C8_9 
REMARK    5  A    between atoms: C8_9  and  N1_10 
REMARK    6  A    between atoms: N1_10  and  C9_12 
REMARK    7  A    between atoms: C9_12  and  C10_13 
REMARK    8  A    between atoms: C10_13  and  O2_14 
REMARK    9  A    between atoms: C10_13  and  C11_16 
REMARK   10  A    between atoms: C11_16  and  O3_17 
REMARK   11  A    between atoms: O3_17  and  C12_18 
REMARK   12  A    between atoms: C14_22  and  N3_23 
ROOT
HETATM    1  C10 UNL     1      43.743  11.130  22.052  1.00  0.00     0.159 C 
ENDROOT
BRANCH   1   2
HETATM    2  C9  UNL     1      42.269  11.131  22.369  1.00  0.00     0.147 C 
BRANCH   2   3
HETATM    3  N1  UNL     1      41.511  11.327  21.174  1.00  0.00    -0.418 N 
ATOM      4  H1  UNL     1      41.811  10.954  20.273  1.00  0.00     0.153 HD
BRANCH   3   5
HETATM    5  C8  UNL     1      40.311  12.073  21.320  1.00  0.00     0.118 C 
BRANCH   5   6
HETATM    6  C7  UNL     1      39.757  12.184  22.697  1.00  0.00     0.057 C 
BRANCH   6   7
HETATM    7  C6  UNL     1      39.016  13.431  22.973  1.00  0.00    -0.057 A 
HETATM    8  C5  UNL     1      37.968  13.520  23.846  1.00  0.00     0.010 A 
HETATM    9  C4  UNL     1      37.292  14.682  24.093  1.00  0.00     0.037 A 
HETATM   10  C3  UNL     1      37.650  15.883  23.440  1.00  0.00     0.068 A 
HETATM   11  C17 UNL     1      38.702  15.803  22.559  1.00  0.00     0.037 A 
HETATM   12  C16 UNL     1      39.377  14.592  22.329  1.00  0.00     0.010 A 
BRANCH  10  13
HETATM   13  O1  UNL     1      36.930  17.022  23.729  1.00  0.00    -0.352 OA
BRANCH  13  14
HETATM   14  C2  UNL     1      35.601  17.203  23.366  1.00  0.00     0.171 C 
HETATM   15  C1  UNL     1      35.514  17.850  22.012  1.00  0.00     0.034 C 
ENDBRANCH  13  14
ENDBRANCH  10  13
ENDBRANCH   6   7
ENDBRANCH   5   6
ENDBRANCH   3   5
ENDBRANCH   2   3
ENDBRANCH   1   2
BRANCH   1  16
HETATM   16  O2  UNL     1      44.531  11.237  23.180  1.00  0.00    -0.392 OA
ATOM     17  H2  UNL     1      45.150  11.956  23.128  1.00  0.00     0.210 HD
ENDBRANCH   1  16
BRANCH   1  18
HETATM   18  C11 UNL     1      44.047  12.282  21.105  1.00  0.00     0.209 C 
BRANCH  18  19
HETATM   19  O3  UNL     1      43.490  13.478  21.558  1.00  0.00    -0.346 OA
BRANCH  19  20
HETATM   20  C12 UNL     1      43.300  14.602  20.779  1.00  0.00     0.100 A 
HETATM   21  C13 UNL     1      42.534  14.610  19.635  1.00  0.00     0.144 A 
HETATM   22  N2  UNL     1      42.407  15.755  18.940  1.00  0.00    -0.199 N 
HETATM   23  C14 UNL     1      43.006  16.906  19.322  1.00  0.00     0.675 A 
ATOM     24  H2  UNL     1      41.838  15.755  18.093  1.00  0.00     0.183 HD
HETATM   25  N4  UNL     1      43.761  16.935  20.432  1.00  0.00    -0.199 N 
HETATM   26  C15 UNL     1      43.898  15.805  21.138  1.00  0.00     0.144 A 
ATOM     27  H4  UNL     1      44.218  17.796  20.730  1.00  0.00     0.183 HD
BRANCH  23  28
HETATM   28  N3  UNL     1      42.864  17.991  18.631  1.00  0.00    -0.234 N 
ATOM     29  H32 UNL     1      41.937  18.243  18.290  1.00  0.00     0.174 HD
ATOM     30  H31 UNL     1      43.664  18.591  18.427  1.00  0.00     0.174 HD
ENDBRANCH  23  28
ENDBRANCH  19  20
ENDBRANCH  18  19
ENDBRANCH   1  18
TORSDOF 12
ENDMDL
MODEL 5
REMARK VINA RESULT: -7.912600086      1.529      1.900
REMARK  12 active torsions:
REMARK  status: ('A' for Active; 'I' for Inactive)
REMARK    1  A    between atoms: C2_2  and  O1_3 
REMARK    2  A    between atoms: O1_3  and  C3_4 
REMARK    3  A    between atoms: C6_7  and  C7_8 
REMARK    4  A    between atoms: C7_8  and  C8_9 
REMARK    5  A    between atoms: C8_9  and  N1_10 
REMARK    6  A    between atoms: N1_10  and  C9_12 
REMARK    7  A    between atoms: C9_12  and  C10_13 
REMARK    8  A    between atoms: C10_13  and  O2_14 
REMARK    9  A    between atoms: C10_13  and  C11_16 
REMARK   10  A    between atoms: C11_16  and  O3_17 
REMARK   11  A    between atoms: O3_17  and  C12_18 
REMARK   12  A    between atoms: C14_22  and  N3_23 
ROOT
HETATM    1  C10 UNL     1      43.748  11.083  22.005  1.00  0.00     0.159 C 
ENDROOT
BRANCH   1   2
HETATM    2  C9  UNL     1      42.271  11.065  22.309  1.00  0.00     0.147 C 
BRANCH   2   3
HETATM    3  N1  UNL     1      41.521  11.263  21.109  1.00  0.00    -0.418 N 
ATOM      4  H1  UNL     1      41.817  10.873  20.214  1.00  0.00     0.153 HD
BRANCH   3   5
HETATM    5  C8  UNL     1      40.337  12.036  21.241  1.00  0.00     0.118 C 
BRANCH   5   6
HETATM    6  C7  UNL     1      39.794  12.195  22.618  1.00  0.00     0.057 C 
BRANCH   6   7
HETATM    7  C6  UNL     1      39.090  13.468  22.868  1.00  0.00    -0.057 A 
HETATM    8  C5  UNL     1      39.432  14.657  22.288  1.00  0.00     0.010 A 
HETATM    9  C4  UNL     1      38.768  15.828  22.528  1.00  0.00     0.037 A 
HETATM   10  C3  UNL     1      37.667  15.871  23.413  1.00  0.00     0.068 A 
HETATM   11  C17 UNL     1      37.317  14.679  24.002  1.00  0.00     0.037 A 
HETATM   12  C16 UNL     1      38.020  13.493  23.733  1.00  0.00     0.010 A 
BRANCH  10  13
HETATM   13  O1  UNL     1      37.040  17.081  23.616  1.00  0.00    -0.352 OA
BRANCH  13  14
HETATM   14  C2  UNL     1      36.779  17.609  24.875  1.00  0.00     0.171 C 
HETATM   15  C1  UNL     1      35.296  17.694  25.106  1.00  0.00     0.034 C 
ENDBRANCH  13  14
ENDBRANCH  10  13
ENDBRANCH   6   7
ENDBRANCH   5   6
ENDBRANCH   3   5
ENDBRANCH   2   3
ENDBRANCH   1   2
BRANCH   1  16
HETATM   16  O2  UNL     1      44.523  11.214  23.139  1.00  0.00    -0.392 OA
ATOM     17  H2  UNL     1      45.276  11.779  23.006  1.00  0.00     0.210 HD
ENDBRANCH   1  16
BRANCH   1  18
HETATM   18  C11 UNL     1      44.043  12.229  21.050  1.00  0.00     0.209 C 
BRANCH  18  19
HETATM   19  O3  UNL     1      43.536  13.438  21.527  1.00  0.00    -0.346 OA
BRANCH  19  20
HETATM   20  C12 UNL     1      43.327  14.563  20.754  1.00  0.00     0.100 A 
HETATM   21  C13 UNL     1      42.569  14.563  19.606  1.00  0.00     0.144 A 
HETATM   22  N2  UNL     1      42.421  15.710  18.917  1.00  0.00    -0.199 N 
HETATM   23  C14 UNL     1      42.993  16.871  19.312  1.00  0.00     0.675 A 
ATOM     24  H2  UNL     1      41.858  15.704  18.067  1.00  0.00     0.183 HD
HETATM   25  N4  UNL     1      43.740  16.908  20.427  1.00  0.00    -0.199 N 
HETATM   26  C15 UNL     1      43.897  15.776  21.126  1.00  0.00     0.144 A 
ATOM     27  H4  UNL     1      44.177  17.777  20.734  1.00  0.00     0.183 HD
BRANCH  23  28
HETATM   28  N3  UNL     1      42.833  17.958  18.628  1.00  0.00    -0.234 N 
ATOM     29  H32 UNL     1      43.640  18.556  18.455  1.00  0.00     0.174 HD
ATOM     30  H31 UNL     1      41.916  18.218  18.263  1.00  0.00     0.174 HD
ENDBRANCH  23  28
ENDBRANCH  19  20
ENDBRANCH  18  19
ENDBRANCH   1  18
TORSDOF 12
ENDMDL
