MODEL 1
REMARK VINA RESULT: -7.973212982      0.000      0.000
REMARK  12 active torsions:
REMARK  status: ('A' for Active; 'I' for Inactive)
REMARK    1  A    between atoms: C2_2  and  C3_3 
REMARK    2  A    between atoms: C3_3  and  C4_4 
REMARK    3  A    between atoms: C7_7  and  C8_8 
REMARK    4  A    between atoms: C8_8  and  N1_9 
REMARK    5  A    between atoms: N1_9  and  C9_12 
REMARK    6  A    between atoms: C9_12  and  C10_13 
REMARK    7  A    between atoms: C10_13  and  O1_14 
REMARK    8  A    between atoms: C10_13  and  C11_16 
REMARK    9  A    between atoms: C11_16  and  O2_17 
REMARK   10  A    between atoms: O2_17  and  C12_18 
REMARK   11  A    between atoms: C15_21  and  N2_22 
REMARK   12  A    between atoms: C17_30  and  O3_31 
ROOT
HETATM    1  C9  UNL     1      35.321  13.810  24.980  1.00  0.00     0.266 C 
ENDROOT
BRANCH   1   2
HETATM    2  N1  UNL     1      36.068  13.477  23.780  1.00  0.00    -0.069 N 
ATOM      3  H12 UNL     1      36.148  14.275  23.151  1.00  0.00     0.277 HD
ATOM      4  H11 UNL     1      35.541  12.853  23.169  1.00  0.00     0.277 HD
BRANCH   2   5
HETATM    5  C8  UNL     1      37.343  12.937  24.115  1.00  0.00     0.271 C 
BRANCH   5   6
HETATM    6  C7  UNL     1      38.434  13.321  23.166  1.00  0.00    -0.030 A 
HETATM    7  C6  UNL     1      38.682  14.653  22.875  1.00  0.00     0.009 A 
HETATM    8  C5  UNL     1      39.679  15.032  22.002  1.00  0.00     0.011 A 
HETATM    9  C4  UNL     1      40.480  14.100  21.371  1.00  0.00    -0.021 A 
HETATM   10  C17 UNL     1      40.241  12.773  21.653  1.00  0.00     0.075 A 
HETATM   11  C16 UNL     1      39.227  12.384  22.542  1.00  0.00     0.046 A 
BRANCH   9  12
HETATM   12  C3  UNL     1      41.546  14.551  20.421  1.00  0.00     0.067 C 
BRANCH  12  13
HETATM   13  C2  UNL     1      42.848  14.733  21.104  1.00  0.00    -0.032 C 
HETATM   14  C1  UNL     1      43.954  14.087  20.829  1.00  0.00     0.007 C 
ENDBRANCH  12  13
ENDBRANCH   9  12
BRANCH  10  15
HETATM   15  O3  UNL     1      41.033  11.835  21.031  1.00  0.00    -0.355 OA
HETATM   16  C18 UNL     1      41.923  10.968  21.708  1.00  0.00     0.210 C 
ENDBRANCH  10  15
ENDBRANCH   5   6
ENDBRANCH   2   5
ENDBRANCH   1   2
BRANCH   1  17
HETATM   17  C10 UNL     1      36.085  14.659  25.939  1.00  0.00     0.168 C 
BRANCH  17  18
HETATM   18  O1  UNL     1      36.156  14.097  27.184  1.00  0.00    -0.392 OA
ATOM     19  H1  UNL     1      35.340  14.178  27.662  1.00  0.00     0.210 HD
ENDBRANCH  17  18
BRANCH  17  20
HETATM   20  C11 UNL     1      35.424  16.037  26.040  1.00  0.00     0.210 C 
BRANCH  20  21
HETATM   21  O2  UNL     1      35.152  16.544  24.771  1.00  0.00    -0.332 OA
BRANCH  21  22
HETATM   22  C12 UNL     1      36.048  17.118  23.895  1.00  0.00     0.157 A 
HETATM   23  C13 UNL     1      35.802  17.041  22.517  1.00  0.00     0.061 A 
HETATM   24  C14 UNL     1      36.680  17.605  21.617  1.00  0.00     0.053 A 
HETATM   25  C15 UNL     1      37.816  18.256  22.049  1.00  0.00     0.113 A 
HETATM   26  N3  UNL     1      38.013  18.306  23.379  1.00  0.00    -0.284 N 
HETATM   27  N4  UNL     1      37.167  17.761  24.260  1.00  0.00    -0.278 N 
ATOM     28  H3  UNL     1      38.844  18.781  23.730  1.00  0.00     0.188 HD
ATOM     29  H4  UNL     1      37.382  17.838  25.254  1.00  0.00     0.189 HD
BRANCH  25  30
HETATM   30  N2  UNL     1      38.668  18.804  21.246  1.00  0.00    -0.384 N 
ATOM     31  H22 UNL     1      38.928  19.783  21.365  1.00  0.00     0.157 HD
ATOM     32  H21 UNL     1      39.111  18.305  20.474  1.00  0.00     0.157 HD
ENDBRANCH  25  30
ENDBRANCH  21  22
ENDBRANCH  20  21
ENDBRANCH  17  20
ENDBRANCH   1  17
TORSDOF 12
ENDMDL
MODEL 2
REMARK VINA RESULT: -7.957702674      2.975      6.744
REMARK  12 active torsions:
REMARK  status: ('A' for Active; 'I' for Inactive)
REMARK    1  A    between atoms: C2_2  and  C3_3 
REMARK    2  A    between atoms: C3_3  and  C4_4 
REMARK    3  A    between atoms: C7_7  and  C8_8 
REMARK    4  A    between atoms: C8_8  and  N1_9 
REMARK    5  A    between atoms: N1_9  and  C9_12 
REMARK    6  A    between atoms: C9_12  and  C10_13 
REMARK    7  A    between atoms: C10_13  and  O1_14 
REMARK    8  A    between atoms: C10_13  and  C11_16 
REMARK    9  A    between atoms: C11_16  and  O2_17 
REMARK   10  A    between atoms: O2_17  and  C12_18 
REMARK   11  A    between atoms: C15_21  and  N2_22 
REMARK   12  A    between atoms: C17_30  and  O3_31 
ROOT
HETATM    1  C9  UNL     1      42.429  11.229  22.395  1.00  0.00     0.266 C 
ENDROOT
BRANCH   1   2
HETATM    2  N1  UNL     1      41.417  11.775  21.510  1.00  0.00    -0.069 N 
ATOM      3  H12 UNL     1      41.496  11.395  20.566  1.00  0.00     0.277 HD
ATOM      4  H11 UNL     1      41.594  12.757  21.295  1.00  0.00     0.277 HD
BRANCH   2   5
HETATM    5  C8  UNL     1      40.115  11.577  22.052  1.00  0.00     0.271 C 
BRANCH   5   6
HETATM    6  C7  UNL     1      39.421  12.845  22.443  1.00  0.00    -0.030 A 
HETATM    7  C6  UNL     1      39.615  14.009  21.718  1.00  0.00     0.009 A 
HETATM    8  C5  UNL     1      38.989  15.189  22.060  1.00  0.00     0.011 A 
HETATM    9  C4  UNL     1      38.138  15.268  23.145  1.00  0.00    -0.021 A 
HETATM   10  C17 UNL     1      37.939  14.115  23.872  1.00  0.00     0.075 A 
HETATM   11  C16 UNL     1      38.574  12.913  23.527  1.00  0.00     0.046 A 
BRANCH   9  12
HETATM   12  C3  UNL     1      37.486  16.572  23.490  1.00  0.00     0.067 C 
BRANCH  12  13
HETATM   13  C2  UNL     1      36.185  16.733  22.799  1.00  0.00    -0.032 C 
HETATM   14  C1  UNL     1      36.000  17.325  21.644  1.00  0.00     0.007 C 
ENDBRANCH  12  13
ENDBRANCH   9  12
BRANCH  10  15
HETATM   15  O3  UNL     1      37.092  14.181  24.955  1.00  0.00    -0.355 OA
HETATM   16  C18 UNL     1      36.018  13.290  25.182  1.00  0.00     0.210 C 
ENDBRANCH  10  15
ENDBRANCH   5   6
ENDBRANCH   2   5
ENDBRANCH   1   2
BRANCH   1  17
HETATM   17  C10 UNL     1      43.790  11.181  21.786  1.00  0.00     0.168 C 
BRANCH  17  18
HETATM   18  O1  UNL     1      44.779  11.334  22.717  1.00  0.00    -0.392 OA
ATOM     19  H1  UNL     1      44.998  12.247  22.863  1.00  0.00     0.210 HD
ENDBRANCH  17  18
BRANCH  17  20
HETATM   20  C11 UNL     1      43.914  12.281  20.727  1.00  0.00     0.210 C 
BRANCH  20  21
HETATM   21  O2  UNL     1      43.873  13.541  21.321  1.00  0.00    -0.332 OA
BRANCH  21  22
HETATM   22  C12 UNL     1      43.640  14.748  20.697  1.00  0.00     0.157 A 
HETATM   23  C13 UNL     1      42.612  14.840  19.748  1.00  0.00     0.061 A 
HETATM   24  C14 UNL     1      42.356  16.032  19.108  1.00  0.00     0.053 A 
HETATM   25  C15 UNL     1      43.101  17.158  19.384  1.00  0.00     0.113 A 
HETATM   26  N3  UNL     1      44.078  17.025  20.299  1.00  0.00    -0.284 N 
HETATM   27  N4  UNL     1      44.334  15.872  20.926  1.00  0.00    -0.278 N 
ATOM     28  H3  UNL     1      44.647  17.840  20.526  1.00  0.00     0.188 HD
ATOM     29  H4  UNL     1      45.092  15.846  21.608  1.00  0.00     0.189 HD
BRANCH  25  30
HETATM   30  N2  UNL     1      42.899  18.301  18.812  1.00  0.00    -0.384 N 
ATOM     31  H22 UNL     1      42.303  18.362  17.987  1.00  0.00     0.157 HD
ATOM     32  H21 UNL     1      43.311  19.173  19.143  1.00  0.00     0.157 HD
ENDBRANCH  25  30
ENDBRANCH  21  22
ENDBRANCH  20  21
ENDBRANCH  17  20
ENDBRANCH   1  17
TORSDOF 12
ENDMDL
MODEL 3
REMARK VINA RESULT: -7.955514692      2.884      6.726
REMARK  12 active torsions:
REMARK  status: ('A' for Active; 'I' for Inactive)
REMARK    1  A    between atoms: C2_2  and  C3_3 
REMARK    2  A    between atoms: C3_3  and  C4_4 
REMARK    3  A    between atoms: C7_7  and  C8_8 
REMARK    4  A    between atoms: C8_8  and  N1_9 
REMARK    5  A    between atoms: N1_9  and  C9_12 
REMARK    6  A    between atoms: C9_12  and  C10_13 
REMARK    7  A    between atoms: C10_13  and  O1_14 
REMARK    8  A    between atoms: C10_13  and  C11_16 
REMARK    9  A    between atoms: C11_16  and  O2_17 
REMARK   10  A    between atoms: O2_17  and  C12_18 
REMARK   11  A    between atoms: C15_21  and  N2_22 
REMARK   12  A    between atoms: C17_30  and  O3_31 
ROOT
HETATM    1  C9  UNL     1      42.412  11.039  22.357  1.00  0.00     0.266 C 
ENDROOT
BRANCH   1   2
HETATM    2  N1  UNL     1      41.397  11.548  21.453  1.00  0.00    -0.069 N 
ATOM      3  H12 UNL     1      41.361  11.012  20.586  1.00  0.00     0.277 HD
ATOM      4  H11 UNL     1      41.659  12.454  21.062  1.00  0.00     0.277 HD
BRANCH   2   5
HETATM    5  C8  UNL     1      40.128  11.597  22.098  1.00  0.00     0.271 C 
BRANCH   5   6
HETATM    6  C7  UNL     1      39.608  12.984  22.311  1.00  0.00    -0.030 A 
HETATM    7  C6  UNL     1      40.143  14.055  21.612  1.00  0.00     0.009 A 
HETATM    8  C5  UNL     1      39.682  15.342  21.793  1.00  0.00     0.011 A 
HETATM    9  C4  UNL     1      38.665  15.627  22.683  1.00  0.00    -0.021 A 
HETATM   10  C17 UNL     1      38.128  14.570  23.382  1.00  0.00     0.075 A 
HETATM   11  C16 UNL     1      38.593  13.259  23.200  1.00  0.00     0.046 A 
BRANCH   9  12
HETATM   12  C3  UNL     1      38.200  17.040  22.858  1.00  0.00     0.067 C 
BRANCH  12  13
HETATM   13  C2  UNL     1      37.271  17.450  21.779  1.00  0.00    -0.032 C 
HETATM   14  C1  UNL     1      36.027  17.061  21.652  1.00  0.00     0.007 C 
ENDBRANCH  12  13
ENDBRANCH   9  12
BRANCH  10  15
HETATM   15  O3  UNL     1      37.113  14.842  24.272  1.00  0.00    -0.355 OA
HETATM   16  C18 UNL     1      36.954  14.198  25.521  1.00  0.00     0.210 C 
ENDBRANCH  10  15
ENDBRANCH   5   6
ENDBRANCH   2   5
ENDBRANCH   1   2
BRANCH   1  17
HETATM   17  C10 UNL     1      43.774  10.981  21.750  1.00  0.00     0.168 C 
BRANCH  17  18
HETATM   18  O1  UNL     1      44.759  11.232  22.665  1.00  0.00    -0.392 OA
ATOM     19  H1  UNL     1      45.627  11.129  22.296  1.00  0.00     0.210 HD
ENDBRANCH  17  18
BRANCH  17  20
HETATM   20  C11 UNL     1      43.869  11.997  20.608  1.00  0.00     0.210 C 
BRANCH  20  21
HETATM   21  O2  UNL     1      44.006  13.289  21.113  1.00  0.00    -0.332 OA
BRANCH  21  22
HETATM   22  C12 UNL     1      43.572  14.460  20.529  1.00  0.00     0.157 A 
HETATM   23  C13 UNL     1      43.812  15.679  21.181  1.00  0.00     0.061 A 
HETATM   24  C14 UNL     1      43.390  16.865  20.623  1.00  0.00     0.053 A 
HETATM   25  C15 UNL     1      42.724  16.883  19.416  1.00  0.00     0.113 A 
HETATM   26  N3  UNL     1      42.514  15.692  18.826  1.00  0.00    -0.284 N 
HETATM   27  N4  UNL     1      42.919  14.535  19.360  1.00  0.00    -0.278 N 
ATOM     28  H3  UNL     1      42.024  15.671  17.932  1.00  0.00     0.188 HD
ATOM     29  H4  UNL     1      42.724  13.670  18.855  1.00  0.00     0.189 HD
BRANCH  25  30
HETATM   30  N2  UNL     1      42.310  17.969  18.850  1.00  0.00    -0.384 N 
ATOM     31  H22 UNL     1      42.927  18.778  18.781  1.00  0.00     0.157 HD
ATOM     32  H21 UNL     1      41.375  18.074  18.456  1.00  0.00     0.157 HD
ENDBRANCH  25  30
ENDBRANCH  21  22
ENDBRANCH  20  21
ENDBRANCH  17  20
ENDBRANCH   1  17
TORSDOF 12
ENDMDL
MODEL 4
REMARK VINA RESULT: -7.941578103      3.487      6.669
REMARK  12 active torsions:
REMARK  status: ('A' for Active; 'I' for Inactive)
REMARK    1  A    between atoms: C2_2  and  C3_3 
REMARK    2  A    between atoms: C3_3  and  C4_4 
REMARK    3  A    between atoms: C7_7  and  C8_8 
REMARK    4  A    between atoms: C8_8  and  N1_9 
REMARK    5  A    between atoms: N1_9  and  C9_12 
REMARK    6  A    between atoms: C9_12  and  C10_13 
REMARK    7  A    between atoms: C10_13  and  O1_14 
REMARK    8  A    between atoms: C10_13  and  C11_16 
REMARK    9  A    between atoms: C11_16  and  O2_17 
REMARK   10  A    between atoms: O2_17  and  C12_18 
REMARK   11  A    between atoms: C15_21  and  N2_22 
REMARK   12  A    between atoms: C17_30  and  O3_31 
ROOT
HETATM    1  C9  UNL     1      42.296  11.209  22.540  1.00  0.00     0.266 C 
ENDROOT
BRANCH   1   2
HETATM    2  N1  UNL     1      41.368  11.648  21.515  1.00  0.00    -0.069 N 
ATOM      3  H12 UNL     1      41.499  11.136  20.642  1.00  0.00     0.277 HD
ATOM      4  H11 UNL     1      41.593  12.584  21.178  1.00  0.00     0.277 HD
BRANCH   2   5
HETATM    5  C8  UNL     1      40.025  11.563  21.982  1.00  0.00     0.271 C 
BRANCH   5   6
HETATM    6  C7  UNL     1      39.428  12.882  22.361  1.00  0.00    -0.030 A 
HETATM    7  C6  UNL     1      38.355  12.948  23.234  1.00  0.00     0.009 A 
HETATM    8  C5  UNL     1      37.787  14.151  23.595  1.00  0.00     0.011 A 
HETATM    9  C4  UNL     1      38.259  15.351  23.102  1.00  0.00    -0.021 A 
HETATM   10  C17 UNL     1      39.326  15.296  22.233  1.00  0.00     0.075 A 
HETATM   11  C16 UNL     1      39.907  14.074  21.863  1.00  0.00     0.046 A 
BRANCH   9  12
HETATM   12  C3  UNL     1      37.607  16.636  23.511  1.00  0.00     0.067 C 
BRANCH  12  13
HETATM   13  C2  UNL     1      36.255  16.776  22.923  1.00  0.00    -0.032 C 
HETATM   14  C1  UNL     1      35.986  16.926  21.649  1.00  0.00     0.007 C 
ENDBRANCH  12  13
ENDBRANCH   9  12
BRANCH  10  15
HETATM   15  O3  UNL     1      39.807  16.486  21.735  1.00  0.00    -0.355 OA
HETATM   16  C18 UNL     1      39.523  16.980  20.440  1.00  0.00     0.210 C 
ENDBRANCH  10  15
ENDBRANCH   5   6
ENDBRANCH   2   5
ENDBRANCH   1   2
BRANCH   1  17
HETATM   17  C10 UNL     1      43.706  11.106  22.063  1.00  0.00     0.168 C 
BRANCH  17  18
HETATM   18  O1  UNL     1      44.608  11.255  23.079  1.00  0.00    -0.392 OA
ATOM     19  H1  UNL     1      44.570  12.119  23.470  1.00  0.00     0.210 HD
ENDBRANCH  17  18
BRANCH  17  20
HETATM   20  C11 UNL     1      43.962  12.173  20.994  1.00  0.00     0.210 C 
BRANCH  20  21
HETATM   21  O2  UNL     1      43.614  13.436  21.469  1.00  0.00    -0.332 OA
BRANCH  21  22
HETATM   22  C12 UNL     1      43.388  14.572  20.722  1.00  0.00     0.157 A 
HETATM   23  C13 UNL     1      43.838  15.809  21.205  1.00  0.00     0.061 A 
HETATM   24  C14 UNL     1      43.627  16.962  20.482  1.00  0.00     0.053 A 
HETATM   25  C15 UNL     1      42.971  16.927  19.270  1.00  0.00     0.113 A 
HETATM   26  N3  UNL     1      42.556  15.720  18.844  1.00  0.00    -0.284 N 
HETATM   27  N4  UNL     1      42.755  14.596  19.540  1.00  0.00    -0.278 N 
ATOM     28  H3  UNL     1      42.067  15.660  17.951  1.00  0.00     0.188 HD
ATOM     29  H4  UNL     1      42.412  13.716  19.154  1.00  0.00     0.189 HD
BRANCH  25  30
HETATM   30  N2  UNL     1      42.751  17.980  18.551  1.00  0.00    -0.384 N 
ATOM     31  H22 UNL     1      43.489  18.358  17.958  1.00  0.00     0.157 HD
ATOM     32  H21 UNL     1      41.858  18.473  18.541  1.00  0.00     0.157 HD
ENDBRANCH  25  30
ENDBRANCH  21  22
ENDBRANCH  20  21
ENDBRANCH  17  20
ENDBRANCH   1  17
TORSDOF 12
ENDMDL
MODEL 5
REMARK VINA RESULT: -7.902678078      3.856      8.035
REMARK  12 active torsions:
REMARK  status: ('A' for Active; 'I' for Inactive)
REMARK    1  A    between atoms: C2_2  and  C3_3 
REMARK    2  A    between atoms: C3_3  and  C4_4 
REMARK    3  A    between atoms: C7_7  and  C8_8 
REMARK    4  A    between atoms: C8_8  and  N1_9 
REMARK    5  A    between atoms: N1_9  and  C9_12 
REMARK    6  A    between atoms: C9_12  and  C10_13 
REMARK    7  A    between atoms: C10_13  and  O1_14 
REMARK    8  A    between atoms: C10_13  and  C11_16 
REMARK    9  A    between atoms: C11_16  and  O2_17 
REMARK   10  A    between atoms: O2_17  and  C12_18 
REMARK   11  A    between atoms: C15_21  and  N2_22 
REMARK   12  A    between atoms: C17_30  and  O3_31 
ROOT
HETATM    1  C9  UNL     1      42.704  16.161  19.497  1.00  0.00     0.266 C 
ENDROOT
BRANCH   1   2
HETATM    2  N1  UNL     1      41.278  16.074  19.750  1.00  0.00    -0.069 N 
ATOM      3  H12 UNL     1      40.931  15.122  19.631  1.00  0.00     0.277 HD
ATOM      4  H11 UNL     1      40.735  16.527  19.014  1.00  0.00     0.277 HD
BRANCH   2   5
HETATM    5  C8  UNL     1      40.962  16.595  21.038  1.00  0.00     0.271 C 
BRANCH   5   6
HETATM    6  C7  UNL     1      39.806  15.915  21.702  1.00  0.00    -0.030 A 
HETATM    7  C6  UNL     1      39.713  14.532  21.718  1.00  0.00     0.009 A 
HETATM    8  C5  UNL     1      38.656  13.883  22.321  1.00  0.00     0.011 A 
HETATM    9  C4  UNL     1      37.636  14.581  22.937  1.00  0.00    -0.021 A 
HETATM   10  C17 UNL     1      37.720  15.955  22.926  1.00  0.00     0.075 A 
HETATM   11  C16 UNL     1      38.793  16.619  22.314  1.00  0.00     0.046 A 
BRANCH   9  12
HETATM   12  C3  UNL     1      36.500  13.838  23.571  1.00  0.00     0.067 C 
BRANCH  12  13
HETATM   13  C2  UNL     1      36.809  13.454  24.969  1.00  0.00    -0.032 C 
HETATM   14  C1  UNL     1      36.428  14.102  26.042  1.00  0.00     0.007 C 
ENDBRANCH  12  13
ENDBRANCH   9  12
BRANCH  10  15
HETATM   15  O3  UNL     1      36.709  16.662  23.538  1.00  0.00    -0.355 OA
HETATM   16  C18 UNL     1      36.903  17.565  24.609  1.00  0.00     0.210 C 
ENDBRANCH  10  15
ENDBRANCH   5   6
ENDBRANCH   2   5
ENDBRANCH   1   2
BRANCH   1  17
HETATM   17  C10 UNL     1      43.537  15.979  20.721  1.00  0.00     0.168 C 
BRANCH  17  18
HETATM   18  O1  UNL     1      44.612  16.824  20.746  1.00  0.00    -0.392 OA
ATOM     19  H1  UNL     1      45.425  16.367  20.923  1.00  0.00     0.210 HD
ENDBRANCH  17  18
BRANCH  17  20
HETATM   20  C11 UNL     1      44.028  14.529  20.793  1.00  0.00     0.210 C 
BRANCH  20  21
HETATM   21  O2  UNL     1      42.950  13.646  20.796  1.00  0.00    -0.332 OA
BRANCH  21  22
HETATM   22  C12 UNL     1      42.954  12.327  20.395  1.00  0.00     0.157 A 
HETATM   23  C13 UNL     1      41.747  11.725  20.013  1.00  0.00     0.061 A 
HETATM   24  C14 UNL     1      41.719  10.409  19.609  1.00  0.00     0.053 A 
HETATM   25  C15 UNL     1      42.874   9.656  19.568  1.00  0.00     0.113 A 
HETATM   26  N3  UNL     1      44.009  10.273  19.942  1.00  0.00    -0.284 N 
HETATM   27  N4  UNL     1      44.046  11.550  20.337  1.00  0.00    -0.278 N 
ATOM     28  H3  UNL     1      44.880   9.743  19.923  1.00  0.00     0.188 HD
ATOM     29  H4  UNL     1      44.944  11.951  20.607  1.00  0.00     0.189 HD
BRANCH  25  30
HETATM   30  N2  UNL     1      42.901   8.418  19.193  1.00  0.00    -0.384 N 
ATOM     31  H22 UNL     1      42.835   8.182  18.203  1.00  0.00     0.157 HD
ATOM     32  H21 UNL     1      42.985   7.638  19.844  1.00  0.00     0.157 HD
ENDBRANCH  25  30
ENDBRANCH  21  22
ENDBRANCH  20  21
ENDBRANCH  17  20
ENDBRANCH   1  17
TORSDOF 12
ENDMDL
