MODEL 1
REMARK VINA RESULT: -7.185872499      0.000      0.000
REMARK  6 active torsions:
REMARK  status: ('A' for Active; 'I' for Inactive)
REMARK    1  A    between atoms: C2_3  and  N2_4 
REMARK    2  A    between atoms: C7_9  and  C8_10 
REMARK    3  A    between atoms: C8_10  and  C9_11 
REMARK    4  A    between atoms: C9_11  and  N3_12 
REMARK       I    between atoms: N3_12  and  C10_14 
REMARK    5  A    between atoms: C10_14  and  O2_16 
REMARK    6  A    between atoms: O2_16  and  C11_17 
ROOT
HETATM    1  N1  UNL     1       5.838  19.391  17.867  1.00  0.00    -0.195 NA
HETATM    2  C1  UNL     1       6.163  19.236  18.982  1.00  0.00     0.089 C 
HETATM    3  C2  UNL     1       6.551  19.023  20.375  1.00  0.00     0.396 C 
ENDROOT
BRANCH   3   4
HETATM    4  N2  UNL     1       7.861  19.630  20.611  1.00  0.00     0.105 N 
HETATM    5  C3  UNL     1       7.900  19.978  22.012  1.00  0.00     0.274 C 
HETATM    6  C4  UNL     1       9.256  20.207  22.560  1.00  0.00     0.030 C 
HETATM    7  C5  UNL     1      10.339  20.369  21.542  1.00  0.00     0.004 C 
HETATM    8  C6  UNL     1      10.224  19.474  20.357  1.00  0.00     0.036 C 
HETATM    9  C7  UNL     1       8.926  18.754  20.227  1.00  0.00     0.225 C 
BRANCH   9  10
HETATM   10  C8  UNL     1       8.888  17.427  20.928  1.00  0.00     0.055 C 
BRANCH  10  11
HETATM   11  C9  UNL     1       8.785  16.262  20.007  1.00  0.00     0.127 C 
BRANCH  11  12
HETATM   12  N3  UNL     1       9.139  16.588  18.639  1.00  0.00    -0.337 N 
HETATM   13  C10 UNL     1       8.879  15.623  17.601  1.00  0.00     0.361 C 
HETATM   14  O1  UNL     1       8.356  14.516  17.849  1.00  0.00    -0.238 OA
ATOM     15  H3  UNL     1       9.566  17.488  18.415  1.00  0.00     0.164 HD
BRANCH  13  16
HETATM   16  O2  UNL     1       9.185  15.858  16.276  1.00  0.00    -0.293 OA
BRANCH  16  17
HETATM   17  C11 UNL     1       8.474  16.617  15.368  1.00  0.00     0.073 C 
HETATM   18  C12 UNL     1       7.085  16.990  15.769  1.00  0.00     0.043 C 
HETATM   19  C13 UNL     1       6.441  17.749  14.630  1.00  0.00    -0.011 C 
HETATM   20  C14 UNL     1       7.131  19.084  14.475  1.00  0.00     0.009 C 
HETATM   21  C18 UNL     1       6.443  16.949  13.352  1.00  0.00     0.009 C 
HETATM   22  C15 UNL     1       8.578  18.791  14.123  1.00  0.00    -0.011 C 
HETATM   23  C16 UNL     1       8.562  18.083  12.786  1.00  0.00     0.009 C 
HETATM   24  C20 UNL     1       9.235  17.940  15.195  1.00  0.00     0.043 C 
HETATM   25  C17 UNL     1       7.882  16.753  12.936  1.00  0.00    -0.011 C 
HETATM   26  C19 UNL     1       8.557  15.937  14.016  1.00  0.00     0.043 C 
ENDBRANCH  16  17
ENDBRANCH  13  16
ENDBRANCH  11  12
ENDBRANCH  10  11
ENDBRANCH   9  10
ENDBRANCH   3   4
TORSDOF 6
ENDMDL
MODEL 2
REMARK VINA RESULT: -7.037245463      0.225      1.496
REMARK  6 active torsions:
REMARK  status: ('A' for Active; 'I' for Inactive)
REMARK    1  A    between atoms: C2_3  and  N2_4 
REMARK    2  A    between atoms: C7_9  and  C8_10 
REMARK    3  A    between atoms: C8_10  and  C9_11 
REMARK    4  A    between atoms: C9_11  and  N3_12 
REMARK       I    between atoms: N3_12  and  C10_14 
REMARK    5  A    between atoms: C10_14  and  O2_16 
REMARK    6  A    between atoms: O2_16  and  C11_17 
ROOT
HETATM    1  N1  UNL     1       5.767  19.357  18.011  1.00  0.00    -0.195 NA
HETATM    2  C1  UNL     1       6.152  19.201  19.107  1.00  0.00     0.089 C 
HETATM    3  C2  UNL     1       6.614  18.986  20.477  1.00  0.00     0.396 C 
ENDROOT
BRANCH   3   4
HETATM    4  N2  UNL     1       7.916  19.628  20.655  1.00  0.00     0.105 N 
HETATM    5  C3  UNL     1       7.998  20.000  22.048  1.00  0.00     0.274 C 
HETATM    6  C4  UNL     1       9.367  20.270  22.542  1.00  0.00     0.030 C 
HETATM    7  C5  UNL     1      10.407  20.442  21.482  1.00  0.00     0.004 C 
HETATM    8  C6  UNL     1      10.271  19.526  20.315  1.00  0.00     0.036 C 
HETATM    9  C7  UNL     1       8.988  18.773  20.245  1.00  0.00     0.225 C 
BRANCH   9  10
HETATM   10  C8  UNL     1       9.008  17.456  20.967  1.00  0.00     0.055 C 
BRANCH  10  11
HETATM   11  C9  UNL     1       8.858  16.276  20.072  1.00  0.00     0.127 C 
BRANCH  11  12
HETATM   12  N3  UNL     1       9.267  16.544  18.707  1.00  0.00    -0.337 N 
HETATM   13  C10 UNL     1       8.946  15.586  17.680  1.00  0.00     0.361 C 
HETATM   14  O1  UNL     1       8.323  14.532  17.936  1.00  0.00    -0.238 OA
ATOM     15  H3  UNL     1       9.775  17.399  18.477  1.00  0.00     0.164 HD
BRANCH  13  16
HETATM   16  O2  UNL     1       9.299  15.768  16.358  1.00  0.00    -0.293 OA
BRANCH  16  17
HETATM   17  C11 UNL     1       8.666  16.556  15.418  1.00  0.00     0.073 C 
HETATM   18  C12 UNL     1       8.517  15.961  14.056  1.00  0.00     0.043 C 
HETATM   19  C13 UNL     1       7.874  16.988  13.149  1.00  0.00    -0.011 C 
HETATM   20  C14 UNL     1       6.447  17.211  13.592  1.00  0.00     0.009 C 
HETATM   21  C18 UNL     1       8.669  18.268  13.101  1.00  0.00     0.009 C 
HETATM   22  C15 UNL     1       6.507  17.763  15.004  1.00  0.00    -0.011 C 
HETATM   23  C16 UNL     1       7.214  19.098  14.916  1.00  0.00     0.009 C 
HETATM   24  C20 UNL     1       7.240  16.807  15.929  1.00  0.00     0.043 C 
HETATM   25  C17 UNL     1       8.635  18.880  14.482  1.00  0.00    -0.011 C 
HETATM   26  C19 UNL     1       9.329  17.918  15.420  1.00  0.00     0.043 C 
ENDBRANCH  16  17
ENDBRANCH  13  16
ENDBRANCH  11  12
ENDBRANCH  10  11
ENDBRANCH   9  10
ENDBRANCH   3   4
TORSDOF 6
ENDMDL
MODEL 3
REMARK VINA RESULT: -7.026009324      0.171      1.464
REMARK  6 active torsions:
REMARK  status: ('A' for Active; 'I' for Inactive)
REMARK    1  A    between atoms: C2_3  and  N2_4 
REMARK    2  A    between atoms: C7_9  and  C8_10 
REMARK    3  A    between atoms: C8_10  and  C9_11 
REMARK    4  A    between atoms: C9_11  and  N3_12 
REMARK       I    between atoms: N3_12  and  C10_14 
REMARK    5  A    between atoms: C10_14  and  O2_16 
REMARK    6  A    between atoms: O2_16  and  C11_17 
ROOT
HETATM    1  N1  UNL     1       5.755  19.302  17.995  1.00  0.00    -0.195 NA
HETATM    2  C1  UNL     1       6.135  19.160  19.094  1.00  0.00     0.089 C 
HETATM    3  C2  UNL     1       6.591  18.961  20.468  1.00  0.00     0.396 C 
ENDROOT
BRANCH   3   4
HETATM    4  N2  UNL     1       7.898  19.596  20.640  1.00  0.00     0.105 N 
HETATM    5  C3  UNL     1       7.985  19.974  22.032  1.00  0.00     0.274 C 
HETATM    6  C4  UNL     1       9.357  20.238  22.522  1.00  0.00     0.030 C 
HETATM    7  C5  UNL     1      10.396  20.398  21.459  1.00  0.00     0.004 C 
HETATM    8  C6  UNL     1      10.252  19.478  20.297  1.00  0.00     0.036 C 
HETATM    9  C7  UNL     1       8.964  18.732  20.233  1.00  0.00     0.225 C 
BRANCH   9  10
HETATM   10  C8  UNL     1       8.977  17.419  20.961  1.00  0.00     0.055 C 
BRANCH  10  11
HETATM   11  C9  UNL     1       8.813  16.235  20.073  1.00  0.00     0.127 C 
BRANCH  11  12
HETATM   12  N3  UNL     1       9.186  16.504  18.697  1.00  0.00    -0.337 N 
HETATM   13  C10 UNL     1       8.825  15.551  17.677  1.00  0.00     0.361 C 
HETATM   14  O1  UNL     1       8.199  14.504  17.948  1.00  0.00    -0.238 OA
ATOM     15  H3  UNL     1       9.696  17.354  18.455  1.00  0.00     0.164 HD
BRANCH  13  16
HETATM   16  O2  UNL     1       9.143  15.733  16.347  1.00  0.00    -0.293 OA
BRANCH  16  17
HETATM   17  C11 UNL     1       8.599  16.649  15.468  1.00  0.00     0.073 C 
HETATM   18  C12 UNL     1       9.343  17.935  15.317  1.00  0.00     0.043 C 
HETATM   19  C13 UNL     1       8.565  18.835  14.380  1.00  0.00    -0.011 C 
HETATM   20  C14 UNL     1       8.599  18.245  12.990  1.00  0.00     0.009 C 
HETATM   21  C18 UNL     1       7.160  19.072  14.871  1.00  0.00     0.009 C 
HETATM   22  C15 UNL     1       7.911  16.895  13.070  1.00  0.00    -0.011 C 
HETATM   23  C16 UNL     1       6.474  17.166  13.459  1.00  0.00     0.009 C 
HETATM   24  C20 UNL     1       8.599  15.994  14.079  1.00  0.00     0.043 C 
HETATM   25  C17 UNL     1       6.435  17.747  14.843  1.00  0.00    -0.011 C 
HETATM   26  C19 UNL     1       7.135  16.828  15.818  1.00  0.00     0.043 C 
ENDBRANCH  16  17
ENDBRANCH  13  16
ENDBRANCH  11  12
ENDBRANCH  10  11
ENDBRANCH   9  10
ENDBRANCH   3   4
TORSDOF 6
ENDMDL
MODEL 4
REMARK VINA RESULT: -6.683172551      1.338      2.635
REMARK  6 active torsions:
REMARK  status: ('A' for Active; 'I' for Inactive)
REMARK    1  A    between atoms: C2_3  and  N2_4 
REMARK    2  A    between atoms: C7_9  and  C8_10 
REMARK    3  A    between atoms: C8_10  and  C9_11 
REMARK    4  A    between atoms: C9_11  and  N3_12 
REMARK       I    between atoms: N3_12  and  C10_14 
REMARK    5  A    between atoms: C10_14  and  O2_16 
REMARK    6  A    between atoms: O2_16  and  C11_17 
ROOT
HETATM    1  N1  UNL     1      10.148  21.574  22.457  1.00  0.00    -0.195 NA
HETATM    2  C1  UNL     1      10.092  20.558  21.878  1.00  0.00     0.089 C 
HETATM    3  C2  UNL     1      10.037  19.277  21.175  1.00  0.00     0.396 C 
ENDROOT
BRANCH   3   4
HETATM    4  N2  UNL     1       8.971  19.321  20.173  1.00  0.00     0.105 N 
HETATM    5  C3  UNL     1       9.585  19.786  18.951  1.00  0.00     0.274 C 
HETATM    6  C4  UNL     1       8.812  19.506  17.719  1.00  0.00     0.030 C 
HETATM    7  C5  UNL     1       7.392  19.092  17.936  1.00  0.00     0.004 C 
HETATM    8  C6  UNL     1       7.171  18.189  19.100  1.00  0.00     0.036 C 
HETATM    9  C7  UNL     1       8.332  18.050  20.024  1.00  0.00     0.225 C 
BRANCH   9  10
HETATM   10  C8  UNL     1       9.281  16.945  19.657  1.00  0.00     0.055 C 
BRANCH  10  11
HETATM   11  C9  UNL     1       8.613  15.642  19.386  1.00  0.00     0.127 C 
BRANCH  11  12
HETATM   12  N3  UNL     1       8.253  15.469  17.992  1.00  0.00    -0.337 N 
HETATM   13  C10 UNL     1       9.235  15.757  16.977  1.00  0.00     0.361 C 
HETATM   14  O1  UNL     1      10.385  16.149  17.267  1.00  0.00    -0.238 OA
ATOM     15  H3  UNL     1       7.319  15.148  17.734  1.00  0.00     0.164 HD
BRANCH  13  16
HETATM   16  O2  UNL     1       8.971  15.617  15.629  1.00  0.00    -0.293 OA
BRANCH  16  17
HETATM   17  C11 UNL     1       8.318  16.507  14.801  1.00  0.00     0.073 C 
HETATM   18  C12 UNL     1       6.940  16.902  15.219  1.00  0.00     0.043 C 
HETATM   19  C13 UNL     1       6.358  17.816  14.161  1.00  0.00    -0.011 C 
HETATM   20  C14 UNL     1       7.115  19.124  14.172  1.00  0.00     0.009 C 
HETATM   21  C18 UNL     1       6.351  17.166  12.802  1.00  0.00     0.009 C 
HETATM   22  C15 UNL     1       8.554  18.800  13.814  1.00  0.00    -0.011 C 
HETATM   23  C16 UNL     1       8.535  18.249  12.405  1.00  0.00     0.009 C 
HETATM   24  C20 UNL     1       9.145  17.802  14.793  1.00  0.00     0.043 C 
HETATM   25  C17 UNL     1       7.789  16.946  12.391  1.00  0.00    -0.011 C 
HETATM   26  C19 UNL     1       8.399  15.981  13.383  1.00  0.00     0.043 C 
ENDBRANCH  16  17
ENDBRANCH  13  16
ENDBRANCH  11  12
ENDBRANCH  10  11
ENDBRANCH   9  10
ENDBRANCH   3   4
TORSDOF 6
ENDMDL
MODEL 5
REMARK VINA RESULT: -6.500403713      1.202      2.863
REMARK  6 active torsions:
REMARK  status: ('A' for Active; 'I' for Inactive)
REMARK    1  A    between atoms: C2_3  and  N2_4 
REMARK    2  A    between atoms: C7_9  and  C8_10 
REMARK    3  A    between atoms: C8_10  and  C9_11 
REMARK    4  A    between atoms: C9_11  and  N3_12 
REMARK       I    between atoms: N3_12  and  C10_14 
REMARK    5  A    between atoms: C10_14  and  O2_16 
REMARK    6  A    between atoms: O2_16  and  C11_17 
ROOT
HETATM    1  N1  UNL     1      10.233  21.488  22.425  1.00  0.00    -0.195 NA
HETATM    2  C1  UNL     1       9.745  20.450  22.189  1.00  0.00     0.089 C 
HETATM    3  C2  UNL     1       9.137  19.147  21.922  1.00  0.00     0.396 C 
ENDROOT
BRANCH   3   4
HETATM    4  N2  UNL     1       8.471  19.183  20.620  1.00  0.00     0.105 N 
HETATM    5  C3  UNL     1       9.458  19.646  19.673  1.00  0.00     0.274 C 
HETATM    6  C4  UNL     1       9.145  19.358  18.255  1.00  0.00     0.030 C 
HETATM    7  C5  UNL     1       7.736  18.938  17.984  1.00  0.00     0.004 C 
HETATM    8  C6  UNL     1       7.140  18.039  19.010  1.00  0.00     0.036 C 
HETATM    9  C7  UNL     1       7.922  17.908  20.271  1.00  0.00     0.225 C 
BRANCH   9  10
HETATM   10  C8  UNL     1       8.943  16.807  20.250  1.00  0.00     0.055 C 
BRANCH  10  11
HETATM   11  C9  UNL     1       8.616  15.701  19.308  1.00  0.00     0.127 C 
BRANCH  11  12
HETATM   12  N3  UNL     1       9.049  15.968  17.950  1.00  0.00    -0.337 N 
HETATM   13  C10 UNL     1       8.454  15.224  16.869  1.00  0.00     0.361 C 
HETATM   14  O1  UNL     1       7.576  14.357  17.072  1.00  0.00    -0.238 OA
ATOM     15  H3  UNL     1       9.763  16.672  17.763  1.00  0.00     0.164 HD
BRANCH  13  16
HETATM   16  O2  UNL     1       8.810  15.419  15.550  1.00  0.00    -0.293 OA
BRANCH  16  17
HETATM   17  C11 UNL     1       8.342  16.388  14.685  1.00  0.00     0.073 C 
HETATM   18  C12 UNL     1       8.193  15.977  13.257  1.00  0.00     0.043 C 
HETATM   19  C13 UNL     1       7.745  17.179  12.453  1.00  0.00    -0.011 C 
HETATM   20  C14 UNL     1       6.338  17.547  12.861  1.00  0.00     0.009 C 
HETATM   21  C18 UNL     1       8.705  18.333  12.591  1.00  0.00     0.009 C 
HETATM   22  C15 UNL     1       6.391  17.922  14.331  1.00  0.00    -0.011 C 
HETATM   23  C16 UNL     1       7.273  19.148  14.432  1.00  0.00     0.009 C 
HETATM   24  C20 UNL     1       6.935  16.775  15.164  1.00  0.00     0.043 C 
HETATM   25  C17 UNL     1       8.675  18.785  14.032  1.00  0.00    -0.011 C 
HETATM   26  C19 UNL     1       9.180  17.636  14.877  1.00  0.00     0.043 C 
ENDBRANCH  16  17
ENDBRANCH  13  16
ENDBRANCH  11  12
ENDBRANCH  10  11
ENDBRANCH   9  10
ENDBRANCH   3   4
TORSDOF 6
ENDMDL
