MODEL 1
REMARK VINA RESULT: -4.821956080      0.000      0.000
REMARK  9 active torsions:
REMARK  status: ('A' for Active; 'I' for Inactive)
REMARK    1  A    between atoms: C2_2  and  N1_3 
REMARK    2  A    between atoms: N1_3  and  C3_4 
REMARK       I    between atoms: N1_3  and  C5_6 
REMARK    3  A    between atoms: C5_6  and  C6_8 
REMARK    4  A    between atoms: C6_8  and  S1_9 
REMARK    5  A    between atoms: S1_9  and  C7_10 
REMARK    6  A    between atoms: C10_15  and  C11_16 
REMARK    7  A    between atoms: C12_17  and  C13_18 
REMARK    8  A    between atoms: C13_18  and  C14_20 
REMARK    9  A    between atoms: C14_20  and  C15_21 
ROOT
HETATM    1  C7  UNL     1      -6.849  19.079 -17.507  1.00  0.00     0.148 A 
HETATM    2  N2  UNL     1      -6.703  17.743 -17.695  1.00  0.00    -0.334 N 
ATOM      3  H2  UNL     1      -6.124  17.407 -18.466  1.00  0.00     0.168 HD
HETATM    4  C8  UNL     1      -7.301  16.854 -16.891  1.00  0.00     0.076 A 
HETATM    5  C9  UNL     1      -7.329  15.447 -16.845  1.00  0.00     0.070 A 
HETATM    6  C10 UNL     1      -8.098  15.023 -15.812  1.00  0.00     0.078 A 
HETATM    7  O2  UNL     1      -8.536  16.181 -15.236  1.00  0.00    -0.303 OA
HETATM    8  C18 UNL     1      -8.089  17.218 -15.840  1.00  0.00     0.170 A 
HETATM    9  C19 UNL     1      -8.245  18.596 -15.640  1.00  0.00     0.283 A 
HETATM   10  O3  UNL     1      -8.958  18.978 -14.690  1.00  0.00    -0.265 OA
HETATM   11  N3  UNL     1      -7.622  19.436 -16.476  1.00  0.00    -0.301 N 
ATOM     12  H3  UNL     1      -7.748  20.435 -16.312  1.00  0.00     0.171 HD
ENDROOT
BRANCH   1  13
HETATM   13  S1  UNL     1      -6.038  20.236 -18.596  1.00  0.00    -0.084 SA
BRANCH  13  14
HETATM   14  C6  UNL     1      -6.679  20.228 -20.258  1.00  0.00     0.185 C 
BRANCH  14  15
HETATM   15  C5  UNL     1      -6.987  18.848 -20.683  1.00  0.00     0.229 C 
HETATM   16  N1  UNL     1      -8.312  18.430 -21.027  1.00  0.00    -0.352 N 
HETATM   17  O1  UNL     1      -6.063  18.010 -20.746  1.00  0.00    -0.273 OA
BRANCH  16  18
HETATM   18  C2  UNL     1      -8.592  17.072 -21.441  1.00  0.00     0.121 C 
HETATM   19  C1  UNL     1      -8.685  16.120 -20.286  1.00  0.00     0.026 C 
ENDBRANCH  16  18
BRANCH  16  20
HETATM   20  C3  UNL     1      -9.427  19.356 -20.973  1.00  0.00     0.121 C 
HETATM   21  C4  UNL     1     -10.114  19.381 -19.645  1.00  0.00     0.026 C 
ENDBRANCH  16  20
ENDBRANCH  14  15
ENDBRANCH  13  14
ENDBRANCH   1  13
BRANCH   6  22
HETATM   22  C11 UNL     1      -8.486  13.737 -15.268  1.00  0.00     0.039 C 
HETATM   23  C12 UNL     1      -9.373  12.867 -15.369  1.00  0.00     0.026 C 
BRANCH  23  24
HETATM   24  C13 UNL     1     -10.551  12.642 -16.115  1.00  0.00     0.032 C 
HETATM   25 CL1  UNL     1     -10.782  11.230 -17.193  1.00  0.00    -0.085 Cl
BRANCH  24  26
HETATM   26  C14 UNL     1     -11.603  13.467 -16.030  1.00  0.00     0.022 C 
BRANCH  26  27
HETATM   27  C15 UNL     1     -12.112  14.343 -17.050  1.00  0.00     0.049 C 
HETATM   28  C16 UNL     1     -12.678  13.549 -18.214  1.00  0.00     0.036 C 
HETATM   29  C17 UNL     1     -10.889  15.155 -17.593  1.00  0.00     0.036 C 
HETATM   30 CL2  UNL     1     -13.244  15.597 -16.527  1.00  0.00    -0.116 Cl
ENDBRANCH  26  27
ENDBRANCH  24  26
ENDBRANCH  23  24
ENDBRANCH   6  22
TORSDOF 9
ENDMDL
MODEL 2
REMARK VINA RESULT: -4.766878069      0.910      1.376
REMARK  9 active torsions:
REMARK  status: ('A' for Active; 'I' for Inactive)
REMARK    1  A    between atoms: C2_2  and  N1_3 
REMARK    2  A    between atoms: N1_3  and  C3_4 
REMARK       I    between atoms: N1_3  and  C5_6 
REMARK    3  A    between atoms: C5_6  and  C6_8 
REMARK    4  A    between atoms: C6_8  and  S1_9 
REMARK    5  A    between atoms: S1_9  and  C7_10 
REMARK    6  A    between atoms: C10_15  and  C11_16 
REMARK    7  A    between atoms: C12_17  and  C13_18 
REMARK    8  A    between atoms: C13_18  and  C14_20 
REMARK    9  A    between atoms: C14_20  and  C15_21 
ROOT
HETATM    1  C7  UNL     1      -6.883  18.991 -17.447  1.00  0.00     0.148 A 
HETATM    2  N2  UNL     1      -6.781  17.654 -17.656  1.00  0.00    -0.334 N 
ATOM      3  H2  UNL     1      -6.239  17.313 -18.450  1.00  0.00     0.168 HD
HETATM    4  C8  UNL     1      -7.375  16.772 -16.842  1.00  0.00     0.076 A 
HETATM    5  C9  UNL     1      -7.441  15.366 -16.812  1.00  0.00     0.070 A 
HETATM    6  C10 UNL     1      -8.185  14.950 -15.758  1.00  0.00     0.078 A 
HETATM    7  O2  UNL     1      -8.571  16.112 -15.154  1.00  0.00    -0.303 OA
HETATM    8  C18 UNL     1      -8.117  17.143 -15.760  1.00  0.00     0.170 A 
HETATM    9  C19 UNL     1      -8.226  18.523 -15.539  1.00  0.00     0.283 A 
HETATM   10  O3  UNL     1      -8.896  18.912 -14.559  1.00  0.00    -0.265 OA
HETATM   11  N3  UNL     1      -7.610  19.356 -16.385  1.00  0.00    -0.301 N 
ATOM     12  H3  UNL     1      -7.703  20.355 -16.205  1.00  0.00     0.171 HD
ENDROOT
BRANCH   1  13
HETATM   13  S1  UNL     1      -6.079  20.139 -18.550  1.00  0.00    -0.084 SA
BRANCH  13  14
HETATM   14  C6  UNL     1      -5.774  19.479 -20.176  1.00  0.00     0.185 C 
BRANCH  14  15
HETATM   15  C5  UNL     1      -6.843  19.893 -21.106  1.00  0.00     0.229 C 
HETATM   16  N1  UNL     1      -7.963  19.054 -21.409  1.00  0.00    -0.352 N 
HETATM   17  O1  UNL     1      -6.774  21.014 -21.653  1.00  0.00    -0.273 OA
BRANCH  16  18
HETATM   18  C2  UNL     1      -9.001  19.479 -22.323  1.00  0.00     0.121 C 
HETATM   19  C1  UNL     1      -9.798  20.636 -21.799  1.00  0.00     0.026 C 
ENDBRANCH  16  18
BRANCH  16  20
HETATM   20  C3  UNL     1      -8.098  17.741 -20.807  1.00  0.00     0.121 C 
HETATM   21  C4  UNL     1      -9.375  17.564 -20.050  1.00  0.00     0.026 C 
ENDBRANCH  16  20
ENDBRANCH  14  15
ENDBRANCH  13  14
ENDBRANCH   1  13
BRANCH   6  22
HETATM   22  C11 UNL     1      -8.590  13.668 -15.216  1.00  0.00     0.039 C 
HETATM   23  C12 UNL     1      -9.474  12.798 -15.336  1.00  0.00     0.026 C 
BRANCH  23  24
HETATM   24  C13 UNL     1     -10.629  12.567 -16.116  1.00  0.00     0.032 C 
HETATM   25 CL1  UNL     1     -10.823  11.154 -17.200  1.00  0.00    -0.085 Cl
BRANCH  24  26
HETATM   26  C14 UNL     1     -11.687  13.387 -16.060  1.00  0.00     0.022 C 
BRANCH  26  27
HETATM   27  C15 UNL     1     -12.157  14.278 -17.086  1.00  0.00     0.049 C 
HETATM   28  C16 UNL     1     -12.711  13.501 -18.267  1.00  0.00     0.036 C 
HETATM   29  C17 UNL     1     -10.909  15.071 -17.596  1.00  0.00     0.036 C 
HETATM   30 CL2  UNL     1     -13.279  15.548 -16.580  1.00  0.00    -0.116 Cl
ENDBRANCH  26  27
ENDBRANCH  24  26
ENDBRANCH  23  24
ENDBRANCH   6  22
TORSDOF 9
ENDMDL
MODEL 3
REMARK VINA RESULT: -4.627220965      2.822      4.219
REMARK  9 active torsions:
REMARK  status: ('A' for Active; 'I' for Inactive)
REMARK    1  A    between atoms: C2_2  and  N1_3 
REMARK    2  A    between atoms: N1_3  and  C3_4 
REMARK       I    between atoms: N1_3  and  C5_6 
REMARK    3  A    between atoms: C5_6  and  C6_8 
REMARK    4  A    between atoms: C6_8  and  S1_9 
REMARK    5  A    between atoms: S1_9  and  C7_10 
REMARK    6  A    between atoms: C10_15  and  C11_16 
REMARK    7  A    between atoms: C12_17  and  C13_18 
REMARK    8  A    between atoms: C13_18  and  C14_20 
REMARK    9  A    between atoms: C14_20  and  C15_21 
ROOT
HETATM    1  C7  UNL     1      -6.473  19.516 -19.334  1.00  0.00     0.148 A 
HETATM    2  N2  UNL     1      -7.420  19.894 -18.437  1.00  0.00    -0.334 N 
ATOM      3  H2  UNL     1      -8.142  20.556 -18.723  1.00  0.00     0.168 HD
HETATM    4  C8  UNL     1      -7.427  19.417 -17.186  1.00  0.00     0.076 A 
HETATM    5  C9  UNL     1      -8.260  19.624 -16.070  1.00  0.00     0.070 A 
HETATM    6  C10 UNL     1      -7.831  18.887 -15.016  1.00  0.00     0.078 A 
HETATM    7  O2  UNL     1      -6.733  18.236 -15.501  1.00  0.00    -0.303 OA
HETATM    8  C18 UNL     1      -6.500  18.530 -16.724  1.00  0.00     0.170 A 
HETATM    9  C19 UNL     1      -5.520  18.135 -17.645  1.00  0.00     0.283 A 
HETATM   10  O3  UNL     1      -4.649  17.325 -17.268  1.00  0.00    -0.265 OA
HETATM   11  N3  UNL     1      -5.564  18.645 -18.881  1.00  0.00    -0.301 N 
ATOM     12  H3  UNL     1      -4.842  18.344 -19.535  1.00  0.00     0.171 HD
ENDROOT
BRANCH   1  13
HETATM   13  S1  UNL     1      -6.492  20.169 -20.993  1.00  0.00    -0.084 SA
BRANCH  13  14
HETATM   14  C6  UNL     1      -7.860  19.591 -21.978  1.00  0.00     0.185 C 
BRANCH  14  15
HETATM   15  C5  UNL     1      -9.054  19.396 -21.132  1.00  0.00     0.229 C 
HETATM   16  N1  UNL     1      -9.330  18.158 -20.468  1.00  0.00    -0.352 N 
HETATM   17  O1  UNL     1      -9.857  20.342 -20.986  1.00  0.00    -0.273 OA
BRANCH  16  18
HETATM   18  C2  UNL     1     -10.507  17.989 -19.643  1.00  0.00     0.121 C 
HETATM   19  C1  UNL     1     -10.180  17.531 -18.253  1.00  0.00     0.026 C 
ENDBRANCH  16  18
BRANCH  16  20
HETATM   20  C3  UNL     1      -8.436  17.024 -20.600  1.00  0.00     0.121 C 
HETATM   21  C4  UNL     1      -9.064  15.849 -21.279  1.00  0.00     0.026 C 
ENDBRANCH  16  20
ENDBRANCH  14  15
ENDBRANCH  13  14
ENDBRANCH   1  13
BRANCH   6  22
HETATM   22  C11 UNL     1      -8.268  18.680 -13.650  1.00  0.00     0.039 C 
HETATM   23  C12 UNL     1      -8.253  17.824 -12.744  1.00  0.00     0.026 C 
BRANCH  23  24
HETATM   24  C13 UNL     1      -7.768  16.513 -12.539  1.00  0.00     0.032 C 
HETATM   25 CL1  UNL     1      -6.468  16.112 -11.373  1.00  0.00    -0.085 Cl
BRANCH  24  26
HETATM   26  C14 UNL     1      -8.289  15.464 -13.187  1.00  0.00     0.022 C 
BRANCH  26  27
HETATM   27  C15 UNL     1      -8.075  15.088 -14.558  1.00  0.00     0.049 C 
HETATM   28  C16 UNL     1      -9.081  15.767 -15.470  1.00  0.00     0.036 C 
HETATM   29  C17 UNL     1      -8.333  13.548 -14.646  1.00  0.00     0.036 C 
HETATM   30 CL2  UNL     1      -6.430  15.270 -15.183  1.00  0.00    -0.116 Cl
ENDBRANCH  26  27
ENDBRANCH  24  26
ENDBRANCH  23  24
ENDBRANCH   6  22
TORSDOF 9
ENDMDL
MODEL 4
REMARK VINA RESULT: -4.575426402      3.637      7.038
REMARK  9 active torsions:
REMARK  status: ('A' for Active; 'I' for Inactive)
REMARK    1  A    between atoms: C2_2  and  N1_3 
REMARK    2  A    between atoms: N1_3  and  C3_4 
REMARK       I    between atoms: N1_3  and  C5_6 
REMARK    3  A    between atoms: C5_6  and  C6_8 
REMARK    4  A    between atoms: C6_8  and  S1_9 
REMARK    5  A    between atoms: S1_9  and  C7_10 
REMARK    6  A    between atoms: C10_15  and  C11_16 
REMARK    7  A    between atoms: C12_17  and  C13_18 
REMARK    8  A    between atoms: C13_18  and  C14_20 
REMARK    9  A    between atoms: C14_20  and  C15_21 
ROOT
HETATM    1  C7  UNL     1      -8.930  15.145 -15.644  1.00  0.00     0.148 A 
HETATM    2  N2  UNL     1      -8.106  15.370 -16.699  1.00  0.00    -0.334 N 
ATOM      3  H2  UNL     1      -7.110  15.165 -16.606  1.00  0.00     0.168 HD
HETATM    4  C8  UNL     1      -8.570  15.854 -17.858  1.00  0.00     0.076 A 
HETATM    5  C9  UNL     1      -7.967  16.178 -19.088  1.00  0.00     0.070 A 
HETATM    6  C10 UNL     1      -8.895  16.640 -19.962  1.00  0.00     0.078 A 
HETATM    7  O2  UNL     1     -10.060  16.596 -19.252  1.00  0.00    -0.303 OA
HETATM    8  C18 UNL     1      -9.884  16.153 -18.065  1.00  0.00     0.170 A 
HETATM    9  C19 UNL     1     -10.741  15.923 -16.979  1.00  0.00     0.283 A 
HETATM   10  O3  UNL     1     -11.954  16.182 -17.120  1.00  0.00    -0.265 OA
HETATM   11  N3  UNL     1     -10.220  15.438 -15.846  1.00  0.00    -0.301 N 
ATOM     12  H3  UNL     1     -10.861  15.277 -15.070  1.00  0.00     0.171 HD
ENDROOT
BRANCH   1  13
HETATM   13  S1  UNL     1      -8.280  14.499 -14.114  1.00  0.00    -0.084 SA
BRANCH  13  14
HETATM   14  C6  UNL     1      -6.885  15.412 -13.484  1.00  0.00     0.185 C 
BRANCH  14  15
HETATM   15  C5  UNL     1      -7.331  16.691 -12.899  1.00  0.00     0.229 C 
HETATM   16  N1  UNL     1      -7.208  17.937 -13.593  1.00  0.00    -0.352 N 
HETATM   17  O1  UNL     1      -7.836  16.694 -11.756  1.00  0.00    -0.273 OA
BRANCH  16  18
HETATM   18  C2  UNL     1      -7.652  19.180 -13.000  1.00  0.00     0.121 C 
HETATM   19  C1  UNL     1      -9.090  19.485 -13.302  1.00  0.00     0.026 C 
ENDBRANCH  16  18
BRANCH  16  20
HETATM   20  C3  UNL     1      -6.630  17.998 -14.922  1.00  0.00     0.121 C 
HETATM   21  C4  UNL     1      -7.512  18.674 -15.922  1.00  0.00     0.026 C 
ENDBRANCH  16  20
ENDBRANCH  14  15
ENDBRANCH  13  14
ENDBRANCH   1  13
BRANCH   6  22
HETATM   22  C11 UNL     1      -8.886  17.105 -21.335  1.00  0.00     0.039 C 
HETATM   23  C12 UNL     1      -8.738  18.144 -22.008  1.00  0.00     0.026 C 
BRANCH  23  24
HETATM   24  C13 UNL     1      -8.476  19.514 -21.791  1.00  0.00     0.032 C 
HETATM   25 CL1  UNL     1      -9.741  20.781 -21.833  1.00  0.00    -0.085 Cl
BRANCH  24  26
HETATM   26  C14 UNL     1      -7.246  19.954 -21.494  1.00  0.00     0.022 C 
BRANCH  26  27
HETATM   27  C15 UNL     1      -6.494  19.705 -20.294  1.00  0.00     0.049 C 
HETATM   28  C16 UNL     1      -7.365  19.881 -19.062  1.00  0.00     0.036 C 
HETATM   29  C17 UNL     1      -5.377  20.798 -20.232  1.00  0.00     0.036 C 
HETATM   30 CL2  UNL     1      -5.593  18.185 -20.221  1.00  0.00    -0.116 Cl
ENDBRANCH  26  27
ENDBRANCH  24  26
ENDBRANCH  23  24
ENDBRANCH   6  22
TORSDOF 9
ENDMDL
MODEL 5
REMARK VINA RESULT: -4.400306079      3.817      6.655
REMARK  9 active torsions:
REMARK  status: ('A' for Active; 'I' for Inactive)
REMARK    1  A    between atoms: C2_2  and  N1_3 
REMARK    2  A    between atoms: N1_3  and  C3_4 
REMARK       I    between atoms: N1_3  and  C5_6 
REMARK    3  A    between atoms: C5_6  and  C6_8 
REMARK    4  A    between atoms: C6_8  and  S1_9 
REMARK    5  A    between atoms: S1_9  and  C7_10 
REMARK    6  A    between atoms: C10_15  and  C11_16 
REMARK    7  A    between atoms: C12_17  and  C13_18 
REMARK    8  A    between atoms: C13_18  and  C14_20 
REMARK    9  A    between atoms: C14_20  and  C15_21 
ROOT
HETATM    1  C7  UNL     1      -8.501  13.977 -15.542  1.00  0.00     0.148 A 
HETATM    2  N2  UNL     1      -8.202  14.694 -16.655  1.00  0.00    -0.334 N 
ATOM      3  H2  UNL     1      -8.476  14.332 -17.569  1.00  0.00     0.168 HD
HETATM    4  C8  UNL     1      -7.557  15.865 -16.581  1.00  0.00     0.076 A 
HETATM    5  C9  UNL     1      -7.126  16.801 -17.540  1.00  0.00     0.070 A 
HETATM    6  C10 UNL     1      -6.508  17.846 -16.936  1.00  0.00     0.078 A 
HETATM    7  O2  UNL     1      -6.565  17.534 -15.608  1.00  0.00    -0.303 OA
HETATM    8  C18 UNL     1      -7.156  16.418 -15.401  1.00  0.00     0.170 A 
HETATM    9  C19 UNL     1      -7.461  15.683 -14.247  1.00  0.00     0.283 A 
HETATM   10  O3  UNL     1      -7.114  16.149 -13.142  1.00  0.00    -0.265 OA
HETATM   11  N3  UNL     1      -8.108  14.520 -14.384  1.00  0.00    -0.301 N 
ATOM     12  H3  UNL     1      -8.320  14.002 -13.531  1.00  0.00     0.171 HD
ENDROOT
BRANCH   1  13
HETATM   13  S1  UNL     1      -9.362  12.421 -15.675  1.00  0.00    -0.084 SA
BRANCH  13  14
HETATM   14  C6  UNL     1     -10.666  12.424 -16.889  1.00  0.00     0.185 C 
BRANCH  14  15
HETATM   15  C5  UNL     1     -11.846  13.145 -16.372  1.00  0.00     0.229 C 
HETATM   16  N1  UNL     1     -12.113  14.513 -16.701  1.00  0.00    -0.352 N 
HETATM   17  O1  UNL     1     -12.644  12.546 -15.621  1.00  0.00    -0.273 OA
BRANCH  16  18
HETATM   18  C2  UNL     1     -13.276  15.201 -16.184  1.00  0.00     0.121 C 
HETATM   19  C1  UNL     1     -13.879  16.150 -17.177  1.00  0.00     0.026 C 
ENDBRANCH  16  18
BRANCH  16  20
HETATM   20  C3  UNL     1     -11.223  15.261 -17.567  1.00  0.00     0.121 C 
HETATM   21  C4  UNL     1     -10.832  16.592 -17.010  1.00  0.00     0.026 C 
ENDBRANCH  16  20
ENDBRANCH  14  15
ENDBRANCH  13  14
ENDBRANCH   1  13
BRANCH   6  22
HETATM   22  C11 UNL     1      -5.885  19.077 -17.377  1.00  0.00     0.039 C 
HETATM   23  C12 UNL     1      -5.702  19.761 -18.403  1.00  0.00     0.026 C 
BRANCH  23  24
HETATM   24  C13 UNL     1      -6.028  19.711 -19.777  1.00  0.00     0.032 C 
HETATM   25 CL1  UNL     1      -5.476  20.929 -20.968  1.00  0.00    -0.085 Cl
BRANCH  24  26
HETATM   26  C14 UNL     1      -6.751  18.706 -20.289  1.00  0.00     0.022 C 
BRANCH  26  27
HETATM   27  C15 UNL     1      -8.112  18.754 -20.749  1.00  0.00     0.049 C 
HETATM   28  C16 UNL     1      -9.059  19.075 -19.607  1.00  0.00     0.036 C 
HETATM   29  C17 UNL     1      -8.464  17.317 -21.255  1.00  0.00     0.036 C 
HETATM   30 CL2  UNL     1      -8.440  19.780 -22.152  1.00  0.00    -0.116 Cl
ENDBRANCH  26  27
ENDBRANCH  24  26
ENDBRANCH  23  24
ENDBRANCH   6  22
TORSDOF 9
ENDMDL
