MODEL 1
REMARK VINA RESULT: -6.239247069      0.000      0.000
REMARK  9 active torsions:
REMARK  status: ('A' for Active; 'I' for Inactive)
REMARK    1  A    between atoms: C2_2  and  C3_3 
REMARK    2  A    between atoms: C3_3  and  N1_4 
REMARK    3  A    between atoms: N1_4  and  C4_6 
REMARK    4  A    between atoms: N4_18  and  C10_19 
REMARK    5  A    between atoms: N5_22  and  C13_23 
REMARK    6  A    between atoms: C13_23  and  C14_24 
REMARK    7  A    between atoms: C14_24  and  O1_25 
REMARK    8  A    between atoms: O1_25  and  C15_26 
REMARK    9  A    between atoms: C15_26  and  C16_27 
ROOT
HETATM    1  C4  UNL     1      -7.183  19.422 -20.747  1.00  0.00     0.117 A 
HETATM    2  N2  UNL     1      -6.202  20.286 -20.463  1.00  0.00    -0.338 N 
ATOM      3  H2  UNL     1      -5.737  20.815 -21.200  1.00  0.00     0.168 HD
HETATM    4  C5  UNL     1      -5.845  20.439 -19.160  1.00  0.00     0.183 A 
HETATM    5  N3  UNL     1      -6.445  19.752 -18.173  1.00  0.00    -0.338 N 
ATOM      6  H3  UNL     1      -6.140  19.903 -17.212  1.00  0.00     0.168 HD
HETATM    7  C6  UNL     1      -7.431  18.876 -18.412  1.00  0.00     0.126 A 
HETATM    8  C7  UNL     1      -7.809  18.710 -19.740  1.00  0.00     0.077 A 
HETATM    9  C8  UNL     1      -8.819  17.774 -19.695  1.00  0.00     0.090 A 
HETATM   10 CL1  UNL     1      -9.675  17.176 -21.095  1.00  0.00    -0.080 Cl
HETATM   11  C9  UNL     1      -9.053  17.382 -18.395  1.00  0.00     0.130 A 
HETATM   12 CL2  UNL     1     -10.228  16.223 -17.817  1.00  0.00    -0.062 Cl
HETATM   13  N4  UNL     1      -8.200  18.063 -17.628  1.00  0.00    -0.316 N 
ENDROOT
BRANCH  13  14
HETATM   14  C10 UNL     1      -8.072  17.988 -16.191  1.00  0.00     0.096 C 
HETATM   15  C11 UNL     1      -6.627  17.861 -15.753  1.00  0.00     0.045 C 
HETATM   16  C12 UNL     1      -6.436  18.324 -14.322  1.00  0.00     0.124 C 
HETATM   17  N5  UNL     1      -7.592  18.088 -13.545  1.00  0.00    -0.391 N 
HETATM   18  C21 UNL     1      -8.777  18.765 -13.993  1.00  0.00     0.124 C 
HETATM   19  C22 UNL     1      -8.692  19.136 -15.457  1.00  0.00     0.045 C 
BRANCH  17  20
HETATM   20  C13 UNL     1      -7.462  17.970 -12.146  1.00  0.00     0.084 C 
BRANCH  20  21
HETATM   21  C14 UNL     1      -7.803  16.630 -11.548  1.00  0.00     0.211 C 
BRANCH  21  22
HETATM   22  O1  UNL     1      -8.314  15.689 -12.309  1.00  0.00    -0.386 OA
BRANCH  22  23
HETATM   23  C15 UNL     1      -7.765  14.943 -13.240  1.00  0.00     0.172 C 
BRANCH  23  24
HETATM   24  C16 UNL     1      -8.175  15.008 -14.665  1.00  0.00     0.009 C 
HETATM   25  C17 UNL     1      -9.424  14.307 -15.012  1.00  0.00     0.007 C 
HETATM   26  C18 UNL     1      -9.076  13.255 -16.058  1.00  0.00     0.000 C 
HETATM   27  C19 UNL     1      -7.832  13.840 -16.706  1.00  0.00     0.000 C 
HETATM   28  C20 UNL     1      -7.088  14.547 -15.613  1.00  0.00     0.007 C 
ENDBRANCH  23  24
ENDBRANCH  22  23
ENDBRANCH  21  22
ENDBRANCH  20  21
ENDBRANCH  17  20
ENDBRANCH  13  14
BRANCH   1  29
HETATM   29  N1  UNL     1      -7.545  19.257 -21.961  1.00  0.00    -0.375 N 
ATOM     30  H1  UNL     1      -7.246  18.422 -22.464  1.00  0.00     0.161 HD
BRANCH  29  31
HETATM   31  C3  UNL     1      -8.367  20.230 -22.631  1.00  0.00     0.121 C 
BRANCH  31  32
HETATM   32  C2  UNL     1      -9.686  20.471 -21.920  1.00  0.00     0.015 C 
HETATM   33  C1  UNL     1     -10.244  21.814 -22.362  1.00  0.00     0.006 C 
ENDBRANCH  31  32
ENDBRANCH  29  31
ENDBRANCH   1  29
TORSDOF 9
ENDMDL
MODEL 2
REMARK VINA RESULT: -6.100610822      3.124      4.633
REMARK  9 active torsions:
REMARK  status: ('A' for Active; 'I' for Inactive)
REMARK    1  A    between atoms: C2_2  and  C3_3 
REMARK    2  A    between atoms: C3_3  and  N1_4 
REMARK    3  A    between atoms: N1_4  and  C4_6 
REMARK    4  A    between atoms: N4_18  and  C10_19 
REMARK    5  A    between atoms: N5_22  and  C13_23 
REMARK    6  A    between atoms: C13_23  and  C14_24 
REMARK    7  A    between atoms: C14_24  and  O1_25 
REMARK    8  A    between atoms: O1_25  and  C15_26 
REMARK    9  A    between atoms: C15_26  and  C16_27 
ROOT
HETATM    1  C4  UNL     1      -7.114  18.752 -19.994  1.00  0.00     0.117 A 
HETATM    2  N2  UNL     1      -6.286  19.753 -19.671  1.00  0.00    -0.338 N 
ATOM      3  H2  UNL     1      -5.963  20.415 -20.376  1.00  0.00     0.168 HD
HETATM    4  C5  UNL     1      -5.889  19.860 -18.376  1.00  0.00     0.183 A 
HETATM    5  N3  UNL     1      -6.303  18.998 -17.432  1.00  0.00    -0.338 N 
ATOM      6  H3  UNL     1      -5.976  19.121 -16.474  1.00  0.00     0.168 HD
HETATM    7  C6  UNL     1      -7.131  17.981 -17.710  1.00  0.00     0.126 A 
HETATM    8  C7  UNL     1      -7.547  17.858 -19.030  1.00  0.00     0.077 A 
HETATM    9  C8  UNL     1      -8.373  16.755 -19.030  1.00  0.00     0.090 A 
HETATM   10 CL1  UNL     1      -9.187  16.130 -20.443  1.00  0.00    -0.080 Cl
HETATM   11  C9  UNL     1      -8.461  16.222 -17.763  1.00  0.00     0.130 A 
HETATM   12 CL2  UNL     1      -9.379  14.827 -17.245  1.00  0.00    -0.062 Cl
HETATM   13  N4  UNL     1      -7.700  16.981 -16.972  1.00  0.00    -0.316 N 
ENDROOT
BRANCH  13  14
HETATM   14  C10 UNL     1      -7.481  16.812 -15.554  1.00  0.00     0.096 C 
HETATM   15  C11 UNL     1      -7.623  18.116 -14.796  1.00  0.00     0.045 C 
HETATM   16  C12 UNL     1      -7.939  17.879 -13.333  1.00  0.00     0.124 C 
HETATM   17  N5  UNL     1      -7.361  16.676 -12.869  1.00  0.00    -0.391 N 
HETATM   18  C21 UNL     1      -7.810  15.486 -13.538  1.00  0.00     0.124 C 
HETATM   19  C22 UNL     1      -8.366  15.790 -14.911  1.00  0.00     0.045 C 
BRANCH  17  20
HETATM   20  C13 UNL     1      -7.106  16.527 -11.490  1.00  0.00     0.084 C 
BRANCH  20  21
HETATM   21  C14 UNL     1      -5.698  16.156 -11.102  1.00  0.00     0.211 C 
BRANCH  21  22
HETATM   22  O1  UNL     1      -5.354  16.148  -9.834  1.00  0.00    -0.386 OA
BRANCH  22  23
HETATM   23  C15 UNL     1      -4.264  15.720  -9.241  1.00  0.00     0.172 C 
BRANCH  23  24
HETATM   24  C16 UNL     1      -3.226  16.639  -8.710  1.00  0.00     0.009 C 
HETATM   25  C17 UNL     1      -1.833  16.171  -8.812  1.00  0.00     0.007 C 
HETATM   26  C18 UNL     1      -1.272  16.112  -7.396  1.00  0.00     0.000 C 
HETATM   27  C19 UNL     1      -2.121  17.140  -6.667  1.00  0.00     0.000 C 
HETATM   28  C20 UNL     1      -3.487  17.059  -7.278  1.00  0.00     0.007 C 
ENDBRANCH  23  24
ENDBRANCH  22  23
ENDBRANCH  21  22
ENDBRANCH  20  21
ENDBRANCH  17  20
ENDBRANCH  13  14
BRANCH   1  29
HETATM   29  N1  UNL     1      -7.508  18.625 -21.201  1.00  0.00    -0.375 N 
ATOM     30  H1  UNL     1      -7.393  17.729 -21.675  1.00  0.00     0.161 HD
BRANCH  29  31
HETATM   31  C3  UNL     1      -8.112  19.724 -21.907  1.00  0.00     0.121 C 
BRANCH  31  32
HETATM   32  C2  UNL     1      -9.525  20.015 -21.438  1.00  0.00     0.015 C 
HETATM   33  C1  UNL     1      -9.987  21.327 -22.051  1.00  0.00     0.006 C 
ENDBRANCH  31  32
ENDBRANCH  29  31
ENDBRANCH   1  29
TORSDOF 9
ENDMDL
MODEL 3
REMARK VINA RESULT: -5.675217041      1.835      2.466
REMARK  9 active torsions:
REMARK  status: ('A' for Active; 'I' for Inactive)
REMARK    1  A    between atoms: C2_2  and  C3_3 
REMARK    2  A    between atoms: C3_3  and  N1_4 
REMARK    3  A    between atoms: N1_4  and  C4_6 
REMARK    4  A    between atoms: N4_18  and  C10_19 
REMARK    5  A    between atoms: N5_22  and  C13_23 
REMARK    6  A    between atoms: C13_23  and  C14_24 
REMARK    7  A    between atoms: C14_24  and  O1_25 
REMARK    8  A    between atoms: O1_25  and  C15_26 
REMARK    9  A    between atoms: C15_26  and  C16_27 
ROOT
HETATM    1  C4  UNL     1      -8.386  18.134 -21.279  1.00  0.00     0.117 A 
HETATM    2  N2  UNL     1      -9.326  17.181 -21.290  1.00  0.00    -0.338 N 
ATOM      3  H2  UNL     1      -9.771  16.892 -22.160  1.00  0.00     0.168 HD
HETATM    4  C5  UNL     1      -9.668  16.609 -20.105  1.00  0.00     0.183 A 
HETATM    5  N3  UNL     1      -9.093  16.974 -18.947  1.00  0.00    -0.338 N 
ATOM      6  H3  UNL     1      -9.384  16.514 -18.085  1.00  0.00     0.168 HD
HETATM    7  C6  UNL     1      -8.149  17.924 -18.889  1.00  0.00     0.126 A 
HETATM    8  C7  UNL     1      -7.787  18.519 -20.092  1.00  0.00     0.077 A 
HETATM    9  C8  UNL     1      -6.820  19.437 -19.746  1.00  0.00     0.090 A 
HETATM   10 CL1  UNL     1      -6.002  20.485 -20.879  1.00  0.00    -0.080 Cl
HETATM   11  C9  UNL     1      -6.596  19.408 -18.387  1.00  0.00     0.130 A 
HETATM   12 CL2  UNL     1      -5.472  20.377 -17.463  1.00  0.00    -0.062 Cl
HETATM   13  N4  UNL     1      -7.413  18.482 -17.881  1.00  0.00    -0.316 N 
ENDROOT
BRANCH  13  14
HETATM   14  C10 UNL     1      -7.535  18.093 -16.495  1.00  0.00     0.096 C 
HETATM   15  C11 UNL     1      -6.199  17.717 -15.888  1.00  0.00     0.045 C 
HETATM   16  C12 UNL     1      -6.216  17.846 -14.378  1.00  0.00     0.124 C 
HETATM   17  N5  UNL     1      -7.501  17.582 -13.853  1.00  0.00    -0.391 N 
HETATM   18  C21 UNL     1      -8.538  18.466 -14.307  1.00  0.00     0.124 C 
HETATM   19  C22 UNL     1      -8.180  19.124 -15.621  1.00  0.00     0.045 C 
BRANCH  17  20
HETATM   20  C13 UNL     1      -7.619  17.160 -12.513  1.00  0.00     0.084 C 
BRANCH  20  21
HETATM   21  C14 UNL     1      -7.977  15.713 -12.291  1.00  0.00     0.211 C 
BRANCH  21  22
HETATM   22  O1  UNL     1      -8.386  14.982 -13.303  1.00  0.00    -0.386 OA
BRANCH  22  23
HETATM   23  C15 UNL     1      -7.760  14.590 -14.390  1.00  0.00     0.172 C 
BRANCH  23  24
HETATM   24  C16 UNL     1      -8.469  14.301 -15.661  1.00  0.00     0.009 C 
HETATM   25  C17 UNL     1      -9.537  15.243 -16.037  1.00  0.00     0.007 C 
HETATM   26  C18 UNL     1     -10.830  14.443 -16.140  1.00  0.00     0.000 C 
HETATM   27  C19 UNL     1     -10.323  13.045 -16.459  1.00  0.00     0.000 C 
HETATM   28  C20 UNL     1      -9.030  12.894 -15.717  1.00  0.00     0.007 C 
ENDBRANCH  23  24
ENDBRANCH  22  23
ENDBRANCH  21  22
ENDBRANCH  20  21
ENDBRANCH  17  20
ENDBRANCH  13  14
BRANCH   1  29
HETATM   29  N1  UNL     1      -8.041  18.690 -22.375  1.00  0.00    -0.375 N 
ATOM     30  H1  UNL     1      -7.266  18.300 -22.913  1.00  0.00     0.161 HD
BRANCH  29  31
HETATM   31  C3  UNL     1      -8.724  19.858 -22.865  1.00  0.00     0.121 C 
BRANCH  31  32
HETATM   32  C2  UNL     1      -9.697  20.434 -21.854  1.00  0.00     0.015 C 
HETATM   33  C1  UNL     1     -10.218  21.764 -22.375  1.00  0.00     0.006 C 
ENDBRANCH  31  32
ENDBRANCH  29  31
ENDBRANCH   1  29
TORSDOF 9
ENDMDL
MODEL 4
REMARK VINA RESULT: -5.347069877      1.174      2.882
REMARK  9 active torsions:
REMARK  status: ('A' for Active; 'I' for Inactive)
REMARK    1  A    between atoms: C2_2  and  C3_3 
REMARK    2  A    between atoms: C3_3  and  N1_4 
REMARK    3  A    between atoms: N1_4  and  C4_6 
REMARK    4  A    between atoms: N4_18  and  C10_19 
REMARK    5  A    between atoms: N5_22  and  C13_23 
REMARK    6  A    between atoms: C13_23  and  C14_24 
REMARK    7  A    between atoms: C14_24  and  O1_25 
REMARK    8  A    between atoms: O1_25  and  C15_26 
REMARK    9  A    between atoms: C15_26  and  C16_27 
ROOT
HETATM    1  C4  UNL     1      -7.029  19.371 -20.689  1.00  0.00     0.117 A 
HETATM    2  N2  UNL     1      -6.247  20.246 -20.047  1.00  0.00    -0.338 N 
ATOM      3  H2  UNL     1      -5.845  21.048 -20.533  1.00  0.00     0.168 HD
HETATM    4  C5  UNL     1      -6.003  20.034 -18.727  1.00  0.00     0.183 A 
HETATM    5  N3  UNL     1      -6.523  18.985 -18.068  1.00  0.00    -0.338 N 
ATOM      6  H3  UNL     1      -6.310  18.870 -17.077  1.00  0.00     0.168 HD
HETATM    7  C6  UNL     1      -7.310  18.083 -18.671  1.00  0.00     0.126 A 
HETATM    8  C7  UNL     1      -7.570  18.286 -20.022  1.00  0.00     0.077 A 
HETATM    9  C8  UNL     1      -8.386  17.235 -20.377  1.00  0.00     0.090 A 
HETATM   10 CL1  UNL     1      -9.029  16.983 -21.982  1.00  0.00    -0.080 Cl
HETATM   11  C9  UNL     1      -8.621  16.421 -19.291  1.00  0.00     0.130 A 
HETATM   12 CL2  UNL     1      -9.589  14.967 -19.228  1.00  0.00    -0.062 Cl
HETATM   13  N4  UNL     1      -7.959  16.952 -18.262  1.00  0.00    -0.316 N 
ENDROOT
BRANCH  13  14
HETATM   14  C10 UNL     1      -7.906  16.448 -16.909  1.00  0.00     0.096 C 
HETATM   15  C11 UNL     1      -9.285  16.156 -16.354  1.00  0.00     0.045 C 
HETATM   16  C12 UNL     1      -9.229  15.155 -15.217  1.00  0.00     0.124 C 
HETATM   17  N5  UNL     1      -8.019  15.263 -14.495  1.00  0.00    -0.391 N 
HETATM   18  C21 UNL     1      -6.828  15.016 -15.259  1.00  0.00     0.124 C 
HETATM   19  C22 UNL     1      -7.057  15.226 -16.740  1.00  0.00     0.045 C 
BRANCH  17  20
HETATM   20  C13 UNL     1      -7.978  14.812 -13.160  1.00  0.00     0.084 C 
BRANCH  20  21
HETATM   21  C14 UNL     1      -7.501  15.802 -12.129  1.00  0.00     0.211 C 
BRANCH  21  22
HETATM   22  O1  UNL     1      -8.333  16.702 -11.657  1.00  0.00    -0.386 OA
BRANCH  22  23
HETATM   23  C15 UNL     1      -8.199  17.999 -11.497  1.00  0.00     0.172 C 
BRANCH  23  24
HETATM   24  C16 UNL     1      -7.778  18.902 -12.596  1.00  0.00     0.009 C 
HETATM   25  C17 UNL     1      -8.858  19.432 -13.448  1.00  0.00     0.007 C 
HETATM   26  C18 UNL     1      -8.571  18.978 -14.874  1.00  0.00     0.000 C 
HETATM   27  C19 UNL     1      -7.062  18.793 -14.860  1.00  0.00     0.000 C 
HETATM   28  C20 UNL     1      -6.719  18.291 -13.490  1.00  0.00     0.007 C 
ENDBRANCH  23  24
ENDBRANCH  22  23
ENDBRANCH  21  22
ENDBRANCH  20  21
ENDBRANCH  17  20
ENDBRANCH  13  14
BRANCH   1  29
HETATM   29  N1  UNL     1      -7.279  19.543 -21.930  1.00  0.00    -0.375 N 
ATOM     30  H1  UNL     1      -6.860  18.916 -22.617  1.00  0.00     0.161 HD
BRANCH  29  31
HETATM   31  C3  UNL     1      -8.143  20.604 -22.375  1.00  0.00     0.121 C 
BRANCH  31  32
HETATM   32  C2  UNL     1      -9.550  20.485 -21.821  1.00  0.00     0.015 C 
HETATM   33  C1  UNL     1     -10.403  21.602 -22.400  1.00  0.00     0.006 C 
ENDBRANCH  31  32
ENDBRANCH  29  31
ENDBRANCH   1  29
TORSDOF 9
ENDMDL
MODEL 5
REMARK VINA RESULT: -5.080688332      3.715      5.521
REMARK  9 active torsions:
REMARK  status: ('A' for Active; 'I' for Inactive)
REMARK    1  A    between atoms: C2_2  and  C3_3 
REMARK    2  A    between atoms: C3_3  and  N1_4 
REMARK    3  A    between atoms: N1_4  and  C4_6 
REMARK    4  A    between atoms: N4_18  and  C10_19 
REMARK    5  A    between atoms: N5_22  and  C13_23 
REMARK    6  A    between atoms: C13_23  and  C14_24 
REMARK    7  A    between atoms: C14_24  and  O1_25 
REMARK    8  A    between atoms: O1_25  and  C15_26 
REMARK    9  A    between atoms: C15_26  and  C16_27 
ROOT
HETATM    1  C4  UNL     1      -9.324  17.933 -19.106  1.00  0.00     0.117 A 
HETATM    2  N2  UNL     1     -10.550  17.561 -18.721  1.00  0.00    -0.338 N 
ATOM      3  H2  UNL     1     -11.337  17.595 -19.369  1.00  0.00     0.168 HD
HETATM    4  C5  UNL     1     -10.715  17.134 -17.441  1.00  0.00     0.183 A 
HETATM    5  N3  UNL     1      -9.691  17.081 -16.573  1.00  0.00    -0.338 N 
ATOM      6  H3  UNL     1      -9.867  16.753 -15.623  1.00  0.00     0.168 HD
HETATM    7  C6  UNL     1      -8.447  17.444 -16.914  1.00  0.00     0.126 A 
HETATM    8  C7  UNL     1      -8.262  17.882 -18.221  1.00  0.00     0.077 A 
HETATM    9  C8  UNL     1      -6.919  18.184 -18.295  1.00  0.00     0.090 A 
HETATM   10 CL1  UNL     1      -6.121  18.788 -19.726  1.00  0.00    -0.080 Cl
HETATM   11  C9  UNL     1      -6.305  17.941 -17.086  1.00  0.00     0.130 A 
HETATM   12 CL2  UNL     1      -4.621  18.164 -16.673  1.00  0.00    -0.062 Cl
HETATM   13  N4  UNL     1      -7.249  17.492 -16.258  1.00  0.00    -0.316 N 
ENDROOT
BRANCH  13  14
HETATM   14  C10 UNL     1      -7.081  17.102 -14.877  1.00  0.00     0.096 C 
HETATM   15  C11 UNL     1      -7.165  18.286 -13.935  1.00  0.00     0.045 C 
HETATM   16  C12 UNL     1      -7.537  17.856 -12.530  1.00  0.00     0.124 C 
HETATM   17  N5  UNL     1      -7.046  16.563 -12.240  1.00  0.00    -0.391 N 
HETATM   18  C21 UNL     1      -7.547  15.517 -13.087  1.00  0.00     0.124 C 
HETATM   19  C22 UNL     1      -8.045  16.055 -14.411  1.00  0.00     0.045 C 
BRANCH  17  20
HETATM   20  C13 UNL     1      -6.840  16.196 -10.895  1.00  0.00     0.084 C 
BRANCH  20  21
HETATM   21  C14 UNL     1      -5.452  15.739 -10.526  1.00  0.00     0.211 C 
BRANCH  21  22
HETATM   22  O1  UNL     1      -4.893  16.182  -9.423  1.00  0.00    -0.386 OA
BRANCH  22  23
HETATM   23  C15 UNL     1      -3.662  16.071  -8.977  1.00  0.00     0.172 C 
BRANCH  23  24
HETATM   24  C16 UNL     1      -3.111  16.954  -7.920  1.00  0.00     0.009 C 
HETATM   25  C17 UNL     1      -1.795  17.556  -8.199  1.00  0.00     0.007 C 
HETATM   26  C18 UNL     1      -0.845  17.095  -7.101  1.00  0.00     0.000 C 
HETATM   27  C19 UNL     1      -1.793  16.815  -5.946  1.00  0.00     0.000 C 
HETATM   28  C20 UNL     1      -3.051  16.282  -6.563  1.00  0.00     0.007 C 
ENDBRANCH  23  24
ENDBRANCH  22  23
ENDBRANCH  21  22
ENDBRANCH  20  21
ENDBRANCH  17  20
ENDBRANCH  13  14
BRANCH   1  29
HETATM   29  N1  UNL     1      -9.134  18.336 -20.302  1.00  0.00    -0.375 N 
ATOM     30  H1  UNL     1      -8.396  17.912 -20.864  1.00  0.00     0.161 HD
BRANCH  29  31
HETATM   31  C3  UNL     1      -9.945  19.380 -20.873  1.00  0.00     0.121 C 
BRANCH  31  32
HETATM   32  C2  UNL     1      -9.197  20.204 -21.904  1.00  0.00     0.015 C 
HETATM   33  C1  UNL     1      -9.967  21.490 -22.158  1.00  0.00     0.006 C 
ENDBRANCH  31  32
ENDBRANCH  29  31
ENDBRANCH   1  29
TORSDOF 9
ENDMDL
