MODEL 1
REMARK VINA RESULT: -8.917873658      0.000      0.000
REMARK  2 active torsions:
REMARK  status: ('A' for Active; 'I' for Inactive)
REMARK    1  A    between atoms: C18_21  and  O4_23 
REMARK    2  A    between atoms: C21_25  and  O5_26 
ROOT
HETATM    1  C1  UNL     1       8.227  16.217  12.072  1.00  0.00     0.015 C 
HETATM    2  C2  UNL     1       7.811  16.131  13.294  1.00  0.00    -0.080 C 
HETATM    3  C3  UNL     1       7.229  14.929  13.962  1.00  0.00     0.039 C 
HETATM    4  C4  UNL     1       7.936  14.705  15.251  1.00  0.00    -0.006 C 
HETATM    5  C5  UNL     1       7.214  15.252  16.492  1.00  0.00     0.016 C 
HETATM    6  C6  UNL     1       7.655  16.653  16.756  1.00  0.00    -0.022 C 
HETATM    7  C7  UNL     1       6.365  17.396  16.956  1.00  0.00     0.021 C 
HETATM    8  C8  UNL     1       6.753  18.654  17.623  1.00  0.00     0.049 C 
HETATM    9  C9  UNL     1       7.870  19.457  17.009  1.00  0.00     0.267 C 
HETATM   10  O1  UNL     1       7.843  19.453  15.682  1.00  0.00    -0.361 OA
HETATM   11  C10 UNL     1       8.885  19.437  14.859  1.00  0.00     0.172 C 
HETATM   12  C11 UNL     1       8.799  18.417  13.700  1.00  0.00     0.040 C 
HETATM   13  C12 UNL     1       7.858  17.321  14.267  1.00  0.00    -0.015 C 
HETATM   14  C13 UNL     1       6.537  17.809  13.917  1.00  0.00     0.020 C 
HETATM   15  C14 UNL     1       8.432  16.880  15.507  1.00  0.00     0.011 C 
HETATM   16  C15 UNL     1       9.164  15.553  15.249  1.00  0.00    -0.008 C 
HETATM   17  C16 UNL     1      10.142  14.968  16.094  1.00  0.00     0.011 C 
HETATM   18  O2  UNL     1       9.097  19.267  17.611  1.00  0.00    -0.330 OA
HETATM   19  C17 UNL     1       9.452  18.020  17.973  1.00  0.00     0.276 C 
HETATM   20  O3  UNL     1       9.963  18.043  19.310  1.00  0.00    -0.322 OA
HETATM   21  C18 UNL     1       9.298  18.949  20.109  1.00  0.00     0.189 C 
HETATM   22  C19 UNL     1       9.644  18.553  21.555  1.00  0.00     0.082 C 
HETATM   23  C21 UNL     1       7.858  18.833  19.816  1.00  0.00     0.185 C 
HETATM   24  C22 UNL     1       7.353  17.918  18.842  1.00  0.00     0.042 C 
HETATM   25  C23 UNL     1       8.329  17.015  18.042  1.00  0.00     0.021 C 
HETATM   26  C24 UNL     1       8.688  15.959  18.997  1.00  0.00     0.022 C 
ENDROOT
BRANCH  21  27
HETATM   27  O4  UNL     1       9.883  20.182  19.878  1.00  0.00    -0.358 OA
HETATM   28  C20 UNL     1      10.220  20.923  20.968  1.00  0.00     0.205 C 
ENDBRANCH  21  27
BRANCH  23  29
HETATM   29  O5  UNL     1       7.212  18.584  21.059  1.00  0.00    -0.390 OA
ATOM     30  H5  UNL     1       7.215  17.642  21.180  1.00  0.00     0.210 HD
ENDBRANCH  23  29
TORSDOF 2
ENDMDL
MODEL 2
REMARK VINA RESULT: -8.721182886      1.543      3.403
REMARK  2 active torsions:
REMARK  status: ('A' for Active; 'I' for Inactive)
REMARK    1  A    between atoms: C18_21  and  O4_23 
REMARK    2  A    between atoms: C21_25  and  O5_26 
ROOT
HETATM    1  C1  UNL     1       7.727  14.172  14.321  1.00  0.00     0.015 C 
HETATM    2  C2  UNL     1       8.094  15.350  14.708  1.00  0.00    -0.080 C 
HETATM    3  C3  UNL     1       8.016  16.618  13.923  1.00  0.00     0.039 C 
HETATM    4  C4  UNL     1       7.347  17.657  14.750  1.00  0.00    -0.006 C 
HETATM    5  C5  UNL     1       8.298  18.627  15.470  1.00  0.00     0.016 C 
HETATM    6  C6  UNL     1       8.635  18.093  16.821  1.00  0.00    -0.022 C 
HETATM    7  C7  UNL     1      10.131  18.216  16.884  1.00  0.00     0.021 C 
HETATM    8  C8  UNL     1      10.459  18.105  18.320  1.00  0.00     0.049 C 
HETATM    9  C9  UNL     1       9.876  16.946  19.084  1.00  0.00     0.267 C 
HETATM   10  O1  UNL     1       9.842  15.823  18.377  1.00  0.00    -0.361 OA
HETATM   11  C10 UNL     1       8.901  14.886  18.405  1.00  0.00     0.172 C 
HETATM   12  C11 UNL     1       8.413  14.396  17.023  1.00  0.00     0.040 C 
HETATM   13  C12 UNL     1       8.695  15.611  16.099  1.00  0.00    -0.015 C 
HETATM   14  C13 UNL     1      10.065  15.392  15.677  1.00  0.00     0.020 C 
HETATM   15  C14 UNL     1       8.029  16.741  16.684  1.00  0.00     0.011 C 
HETATM   16  C15 UNL     1       6.716  16.971  15.916  1.00  0.00    -0.008 C 
HETATM   17  C16 UNL     1       5.613  17.737  16.373  1.00  0.00     0.011 C 
HETATM   18  O2  UNL     1       8.747  17.262  19.811  1.00  0.00    -0.330 OA
HETATM   19  C17 UNL     1       7.827  18.071  19.255  1.00  0.00     0.276 C 
HETATM   20  O3  UNL     1       7.452  19.081  20.199  1.00  0.00    -0.322 OA
HETATM   21  C18 UNL     1       8.517  19.493  20.974  1.00  0.00     0.189 C 
HETATM   22  C19 UNL     1       8.078  20.830  21.596  1.00  0.00     0.082 C 
HETATM   23  C21 UNL     1       9.688  19.633  20.089  1.00  0.00     0.185 C 
HETATM   24  C22 UNL     1       9.621  19.349  18.690  1.00  0.00     0.042 C 
HETATM   25  C23 UNL     1       8.290  18.862  18.057  1.00  0.00     0.021 C 
HETATM   26  C24 UNL     1       7.487  20.087  17.951  1.00  0.00     0.022 C 
ENDROOT
BRANCH  21  27
HETATM   27  O4  UNL     1       8.625  18.582  22.010  1.00  0.00    -0.358 OA
HETATM   28  C20 UNL     1       9.079  19.052  23.203  1.00  0.00     0.205 C 
ENDBRANCH  21  27
BRANCH  23  29
HETATM   29  O5  UNL     1      10.171  20.960  20.266  1.00  0.00    -0.390 OA
ATOM     30  H5  UNL     1      10.867  21.080  19.631  1.00  0.00     0.210 HD
ENDBRANCH  23  29
TORSDOF 2
ENDMDL
MODEL 3
REMARK VINA RESULT: -8.011514743      1.601      3.409
REMARK  2 active torsions:
REMARK  status: ('A' for Active; 'I' for Inactive)
REMARK    1  A    between atoms: C18_21  and  O4_23 
REMARK    2  A    between atoms: C21_25  and  O5_26 
ROOT
HETATM    1  C1  UNL     1       7.241  15.220  13.011  1.00  0.00     0.015 C 
HETATM    2  C2  UNL     1       7.839  16.111  13.734  1.00  0.00    -0.080 C 
HETATM    3  C3  UNL     1       8.146  17.521  13.349  1.00  0.00     0.039 C 
HETATM    4  C4  UNL     1       7.666  18.429  14.424  1.00  0.00    -0.006 C 
HETATM    5  C5  UNL     1       8.745  18.885  15.420  1.00  0.00     0.016 C 
HETATM    6  C6  UNL     1       8.808  17.933  16.566  1.00  0.00    -0.022 C 
HETATM    7  C7  UNL     1      10.275  17.644  16.703  1.00  0.00     0.021 C 
HETATM    8  C8  UNL     1      10.423  17.063  18.052  1.00  0.00     0.049 C 
HETATM    9  C9  UNL     1       9.505  15.929  18.431  1.00  0.00     0.267 C 
HETATM   10  O1  UNL     1       9.274  15.092  17.427  1.00  0.00    -0.361 OA
HETATM   11  C10 UNL     1       8.138  14.459  17.156  1.00  0.00     0.172 C 
HETATM   12  C11 UNL     1       7.687  14.510  15.679  1.00  0.00     0.040 C 
HETATM   13  C12 UNL     1       8.343  15.816  15.156  1.00  0.00    -0.015 C 
HETATM   14  C13 UNL     1       9.656  15.376  14.726  1.00  0.00     0.020 C 
HETATM   15  C14 UNL     1       7.912  16.874  16.026  1.00  0.00     0.011 C 
HETATM   16  C15 UNL     1       6.776  17.637  15.323  1.00  0.00    -0.008 C 
HETATM   17  C16 UNL     1       5.849  18.506  15.953  1.00  0.00     0.011 C 
HETATM   18  O2  UNL     1       8.419  16.315  19.188  1.00  0.00    -0.330 OA
HETATM   19  C17 UNL     1       7.779  17.454  18.866  1.00  0.00     0.276 C 
HETATM   20  O3  UNL     1       7.565  18.228  20.053  1.00  0.00    -0.322 OA
HETATM   21  C18 UNL     1       8.615  18.122  20.942  1.00  0.00     0.189 C 
HETATM   22  C19 UNL     1       8.449  19.303  21.913  1.00  0.00     0.082 C 
HETATM   23  C21 UNL     1       9.868  18.192  20.168  1.00  0.00     0.185 C 
HETATM   24  C22 UNL     1       9.874  18.329  18.745  1.00  0.00     0.042 C 
HETATM   25  C23 UNL     1       8.536  18.396  17.963  1.00  0.00     0.021 C 
HETATM   26  C24 UNL     1       8.064  19.767  18.195  1.00  0.00     0.022 C 
ENDROOT
BRANCH  21  27
HETATM   27  O4  UNL     1       8.397  16.965  21.672  1.00  0.00    -0.358 OA
HETATM   28  C20 UNL     1       9.468  16.151  21.874  1.00  0.00     0.205 C 
ENDBRANCH  21  27
BRANCH  23  29
HETATM   29  O5  UNL     1      10.634  19.248  20.735  1.00  0.00    -0.390 OA
ATOM     30  H5  UNL     1      11.099  18.876  21.475  1.00  0.00     0.210 HD
ENDBRANCH  23  29
TORSDOF 2
ENDMDL
MODEL 4
REMARK VINA RESULT: -7.669197651      1.973      4.092
REMARK  2 active torsions:
REMARK  status: ('A' for Active; 'I' for Inactive)
REMARK    1  A    between atoms: C18_21  and  O4_23 
REMARK    2  A    between atoms: C21_25  and  O5_26 
ROOT
HETATM    1  C1  UNL     1      11.595  12.341  17.229  1.00  0.00     0.015 C 
HETATM    2  C2  UNL     1      11.083  13.423  16.738  1.00  0.00    -0.080 C 
HETATM    3  C3  UNL     1      10.601  13.635  15.340  1.00  0.00     0.039 C 
HETATM    4  C4  UNL     1       9.230  14.208  15.386  1.00  0.00    -0.006 C 
HETATM    5  C5  UNL     1       9.157  15.734  15.219  1.00  0.00     0.016 C 
HETATM    6  C6  UNL     1       9.230  16.391  16.556  1.00  0.00    -0.022 C 
HETATM    7  C7  UNL     1      10.268  17.460  16.366  1.00  0.00     0.021 C 
HETATM    8  C8  UNL     1      10.070  18.385  17.500  1.00  0.00     0.049 C 
HETATM    9  C9  UNL     1      10.001  17.792  18.884  1.00  0.00     0.267 C 
HETATM   10  O1  UNL     1      10.846  16.784  19.059  1.00  0.00    -0.361 OA
HETATM   11  C10 UNL     1      10.644  15.684  19.775  1.00  0.00     0.172 C 
HETATM   12  C11 UNL     1      11.034  14.360  19.081  1.00  0.00     0.040 C 
HETATM   13  C12 UNL     1      10.901  14.701  17.573  1.00  0.00    -0.015 C 
HETATM   14  C13 UNL     1      12.205  15.243  17.242  1.00  0.00     0.020 C 
HETATM   15  C14 UNL     1       9.568  15.195  17.374  1.00  0.00     0.011 C 
HETATM   16  C15 UNL     1       8.721  14.057  16.780  1.00  0.00    -0.008 C 
HETATM   17  C16 UNL     1       7.303  14.002  16.762  1.00  0.00     0.011 C 
HETATM   18  O2  UNL     1       8.717  17.625  19.360  1.00  0.00    -0.330 OA
HETATM   19  C17 UNL     1       7.772  17.166  18.519  1.00  0.00     0.276 C 
HETATM   20  O3  UNL     1       6.598  17.977  18.640  1.00  0.00    -0.322 OA
HETATM   21  C18 UNL     1       6.900  19.306  18.857  1.00  0.00     0.189 C 
HETATM   22  C19 UNL     1       5.611  20.078  18.532  1.00  0.00     0.082 C 
HETATM   23  C21 UNL     1       8.019  19.663  17.966  1.00  0.00     0.185 C 
HETATM   24  C22 UNL     1       8.619  18.713  17.084  1.00  0.00     0.042 C 
HETATM   25  C23 UNL     1       8.107  17.249  17.050  1.00  0.00     0.021 C 
HETATM   26  C24 UNL     1       6.862  17.332  16.277  1.00  0.00     0.022 C 
ENDROOT
BRANCH  21  27
HETATM   27  O4  UNL     1       7.119  19.442  20.218  1.00  0.00    -0.358 OA
HETATM   28  C20 UNL     1       6.473  20.458  20.851  1.00  0.00     0.205 C 
ENDBRANCH  21  27
BRANCH  23  29
HETATM   29  O5  UNL     1       7.588  20.787  17.208  1.00  0.00    -0.390 OA
ATOM     30  H5  UNL     1       7.525  21.514  17.816  1.00  0.00     0.210 HD
ENDBRANCH  23  29
TORSDOF 2
ENDMDL
MODEL 5
REMARK VINA RESULT: -7.574692915      2.483      5.720
REMARK  2 active torsions:
REMARK  status: ('A' for Active; 'I' for Inactive)
REMARK    1  A    between atoms: C18_21  and  O4_23 
REMARK    2  A    between atoms: C21_25  and  O5_26 
ROOT
HETATM    1  C1  UNL     1       5.758  20.233  20.393  1.00  0.00     0.015 C 
HETATM    2  C2  UNL     1       6.970  19.823  20.207  1.00  0.00    -0.080 C 
HETATM    3  C3  UNL     1       8.132  20.008  21.128  1.00  0.00     0.039 C 
HETATM    4  C4  UNL     1       8.791  18.692  21.342  1.00  0.00    -0.006 C 
HETATM    5  C5  UNL     1      10.031  18.436  20.472  1.00  0.00     0.016 C 
HETATM    6  C6  UNL     1       9.626  17.770  19.200  1.00  0.00    -0.022 C 
HETATM    7  C7  UNL     1      10.329  18.573  18.143  1.00  0.00     0.021 C 
HETATM    8  C8  UNL     1      10.305  17.718  16.940  1.00  0.00     0.049 C 
HETATM    9  C9  UNL     1       8.983  17.126  16.526  1.00  0.00     0.267 C 
HETATM   10  O1  UNL     1       7.964  17.959  16.703  1.00  0.00    -0.361 OA
HETATM   11  C10 UNL     1       6.731  17.648  17.085  1.00  0.00     0.172 C 
HETATM   12  C11 UNL     1       6.138  18.540  18.200  1.00  0.00     0.040 C 
HETATM   13  C12 UNL     1       7.398  19.056  18.945  1.00  0.00    -0.015 C 
HETATM   14  C13 UNL     1       7.754  20.248  18.200  1.00  0.00     0.020 C 
HETATM   15  C14 UNL     1       8.150  17.899  19.341  1.00  0.00     0.011 C 
HETATM   16  C15 UNL     1       7.870  17.634  20.830  1.00  0.00    -0.008 C 
HETATM   17  C16 UNL     1       8.120  16.419  21.516  1.00  0.00     0.011 C 
HETATM   18  O2  UNL     1       8.801  15.820  16.928  1.00  0.00    -0.330 OA
HETATM   19  C17 UNL     1       9.199  15.463  18.164  1.00  0.00     0.276 C 
HETATM   20  O3  UNL     1       9.944  14.242  18.086  1.00  0.00    -0.322 OA
HETATM   21  C18 UNL     1      10.716  14.172  16.945  1.00  0.00     0.189 C 
HETATM   22  C19 UNL     1      11.746  13.063  17.214  1.00  0.00     0.082 C 
HETATM   23  C21 UNL     1      11.339  15.493  16.743  1.00  0.00     0.185 C 
HETATM   24  C22 UNL     1      11.102  16.588  17.629  1.00  0.00     0.042 C 
HETATM   25  C23 UNL     1      10.151  16.415  18.844  1.00  0.00     0.021 C 
HETATM   26  C24 UNL     1      10.961  15.670  19.816  1.00  0.00     0.022 C 
ENDROOT
BRANCH  21  27
HETATM   27  O4  UNL     1       9.885  13.714  15.936  1.00  0.00    -0.358 OA
HETATM   28  C20 UNL     1       9.245  12.533  16.149  1.00  0.00     0.205 C 
ENDBRANCH  21  27
BRANCH  23  29
HETATM   29  O5  UNL     1      12.741  15.268  16.655  1.00  0.00    -0.390 OA
ATOM     30  H5  UNL     1      12.919  15.022  15.755  1.00  0.00     0.210 HD
ENDBRANCH  23  29
TORSDOF 2
ENDMDL
