MODEL 1
REMARK VINA RESULT: -6.265699901      0.000      0.000
REMARK  4 active torsions:
REMARK  status: ('A' for Active; 'I' for Inactive)
REMARK    1  A    between atoms: C3_3  and  O1_4 
REMARK    2  A    between atoms: C12_14  and  O2_16 
REMARK       I    between atoms: N1_24  and  C19_25 
REMARK    3  A    between atoms: C19_25  and  O5_27 
REMARK    4  A    between atoms: O5_27  and  C20_28 
ROOT
HETATM    1  C1  UNL     1       5.677  15.424  15.628  1.00  0.00     0.102 C 
HETATM    2  C2  UNL     1       6.891  15.298  15.708  1.00  0.00    -0.128 C 
HETATM    3  C3  UNL     1       8.344  15.152  15.809  1.00  0.00     0.193 C 
HETATM    4  C4  UNL     1       8.681  14.133  16.812  1.00  0.00     0.075 C 
HETATM    5  C5  UNL     1       8.895  14.684  18.200  1.00  0.00     0.013 C 
HETATM    6  C6  UNL     1       9.997  15.665  18.119  1.00  0.00     0.014 C 
HETATM    7  C7  UNL     1      11.301  15.062  17.629  1.00  0.00     0.012 C 
HETATM    8  C8  UNL     1       9.579  16.838  17.241  1.00  0.00     0.083 C 
HETATM    9  C9  UNL     1      10.766  17.792  17.111  1.00  0.00     0.072 C 
HETATM   10  C10 UNL     1      10.295  18.327  18.440  1.00  0.00    -0.042 C 
HETATM   11  C11 UNL     1      10.500  18.958  19.572  1.00  0.00     0.019 C 
HETATM   12  C12 UNL     1       9.429  19.155  20.586  1.00  0.00     0.103 C 
HETATM   13  C13 UNL     1       8.988  20.573  20.561  1.00  0.00     0.053 C 
HETATM   14  C14 UNL     1       8.349  18.124  20.457  1.00  0.00     0.089 C 
HETATM   15  C15 UNL     1       7.026  18.754  20.817  1.00  0.00     0.049 C 
HETATM   16  C16 UNL     1       8.582  17.109  21.600  1.00  0.00     0.049 C 
HETATM   17  O3  UNL     1       8.376  17.371  19.332  1.00  0.00    -0.360 OA
HETATM   18  C17 UNL     1       8.894  17.842  18.185  1.00  0.00     0.108 C 
HETATM   19  C18 UNL     1       7.960  18.785  17.498  1.00  0.00     0.054 C 
HETATM   20  N1  UNL     1       8.979  16.482  16.037  1.00  0.00    -0.272 N 
HETATM   21  C19 UNL     1       8.869  17.278  14.865  1.00  0.00     0.367 C 
HETATM   22  O4  UNL     1       9.286  18.446  14.701  1.00  0.00    -0.238 OA
ENDROOT
BRANCH   3  23
HETATM   23  O1  UNL     1       8.748  14.656  14.547  1.00  0.00    -0.361 OA
ATOM     24  H1  UNL     1       8.354  15.245  13.915  1.00  0.00     0.213 HD
ENDBRANCH   3  23
BRANCH  21  25
HETATM   25  O5  UNL     1       8.235  16.804  13.682  1.00  0.00    -0.294 OA
BRANCH  25  26
HETATM   26  C20 UNL     1       7.395  17.651  12.901  1.00  0.00     0.061 C 
HETATM   27  C21 UNL     1       6.504  18.498  13.789  1.00  0.00     0.046 C 
HETATM   28  C22 UNL     1       6.491  16.777  12.071  1.00  0.00     0.046 C 
HETATM   29  C23 UNL     1       8.284  18.512  12.030  1.00  0.00     0.046 C 
ENDBRANCH  25  26
ENDBRANCH  21  25
BRANCH  12  30
HETATM   30  O2  UNL     1      10.098  19.000  21.836  1.00  0.00    -0.383 OA
ATOM     31  H2  UNL     1       9.840  18.136  22.134  1.00  0.00     0.211 HD
ENDBRANCH  12  30
TORSDOF 4
ENDMDL
MODEL 2
REMARK VINA RESULT: -4.764101970      2.029      6.121
REMARK  4 active torsions:
REMARK  status: ('A' for Active; 'I' for Inactive)
REMARK    1  A    between atoms: C3_3  and  O1_4 
REMARK    2  A    between atoms: C12_14  and  O2_16 
REMARK       I    between atoms: N1_24  and  C19_25 
REMARK    3  A    between atoms: C19_25  and  O5_27 
REMARK    4  A    between atoms: O5_27  and  C20_28 
ROOT
HETATM    1  C1  UNL     1       5.729  18.639  19.537  1.00  0.00     0.102 C 
HETATM    2  C2  UNL     1       6.567  19.006  18.725  1.00  0.00    -0.128 C 
HETATM    3  C3  UNL     1       7.570  19.439  17.751  1.00  0.00     0.193 C 
HETATM    4  C4  UNL     1       7.012  19.390  16.393  1.00  0.00     0.075 C 
HETATM    5  C5  UNL     1       7.252  18.082  15.678  1.00  0.00     0.013 C 
HETATM    6  C6  UNL     1       8.714  17.881  15.607  1.00  0.00     0.014 C 
HETATM    7  C7  UNL     1       9.435  18.985  14.856  1.00  0.00     0.012 C 
HETATM    8  C8  UNL     1       9.281  17.722  17.012  1.00  0.00     0.083 C 
HETATM    9  C9  UNL     1      10.801  17.599  16.910  1.00  0.00     0.072 C 
HETATM   10  C10 UNL     1      10.517  16.146  16.617  1.00  0.00    -0.042 C 
HETATM   11  C11 UNL     1      10.848  14.982  16.110  1.00  0.00     0.019 C 
HETATM   12  C12 UNL     1       9.956  13.793  16.185  1.00  0.00     0.103 C 
HETATM   13  C13 UNL     1      10.494  12.842  17.191  1.00  0.00     0.053 C 
HETATM   14  C14 UNL     1       8.519  14.188  16.350  1.00  0.00     0.089 C 
HETATM   15  C15 UNL     1       7.825  13.160  17.209  1.00  0.00     0.049 C 
HETATM   16  C16 UNL     1       7.857  14.000  14.966  1.00  0.00     0.049 C 
HETATM   17  O3  UNL     1       8.291  15.487  16.656  1.00  0.00    -0.360 OA
HETATM   18  C17 UNL     1       9.195  16.219  17.330  1.00  0.00     0.108 C 
HETATM   19  C18 UNL     1       9.188  15.903  18.791  1.00  0.00     0.054 C 
HETATM   20  N1  UNL     1       8.831  18.663  17.934  1.00  0.00    -0.272 N 
HETATM   21  C19 UNL     1       9.458  19.038  19.152  1.00  0.00     0.367 C 
HETATM   22  O4  UNL     1      10.527  18.589  19.624  1.00  0.00    -0.238 OA
ENDROOT
BRANCH   3  23
HETATM   23  O1  UNL     1       7.815  20.798  18.061  1.00  0.00    -0.361 OA
ATOM     24  H1  UNL     1       8.534  20.782  18.681  1.00  0.00     0.213 HD
ENDBRANCH   3  23
BRANCH  21  25
HETATM   25  O5  UNL     1       8.906  20.023  20.019  1.00  0.00    -0.294 OA
BRANCH  25  26
HETATM   26  C20 UNL     1       8.879  19.836  21.432  1.00  0.00     0.061 C 
HETATM   27  C21 UNL     1       8.833  18.362  21.783  1.00  0.00     0.046 C 
HETATM   28  C22 UNL     1       7.613  20.458  21.963  1.00  0.00     0.046 C 
HETATM   29  C23 UNL     1      10.107  20.503  22.012  1.00  0.00     0.046 C 
ENDBRANCH  25  26
ENDBRANCH  21  25
BRANCH  12  30
HETATM   30  O2  UNL     1      10.136  13.141  14.929  1.00  0.00    -0.383 OA
ATOM     31  H2  UNL     1       9.809  12.261  15.074  1.00  0.00     0.211 HD
ENDBRANCH  12  30
TORSDOF 4
ENDMDL
MODEL 3
REMARK VINA RESULT: -4.413204574      0.808      1.115
REMARK  4 active torsions:
REMARK  status: ('A' for Active; 'I' for Inactive)
REMARK    1  A    between atoms: C3_3  and  O1_4 
REMARK    2  A    between atoms: C12_14  and  O2_16 
REMARK       I    between atoms: N1_24  and  C19_25 
REMARK    3  A    between atoms: C19_25  and  O5_27 
REMARK    4  A    between atoms: O5_27  and  C20_28 
ROOT
HETATM    1  C1  UNL     1       6.296  14.204  16.075  1.00  0.00     0.102 C 
HETATM    2  C2  UNL     1       7.453  14.557  15.894  1.00  0.00    -0.128 C 
HETATM    3  C3  UNL     1       8.838  14.983  15.683  1.00  0.00     0.193 C 
HETATM    4  C4  UNL     1       9.754  14.113  16.432  1.00  0.00     0.075 C 
HETATM    5  C5  UNL     1      10.079  14.612  17.818  1.00  0.00     0.013 C 
HETATM    6  C6  UNL     1      10.694  15.947  17.673  1.00  0.00     0.014 C 
HETATM    7  C7  UNL     1      11.968  15.934  16.849  1.00  0.00     0.012 C 
HETATM    8  C8  UNL     1       9.678  16.920  17.084  1.00  0.00     0.083 C 
HETATM    9  C9  UNL     1      10.367  18.267  16.869  1.00  0.00     0.072 C 
HETATM   10  C10 UNL     1      10.067  18.488  18.332  1.00  0.00    -0.042 C 
HETATM   11  C11 UNL     1      10.294  19.073  19.483  1.00  0.00     0.019 C 
HETATM   12  C12 UNL     1       9.503  18.769  20.707  1.00  0.00     0.103 C 
HETATM   13  C13 UNL     1       8.583  19.902  20.987  1.00  0.00     0.053 C 
HETATM   14  C14 UNL     1       8.876  17.410  20.637  1.00  0.00     0.089 C 
HETATM   15  C15 UNL     1       7.543  17.449  21.342  1.00  0.00     0.049 C 
HETATM   16  C16 UNL     1       9.731  16.493  21.543  1.00  0.00     0.049 C 
HETATM   17  O3  UNL     1       8.904  16.803  19.427  1.00  0.00    -0.360 OA
HETATM   18  C17 UNL     1       8.923  17.513  18.286  1.00  0.00     0.108 C 
HETATM   19  C18 UNL     1       7.573  18.059  17.950  1.00  0.00     0.054 C 
HETATM   20  N1  UNL     1       8.978  16.438  15.982  1.00  0.00    -0.272 N 
HETATM   21  C19 UNL     1       8.308  17.203  14.990  1.00  0.00     0.367 C 
HETATM   22  O4  UNL     1       8.217  18.449  14.927  1.00  0.00    -0.238 OA
ENDROOT
BRANCH   3  23
HETATM   23  O1  UNL     1       9.079  14.768  14.305  1.00  0.00    -0.361 OA
ATOM     24  H1  UNL     1       8.272  14.394  13.971  1.00  0.00     0.213 HD
ENDBRANCH   3  23
BRANCH  21  25
HETATM   25  O5  UNL     1       7.626  16.598  13.897  1.00  0.00    -0.294 OA
BRANCH  25  26
HETATM   26  C20 UNL     1       7.251  17.354  12.747  1.00  0.00     0.061 C 
HETATM   27  C21 UNL     1       8.421  18.166  12.228  1.00  0.00     0.046 C 
HETATM   28  C22 UNL     1       6.181  18.333  13.159  1.00  0.00     0.046 C 
HETATM   29  C23 UNL     1       6.742  16.387  11.701  1.00  0.00     0.046 C 
ENDBRANCH  25  26
ENDBRANCH  21  25
BRANCH  12  30
HETATM   30  O2  UNL     1      10.462  18.806  21.762  1.00  0.00    -0.383 OA
ATOM     31  H2  UNL     1       9.958  18.609  22.542  1.00  0.00     0.211 HD
ENDBRANCH  12  30
TORSDOF 4
ENDMDL
MODEL 4
REMARK VINA RESULT: -3.029948646      1.500      6.253
REMARK  4 active torsions:
REMARK  status: ('A' for Active; 'I' for Inactive)
REMARK    1  A    between atoms: C3_3  and  O1_4 
REMARK    2  A    between atoms: C12_14  and  O2_16 
REMARK       I    between atoms: N1_24  and  C19_25 
REMARK    3  A    between atoms: C19_25  and  O5_27 
REMARK    4  A    between atoms: O5_27  and  C20_28 
ROOT
HETATM    1  C1  UNL     1      11.275  18.952  18.818  1.00  0.00     0.102 C 
HETATM    2  C2  UNL     1      10.601  17.932  18.785  1.00  0.00    -0.128 C 
HETATM    3  C3  UNL     1       9.793  16.712  18.739  1.00  0.00     0.193 C 
HETATM    4  C4  UNL     1      10.487  15.674  17.966  1.00  0.00     0.075 C 
HETATM    5  C5  UNL     1      10.133  15.661  16.499  1.00  0.00     0.013 C 
HETATM    6  C6  UNL     1       8.675  15.442  16.400  1.00  0.00     0.014 C 
HETATM    7  C7  UNL     1       8.222  14.134  17.022  1.00  0.00     0.012 C 
HETATM    8  C8  UNL     1       7.934  16.621  17.019  1.00  0.00     0.083 C 
HETATM    9  C9  UNL     1       6.435  16.328  16.976  1.00  0.00     0.072 C 
HETATM   10  C10 UNL     1       6.525  16.838  15.558  1.00  0.00    -0.042 C 
HETATM   11  C11 UNL     1       6.079  16.917  14.327  1.00  0.00     0.019 C 
HETATM   12  C12 UNL     1       6.764  17.718  13.277  1.00  0.00     0.103 C 
HETATM   13  C13 UNL     1       5.976  18.949  13.010  1.00  0.00     0.053 C 
HETATM   14  C14 UNL     1       8.216  17.918  13.591  1.00  0.00     0.089 C 
HETATM   15  C15 UNL     1       8.642  19.276  13.092  1.00  0.00     0.049 C 
HETATM   16  C16 UNL     1       8.994  16.942  12.678  1.00  0.00     0.049 C 
HETATM   17  O3  UNL     1       8.604  17.584  14.845  1.00  0.00    -0.360 OA
HETATM   18  C17 UNL     1       7.753  17.643  15.883  1.00  0.00     0.108 C 
HETATM   19  C18 UNL     1       7.545  19.047  16.352  1.00  0.00     0.054 C 
HETATM   20  N1  UNL     1       8.416  17.028  18.260  1.00  0.00    -0.272 N 
HETATM   21  C19 UNL     1       7.719  17.775  19.247  1.00  0.00     0.367 C 
HETATM   22  O4  UNL     1       6.548  18.211  19.181  1.00  0.00    -0.238 OA
ENDROOT
BRANCH   3  23
HETATM   23  O1  UNL     1       9.726  16.269  20.081  1.00  0.00    -0.361 OA
ATOM     24  H1  UNL     1       8.821  16.011  20.208  1.00  0.00     0.213 HD
ENDBRANCH   3  23
BRANCH  21  25
HETATM   25  O5  UNL     1       8.314  18.130  20.491  1.00  0.00    -0.294 OA
BRANCH  25  26
HETATM   26  C20 UNL     1       8.300  19.476  20.962  1.00  0.00     0.061 C 
HETATM   27  C21 UNL     1       6.878  19.976  21.130  1.00  0.00     0.046 C 
HETATM   28  C22 UNL     1       8.953  20.345  19.918  1.00  0.00     0.046 C 
HETATM   29  C23 UNL     1       9.058  19.519  22.270  1.00  0.00     0.046 C 
ENDBRANCH  25  26
ENDBRANCH  21  25
BRANCH  12  30
HETATM   30  O2  UNL     1       6.630  16.932  12.094  1.00  0.00    -0.383 OA
ATOM     31  H2  UNL     1       7.344  17.222  11.539  1.00  0.00     0.211 HD
ENDBRANCH  12  30
TORSDOF 4
ENDMDL
