MODEL 1
REMARK VINA RESULT: -8.215296173      0.000      0.000
REMARK  3 active torsions:
REMARK  status: ('A' for Active; 'I' for Inactive)
REMARK    1  A    between atoms: C11_12  and  O2_13 
REMARK    2  A    between atoms: C18_21  and  O3_22 
REMARK    3  A    between atoms: O3_22  and  C19_23 
REMARK       I    between atoms: C19_23  and  N1_25 
ROOT
HETATM    1  C1  UNL     1       8.002  20.083  21.789  1.00  0.00     0.039 C 
HETATM    2  C2  UNL     1       8.751  18.778  21.565  1.00  0.00     0.120 C 
HETATM    3  C3  UNL     1       8.028  17.837  20.661  1.00  0.00     0.076 C 
HETATM    4  C4  UNL     1       9.007  17.649  19.497  1.00  0.00     0.189 C 
HETATM    5  C5  UNL     1      10.052  18.648  19.750  1.00  0.00     0.210 C 
HETATM    6  O1  UNL     1      10.025  18.958  21.099  1.00  0.00    -0.384 OA
HETATM    7  C6  UNL     1       8.231  17.784  18.237  1.00  0.00     0.032 C 
HETATM    8  C7  UNL     1       7.713  19.145  17.946  1.00  0.00     0.008 C 
HETATM    9  C8  UNL     1       8.081  19.637  16.549  1.00  0.00     0.013 C 
HETATM   10  C9  UNL     1       7.602  18.650  15.523  1.00  0.00    -0.010 C 
HETATM   11  C10 UNL     1       6.099  18.814  15.304  1.00  0.00     0.018 C 
HETATM   12  C11 UNL     1       8.257  18.885  14.184  1.00  0.00     0.127 C 
HETATM   13  C12 UNL     1       8.108  17.547  13.504  1.00  0.00     0.033 C 
HETATM   14  C13 UNL     1       8.516  16.599  14.641  1.00  0.00     0.013 C 
HETATM   15  C14 UNL     1       7.934  17.218  15.890  1.00  0.00    -0.030 C 
HETATM   16  C15 UNL     1       6.716  16.449  16.283  1.00  0.00     0.016 C 
HETATM   17  C16 UNL     1       8.975  17.271  17.016  1.00  0.00     0.005 C 
HETATM   18  C17 UNL     1       9.593  15.927  17.244  1.00  0.00     0.070 C 
HETATM   19  C18 UNL     1      10.385  15.942  18.512  1.00  0.00     0.369 C 
HETATM   20  N2  UNL     1       9.538  16.327  19.600  1.00  0.00     0.126 N 
HETATM   21  C22 UNL     1      10.224  16.062  20.838  1.00  0.00     0.314 C 
ENDROOT
BRANCH  19  22
HETATM   22  O3  UNL     1      10.793  14.588  18.765  1.00  0.00    -0.267 OA
BRANCH  22  23
HETATM   23  C19 UNL     1      11.847  14.026  18.058  1.00  0.00     0.364 C 
HETATM   24  O4  UNL     1      13.025  14.271  18.415  1.00  0.00    -0.238 OA
HETATM   25  N1  UNL     1      11.612  13.182  16.944  1.00  0.00    -0.337 N 
HETATM   26  C20 UNL     1      12.731  12.615  16.234  1.00  0.00     0.154 C 
HETATM   27  C21 UNL     1      10.229  12.913  16.550  1.00  0.00     0.154 C 
ENDBRANCH  22  23
ENDBRANCH  19  22
BRANCH  12  28
HETATM   28  O2  UNL     1       7.572  19.819  13.409  1.00  0.00    -0.395 OA
ATOM     29  H2  UNL     1       7.270  19.459  12.585  1.00  0.00     0.210 HD
ENDBRANCH  12  28
TORSDOF 3
ENDMDL
MODEL 2
REMARK VINA RESULT: -7.515585443      2.053      6.224
REMARK  3 active torsions:
REMARK  status: ('A' for Active; 'I' for Inactive)
REMARK    1  A    between atoms: C11_12  and  O2_13 
REMARK    2  A    between atoms: C18_21  and  O3_22 
REMARK    3  A    between atoms: O3_22  and  C19_23 
REMARK       I    between atoms: C19_23  and  N1_25 
ROOT
HETATM    1  C1  UNL     1       6.498  17.775  13.223  1.00  0.00     0.039 C 
HETATM    2  C2  UNL     1       6.691  18.507  14.543  1.00  0.00     0.120 C 
HETATM    3  C3  UNL     1       6.697  17.592  15.722  1.00  0.00     0.076 C 
HETATM    4  C4  UNL     1       8.085  17.818  16.332  1.00  0.00     0.189 C 
HETATM    5  C5  UNL     1       8.778  18.643  15.336  1.00  0.00     0.210 C 
HETATM    6  O1  UNL     1       7.817  19.283  14.572  1.00  0.00    -0.384 OA
HETATM    7  C6  UNL     1       8.663  16.482  16.627  1.00  0.00     0.032 C 
HETATM    8  C7  UNL     1       9.013  15.659  15.442  1.00  0.00     0.008 C 
HETATM    9  C8  UNL     1      10.446  15.135  15.482  1.00  0.00     0.013 C 
HETATM   10  C9  UNL     1      10.669  14.367  16.753  1.00  0.00    -0.010 C 
HETATM   11  C10 UNL     1      10.047  12.976  16.637  1.00  0.00     0.018 C 
HETATM   12  C11 UNL     1      12.139  14.156  17.020  1.00  0.00     0.127 C 
HETATM   13  C12 UNL     1      12.172  13.908  18.507  1.00  0.00     0.033 C 
HETATM   14  C13 UNL     1      11.234  15.016  19.007  1.00  0.00     0.013 C 
HETATM   15  C14 UNL     1      10.135  15.089  17.973  1.00  0.00    -0.030 C 
HETATM   16  C15 UNL     1       8.916  14.423  18.523  1.00  0.00     0.016 C 
HETATM   17  C16 UNL     1       9.865  16.540  17.556  1.00  0.00     0.005 C 
HETATM   18  C17 UNL     1       9.624  17.410  18.750  1.00  0.00     0.070 C 
HETATM   19  C18 UNL     1       9.094  18.738  18.312  1.00  0.00     0.369 C 
HETATM   20  N2  UNL     1       7.898  18.546  17.548  1.00  0.00     0.126 N 
HETATM   21  C22 UNL     1       7.247  19.818  17.379  1.00  0.00     0.314 C 
ENDROOT
BRANCH  19  22
HETATM   22  O3  UNL     1       8.714  19.448  19.501  1.00  0.00    -0.267 OA
BRANCH  22  23
HETATM   23  C19 UNL     1       9.646  20.203  20.199  1.00  0.00     0.364 C 
HETATM   24  O4  UNL     1      10.728  20.509  19.640  1.00  0.00    -0.238 OA
HETATM   25  N1  UNL     1       9.394  20.633  21.526  1.00  0.00    -0.337 N 
HETATM   26  C20 UNL     1      10.386  21.417  22.219  1.00  0.00     0.154 C 
HETATM   27  C21 UNL     1       8.125  20.262  22.152  1.00  0.00     0.154 C 
ENDBRANCH  22  23
ENDBRANCH  19  22
BRANCH  12  28
HETATM   28  O2  UNL     1      12.638  13.014  16.399  1.00  0.00    -0.395 OA
ATOM     29  H2  UNL     1      13.575  13.059  16.249  1.00  0.00     0.210 HD
ENDBRANCH  12  28
TORSDOF 3
ENDMDL
MODEL 3
REMARK VINA RESULT: -7.430478398      1.058      1.276
REMARK  3 active torsions:
REMARK  status: ('A' for Active; 'I' for Inactive)
REMARK    1  A    between atoms: C11_12  and  O2_13 
REMARK    2  A    between atoms: C18_21  and  O3_22 
REMARK    3  A    between atoms: O3_22  and  C19_23 
REMARK       I    between atoms: C19_23  and  N1_25 
ROOT
HETATM    1  C1  UNL     1       7.682  19.947  20.904  1.00  0.00     0.039 C 
HETATM    2  C2  UNL     1       8.433  18.632  20.753  1.00  0.00     0.120 C 
HETATM    3  C3  UNL     1       7.728  17.653  19.876  1.00  0.00     0.076 C 
HETATM    4  C4  UNL     1       8.730  17.414  18.742  1.00  0.00     0.189 C 
HETATM    5  C5  UNL     1       9.772  18.422  18.973  1.00  0.00     0.210 C 
HETATM    6  O1  UNL     1       9.717  18.790  20.307  1.00  0.00    -0.384 OA
HETATM    7  C6  UNL     1       7.980  17.494  17.462  1.00  0.00     0.032 C 
HETATM    8  C7  UNL     1       7.471  18.841  17.101  1.00  0.00     0.008 C 
HETATM    9  C8  UNL     1       7.869  19.271  15.691  1.00  0.00     0.013 C 
HETATM   10  C9  UNL     1       7.410  18.241  14.700  1.00  0.00    -0.010 C 
HETATM   11  C10 UNL     1       5.912  18.396  14.443  1.00  0.00     0.018 C 
HETATM   12  C11 UNL     1       8.093  18.417  13.366  1.00  0.00     0.127 C 
HETATM   13  C12 UNL     1       7.956  17.051  12.742  1.00  0.00     0.033 C 
HETATM   14  C13 UNL     1       8.338  16.152  13.927  1.00  0.00     0.013 C 
HETATM   15  C14 UNL     1       7.732  16.826  15.136  1.00  0.00    -0.030 C 
HETATM   16  C15 UNL     1       6.505  16.076  15.537  1.00  0.00     0.016 C 
HETATM   17  C16 UNL     1       8.749  16.928  16.279  1.00  0.00     0.005 C 
HETATM   18  C17 UNL     1       9.360  15.594  16.580  1.00  0.00     0.070 C 
HETATM   19  C18 UNL     1      10.126  15.663  17.862  1.00  0.00     0.369 C 
HETATM   20  N2  UNL     1       9.256  16.096  18.914  1.00  0.00     0.126 N 
HETATM   21  C22 UNL     1       9.916  15.886  20.176  1.00  0.00     0.314 C 
ENDROOT
BRANCH  19  22
HETATM   22  O3  UNL     1      10.526  14.322  18.182  1.00  0.00    -0.267 OA
BRANCH  22  23
HETATM   23  C19 UNL     1      11.043  13.488  17.201  1.00  0.00     0.364 C 
HETATM   24  O4  UNL     1      10.381  12.485  16.837  1.00  0.00    -0.238 OA
HETATM   25  N1  UNL     1      12.302  13.752  16.606  1.00  0.00    -0.337 N 
HETATM   26  C20 UNL     1      12.807  12.864  15.589  1.00  0.00     0.154 C 
HETATM   27  C21 UNL     1      13.052  14.927  17.049  1.00  0.00     0.154 C 
ENDBRANCH  22  23
ENDBRANCH  19  22
BRANCH  12  28
HETATM   28  O2  UNL     1       7.426  19.317  12.537  1.00  0.00    -0.395 OA
ATOM     29  H2  UNL     1       7.888  19.474  11.722  1.00  0.00     0.210 HD
ENDBRANCH  12  28
TORSDOF 3
ENDMDL
MODEL 4
REMARK VINA RESULT: -7.124044289      2.012      6.109
REMARK  3 active torsions:
REMARK  status: ('A' for Active; 'I' for Inactive)
REMARK    1  A    between atoms: C11_12  and  O2_13 
REMARK    2  A    between atoms: C18_21  and  O3_22 
REMARK    3  A    between atoms: O3_22  and  C19_23 
REMARK       I    between atoms: C19_23  and  N1_25 
ROOT
HETATM    1  C1  UNL     1       6.339  17.280  12.891  1.00  0.00     0.039 C 
HETATM    2  C2  UNL     1       6.697  18.208  14.043  1.00  0.00     0.120 C 
HETATM    3  C3  UNL     1       6.750  17.509  15.360  1.00  0.00     0.076 C 
HETATM    4  C4  UNL     1       8.199  17.725  15.811  1.00  0.00     0.189 C 
HETATM    5  C5  UNL     1       8.852  18.311  14.635  1.00  0.00     0.210 C 
HETATM    6  O1  UNL     1       7.869  18.886  13.847  1.00  0.00    -0.384 OA
HETATM    7  C6  UNL     1       8.714  16.416  16.291  1.00  0.00     0.032 C 
HETATM    8  C7  UNL     1       8.902  15.379  15.246  1.00  0.00     0.008 C 
HETATM    9  C8  UNL     1      10.295  14.757  15.265  1.00  0.00     0.013 C 
HETATM   10  C9  UNL     1      10.582  14.201  16.631  1.00  0.00    -0.010 C 
HETATM   11  C10 UNL     1       9.864  12.864  16.809  1.00  0.00     0.018 C 
HETATM   12  C11 UNL     1      12.054  13.923  16.815  1.00  0.00     0.127 C 
HETATM   13  C12 UNL     1      12.205  13.928  18.316  1.00  0.00     0.033 C 
HETATM   14  C13 UNL     1      11.389  15.176  18.684  1.00  0.00     0.013 C 
HETATM   15  C14 UNL     1      10.208  15.159  17.743  1.00  0.00    -0.030 C 
HETATM   16  C15 UNL     1       9.004  14.696  18.494  1.00  0.00     0.016 C 
HETATM   17  C16 UNL     1       9.996  16.535  17.099  1.00  0.00     0.005 C 
HETATM   18  C17 UNL     1       9.921  17.612  18.137  1.00  0.00     0.070 C 
HETATM   19  C18 UNL     1       9.440  18.884  17.515  1.00  0.00     0.369 C 
HETATM   20  N2  UNL     1       8.171  18.660  16.891  1.00  0.00     0.126 N 
HETATM   21  C22 UNL     1       7.591  19.933  16.552  1.00  0.00     0.314 C 
ENDROOT
BRANCH  19  22
HETATM   22  O3  UNL     1       9.216  19.813  18.586  1.00  0.00    -0.267 OA
BRANCH  22  23
HETATM   23  C19 UNL     1       9.464  19.446  19.901  1.00  0.00     0.364 C 
HETATM   24  O4  UNL     1      10.651  19.371  20.304  1.00  0.00    -0.238 OA
HETATM   25  N1  UNL     1       8.400  19.157  20.792  1.00  0.00    -0.337 N 
HETATM   26  C20 UNL     1       8.695  18.779  22.152  1.00  0.00     0.154 C 
HETATM   27  C21 UNL     1       7.027  19.253  20.297  1.00  0.00     0.154 C 
ENDBRANCH  22  23
ENDBRANCH  19  22
BRANCH  12  28
HETATM   28  O2  UNL     1      12.420  12.655  16.368  1.00  0.00    -0.395 OA
ATOM     29  H2  UNL     1      13.194  12.323  16.806  1.00  0.00     0.210 HD
ENDBRANCH  12  28
TORSDOF 3
ENDMDL
MODEL 5
REMARK VINA RESULT: -6.804603940      1.659      5.001
REMARK  3 active torsions:
REMARK  status: ('A' for Active; 'I' for Inactive)
REMARK    1  A    between atoms: C11_12  and  O2_13 
REMARK    2  A    between atoms: C18_21  and  O3_22 
REMARK    3  A    between atoms: O3_22  and  C19_23 
REMARK       I    between atoms: C19_23  and  N1_25 
ROOT
HETATM    1  C1  UNL     1       7.194  19.494  13.103  1.00  0.00     0.039 C 
HETATM    2  C2  UNL     1       7.568  18.054  13.424  1.00  0.00     0.120 C 
HETATM    3  C3  UNL     1       8.735  17.945  14.345  1.00  0.00     0.076 C 
HETATM    4  C4  UNL     1       8.157  17.205  15.557  1.00  0.00     0.189 C 
HETATM    5  C5  UNL     1       6.713  17.173  15.294  1.00  0.00     0.210 C 
HETATM    6  O1  UNL     1       6.526  17.325  13.930  1.00  0.00    -0.384 OA
HETATM    7  C6  UNL     1       8.609  17.924  16.775  1.00  0.00     0.032 C 
HETATM    8  C7  UNL     1       8.028  19.276  16.974  1.00  0.00     0.008 C 
HETATM    9  C8  UNL     1       7.411  19.462  18.357  1.00  0.00     0.013 C 
HETATM   10  C9  UNL     1       8.435  19.158  19.413  1.00  0.00    -0.010 C 
HETATM   11  C10 UNL     1       9.395  20.337  19.563  1.00  0.00     0.018 C 
HETATM   12  C11 UNL     1       7.792  18.958  20.763  1.00  0.00     0.127 C 
HETATM   13  C12 UNL     1       8.827  18.150  21.505  1.00  0.00     0.033 C 
HETATM   14  C13 UNL     1       9.206  17.114  20.437  1.00  0.00     0.013 C 
HETATM   15  C14 UNL     1       9.199  17.880  19.135  1.00  0.00    -0.030 C 
HETATM   16  C15 UNL     1      10.611  18.154  18.733  1.00  0.00     0.016 C 
HETATM   17  C16 UNL     1       8.425  17.120  18.051  1.00  0.00     0.005 C 
HETATM   18  C17 UNL     1       8.923  15.713  17.917  1.00  0.00     0.070 C 
HETATM   19  C18 UNL     1       8.354  15.089  16.683  1.00  0.00     0.369 C 
HETATM   20  N2  UNL     1       8.700  15.884  15.543  1.00  0.00     0.126 N 
HETATM   21  C22 UNL     1       8.403  15.136  14.350  1.00  0.00     0.314 C 
ENDROOT
BRANCH  19  22
HETATM   22  O3  UNL     1       9.009  13.822  16.518  1.00  0.00    -0.267 OA
BRANCH  22  23
HETATM   23  C19 UNL     1      10.393  13.734  16.552  1.00  0.00     0.364 C 
HETATM   24  O4  UNL     1      11.079  14.743  16.256  1.00  0.00    -0.238 OA
HETATM   25  N1  UNL     1      11.040  12.527  16.916  1.00  0.00    -0.337 N 
HETATM   26  C20 UNL     1      12.481  12.473  16.942  1.00  0.00     0.154 C 
HETATM   27  C21 UNL     1      10.217  11.366  17.256  1.00  0.00     0.154 C 
ENDBRANCH  22  23
ENDBRANCH  19  22
BRANCH  12  28
HETATM   28  O2  UNL     1       7.624  20.152  21.460  1.00  0.00    -0.395 OA
ATOM     29  H2  UNL     1       8.261  20.262  22.156  1.00  0.00     0.210 HD
ENDBRANCH  12  28
TORSDOF 3
ENDMDL
