MODEL 1
REMARK VINA RESULT: -8.495469434      0.000      0.000
REMARK  2 active torsions:
REMARK  status: ('A' for Active; 'I' for Inactive)
REMARK    1  A    between atoms: C5_5  and  O1_6 
REMARK    2  A    between atoms: C5_5  and  N1_8 
ROOT
HETATM    1  C1  UNL     1       6.101  18.120  13.879  1.00  0.00     0.013 C 
HETATM    2  C2  UNL     1       7.488  17.787  14.444  1.00  0.00     0.026 C 
HETATM    3  C3  UNL     1       8.192  16.862  13.546  1.00  0.00     0.012 C 
HETATM    4  C4  UNL     1       8.057  15.422  13.782  1.00  0.00     0.072 C 
HETATM    5  C5  UNL     1       7.920  14.994  15.287  1.00  0.00     0.267 C 
HETATM    6  C8  UNL     1       8.424  16.177  16.033  1.00  0.00     0.125 C 
HETATM    7  C9  UNL     1       9.109  16.136  17.320  1.00  0.00     0.142 C 
HETATM    8  O2  UNL     1      10.428  16.687  17.265  1.00  0.00    -0.382 OA
HETATM    9  C10 UNL     1      10.552  17.873  16.632  1.00  0.00     0.200 C 
HETATM   10  C11 UNL     1       9.700  18.979  17.190  1.00  0.00     0.149 C 
HETATM   11  C12 UNL     1       9.943  18.863  18.679  1.00  0.00     0.040 C 
HETATM   12  C13 UNL     1       9.497  17.611  19.327  1.00  0.00     0.007 C 
HETATM   13  C14 UNL     1       9.006  18.026  20.703  1.00  0.00    -0.043 C 
HETATM   14  C15 UNL     1       9.877  19.219  21.163  1.00  0.00     0.015 C 
HETATM   15  C16 UNL     1       9.252  16.984  21.775  1.00  0.00     0.015 C 
HETATM   16  C17 UNL     1       7.600  18.541  20.656  1.00  0.00     0.010 C 
HETATM   17  C18 UNL     1       7.014  18.675  19.280  1.00  0.00     0.012 C 
HETATM   18  C19 UNL     1       7.320  17.642  18.284  1.00  0.00     0.065 C 
HETATM   19  C20 UNL     1       8.509  16.779  18.546  1.00  0.00    -0.004 C 
HETATM   20  C21 UNL     1       7.997  15.638  19.423  1.00  0.00     0.019 C 
HETATM   21  C22 UNL     1       7.507  18.252  16.942  1.00  0.00     0.237 C 
HETATM   22  O3  UNL     1       6.253  18.529  16.402  1.00  0.00    -0.196 OA
HETATM   23  O4  UNL     1       6.152  17.193  16.255  1.00  0.00    -0.220 OA
HETATM   24  C23 UNL     1       7.438  17.265  15.827  1.00  0.00     0.169 C 
HETATM   25  O5  UNL     1       8.462  19.161  16.784  1.00  0.00    -0.342 OA
ENDROOT
BRANCH   5  26
HETATM   26  O1  UNL     1       6.589  14.695  15.421  1.00  0.00    -0.362 OA
ATOM     27  H1  UNL     1       6.582  13.966  16.030  1.00  0.00     0.212 HD
ENDBRANCH   5  26
BRANCH   5  28
HETATM   28  N1  UNL     1       8.662  13.742  15.409  1.00  0.00     0.115 N 
HETATM   29  C6  UNL     1       8.235  13.111  16.710  1.00  0.00     0.313 C 
HETATM   30  C7  UNL     1      10.081  13.972  15.762  1.00  0.00     0.313 C 
ENDBRANCH   5  28
TORSDOF 2
ENDMDL
MODEL 2
REMARK VINA RESULT: -8.063525242      1.049      1.263
REMARK  2 active torsions:
REMARK  status: ('A' for Active; 'I' for Inactive)
REMARK    1  A    between atoms: C5_5  and  O1_6 
REMARK    2  A    between atoms: C5_5  and  N1_8 
ROOT
HETATM    1  C1  UNL     1       6.454  17.779  14.499  1.00  0.00     0.013 C 
HETATM    2  C2  UNL     1       7.818  17.679  15.196  1.00  0.00     0.026 C 
HETATM    3  C3  UNL     1       8.651  16.664  14.536  1.00  0.00     0.012 C 
HETATM    4  C4  UNL     1       8.606  15.289  15.040  1.00  0.00     0.072 C 
HETATM    5  C5  UNL     1       8.393  15.144  16.589  1.00  0.00     0.267 C 
HETATM    6  C8  UNL     1       8.753  16.486  17.118  1.00  0.00     0.125 C 
HETATM    7  C9  UNL     1       9.344  16.749  18.425  1.00  0.00     0.142 C 
HETATM    8  O2  UNL     1      10.620  17.390  18.339  1.00  0.00    -0.382 OA
HETATM    9  C10 UNL     1      10.702  18.441  17.495  1.00  0.00     0.200 C 
HETATM   10  C11 UNL     1       9.733  19.555  17.778  1.00  0.00     0.149 C 
HETATM   11  C12 UNL     1       9.876  19.745  19.272  1.00  0.00     0.040 C 
HETATM   12  C13 UNL     1       9.477  18.605  20.125  1.00  0.00     0.007 C 
HETATM   13  C14 UNL     1       8.859  19.229  21.364  1.00  0.00    -0.043 C 
HETATM   14  C15 UNL     1       9.605  20.558  21.632  1.00  0.00     0.015 C 
HETATM   15  C16 UNL     1       9.103  18.434  22.631  1.00  0.00     0.015 C 
HETATM   16  C17 UNL     1       7.427  19.603  21.139  1.00  0.00     0.010 C 
HETATM   17  C18 UNL     1       6.933  19.423  19.731  1.00  0.00     0.012 C 
HETATM   18  C19 UNL     1       7.385  18.251  18.975  1.00  0.00     0.065 C 
HETATM   19  C20 UNL     1       8.612  17.558  19.467  1.00  0.00    -0.004 C 
HETATM   20  C21 UNL     1       8.124  16.565  20.519  1.00  0.00     0.019 C 
HETATM   21  C22 UNL     1       7.623  18.608  17.552  1.00  0.00     0.237 C 
HETATM   22  O3  UNL     1       6.394  18.669  16.899  1.00  0.00    -0.196 OA
HETATM   23  O4  UNL     1       6.403  17.326  17.009  1.00  0.00    -0.220 OA
HETATM   24  C23 UNL     1       7.707  17.426  16.649  1.00  0.00     0.169 C 
HETATM   25  O5  UNL     1       8.517  19.550  17.274  1.00  0.00    -0.342 OA
ENDROOT
BRANCH   5  26
HETATM   26  O1  UNL     1       7.081  14.762  16.703  1.00  0.00    -0.362 OA
ATOM     27  H1  UNL     1       7.006  14.031  16.101  1.00  0.00     0.212 HD
ENDBRANCH   5  26
BRANCH   5  28
HETATM   28  N1  UNL     1       9.213  14.006  16.995  1.00  0.00     0.115 N 
HETATM   29  C6  UNL     1      10.623  14.310  16.556  1.00  0.00     0.313 C 
HETATM   30  C7  UNL     1       8.991  12.827  16.128  1.00  0.00     0.313 C 
ENDBRANCH   5  28
TORSDOF 2
ENDMDL
MODEL 3
REMARK VINA RESULT: -8.046247286      2.304      4.671
REMARK  2 active torsions:
REMARK  status: ('A' for Active; 'I' for Inactive)
REMARK    1  A    between atoms: C5_5  and  O1_6 
REMARK    2  A    between atoms: C5_5  and  N1_8 
ROOT
HETATM    1  C1  UNL     1       7.639  19.236  14.719  1.00  0.00     0.013 C 
HETATM    2  C2  UNL     1       7.368  17.994  15.578  1.00  0.00     0.026 C 
HETATM    3  C3  UNL     1       6.068  18.118  16.252  1.00  0.00     0.012 C 
HETATM    4  C4  UNL     1       6.031  18.709  17.592  1.00  0.00     0.072 C 
HETATM    5  C5  UNL     1       7.281  18.414  18.496  1.00  0.00     0.267 C 
HETATM    6  C8  UNL     1       7.914  17.239  17.842  1.00  0.00     0.125 C 
HETATM    7  C9  UNL     1       8.659  16.189  18.528  1.00  0.00     0.142 C 
HETATM    8  O2  UNL     1       8.082  14.892  18.350  1.00  0.00    -0.382 OA
HETATM    9  C10 UNL     1       7.736  14.562  17.088  1.00  0.00     0.200 C 
HETATM   10  C11 UNL     1       8.858  14.621  16.089  1.00  0.00     0.149 C 
HETATM   11  C12 UNL     1       9.974  13.892  16.804  1.00  0.00     0.040 C 
HETATM   12  C13 UNL     1      10.477  14.510  18.050  1.00  0.00     0.007 C 
HETATM   13  C14 UNL     1      11.969  14.226  18.062  1.00  0.00    -0.043 C 
HETATM   14  C15 UNL     1      12.183  12.851  17.388  1.00  0.00     0.015 C 
HETATM   15  C16 UNL     1      12.536  14.021  19.453  1.00  0.00     0.015 C 
HETATM   16  C17 UNL     1      12.726  15.212  17.228  1.00  0.00     0.010 C 
HETATM   17  C18 UNL     1      11.878  16.178  16.451  1.00  0.00     0.012 C 
HETATM   18  C19 UNL     1      10.668  16.713  17.084  1.00  0.00     0.065 C 
HETATM   19  C20 UNL     1      10.126  15.963  18.254  1.00  0.00    -0.004 C 
HETATM   20  C21 UNL     1      10.878  16.504  19.468  1.00  0.00     0.019 C 
HETATM   21  C22 UNL     1       9.569  16.833  16.091  1.00  0.00     0.237 C 
HETATM   22  O3  UNL     1       9.786  17.977  15.326  1.00  0.00    -0.196 OA
HETATM   23  O4  UNL     1       9.429  18.646  16.440  1.00  0.00    -0.220 OA
HETATM   24  C23 UNL     1       8.452  17.709  16.543  1.00  0.00     0.169 C 
HETATM   25  O5  UNL     1       9.159  15.738  15.462  1.00  0.00    -0.342 OA
ENDROOT
BRANCH   5  26
HETATM   26  O1  UNL     1       7.983  19.591  18.475  1.00  0.00    -0.362 OA
ATOM     27  H1  UNL     1       8.761  19.399  18.986  1.00  0.00     0.212 HD
ENDBRANCH   5  26
BRANCH   5  28
HETATM   28  N1  UNL     1       6.758  18.244  19.849  1.00  0.00     0.115 N 
HETATM   29  C6  UNL     1       5.981  19.494  20.173  1.00  0.00     0.313 C 
HETATM   30  C7  UNL     1       7.813  18.401  20.874  1.00  0.00     0.313 C 
ENDBRANCH   5  28
TORSDOF 2
ENDMDL
MODEL 4
REMARK VINA RESULT: -7.240871991      2.232      5.779
REMARK  2 active torsions:
REMARK  status: ('A' for Active; 'I' for Inactive)
REMARK    1  A    between atoms: C5_5  and  O1_6 
REMARK    2  A    between atoms: C5_5  and  N1_8 
ROOT
HETATM    1  C1  UNL     1       9.895  15.422  20.979  1.00  0.00     0.013 C 
HETATM    2  C2  UNL     1      10.008  16.667  20.088  1.00  0.00     0.026 C 
HETATM    3  C3  UNL     1      10.265  17.857  20.911  1.00  0.00     0.012 C 
HETATM    4  C4  UNL     1       9.119  18.640  21.381  1.00  0.00     0.072 C 
HETATM    5  C5  UNL     1       7.892  18.697  20.402  1.00  0.00     0.267 C 
HETATM    6  C8  UNL     1       8.470  18.291  19.094  1.00  0.00     0.125 C 
HETATM    7  C9  UNL     1       8.017  18.757  17.788  1.00  0.00     0.142 C 
HETATM    8  O2  UNL     1       9.040  19.437  17.055  1.00  0.00    -0.382 OA
HETATM    9  C10 UNL     1      10.247  18.833  17.016  1.00  0.00     0.200 C 
HETATM   10  C11 UNL     1      10.237  17.438  16.455  1.00  0.00     0.149 C 
HETATM   11  C12 UNL     1       9.406  17.594  15.200  1.00  0.00     0.040 C 
HETATM   12  C13 UNL     1       7.993  17.989  15.387  1.00  0.00     0.007 C 
HETATM   13  C14 UNL     1       7.224  17.251  14.305  1.00  0.00    -0.043 C 
HETATM   14  C15 UNL     1       8.151  17.144  13.072  1.00  0.00     0.015 C 
HETATM   15  C16 UNL     1       6.032  18.021  13.775  1.00  0.00     0.015 C 
HETATM   16  C17 UNL     1       6.917  15.842  14.709  1.00  0.00     0.010 C 
HETATM   17  C18 UNL     1       7.531  15.401  16.007  1.00  0.00     0.012 C 
HETATM   18  C19 UNL     1       7.584  16.357  17.117  1.00  0.00     0.065 C 
HETATM   19  C20 UNL     1       7.434  17.802  16.776  1.00  0.00    -0.004 C 
HETATM   20  C21 UNL     1       5.928  18.060  16.759  1.00  0.00     0.019 C 
HETATM   21  C22 UNL     1       8.859  16.214  17.868  1.00  0.00     0.237 C 
HETATM   22  O3  UNL     1       8.757  15.106  18.707  1.00  0.00    -0.196 OA
HETATM   23  O4  UNL     1       7.920  15.878  19.428  1.00  0.00    -0.220 OA
HETATM   24  C23 UNL     1       8.833  16.858  19.211  1.00  0.00     0.169 C 
HETATM   25  O5  UNL     1      10.003  16.393  17.219  1.00  0.00    -0.342 OA
ENDROOT
BRANCH   5  26
HETATM   26  O1  UNL     1       6.982  17.844  20.971  1.00  0.00    -0.362 OA
ATOM     27  H1  UNL     1       6.173  18.037  20.511  1.00  0.00     0.212 HD
ENDBRANCH   5  26
BRANCH   5  28
HETATM   28  N1  UNL     1       7.355  20.049  20.522  1.00  0.00     0.115 N 
HETATM   29  C6  UNL     1       7.557  20.471  21.955  1.00  0.00     0.313 C 
HETATM   30  C7  UNL     1       5.875  20.058  20.525  1.00  0.00     0.313 C 
ENDBRANCH   5  28
TORSDOF 2
ENDMDL
MODEL 5
REMARK VINA RESULT: -7.007427588      1.958      3.793
REMARK  2 active torsions:
REMARK  status: ('A' for Active; 'I' for Inactive)
REMARK    1  A    between atoms: C5_5  and  O1_6 
REMARK    2  A    between atoms: C5_5  and  N1_8 
ROOT
HETATM    1  C1  UNL     1       7.731  14.599  16.085  1.00  0.00     0.013 C 
HETATM    2  C2  UNL     1       7.141  15.979  16.409  1.00  0.00     0.026 C 
HETATM    3  C3  UNL     1       6.483  16.540  15.221  1.00  0.00     0.012 C 
HETATM    4  C4  UNL     1       7.268  17.395  14.327  1.00  0.00     0.072 C 
HETATM    5  C5  UNL     1       8.360  18.280  15.026  1.00  0.00     0.267 C 
HETATM    6  C8  UNL     1       7.940  18.292  16.452  1.00  0.00     0.125 C 
HETATM    7  C9  UNL     1       8.153  19.390  17.388  1.00  0.00     0.142 C 
HETATM    8  O2  UNL     1       6.932  19.915  17.917  1.00  0.00    -0.382 OA
HETATM    9  C10 UNL     1       6.035  19.007  18.357  1.00  0.00     0.200 C 
HETATM   10  C11 UNL     1       6.547  18.079  19.423  1.00  0.00     0.149 C 
HETATM   11  C12 UNL     1       7.228  19.027  20.386  1.00  0.00     0.040 C 
HETATM   12  C13 UNL     1       8.398  19.769  19.868  1.00  0.00     0.007 C 
HETATM   13  C14 UNL     1       9.356  19.874  21.041  1.00  0.00    -0.043 C 
HETATM   14  C15 UNL     1       8.503  19.984  22.326  1.00  0.00     0.015 C 
HETATM   15  C16 UNL     1      10.164  21.156  21.052  1.00  0.00     0.015 C 
HETATM   16  C17 UNL     1      10.174  18.630  21.199  1.00  0.00     0.010 C 
HETATM   17  C18 UNL     1       9.803  17.499  20.282  1.00  0.00     0.012 C 
HETATM   18  C19 UNL     1       9.428  17.813  18.899  1.00  0.00     0.065 C 
HETATM   19  C20 UNL     1       9.023  19.220  18.609  1.00  0.00    -0.004 C 
HETATM   20  C21 UNL     1      10.324  19.965  18.318  1.00  0.00     0.019 C 
HETATM   21  C22 UNL     1       8.317  16.934  18.448  1.00  0.00     0.237 C 
HETATM   22  O3  UNL     1       8.845  15.688  18.118  1.00  0.00    -0.196 OA
HETATM   23  O4  UNL     1       9.354  16.320  17.042  1.00  0.00    -0.220 OA
HETATM   24  C23 UNL     1       8.138  16.917  16.969  1.00  0.00     0.169 C 
HETATM   25  O5  UNL     1       7.172  16.962  19.118  1.00  0.00    -0.342 OA
ENDROOT
BRANCH   5  26
HETATM   26  O1  UNL     1       9.537  17.642  14.730  1.00  0.00    -0.362 OA
ATOM     27  H1  UNL     1       9.890  18.144  14.005  1.00  0.00     0.212 HD
ENDBRANCH   5  26
BRANCH   5  28
HETATM   28  N1  UNL     1       8.361  19.549  14.303  1.00  0.00     0.115 N 
HETATM   29  C6  UNL     1       7.282  19.451  13.255  1.00  0.00     0.313 C 
HETATM   30  C7  UNL     1       9.515  19.660  13.383  1.00  0.00     0.313 C 
ENDBRANCH   5  28
TORSDOF 2
ENDMDL
