MODEL 1
REMARK VINA RESULT: -5.776427980      0.000      0.000
REMARK  4 active torsions:
REMARK  status: ('A' for Active; 'I' for Inactive)
REMARK       I    between atoms: N1_2  and  C2_4 
REMARK       I    between atoms: C2_4  and  N2_6 
REMARK    1  A    between atoms: N2_6  and  N3_8 
REMARK    2  A    between atoms: N3_8  and  C3_10 
REMARK    3  A    between atoms: C3_10  and  O2_12 
REMARK    4  A    between atoms: O2_12  and  N4_13 
ROOT
HETATM    1  N4  UNL     1      12.563  44.749  36.858  1.00  0.00    -0.238 N 
ATOM      2  H4  UNL     1      12.975  43.928  37.300  1.00  0.00     0.196 HD
HETATM    3  C4  UNL     1      11.363  44.720  36.387  1.00  0.00     0.215 C 
HETATM    4  C5  UNL     1      10.564  43.520  36.471  1.00  0.00     0.131 C 
HETATM    5  N5  UNL     1       9.936  42.546  36.532  1.00  0.00    -0.189 NA
HETATM    6  C6  UNL     1      10.765  45.863  35.761  1.00  0.00     0.131 C 
HETATM    7  N6  UNL     1      10.259  46.790  35.256  1.00  0.00    -0.189 NA
ENDROOT
BRANCH   1   8
HETATM    8  O2  UNL     1      13.265  45.919  36.745  1.00  0.00    -0.204 OA
BRANCH   8   9
HETATM    9  C3  UNL     1      13.822  46.558  37.830  1.00  0.00     0.254 C 
HETATM   10  S1  UNL     1      12.914  46.879  39.124  1.00  0.00    -0.029 SA
BRANCH   9  11
HETATM   11  N3  UNL     1      15.180  46.923  37.796  1.00  0.00    -0.265 N 
ATOM     12  H3  UNL     1      15.539  47.665  38.399  1.00  0.00     0.190 HD
BRANCH  11  13
HETATM   13  N2  UNL     1      16.031  46.235  36.906  1.00  0.00    -0.249 N 
HETATM   14  C2  UNL     1      16.931  46.934  36.067  1.00  0.00     0.334 C 
HETATM   15  N1  UNL     1      17.788  46.232  35.169  1.00  0.00    -0.346 N 
HETATM   16  O1  UNL     1      16.946  48.193  36.145  1.00  0.00    -0.246 OA
HETATM   17  C1  UNL     1      18.708  46.935  34.313  1.00  0.00     0.151 C 
ATOM     18  H1  UNL     1      17.749  45.213  35.132  1.00  0.00     0.163 HD
ATOM     19  H2  UNL     1      15.996  45.216  36.866  1.00  0.00     0.192 HD
ENDBRANCH  11  13
ENDBRANCH   9  11
ENDBRANCH   8   9
ENDBRANCH   1   8
TORSDOF 4
ENDMDL
MODEL 2
REMARK VINA RESULT: -5.771568989      2.731      5.695
REMARK  4 active torsions:
REMARK  status: ('A' for Active; 'I' for Inactive)
REMARK       I    between atoms: N1_2  and  C2_4 
REMARK       I    between atoms: C2_4  and  N2_6 
REMARK    1  A    between atoms: N2_6  and  N3_8 
REMARK    2  A    between atoms: N3_8  and  C3_10 
REMARK    3  A    between atoms: C3_10  and  O2_12 
REMARK    4  A    between atoms: O2_12  and  N4_13 
ROOT
HETATM    1  N4  UNL     1      13.796  45.880  36.205  1.00  0.00    -0.238 N 
ATOM      2  H4  UNL     1      14.087  45.829  35.229  1.00  0.00     0.196 HD
HETATM    3  C4  UNL     1      14.482  46.545  37.071  1.00  0.00     0.215 C 
HETATM    4  C5  UNL     1      15.687  47.240  36.684  1.00  0.00     0.131 C 
HETATM    5  N5  UNL     1      16.661  47.784  36.365  1.00  0.00    -0.189 NA
HETATM    6  C6  UNL     1      14.090  46.628  38.448  1.00  0.00     0.131 C 
HETATM    7  N6  UNL     1      13.779  46.714  39.574  1.00  0.00    -0.189 NA
ENDROOT
BRANCH   1   8
HETATM    8  O2  UNL     1      12.664  45.244  36.640  1.00  0.00    -0.204 OA
BRANCH   8   9
HETATM    9  C3  UNL     1      11.408  45.569  36.180  1.00  0.00     0.254 C 
HETATM   10  S1  UNL     1      10.706  46.938  36.668  1.00  0.00    -0.029 SA
BRANCH   9  11
HETATM   11  N3  UNL     1      10.750  44.702  35.290  1.00  0.00    -0.265 N 
ATOM     12  H3  UNL     1       9.870  44.972  34.848  1.00  0.00     0.190 HD
BRANCH  11  13
HETATM   13  N2  UNL     1      11.341  43.449  35.025  1.00  0.00    -0.249 N 
HETATM   14  C2  UNL     1      11.810  43.120  33.732  1.00  0.00     0.334 C 
HETATM   15  N1  UNL     1      12.407  41.851  33.471  1.00  0.00    -0.346 N 
HETATM   16  O1  UNL     1      11.682  43.987  32.825  1.00  0.00    -0.246 OA
HETATM   17  C1  UNL     1      12.888  41.508  32.158  1.00  0.00     0.151 C 
ATOM     18  H1  UNL     1      12.493  41.173  34.229  1.00  0.00     0.163 HD
ATOM     19  H2  UNL     1      11.432  42.768  35.780  1.00  0.00     0.192 HD
ENDBRANCH  11  13
ENDBRANCH   9  11
ENDBRANCH   8   9
ENDBRANCH   1   8
TORSDOF 4
ENDMDL
MODEL 3
REMARK VINA RESULT: -5.770456491      2.128      2.526
REMARK  4 active torsions:
REMARK  status: ('A' for Active; 'I' for Inactive)
REMARK       I    between atoms: N1_2  and  C2_4 
REMARK       I    between atoms: C2_4  and  N2_6 
REMARK    1  A    between atoms: N2_6  and  N3_8 
REMARK    2  A    between atoms: N3_8  and  C3_10 
REMARK    3  A    between atoms: C3_10  and  O2_12 
REMARK    4  A    between atoms: O2_12  and  N4_13 
ROOT
HETATM    1  N4  UNL     1      12.792  44.111  35.145  1.00  0.00    -0.238 N 
ATOM      2  H4  UNL     1      13.559  44.345  34.515  1.00  0.00     0.196 HD
HETATM    3  C4  UNL     1      11.904  43.236  34.818  1.00  0.00     0.215 C 
HETATM    4  C5  UNL     1      11.968  42.559  33.544  1.00  0.00     0.131 C 
HETATM    5  N5  UNL     1      12.020  42.031  32.511  1.00  0.00    -0.189 NA
HETATM    6  C6  UNL     1      10.818  42.892  35.689  1.00  0.00     0.131 C 
HETATM    7  N6  UNL     1       9.931  42.594  36.393  1.00  0.00    -0.189 NA
ENDROOT
BRANCH   1   8
HETATM    8  O2  UNL     1      12.672  44.715  36.368  1.00  0.00    -0.204 OA
BRANCH   8   9
HETATM    9  C3  UNL     1      12.582  46.081  36.515  1.00  0.00     0.254 C 
HETATM   10  S1  UNL     1      11.156  46.815  36.328  1.00  0.00    -0.029 SA
BRANCH   9  11
HETATM   11  N3  UNL     1      13.736  46.822  36.826  1.00  0.00    -0.265 N 
ATOM     12  H3  UNL     1      13.670  47.795  37.126  1.00  0.00     0.190 HD
BRANCH  11  13
HETATM   13  N2  UNL     1      14.987  46.181  36.710  1.00  0.00    -0.249 N 
HETATM   14  C2  UNL     1      16.174  46.925  36.510  1.00  0.00     0.334 C 
HETATM   15  N1  UNL     1      17.436  46.270  36.394  1.00  0.00    -0.346 N 
HETATM   16  O1  UNL     1      16.073  48.180  36.439  1.00  0.00    -0.246 OA
HETATM   17  C1  UNL     1      18.649  47.019  36.191  1.00  0.00     0.151 C 
ATOM     18  H1  UNL     1      17.480  45.253  36.456  1.00  0.00     0.163 HD
ATOM     19  H2  UNL     1      15.037  45.164  36.773  1.00  0.00     0.192 HD
ENDBRANCH  11  13
ENDBRANCH   9  11
ENDBRANCH   8   9
ENDBRANCH   1   8
TORSDOF 4
ENDMDL
MODEL 4
REMARK VINA RESULT: -5.670792590      1.958      2.465
REMARK  4 active torsions:
REMARK  status: ('A' for Active; 'I' for Inactive)
REMARK       I    between atoms: N1_2  and  C2_4 
REMARK       I    between atoms: C2_4  and  N2_6 
REMARK    1  A    between atoms: N2_6  and  N3_8 
REMARK    2  A    between atoms: N3_8  and  C3_10 
REMARK    3  A    between atoms: C3_10  and  O2_12 
REMARK    4  A    between atoms: O2_12  and  N4_13 
ROOT
HETATM    1  N4  UNL     1      12.783  44.403  35.415  1.00  0.00    -0.238 N 
ATOM      2  H4  UNL     1      13.548  44.693  34.806  1.00  0.00     0.196 HD
HETATM    3  C4  UNL     1      11.964  43.473  35.060  1.00  0.00     0.215 C 
HETATM    4  C5  UNL     1      12.105  42.811  33.784  1.00  0.00     0.131 C 
HETATM    5  N5  UNL     1      12.218  42.296  32.750  1.00  0.00    -0.189 NA
HETATM    6  C6  UNL     1      10.883  43.051  35.901  1.00  0.00     0.131 C 
HETATM    7  N6  UNL     1      10.000  42.688  36.580  1.00  0.00    -0.189 NA
ENDROOT
BRANCH   1   8
HETATM    8  O2  UNL     1      12.592  44.988  36.638  1.00  0.00    -0.204 OA
BRANCH   8   9
HETATM    9  C3  UNL     1      13.457  45.928  37.154  1.00  0.00     0.254 C 
HETATM   10  S1  UNL     1      13.133  46.621  38.575  1.00  0.00    -0.029 SA
BRANCH   9  11
HETATM   11  N3  UNL     1      14.614  46.273  36.433  1.00  0.00    -0.265 N 
ATOM     12  H3  UNL     1      14.561  46.533  35.447  1.00  0.00     0.190 HD
BRANCH  11  13
HETATM   13  N2  UNL     1      15.850  46.250  37.112  1.00  0.00    -0.249 N 
HETATM   14  C2  UNL     1      16.729  47.358  37.071  1.00  0.00     0.334 C 
HETATM   15  N1  UNL     1      17.977  47.328  37.759  1.00  0.00    -0.346 N 
HETATM   16  O1  UNL     1      16.367  48.367  36.405  1.00  0.00    -0.246 OA
HETATM   17  C1  UNL     1      18.877  48.452  37.723  1.00  0.00     0.151 C 
ATOM     18  H1  UNL     1      18.238  46.495  38.287  1.00  0.00     0.163 HD
ATOM     19  H2  UNL     1      16.115  45.420  37.643  1.00  0.00     0.192 HD
ENDBRANCH  11  13
ENDBRANCH   9  11
ENDBRANCH   8   9
ENDBRANCH   1   8
TORSDOF 4
ENDMDL
MODEL 5
REMARK VINA RESULT: -5.662210035      3.883      5.697
REMARK  4 active torsions:
REMARK  status: ('A' for Active; 'I' for Inactive)
REMARK       I    between atoms: N1_2  and  C2_4 
REMARK       I    between atoms: C2_4  and  N2_6 
REMARK    1  A    between atoms: N2_6  and  N3_8 
REMARK    2  A    between atoms: N3_8  and  C3_10 
REMARK    3  A    between atoms: C3_10  and  O2_12 
REMARK    4  A    between atoms: O2_12  and  N4_13 
ROOT
HETATM    1  N4  UNL     1      12.154  46.754  38.551  1.00  0.00    -0.238 N 
ATOM      2  H4  UNL     1      11.681  47.497  38.036  1.00  0.00     0.196 HD
HETATM    3  C4  UNL     1      12.786  47.001  39.646  1.00  0.00     0.215 C 
HETATM    4  C5  UNL     1      12.846  48.342  40.180  1.00  0.00     0.131 C 
HETATM    5  N5  UNL     1      12.900  49.425  40.592  1.00  0.00    -0.189 NA
HETATM    6  C6  UNL     1      13.457  45.971  40.385  1.00  0.00     0.131 C 
HETATM    7  N6  UNL     1      14.001  45.140  41.005  1.00  0.00    -0.189 NA
ENDROOT
BRANCH   1   8
HETATM    8  O2  UNL     1      12.136  45.460  38.101  1.00  0.00    -0.204 OA
BRANCH   8   9
HETATM    9  C3  UNL     1      11.589  45.104  36.889  1.00  0.00     0.254 C 
HETATM   10  S1  UNL     1      10.033  44.684  36.805  1.00  0.00    -0.029 SA
BRANCH   9  11
HETATM   11  N3  UNL     1      12.395  45.109  35.737  1.00  0.00    -0.265 N 
ATOM     12  H3  UNL     1      12.642  45.984  35.273  1.00  0.00     0.190 HD
BRANCH  11  13
HETATM   13  N2  UNL     1      12.853  43.870  35.241  1.00  0.00    -0.249 N 
HETATM   14  C2  UNL     1      12.430  43.386  33.980  1.00  0.00     0.334 C 
HETATM   15  N1  UNL     1      12.896  42.132  33.485  1.00  0.00    -0.346 N 
HETATM   16  O1  UNL     1      11.631  44.102  33.316  1.00  0.00    -0.246 OA
HETATM   17  C1  UNL     1      12.472  41.633  32.203  1.00  0.00     0.151 C 
ATOM     18  H1  UNL     1      13.541  41.580  34.050  1.00  0.00     0.163 HD
ATOM     19  H2  UNL     1      13.499  43.314  35.801  1.00  0.00     0.192 HD
ENDBRANCH  11  13
ENDBRANCH   9  11
ENDBRANCH   8   9
ENDBRANCH   1   8
TORSDOF 4
ENDMDL
