MODEL 1
REMARK VINA RESULT: -6.546014924      0.000      0.000
REMARK  1 active torsions:
REMARK  status: ('A' for Active; 'I' for Inactive)
REMARK    1  A    between atoms: C7_16  and  N5_17 
ROOT
HETATM    1  N1  UNL     1      15.064  47.477  37.913  1.00  0.00    -0.080 NA
HETATM    2  C1  UNL     1      13.954  46.605  37.801  1.00  0.00     0.151 A 
HETATM    3  N2  UNL     1      13.796  45.778  36.755  1.00  0.00    -0.327 N 
ATOM      4  H2  UNL     1      14.496  45.775  36.014  1.00  0.00     0.168 HD
HETATM    5  C2  UNL     1      12.722  44.940  36.657  1.00  0.00     0.137 A 
HETATM    6  N3  UNL     1      12.590  44.121  35.595  1.00  0.00    -0.303 N 
ATOM      7  H3  UNL     1      13.311  44.145  34.874  1.00  0.00     0.171 HD
HETATM    8  C3  UNL     1      11.579  43.291  35.440  1.00  0.00     0.315 A 
HETATM    9  O1  UNL     1      11.503  42.556  34.442  1.00  0.00    -0.262 OA
HETATM   10  C4  UNL     1      10.592  43.250  36.420  1.00  0.00     0.314 A 
HETATM   11  O2  UNL     1       9.653  42.459  36.248  1.00  0.00    -0.262 OA
HETATM   12  N4  UNL     1      10.713  44.067  37.488  1.00  0.00    -0.316 N 
ATOM     13  H4  UNL     1       9.995  44.046  38.213  1.00  0.00     0.169 HD
HETATM   14  C5  UNL     1      11.744  44.897  37.622  1.00  0.00     0.082 A 
HETATM   15  C6  UNL     1      11.871  45.738  38.723  1.00  0.00     0.073 A 
HETATM   16  C7  UNL     1      12.968  46.570  38.789  1.00  0.00     0.146 A 
ENDROOT
BRANCH  16  17
HETATM   17  N5  UNL     1      13.128  47.448  39.907  1.00  0.00    -0.112 N 
HETATM   18  O3  UNL     1      12.586  48.580  39.928  1.00  0.00    -0.532 OA
HETATM   19  O4  UNL     1      13.875  47.111  41.009  1.00  0.00    -0.532 OA
ENDBRANCH  16  17
TORSDOF 1
ENDMDL
MODEL 2
REMARK VINA RESULT: -6.514932281      0.780      1.104
REMARK  1 active torsions:
REMARK  status: ('A' for Active; 'I' for Inactive)
REMARK    1  A    between atoms: C7_16  and  N5_17 
ROOT
HETATM    1  N1  UNL     1      15.262  47.843  38.640  1.00  0.00    -0.080 NA
HETATM    2  C1  UNL     1      14.116  47.036  38.443  1.00  0.00     0.151 A 
HETATM    3  N2  UNL     1      14.028  46.150  37.440  1.00  0.00    -0.327 N 
ATOM      4  H2  UNL     1      14.812  46.051  36.794  1.00  0.00     0.168 HD
HETATM    5  C2  UNL     1      12.918  45.376  37.258  1.00  0.00     0.137 A 
HETATM    6  N3  UNL     1      12.858  44.494  36.241  1.00  0.00    -0.303 N 
ATOM      7  H3  UNL     1      13.661  44.422  35.617  1.00  0.00     0.171 HD
HETATM    8  C3  UNL     1      11.817  43.720  36.012  1.00  0.00     0.315 A 
HETATM    9  O1  UNL     1      11.811  42.923  35.060  1.00  0.00    -0.262 OA
HETATM   10  C4  UNL     1      10.717  43.810  36.860  1.00  0.00     0.314 A 
HETATM   11  O2  UNL     1       9.753  43.070  36.620  1.00  0.00    -0.262 OA
HETATM   12  N4  UNL     1      10.765  44.691  37.882  1.00  0.00    -0.316 N 
ATOM     13  H4  UNL     1       9.964  44.767  38.510  1.00  0.00     0.169 HD
HETATM   14  C5  UNL     1      11.828  45.462  38.093  1.00  0.00     0.082 A 
HETATM   15  C6  UNL     1      11.880  46.370  39.147  1.00  0.00     0.073 A 
HETATM   16  C7  UNL     1      13.016  47.134  39.299  1.00  0.00     0.146 A 
ENDROOT
BRANCH  16  17
HETATM   17  N5  UNL     1      13.101  48.076  40.372  1.00  0.00    -0.112 N 
HETATM   18  O3  UNL     1      13.540  47.739  41.499  1.00  0.00    -0.532 OA
HETATM   19  O4  UNL     1      12.713  49.386  40.237  1.00  0.00    -0.532 OA
ENDBRANCH  16  17
TORSDOF 1
ENDMDL
MODEL 3
REMARK VINA RESULT: -6.323412214      2.380      3.234
REMARK  1 active torsions:
REMARK  status: ('A' for Active; 'I' for Inactive)
REMARK    1  A    between atoms: C7_16  and  N5_17 
ROOT
HETATM    1  N1  UNL     1      10.292  47.397  36.810  1.00  0.00    -0.080 NA
HETATM    2  C1  UNL     1      10.957  46.253  36.306  1.00  0.00     0.151 A 
HETATM    3  N2  UNL     1      10.806  45.835  35.040  1.00  0.00    -0.327 N 
ATOM      4  H2  UNL     1      10.191  46.358  34.415  1.00  0.00     0.168 HD
HETATM    5  C2  UNL     1      11.452  44.731  34.564  1.00  0.00     0.137 A 
HETATM    6  N3  UNL     1      11.280  44.337  33.287  1.00  0.00    -0.303 N 
ATOM      7  H3  UNL     1      10.659  44.884  32.691  1.00  0.00     0.171 HD
HETATM    8  C3  UNL     1      11.873  43.281  32.768  1.00  0.00     0.315 A 
HETATM    9  O1  UNL     1      11.682  42.958  31.584  1.00  0.00    -0.262 OA
HETATM   10  C4  UNL     1      12.724  42.529  33.572  1.00  0.00     0.314 A 
HETATM   11  O2  UNL     1      13.268  41.542  33.056  1.00  0.00    -0.262 OA
HETATM   12  N4  UNL     1      12.904  42.914  34.853  1.00  0.00    -0.316 N 
ATOM     13  H4  UNL     1      13.524  42.370  35.453  1.00  0.00     0.169 HD
HETATM   14  C5  UNL     1      12.293  43.984  35.355  1.00  0.00     0.082 A 
HETATM   15  C6  UNL     1      12.477  44.384  36.675  1.00  0.00     0.073 A 
HETATM   16  C7  UNL     1      11.809  45.503  37.121  1.00  0.00     0.146 A 
ENDROOT
BRANCH  16  17
HETATM   17  N5  UNL     1      11.977  45.941  38.472  1.00  0.00    -0.112 N 
HETATM   18  O3  UNL     1      11.281  45.462  39.401  1.00  0.00    -0.532 OA
HETATM   19  O4  UNL     1      12.895  46.897  38.831  1.00  0.00    -0.532 OA
ENDBRANCH  16  17
TORSDOF 1
ENDMDL
MODEL 4
REMARK VINA RESULT: -6.264681077      1.656      5.699
REMARK  1 active torsions:
REMARK  status: ('A' for Active; 'I' for Inactive)
REMARK    1  A    between atoms: C7_16  and  N5_17 
ROOT
HETATM    1  N1  UNL     1      10.162  42.530  35.638  1.00  0.00    -0.080 NA
HETATM    2  C1  UNL     1      10.953  43.571  36.180  1.00  0.00     0.151 A 
HETATM    3  N2  UNL     1      10.756  44.052  37.418  1.00  0.00    -0.327 N 
ATOM      4  H2  UNL     1      10.010  43.656  37.991  1.00  0.00     0.168 HD
HETATM    5  C2  UNL     1      11.525  45.056  37.931  1.00  0.00     0.137 A 
HETATM    6  N3  UNL     1      11.302  45.518  39.177  1.00  0.00    -0.303 N 
ATOM      7  H3  UNL     1      10.549  45.097  39.721  1.00  0.00     0.171 HD
HETATM    8  C3  UNL     1      12.008  46.484  39.730  1.00  0.00     0.315 A 
HETATM    9  O1  UNL     1      11.763  46.875  40.883  1.00  0.00    -0.262 OA
HETATM   10  C4  UNL     1      13.039  47.063  38.996  1.00  0.00     0.314 A 
HETATM   11  O2  UNL     1      13.685  47.969  39.541  1.00  0.00    -0.262 OA
HETATM   12  N4  UNL     1      13.270  46.609  37.745  1.00  0.00    -0.316 N 
ATOM     13  H4  UNL     1      14.023  47.026  37.197  1.00  0.00     0.169 HD
HETATM   14  C5  UNL     1      12.544  45.632  37.209  1.00  0.00     0.082 A 
HETATM   15  C6  UNL     1      12.782  45.162  35.922  1.00  0.00     0.073 A 
HETATM   16  C7  UNL     1      11.986  44.147  35.437  1.00  0.00     0.146 A 
ENDROOT
BRANCH  16  17
HETATM   17  N5  UNL     1      12.204  43.641  34.116  1.00  0.00    -0.112 N 
HETATM   18  O3  UNL     1      13.006  42.698  33.906  1.00  0.00    -0.532 OA
HETATM   19  O4  UNL     1      11.561  44.149  33.015  1.00  0.00    -0.532 OA
ENDBRANCH  16  17
TORSDOF 1
ENDMDL
MODEL 5
REMARK VINA RESULT: -5.918760795      1.136      2.493
REMARK  1 active torsions:
REMARK  status: ('A' for Active; 'I' for Inactive)
REMARK    1  A    between atoms: C7_16  and  N5_17 
ROOT
HETATM    1  N1  UNL     1      11.400  46.563  40.929  1.00  0.00    -0.080 NA
HETATM    2  C1  UNL     1      11.818  46.196  39.627  1.00  0.00     0.151 A 
HETATM    3  N2  UNL     1      11.197  45.241  38.917  1.00  0.00    -0.327 N 
ATOM      4  H2  UNL     1      10.396  44.760  39.327  1.00  0.00     0.168 HD
HETATM    5  C2  UNL     1      11.608  44.895  37.663  1.00  0.00     0.137 A 
HETATM    6  N3  UNL     1      10.965  43.932  36.975  1.00  0.00    -0.303 N 
ATOM      7  H3  UNL     1      10.167  43.473  37.415  1.00  0.00     0.171 HD
HETATM    8  C3  UNL     1      11.312  43.551  35.762  1.00  0.00     0.315 A 
HETATM    9  O1  UNL     1      10.686  42.657  35.169  1.00  0.00    -0.262 OA
HETATM   10  C4  UNL     1      12.398  44.171  35.151  1.00  0.00     0.314 A 
HETATM   11  O2  UNL     1      12.700  43.793  34.011  1.00  0.00    -0.262 OA
HETATM   12  N4  UNL     1      13.051  45.137  35.832  1.00  0.00    -0.316 N 
ATOM     13  H4  UNL     1      13.849  45.599  35.395  1.00  0.00     0.169 HD
HETATM   14  C5  UNL     1      12.681  45.504  37.056  1.00  0.00     0.082 A 
HETATM   15  C6  UNL     1      13.352  46.500  37.758  1.00  0.00     0.073 A 
HETATM   16  C7  UNL     1      12.909  46.824  39.022  1.00  0.00     0.146 A 
ENDROOT
BRANCH  16  17
HETATM   17  N5  UNL     1      13.577  47.844  39.770  1.00  0.00    -0.112 N 
HETATM   18  O3  UNL     1      14.718  47.650  40.258  1.00  0.00    -0.532 OA
HETATM   19  O4  UNL     1      13.019  49.077  39.999  1.00  0.00    -0.532 OA
ENDBRANCH  16  17
TORSDOF 1
ENDMDL
