MODEL 1
REMARK VINA RESULT: -6.987235194      0.000      0.000
REMARK  2 active torsions:
REMARK  status: ('A' for Active; 'I' for Inactive)
REMARK    1  A    between atoms: N1_1  and  C1_4 
REMARK    2  A    between atoms: C4_14  and  C5_15 
ROOT
HETATM    1  C1  UNL     1      10.945  42.656  35.633  1.00  0.00     0.716 A 
HETATM    2  N2  UNL     1      11.146  42.214  34.379  1.00  0.00    -0.139 N 
ATOM      3  H2  UNL     1      10.584  41.438  34.030  1.00  0.00     0.189 HD
HETATM    4  C2  UNL     1      12.079  42.773  33.563  1.00  0.00     0.352 A 
HETATM    5  O1  UNL     1      12.224  42.316  32.393  1.00  0.00    -0.246 OA
HETATM    6  N3  UNL     1      12.821  43.792  34.013  1.00  0.00    -0.138 N 
ATOM      7  H3  UNL     1      13.523  44.219  33.410  1.00  0.00     0.189 HD
HETATM    8  C3  UNL     1      12.636  44.255  35.273  1.00  0.00     0.724 A 
HETATM    9  N4  UNL     1      13.185  45.223  36.017  1.00  0.00    -0.172 N 
ATOM     10  H4  UNL     1      13.930  45.843  35.698  1.00  0.00     0.186 HD
HETATM   11  C4  UNL     1      12.627  45.271  37.237  1.00  0.00     0.147 A 
HETATM   12  N6  UNL     1      11.702  44.294  37.239  1.00  0.00    -0.248 N 
ATOM     13  H6  UNL     1      11.095  44.062  38.025  1.00  0.00     0.190 HD
HETATM   14  N7  UNL     1      11.701  43.674  36.052  1.00  0.00     0.092 N 
ENDROOT
BRANCH  11  15
HETATM   15  C5  UNL     1      12.981  46.199  38.298  1.00  0.00     0.012 A 
HETATM   16  C6  UNL     1      14.170  46.894  38.324  1.00  0.00     0.032 A 
HETATM   17  C7  UNL     1      14.489  47.773  39.343  1.00  0.00     0.088 A 
HETATM   18  N5  UNL     1      13.577  47.929  40.329  1.00  0.00    -0.375 N 
HETATM   19  C8  UNL     1      12.408  47.288  40.367  1.00  0.00     0.088 A 
ATOM     20  H5  UNL     1      13.796  48.574  41.089  1.00  0.00     0.164 HD
HETATM   21  C9  UNL     1      12.094  46.401  39.331  1.00  0.00     0.032 A 
ENDBRANCH  11  15
BRANCH   1  22
HETATM   22  N1  UNL     1      10.047  42.095  36.376  1.00  0.00    -0.232 N 
ATOM     23  H12 UNL     1       9.056  42.084  36.135  1.00  0.00     0.174 HD
ATOM     24  H11 UNL     1      10.322  41.637  37.245  1.00  0.00     0.174 HD
ENDBRANCH   1  22
TORSDOF 2
ENDMDL
MODEL 2
REMARK VINA RESULT: -6.980682436      0.257      1.170
REMARK  2 active torsions:
REMARK  status: ('A' for Active; 'I' for Inactive)
REMARK    1  A    between atoms: N1_1  and  C1_4 
REMARK    2  A    between atoms: C4_14  and  C5_15 
ROOT
HETATM    1  C1  UNL     1      10.883  42.637  35.546  1.00  0.00     0.716 A 
HETATM    2  N2  UNL     1      11.072  42.138  34.311  1.00  0.00    -0.139 N 
ATOM      3  H2  UNL     1      10.484  41.369  33.992  1.00  0.00     0.189 HD
HETATM    4  C2  UNL     1      12.025  42.631  33.477  1.00  0.00     0.352 A 
HETATM    5  O1  UNL     1      12.158  42.122  32.328  1.00  0.00    -0.246 OA
HETATM    6  N3  UNL     1      12.801  43.641  33.889  1.00  0.00    -0.138 N 
ATOM      7  H3  UNL     1      13.520  44.018  33.272  1.00  0.00     0.189 HD
HETATM    8  C3  UNL     1      12.630  44.161  35.128  1.00  0.00     0.724 A 
HETATM    9  N4  UNL     1      13.211  45.138  35.835  1.00  0.00    -0.172 N 
ATOM     10  H4  UNL     1      13.978  45.718  35.494  1.00  0.00     0.186 HD
HETATM   11  C4  UNL     1      12.652  45.254  37.050  1.00  0.00     0.147 A 
HETATM   12  N6  UNL     1      11.693  44.311  37.088  1.00  0.00    -0.248 N 
ATOM     13  H6  UNL     1      11.076  44.132  37.880  1.00  0.00     0.190 HD
HETATM   14  N7  UNL     1      11.673  43.644  35.927  1.00  0.00     0.092 N 
ENDROOT
BRANCH  11  15
HETATM   15  C5  UNL     1      13.035  46.211  38.074  1.00  0.00     0.012 A 
HETATM   16  C6  UNL     1      12.189  46.607  39.088  1.00  0.00     0.032 A 
HETATM   17  C7  UNL     1      12.572  47.519  40.054  1.00  0.00     0.088 A 
HETATM   18  N5  UNL     1      13.826  48.017  39.968  1.00  0.00    -0.375 N 
HETATM   19  C8  UNL     1      14.695  47.678  39.015  1.00  0.00     0.088 A 
ATOM     20  H5  UNL     1      14.125  48.691  40.673  1.00  0.00     0.164 HD
HETATM   21  C9  UNL     1      14.299  46.755  38.042  1.00  0.00     0.032 A 
ENDBRANCH  11  15
BRANCH   1  22
HETATM   22  N1  UNL     1       9.964  42.138  36.307  1.00  0.00    -0.232 N 
ATOM     23  H12 UNL     1       9.484  41.263  36.096  1.00  0.00     0.174 HD
ATOM     24  H11 UNL     1       9.693  42.626  37.161  1.00  0.00     0.174 HD
ENDBRANCH   1  22
TORSDOF 2
ENDMDL
MODEL 3
REMARK VINA RESULT: -6.785236571      2.694      6.391
REMARK  2 active torsions:
REMARK  status: ('A' for Active; 'I' for Inactive)
REMARK    1  A    between atoms: N1_1  and  C1_4 
REMARK    2  A    between atoms: C4_14  and  C5_15 
ROOT
HETATM    1  C1  UNL     1      13.586  46.263  37.821  1.00  0.00     0.716 A 
HETATM    2  N2  UNL     1      13.091  46.456  39.057  1.00  0.00    -0.139 N 
ATOM      3  H2  UNL     1      13.608  47.042  39.712  1.00  0.00     0.189 HD
HETATM    4  C2  UNL     1      11.922  45.892  39.457  1.00  0.00     0.352 A 
HETATM    5  O1  UNL     1      11.506  46.108  40.631  1.00  0.00    -0.246 OA
HETATM    6  N3  UNL     1      11.237  45.121  38.603  1.00  0.00    -0.138 N 
ATOM      7  H3  UNL     1      10.358  44.692  38.893  1.00  0.00     0.189 HD
HETATM    8  C3  UNL     1      11.714  44.912  37.353  1.00  0.00     0.724 A 
HETATM    9  N4  UNL     1      11.300  44.221  36.283  1.00  0.00    -0.172 N 
ATOM     10  H4  UNL     1      10.441  43.673  36.248  1.00  0.00     0.186 HD
HETATM   11  C4  UNL     1      12.163  44.345  35.263  1.00  0.00     0.147 A 
HETATM   12  N6  UNL     1      13.144  45.142  35.727  1.00  0.00    -0.248 N 
ATOM     13  H6  UNL     1      13.963  45.435  35.196  1.00  0.00     0.190 HD
HETATM   14  N7  UNL     1      12.879  45.489  36.993  1.00  0.00     0.092 N 
ENDROOT
BRANCH  11  15
HETATM   15  C5  UNL     1      12.027  43.731  33.954  1.00  0.00     0.012 A 
HETATM   16  C6  UNL     1      11.519  44.397  32.859  1.00  0.00     0.032 A 
HETATM   17  C7  UNL     1      11.397  43.795  31.620  1.00  0.00     0.088 A 
HETATM   18  N5  UNL     1      11.800  42.508  31.519  1.00  0.00    -0.375 N 
HETATM   19  C8  UNL     1      12.300  41.805  32.536  1.00  0.00     0.088 A 
ATOM     20  H5  UNL     1      11.717  42.049  30.612  1.00  0.00     0.164 HD
HETATM   21  C9  UNL     1      12.420  42.422  33.785  1.00  0.00     0.032 A 
ENDBRANCH  11  15
BRANCH   1  22
HETATM   22  N1  UNL     1      14.702  46.820  37.481  1.00  0.00    -0.232 N 
ATOM     23  H12 UNL     1      15.387  47.150  38.161  1.00  0.00     0.174 HD
ATOM     24  H11 UNL     1      14.928  46.943  36.494  1.00  0.00     0.174 HD
ENDBRANCH   1  22
TORSDOF 2
ENDMDL
MODEL 4
REMARK VINA RESULT: -6.732206578      2.861      6.379
REMARK  2 active torsions:
REMARK  status: ('A' for Active; 'I' for Inactive)
REMARK    1  A    between atoms: N1_1  and  C1_4 
REMARK    2  A    between atoms: C4_14  and  C5_15 
ROOT
HETATM    1  C1  UNL     1      10.962  46.723  36.927  1.00  0.00     0.716 A 
HETATM    2  N2  UNL     1      11.491  46.966  38.140  1.00  0.00    -0.139 N 
ATOM      3  H2  UNL     1      11.103  47.717  38.709  1.00  0.00     0.189 HD
HETATM    4  C2  UNL     1      12.529  46.237  38.628  1.00  0.00     0.352 A 
HETATM    5  O1  UNL     1      12.986  46.511  39.775  1.00  0.00    -0.246 OA
HETATM    6  N3  UNL     1      13.045  45.248  37.888  1.00  0.00    -0.138 N 
ATOM      7  H3  UNL     1      13.824  44.695  38.244  1.00  0.00     0.189 HD
HETATM    8  C3  UNL     1      12.529  44.984  36.663  1.00  0.00     0.724 A 
HETATM    9  N4  UNL     1      12.795  44.100  35.693  1.00  0.00    -0.172 N 
ATOM     10  H4  UNL     1      13.530  43.395  35.741  1.00  0.00     0.186 HD
HETATM   11  C4  UNL     1      11.967  44.264  34.649  1.00  0.00     0.147 A 
HETATM   12  N6  UNL     1      11.165  45.288  34.994  1.00  0.00    -0.248 N 
ATOM     13  H6  UNL     1      10.417  45.669  34.415  1.00  0.00     0.190 HD
HETATM   14  N7  UNL     1      11.499  45.730  36.213  1.00  0.00     0.092 N 
ENDROOT
BRANCH  11  15
HETATM   15  C5  UNL     1      11.974  43.478  33.427  1.00  0.00     0.012 A 
HETATM   16  C6  UNL     1      12.522  42.216  33.347  1.00  0.00     0.032 A 
HETATM   17  C7  UNL     1      12.519  41.483  32.174  1.00  0.00     0.088 A 
HETATM   18  N5  UNL     1      11.949  42.058  31.091  1.00  0.00    -0.375 N 
HETATM   19  C8  UNL     1      11.401  43.275  31.098  1.00  0.00     0.088 A 
ATOM     20  H5  UNL     1      11.937  41.532  30.217  1.00  0.00     0.164 HD
HETATM   21  C9  UNL     1      11.409  44.008  32.289  1.00  0.00     0.032 A 
ENDBRANCH  11  15
BRANCH   1  22
HETATM   22  N1  UNL     1       9.975  47.440  36.501  1.00  0.00    -0.232 N 
ATOM     23  H12 UNL     1       9.545  47.305  35.586  1.00  0.00     0.174 HD
ATOM     24  H11 UNL     1       9.594  48.180  37.091  1.00  0.00     0.174 HD
ENDBRANCH   1  22
TORSDOF 2
ENDMDL
MODEL 5
REMARK VINA RESULT: -6.705818600      2.859      6.384
REMARK  2 active torsions:
REMARK  status: ('A' for Active; 'I' for Inactive)
REMARK    1  A    between atoms: N1_1  and  C1_4 
REMARK    2  A    between atoms: C4_14  and  C5_15 
ROOT
HETATM    1  C1  UNL     1      10.880  46.690  36.904  1.00  0.00     0.716 A 
HETATM    2  N2  UNL     1      11.441  46.979  38.092  1.00  0.00    -0.139 N 
ATOM      3  H2  UNL     1      11.025  47.706  38.674  1.00  0.00     0.189 HD
HETATM    4  C2  UNL     1      12.546  46.327  38.540  1.00  0.00     0.352 A 
HETATM    5  O1  UNL     1      13.030  46.641  39.665  1.00  0.00    -0.246 OA
HETATM    6  N3  UNL     1      13.099  45.372  37.783  1.00  0.00    -0.138 N 
ATOM      7  H3  UNL     1      13.929  44.877  38.109  1.00  0.00     0.189 HD
HETATM    8  C3  UNL     1      12.552  45.063  36.583  1.00  0.00     0.724 A 
HETATM    9  N4  UNL     1      12.838  44.192  35.607  1.00  0.00    -0.172 N 
ATOM     10  H4  UNL     1      13.622  43.540  35.627  1.00  0.00     0.186 HD
HETATM   11  C4  UNL     1      11.958  44.290  34.598  1.00  0.00     0.147 A 
HETATM   12  N6  UNL     1      11.101  45.258  34.971  1.00  0.00    -0.248 N 
ATOM     13  H6  UNL     1      10.305  45.582  34.422  1.00  0.00     0.190 HD
HETATM   14  N7  UNL     1      11.455  45.731  36.173  1.00  0.00     0.092 N 
ENDROOT
BRANCH  11  15
HETATM   15  C5  UNL     1      11.969  43.497  33.380  1.00  0.00     0.012 A 
HETATM   16  C6  UNL     1      11.406  43.927  32.198  1.00  0.00     0.032 A 
HETATM   17  C7  UNL     1      11.426  43.158  31.048  1.00  0.00     0.088 A 
HETATM   18  N5  UNL     1      12.027  41.950  31.127  1.00  0.00    -0.375 N 
HETATM   19  C8  UNL     1      12.590  41.472  32.238  1.00  0.00     0.088 A 
ATOM     20  H5  UNL     1      12.051  41.369  30.288  1.00  0.00     0.164 HD
HETATM   21  C9  UNL     1      12.565  42.257  33.395  1.00  0.00     0.032 A 
ENDBRANCH  11  15
BRANCH   1  22
HETATM   22  N1  UNL     1       9.828  47.334  36.517  1.00  0.00    -0.232 N 
ATOM     23  H12 UNL     1       8.879  47.011  36.706  1.00  0.00     0.174 HD
ATOM     24  H11 UNL     1       9.930  48.206  35.997  1.00  0.00     0.174 HD
ENDBRANCH   1  22
TORSDOF 2
ENDMDL
