MODEL 1
REMARK VINA RESULT: -6.376280780      0.000      0.000
REMARK  1 active torsions:
REMARK  status: ('A' for Active; 'I' for Inactive)
REMARK    1  A    between atoms: C4_10  and  N4_11 
ROOT
HETATM    1  O1  UNL     1      10.012  42.489  36.938  1.00  0.00    -0.264 OA
HETATM    2  C1  UNL     1      10.828  42.873  36.063  1.00  0.00     0.291 A 
HETATM    3  N1  UNL     1      10.850  42.298  34.848  1.00  0.00    -0.329 N 
ATOM      4  H1  UNL     1      10.203  41.541  34.627  1.00  0.00     0.168 HD
HETATM    5  C2  UNL     1      11.735  42.727  33.920  1.00  0.00     0.111 A 
HETATM    6  C3  UNL     1      12.627  43.750  34.191  1.00  0.00     0.136 A 
HETATM    7  N2  UNL     1      12.597  44.324  35.420  1.00  0.00    -0.230 N 
HETATM    8  N3  UNL     1      13.297  45.299  35.979  1.00  0.00    -0.124 N 
ATOM      9  H3  UNL     1      14.042  45.813  35.508  1.00  0.00     0.206 HD
HETATM   10  C4  UNL     1      12.902  45.526  37.243  1.00  0.00     0.697 A 
HETATM   11  N6  UNL     1      11.910  44.644  37.468  1.00  0.00    -0.168 N 
ATOM     12  H6  UNL     1      11.389  44.550  38.339  1.00  0.00     0.186 HD
HETATM   13  C9  UNL     1      11.715  43.900  36.349  1.00  0.00     0.211 A 
ENDROOT
BRANCH  10  14
HETATM   14  N4  UNL     1      13.404  46.483  38.171  1.00  0.00    -0.213 N 
HETATM   15  C5  UNL     1      12.691  46.843  39.370  1.00  0.00     0.168 C 
HETATM   16  C6  UNL     1      13.100  48.188  39.912  1.00  0.00     0.252 C 
HETATM   17  N5  UNL     1      14.518  48.338  40.057  1.00  0.00    -0.072 N 
HETATM   18  C7  UNL     1      15.280  47.341  39.338  1.00  0.00     0.252 C 
ATOM     19  H52 UNL     1      14.811  49.278  39.789  1.00  0.00     0.277 HD
ATOM     20  H51 UNL     1      14.781  48.353  41.042  1.00  0.00     0.277 HD
HETATM   21  C8  UNL     1      14.672  47.143  37.942  1.00  0.00     0.168 C 
ENDBRANCH  10  14
TORSDOF 1
ENDMDL
MODEL 2
REMARK VINA RESULT: -6.201038616      0.142      1.217
REMARK  1 active torsions:
REMARK  status: ('A' for Active; 'I' for Inactive)
REMARK    1  A    between atoms: C4_10  and  N4_11 
ROOT
HETATM    1  O1  UNL     1       9.994  42.470  36.918  1.00  0.00    -0.264 OA
HETATM    2  C1  UNL     1      10.811  42.856  36.045  1.00  0.00     0.291 A 
HETATM    3  N1  UNL     1      10.821  42.295  34.822  1.00  0.00    -0.329 N 
ATOM      4  H1  UNL     1      10.163  41.550  34.594  1.00  0.00     0.168 HD
HETATM    5  C2  UNL     1      11.707  42.725  33.896  1.00  0.00     0.111 A 
HETATM    6  C3  UNL     1      12.613  43.734  34.176  1.00  0.00     0.136 A 
HETATM    7  N2  UNL     1      12.595  44.292  35.413  1.00  0.00    -0.230 N 
HETATM    8  N3  UNL     1      13.310  45.251  35.981  1.00  0.00    -0.124 N 
ATOM      9  H3  UNL     1      14.059  45.762  35.514  1.00  0.00     0.206 HD
HETATM   10  C4  UNL     1      12.923  45.467  37.249  1.00  0.00     0.697 A 
HETATM   11  N6  UNL     1      11.920  44.595  37.467  1.00  0.00    -0.168 N 
ATOM     12  H6  UNL     1      11.402  44.496  38.340  1.00  0.00     0.186 HD
HETATM   13  C9  UNL     1      11.711  43.868  36.340  1.00  0.00     0.211 A 
ENDROOT
BRANCH  10  14
HETATM   14  N4  UNL     1      13.440  46.406  38.188  1.00  0.00    -0.213 N 
HETATM   15  C5  UNL     1      14.618  47.193  37.923  1.00  0.00     0.168 C 
HETATM   16  C6  UNL     1      15.277  47.700  39.179  1.00  0.00     0.252 C 
HETATM   17  N5  UNL     1      14.371  48.359  40.073  1.00  0.00    -0.072 N 
HETATM   18  C7  UNL     1      12.979  48.101  39.778  1.00  0.00     0.252 C 
ATOM     19  H52 UNL     1      14.584  48.123  41.043  1.00  0.00     0.277 HD
ATOM     20  H51 UNL     1      14.555  49.362  40.099  1.00  0.00     0.277 HD
HETATM   21  C8  UNL     1      12.792  46.609  39.467  1.00  0.00     0.168 C 
ENDBRANCH  10  14
TORSDOF 1
ENDMDL
MODEL 3
REMARK VINA RESULT: -5.866803160      1.901      5.937
REMARK  1 active torsions:
REMARK  status: ('A' for Active; 'I' for Inactive)
REMARK    1  A    between atoms: C4_10  and  N4_11 
ROOT
HETATM    1  O1  UNL     1      12.138  47.721  40.591  1.00  0.00    -0.264 OA
HETATM    2  C1  UNL     1      13.113  47.634  39.804  1.00  0.00     0.291 A 
HETATM    3  N1  UNL     1      14.210  48.391  39.987  1.00  0.00    -0.329 N 
ATOM      4  H1  UNL     1      14.257  49.044  40.768  1.00  0.00     0.168 HD
HETATM    5  C2  UNL     1      15.249  48.281  39.129  1.00  0.00     0.111 A 
HETATM    6  C3  UNL     1      15.214  47.405  38.058  1.00  0.00     0.136 A 
HETATM    7  N2  UNL     1      14.103  46.645  37.882  1.00  0.00    -0.230 N 
HETATM    8  N3  UNL     1      13.765  45.735  36.982  1.00  0.00    -0.124 N 
ATOM      9  H3  UNL     1      14.361  45.445  36.207  1.00  0.00     0.206 HD
HETATM   10  C4  UNL     1      12.538  45.242  37.219  1.00  0.00     0.697 A 
HETATM   11  N6  UNL     1      12.104  45.884  38.320  1.00  0.00    -0.168 N 
ATOM     12  H6  UNL     1      11.200  45.743  38.770  1.00  0.00     0.186 HD
HETATM   13  C9  UNL     1      13.063  46.750  38.736  1.00  0.00     0.211 A 
ENDROOT
BRANCH  10  14
HETATM   14  N4  UNL     1      11.821  44.254  36.484  1.00  0.00    -0.213 N 
HETATM   15  C5  UNL     1      12.458  43.402  35.512  1.00  0.00     0.168 C 
HETATM   16  C6  UNL     1      11.488  42.831  34.511  1.00  0.00     0.252 C 
HETATM   17  N5  UNL     1      10.344  42.210  35.113  1.00  0.00    -0.072 N 
HETATM   18  C7  UNL     1      10.165  42.559  36.504  1.00  0.00     0.252 C 
ATOM     19  H52 UNL     1       9.500  42.413  34.578  1.00  0.00     0.277 HD
ATOM     20  H51 UNL     1      10.380  41.197  34.996  1.00  0.00     0.277 HD
HETATM   21  C8  UNL     1      10.399  44.066  36.687  1.00  0.00     0.168 C 
ENDBRANCH  10  14
TORSDOF 1
ENDMDL
MODEL 4
REMARK VINA RESULT: -5.825118622      1.956      2.923
REMARK  1 active torsions:
REMARK  status: ('A' for Active; 'I' for Inactive)
REMARK    1  A    between atoms: C4_10  and  N4_11 
ROOT
HETATM    1  O1  UNL     1      12.621  44.045  34.167  1.00  0.00    -0.264 OA
HETATM    2  C1  UNL     1      12.017  44.354  35.224  1.00  0.00     0.291 A 
HETATM    3  N1  UNL     1      10.770  43.905  35.455  1.00  0.00    -0.329 N 
ATOM      4  H1  UNL     1      10.305  43.308  34.772  1.00  0.00     0.168 HD
HETATM    5  C2  UNL     1      10.137  44.249  36.599  1.00  0.00     0.111 A 
HETATM    6  C3  UNL     1      10.742  45.059  37.545  1.00  0.00     0.136 A 
HETATM    7  N2  UNL     1      11.999  45.507  37.302  1.00  0.00    -0.230 N 
HETATM    8  N3  UNL     1      12.832  46.275  37.987  1.00  0.00    -0.124 N 
ATOM      9  H3  UNL     1      12.620  46.683  38.897  1.00  0.00     0.206 HD
HETATM   10  C4  UNL     1      13.993  46.448  37.331  1.00  0.00     0.697 A 
HETATM   11  N6  UNL     1      13.861  45.749  36.188  1.00  0.00    -0.168 N 
ATOM     12  H6  UNL     1      14.569  45.672  35.458  1.00  0.00     0.186 HD
HETATM   13  C9  UNL     1      12.636  45.165  36.162  1.00  0.00     0.211 A 
ENDROOT
BRANCH  10  14
HETATM   14  N4  UNL     1      15.134  47.201  37.731  1.00  0.00    -0.213 N 
HETATM   15  C5  UNL     1      15.993  47.863  36.783  1.00  0.00     0.168 C 
HETATM   16  C6  UNL     1      17.369  48.136  37.332  1.00  0.00     0.252 C 
HETATM   17  N5  UNL     1      17.356  48.793  38.606  1.00  0.00    -0.072 N 
HETATM   18  C7  UNL     1      16.071  48.744  39.267  1.00  0.00     0.252 C 
ATOM     19  H52 UNL     1      18.088  48.422  39.212  1.00  0.00     0.277 HD
ATOM     20  H51 UNL     1      17.681  49.757  38.519  1.00  0.00     0.277 HD
HETATM   21  C8  UNL     1      15.481  47.332  39.131  1.00  0.00     0.168 C 
ENDBRANCH  10  14
TORSDOF 1
ENDMDL
MODEL 5
REMARK VINA RESULT: -5.773777950      1.967      2.721
REMARK  1 active torsions:
REMARK  status: ('A' for Active; 'I' for Inactive)
REMARK    1  A    between atoms: C4_10  and  N4_11 
ROOT
HETATM    1  O1  UNL     1      12.600  44.033  34.127  1.00  0.00    -0.264 OA
HETATM    2  C1  UNL     1      12.000  44.328  35.191  1.00  0.00     0.291 A 
HETATM    3  N1  UNL     1      10.763  43.858  35.431  1.00  0.00    -0.329 N 
ATOM      4  H1  UNL     1      10.300  43.258  34.748  1.00  0.00     0.168 HD
HETATM    5  C2  UNL     1      10.134  44.187  36.582  1.00  0.00     0.111 A 
HETATM    6  C3  UNL     1      10.735  45.000  37.527  1.00  0.00     0.136 A 
HETATM    7  N2  UNL     1      11.983  45.469  37.275  1.00  0.00    -0.230 N 
HETATM    8  N3  UNL     1      12.810  46.246  37.957  1.00  0.00    -0.124 N 
ATOM      9  H3  UNL     1      12.600  46.647  38.871  1.00  0.00     0.206 HD
HETATM   10  C4  UNL     1      13.962  46.440  37.292  1.00  0.00     0.697 A 
HETATM   11  N6  UNL     1      13.831  45.746  36.146  1.00  0.00    -0.168 N 
ATOM     12  H6  UNL     1      14.534  45.683  35.409  1.00  0.00     0.186 HD
HETATM   13  C9  UNL     1      12.615  45.143  36.128  1.00  0.00     0.211 A 
ENDROOT
BRANCH  10  14
HETATM   14  N4  UNL     1      15.095  47.209  37.686  1.00  0.00    -0.213 N 
HETATM   15  C5  UNL     1      15.316  47.614  39.051  1.00  0.00     0.168 C 
HETATM   16  C6  UNL     1      16.228  48.809  39.165  1.00  0.00     0.252 C 
HETATM   17  N5  UNL     1      17.453  48.664  38.435  1.00  0.00    -0.072 N 
HETATM   18  C7  UNL     1      17.424  47.591  37.467  1.00  0.00     0.252 C 
ATOM     19  H52 UNL     1      17.715  49.545  37.991  1.00  0.00     0.277 HD
ATOM     20  H51 UNL     1      18.242  48.555  39.072  1.00  0.00     0.277 HD
HETATM   21  C8  UNL     1      16.086  47.620  36.713  1.00  0.00     0.168 C 
ENDBRANCH  10  14
TORSDOF 1
ENDMDL
