MODEL 1
REMARK VINA RESULT: -6.370388383      0.000      0.000
REMARK  3 active torsions:
REMARK  status: ('A' for Active; 'I' for Inactive)
REMARK    1  A    between atoms: C2_3  and  N3_6 
REMARK    2  A    between atoms: N3_6  and  C4_7 
REMARK    3  A    between atoms: C5_10  and  N5_11 
ROOT
HETATM    1  N1  UNL     1      12.865  42.628  33.563  1.00  0.00    -0.193 NA
HETATM    2  C1  UNL     1      12.209  43.301  34.230  1.00  0.00     0.114 C 
HETATM    3  C2  UNL     1      11.379  44.184  35.074  1.00  0.00     0.376 C 
HETATM    4  C3  UNL     1      10.539  43.284  35.946  1.00  0.00     0.114 C 
HETATM    5  N2  UNL     1       9.912  42.590  36.623  1.00  0.00    -0.193 NA
ENDROOT
BRANCH   3   6
HETATM    6  N3  UNL     1      12.052  45.077  35.798  1.00  0.00    -0.395 NA
BRANCH   6   7
HETATM    7  C4  UNL     1      12.839  45.570  36.588  1.00  0.00     0.205 A 
HETATM    8  N4  UNL     1      14.092  45.971  36.141  1.00  0.00    -0.164 N 
HETATM    9  C5  UNL     1      14.996  46.515  36.952  1.00  0.00     0.679 A 
ATOM     10  H4  UNL     1      14.326  45.846  35.156  1.00  0.00     0.187 HD
HETATM   11  N6  UNL     1      14.745  46.705  38.259  1.00  0.00    -0.176 N 
HETATM   12  C6  UNL     1      13.565  46.350  38.788  1.00  0.00     0.138 A 
ATOM     13  H6  UNL     1      15.459  47.124  38.855  1.00  0.00     0.186 HD
HETATM   14  N7  UNL     1      13.338  46.551  40.100  1.00  0.00    -0.337 N 
HETATM   15  C9  UNL     1      12.628  45.786  37.943  1.00  0.00     0.082 A 
HETATM   16  C7  UNL     1      12.134  46.178  40.590  1.00  0.00     0.181 A 
ATOM     17  H7  UNL     1      14.047  46.969  40.702  1.00  0.00     0.168 HD
HETATM   18  N8  UNL     1      11.203  45.634  39.826  1.00  0.00    -0.361 N 
HETATM   19  C8  UNL     1      11.420  45.425  38.496  1.00  0.00     0.109 A 
ATOM     20  H8  UNL     1      10.308  45.368  40.237  1.00  0.00     0.166 HD
BRANCH   9  21
HETATM   21  N5  UNL     1      16.155  46.876  36.489  1.00  0.00    -0.234 N 
ATOM     22  H52 UNL     1      16.243  47.051  35.488  1.00  0.00     0.174 HD
ATOM     23  H51 UNL     1      16.950  46.980  37.120  1.00  0.00     0.174 HD
ENDBRANCH   9  21
ENDBRANCH   6   7
ENDBRANCH   3   6
TORSDOF 3
ENDMDL
MODEL 2
REMARK VINA RESULT: -6.264360118      0.721      1.741
REMARK  3 active torsions:
REMARK  status: ('A' for Active; 'I' for Inactive)
REMARK    1  A    between atoms: C2_3  and  N3_6 
REMARK    2  A    between atoms: N3_6  and  C4_7 
REMARK    3  A    between atoms: C5_10  and  N5_11 
ROOT
HETATM    1  N1  UNL     1       9.909  42.637  36.536  1.00  0.00    -0.193 NA
HETATM    2  C1  UNL     1      10.867  43.096  36.091  1.00  0.00     0.114 C 
HETATM    3  C2  UNL     1      12.105  43.685  35.543  1.00  0.00     0.376 C 
HETATM    4  C3  UNL     1      11.860  43.918  34.072  1.00  0.00     0.114 C 
HETATM    5  N2  UNL     1      11.660  44.110  32.952  1.00  0.00    -0.193 NA
ENDROOT
BRANCH   3   6
HETATM    6  N3  UNL     1      12.526  44.794  36.151  1.00  0.00    -0.395 NA
BRANCH   6   7
HETATM    7  C4  UNL     1      13.180  45.559  36.838  1.00  0.00     0.205 A 
HETATM    8  N4  UNL     1      14.353  46.100  36.327  1.00  0.00    -0.164 N 
HETATM    9  C5  UNL     1      15.113  46.941  37.026  1.00  0.00     0.679 A 
ATOM     10  H4  UNL     1      14.642  45.844  35.383  1.00  0.00     0.187 HD
HETATM   11  N6  UNL     1      14.783  47.314  38.274  1.00  0.00    -0.176 N 
HETATM   12  C6  UNL     1      13.670  46.847  38.858  1.00  0.00     0.138 A 
ATOM     13  H6  UNL     1      15.386  47.960  38.783  1.00  0.00     0.186 HD
HETATM   14  N7  UNL     1      13.362  47.236  40.109  1.00  0.00    -0.337 N 
HETATM   15  C9  UNL     1      12.883  45.974  38.130  1.00  0.00     0.082 A 
HETATM   16  C7  UNL     1      12.230  46.740  40.658  1.00  0.00     0.181 A 
ATOM     17  H7  UNL     1      13.961  47.881  40.625  1.00  0.00     0.168 HD
HETATM   18  N8  UNL     1      11.443  45.903  40.005  1.00  0.00    -0.361 N 
HETATM   19  C8  UNL     1      11.743  45.500  38.737  1.00  0.00     0.109 A 
ATOM     20  H8  UNL     1      10.598  45.553  40.456  1.00  0.00     0.166 HD
BRANCH   9  21
HETATM   21  N5  UNL     1      16.202  47.423  36.506  1.00  0.00    -0.234 N 
ATOM     22  H52 UNL     1      16.120  48.057  35.711  1.00  0.00     0.174 HD
ATOM     23  H51 UNL     1      17.111  47.166  36.891  1.00  0.00     0.174 HD
ENDBRANCH   9  21
ENDBRANCH   6   7
ENDBRANCH   3   6
TORSDOF 3
ENDMDL
MODEL 3
REMARK VINA RESULT: -6.113291542      1.562      5.182
REMARK  3 active torsions:
REMARK  status: ('A' for Active; 'I' for Inactive)
REMARK    1  A    between atoms: C2_3  and  N3_6 
REMARK    2  A    between atoms: N3_6  and  C4_7 
REMARK    3  A    between atoms: C5_10  and  N5_11 
ROOT
HETATM    1  N1  UNL     1      13.149  45.586  42.499  1.00  0.00    -0.193 NA
HETATM    2  C1  UNL     1      12.738  46.386  41.779  1.00  0.00     0.114 C 
HETATM    3  C2  UNL     1      12.197  47.395  40.847  1.00  0.00     0.376 C 
HETATM    4  C3  UNL     1      12.935  48.681  41.124  1.00  0.00     0.114 C 
HETATM    5  N2  UNL     1      13.517  49.657  41.328  1.00  0.00    -0.193 NA
ENDROOT
BRANCH   3   6
HETATM    6  N3  UNL     1      12.252  47.066  39.557  1.00  0.00    -0.395 NA
BRANCH   6   7
HETATM    7  C4  UNL     1      12.621  46.579  38.502  1.00  0.00     0.205 A 
HETATM    8  N4  UNL     1      13.918  46.810  38.062  1.00  0.00    -0.164 N 
HETATM    9  C5  UNL     1      14.382  46.307  36.920  1.00  0.00     0.679 A 
ATOM     10  H4  UNL     1      14.536  47.385  38.634  1.00  0.00     0.187 HD
HETATM   11  N6  UNL     1      13.614  45.543  36.124  1.00  0.00    -0.176 N 
HETATM   12  C6  UNL     1      12.346  45.262  36.460  1.00  0.00     0.138 A 
ATOM     13  H6  UNL     1      13.998  45.173  35.255  1.00  0.00     0.186 HD
HETATM   14  N7  UNL     1      11.598  44.495  35.646  1.00  0.00    -0.337 N 
HETATM   15  C9  UNL     1      11.867  45.786  37.646  1.00  0.00     0.082 A 
HETATM   16  C7  UNL     1      10.325  44.237  36.025  1.00  0.00     0.181 A 
ATOM     17  H7  UNL     1      11.976  44.122  34.775  1.00  0.00     0.168 HD
HETATM   18  N8  UNL     1       9.818  44.712  37.149  1.00  0.00    -0.361 N 
HETATM   19  C8  UNL     1      10.565  45.492  37.983  1.00  0.00     0.109 A 
ATOM     20  H8  UNL     1       8.853  44.493  37.397  1.00  0.00     0.166 HD
BRANCH   9  21
HETATM   21  N5  UNL     1      15.603  46.550  36.549  1.00  0.00    -0.234 N 
ATOM     22  H52 UNL     1      16.340  46.511  37.252  1.00  0.00     0.174 HD
ATOM     23  H51 UNL     1      15.808  46.773  35.574  1.00  0.00     0.174 HD
ENDBRANCH   9  21
ENDBRANCH   6   7
ENDBRANCH   3   6
TORSDOF 3
ENDMDL
MODEL 4
REMARK VINA RESULT: -6.109899389      1.419      2.031
REMARK  3 active torsions:
REMARK  status: ('A' for Active; 'I' for Inactive)
REMARK    1  A    between atoms: C2_3  and  N3_6 
REMARK    2  A    between atoms: N3_6  and  C4_7 
REMARK    3  A    between atoms: C5_10  and  N5_11 
ROOT
HETATM    1  N1  UNL     1      10.007  43.165  36.598  1.00  0.00    -0.193 NA
HETATM    2  C1  UNL     1      10.715  43.964  36.163  1.00  0.00     0.114 C 
HETATM    3  C2  UNL     1      11.640  44.972  35.609  1.00  0.00     0.376 C 
HETATM    4  C3  UNL     1      10.806  46.180  35.259  1.00  0.00     0.114 C 
HETATM    5  N2  UNL     1      10.165  47.107  35.011  1.00  0.00    -0.193 NA
ENDROOT
BRANCH   3   6
HETATM    6  N3  UNL     1      12.666  45.296  36.395  1.00  0.00    -0.395 NA
BRANCH   6   7
HETATM    7  C4  UNL     1      13.471  45.950  37.036  1.00  0.00     0.205 A 
HETATM    8  N4  UNL     1      14.686  46.291  36.457  1.00  0.00    -0.164 N 
HETATM    9  C5  UNL     1      15.608  47.002  37.103  1.00  0.00     0.679 A 
ATOM     10  H4  UNL     1      14.879  45.986  35.503  1.00  0.00     0.187 HD
HETATM   11  N6  UNL     1      15.410  47.431  38.361  1.00  0.00    -0.176 N 
HETATM   12  C6  UNL     1      14.269  47.153  39.009  1.00  0.00     0.138 A 
ATOM     13  H6  UNL     1      16.136  47.973  38.829  1.00  0.00     0.186 HD
HETATM   14  N7  UNL     1      14.096  47.594  40.269  1.00  0.00    -0.337 N 
HETATM   15  C9  UNL     1      13.315  46.414  38.336  1.00  0.00     0.082 A 
HETATM   16  C7  UNL     1      12.930  47.290  40.883  1.00  0.00     0.181 A 
ATOM     17  H7  UNL     1      14.818  48.137  40.743  1.00  0.00     0.168 HD
HETATM   18  N8  UNL     1      11.984  46.588  40.285  1.00  0.00    -0.361 N 
HETATM   19  C8  UNL     1      12.147  46.134  39.008  1.00  0.00     0.109 A 
ATOM     20  H8  UNL     1      11.120  46.381  40.784  1.00  0.00     0.166 HD
BRANCH   9  21
HETATM   21  N5  UNL     1      16.731  47.298  36.520  1.00  0.00    -0.234 N 
ATOM     22  H52 UNL     1      16.698  47.762  35.613  1.00  0.00     0.174 HD
ATOM     23  H51 UNL     1      17.618  47.067  36.968  1.00  0.00     0.174 HD
ENDBRANCH   9  21
ENDBRANCH   6   7
ENDBRANCH   3   6
TORSDOF 3
ENDMDL
MODEL 5
REMARK VINA RESULT: -6.077994035      1.791      3.644
REMARK  3 active torsions:
REMARK  status: ('A' for Active; 'I' for Inactive)
REMARK    1  A    between atoms: C2_3  and  N3_6 
REMARK    2  A    between atoms: N3_6  and  C4_7 
REMARK    3  A    between atoms: C5_10  and  N5_11 
ROOT
HETATM    1  N1  UNL     1      10.284  47.061  35.116  1.00  0.00    -0.193 NA
HETATM    2  C1  UNL     1      10.239  46.393  36.054  1.00  0.00     0.114 C 
HETATM    3  C2  UNL     1      10.183  45.556  37.269  1.00  0.00     0.376 C 
HETATM    4  C3  UNL     1      10.114  44.122  36.805  1.00  0.00     0.114 C 
HETATM    5  N2  UNL     1      10.080  43.026  36.444  1.00  0.00    -0.193 NA
ENDROOT
BRANCH   3   6
HETATM    6  N3  UNL     1      11.178  45.744  38.136  1.00  0.00    -0.395 NA
BRANCH   6   7
HETATM    7  C4  UNL     1      12.108  46.254  38.737  1.00  0.00     0.205 A 
HETATM    8  N4  UNL     1      11.925  46.668  40.050  1.00  0.00    -0.164 N 
HETATM    9  C5  UNL     1      12.900  47.231  40.761  1.00  0.00     0.679 A 
ATOM     10  H4  UNL     1      11.012  46.535  40.485  1.00  0.00     0.187 HD
HETATM   11  N6  UNL     1      14.123  47.432  40.241  1.00  0.00    -0.176 N 
HETATM   12  C6  UNL     1      14.400  47.068  38.980  1.00  0.00     0.138 A 
ATOM     13  H6  UNL     1      14.848  47.867  40.811  1.00  0.00     0.186 HD
HETATM   14  N7  UNL     1      15.633  47.280  38.484  1.00  0.00    -0.337 N 
HETATM   15  C9  UNL     1      13.386  46.483  38.245  1.00  0.00     0.082 A 
HETATM   16  C7  UNL     1      15.868  46.896  37.208  1.00  0.00     0.181 A 
ATOM     17  H7  UNL     1      16.363  47.714  39.048  1.00  0.00     0.168 HD
HETATM   18  N8  UNL     1      14.934  46.332  36.462  1.00  0.00    -0.361 N 
HETATM   19  C8  UNL     1      13.680  46.112  36.953  1.00  0.00     0.109 A 
ATOM     20  H8  UNL     1      15.154  46.057  35.505  1.00  0.00     0.166 HD
BRANCH   9  21
HETATM   21  N5  UNL     1      12.682  47.603  41.987  1.00  0.00    -0.234 N 
ATOM     22  H52 UNL     1      12.713  48.599  42.203  1.00  0.00     0.174 HD
ATOM     23  H51 UNL     1      12.486  46.907  42.706  1.00  0.00     0.174 HD
ENDBRANCH   9  21
ENDBRANCH   6   7
ENDBRANCH   3   6
TORSDOF 3
ENDMDL
