MODEL 1
REMARK VINA RESULT: -6.353802915      0.000      0.000
REMARK  11 active torsions:
REMARK  status: ('A' for Active; 'I' for Inactive)
REMARK    1  A    between atoms: C1_2  and  C2_4 
REMARK    2  A    between atoms: C2_4  and  C3_5 
REMARK    3  A    between atoms: C3_5  and  C4_6 
REMARK    4  A    between atoms: N1_12  and  C10_13 
REMARK    5  A    between atoms: C10_13  and  C11_14 
REMARK    6  A    between atoms: N2_19  and  C16_20 
REMARK    7  A    between atoms: C16_20  and  C17_21 
REMARK       I    between atoms: C17_21  and  N3_23 
REMARK    8  A    between atoms: N3_23  and  C18_25 
REMARK    9  A    between atoms: C18_25  and  O4_26 
REMARK   10  A    between atoms: C18_25  and  N4_28 
REMARK   11  A    between atoms: N4_28  and  C19_30 
ROOT
HETATM    1  C3  UNL     1      16.407  15.319   3.972  1.00  0.00    -0.007 C 
HETATM    2  C14 UNL     1      16.139  13.893   4.206  1.00  0.00     0.031 C 
HETATM    3  C15 UNL     1      17.429  13.064   4.217  1.00  0.00     0.118 C 
HETATM    4  N2  UNL     1      18.148  13.165   3.010  1.00  0.00    -0.404 N 
HETATM    5  C24 UNL     1      17.846  14.260   2.165  1.00  0.00     0.118 C 
HETATM    6  C25 UNL     1      17.416  15.520   2.824  1.00  0.00     0.031 C 
ENDROOT
BRANCH   4   7
HETATM    7  C16 UNL     1      18.368  11.983   2.256  1.00  0.00     0.220 C 
BRANCH   7   8
HETATM    8  C17 UNL     1      17.172  11.148   1.961  1.00  0.00     0.242 C 
HETATM    9  O3  UNL     1      16.953  10.188   2.775  1.00  0.00    -0.271 OA
HETATM   10  N3  UNL     1      16.331  11.394   0.869  1.00  0.00    -0.292 N 
ATOM     11  H3  UNL     1      16.594  12.173   0.265  1.00  0.00     0.172 HD
BRANCH  10  12
HETATM   12  C18 UNL     1      15.183  10.706   0.511  1.00  0.00     0.219 C 
BRANCH  12  13
HETATM   13  O4  UNL     1      15.255   9.408   0.478  1.00  0.00    -0.332 OA
ATOM     14  H4  UNL     1      14.450   8.933   0.308  1.00  0.00     0.220 HD
ENDBRANCH  12  13
BRANCH  12  15
HETATM   15  N4  UNL     1      13.947  11.285   0.177  1.00  0.00    -0.351 N 
ATOM     16  H4  UNL     1      13.118  11.039   0.718  1.00  0.00     0.163 HD
BRANCH  15  17
HETATM   17  C19 UNL     1      13.827  12.237  -0.935  1.00  0.00     0.089 C 
HETATM   18  C20 UNL     1      14.117  11.553  -2.230  1.00  0.00     0.051 C 
HETATM   19  C21 UNL     1      13.222  12.152  -3.295  1.00  0.00     0.169 C 
HETATM   20  O5  UNL     1      11.890  11.835  -3.111  1.00  0.00    -0.391 OA
HETATM   21  C22 UNL     1      11.494  11.935  -1.784  1.00  0.00     0.169 C 
HETATM   22  C23 UNL     1      12.423  12.793  -0.977  1.00  0.00     0.051 C 
ENDBRANCH  15  17
ENDBRANCH  12  15
ENDBRANCH  10  12
ENDBRANCH   7   8
ENDBRANCH   4   7
BRANCH   1  23
HETATM   23  C2  UNL     1      17.123  15.821   5.207  1.00  0.00     0.124 C 
BRANCH  23  24
HETATM   24  C1  UNL     1      17.869  17.065   5.102  1.00  0.00     0.173 C 
HETATM   25  O1  UNL     1      19.144  16.935   5.016  1.00  0.00    -0.648 OA
HETATM   26  O2  UNL     1      17.461  18.363   5.076  1.00  0.00    -0.648 OA
ENDBRANCH  23  24
ENDBRANCH   1  23
BRANCH   1  27
HETATM   27  C4  UNL     1      15.290  16.232   3.690  1.00  0.00     0.092 C 
HETATM   28  C5  UNL     1      14.589  15.701   2.412  1.00  0.00     0.026 C 
HETATM   29  C6  UNL     1      14.452  16.715   1.352  1.00  0.00     0.002 C 
HETATM   30  C7  UNL     1      14.486  18.134   1.765  1.00  0.00     0.002 C 
HETATM   31  C8  UNL     1      13.964  18.483   3.099  1.00  0.00     0.020 C 
HETATM   32  C9  UNL     1      13.309  17.416   3.894  1.00  0.00     0.122 C 
HETATM   33  N1  UNL     1      14.250  16.532   4.538  1.00  0.00    -0.388 N 
BRANCH  33  34
HETATM   34  C10 UNL     1      14.194  16.430   5.902  1.00  0.00     0.063 C 
BRANCH  34  35
HETATM   35  C11 UNL     1      12.902  16.925   6.523  1.00  0.00     0.024 A 
HETATM   36  C12 UNL     1      12.327  16.190   7.676  1.00  0.00     0.010 A 
HETATM   37  C13 UNL     1      12.967  17.488   7.955  1.00  0.00     0.010 A 
ENDBRANCH  34  35
ENDBRANCH  33  34
ENDBRANCH   1  27
TORSDOF 11
ENDMDL
MODEL 2
REMARK VINA RESULT: -6.141147855      2.877      7.654
REMARK  11 active torsions:
REMARK  status: ('A' for Active; 'I' for Inactive)
REMARK    1  A    between atoms: C1_2  and  C2_4 
REMARK    2  A    between atoms: C2_4  and  C3_5 
REMARK    3  A    between atoms: C3_5  and  C4_6 
REMARK    4  A    between atoms: N1_12  and  C10_13 
REMARK    5  A    between atoms: C10_13  and  C11_14 
REMARK    6  A    between atoms: N2_19  and  C16_20 
REMARK    7  A    between atoms: C16_20  and  C17_21 
REMARK       I    between atoms: C17_21  and  N3_23 
REMARK    8  A    between atoms: N3_23  and  C18_25 
REMARK    9  A    between atoms: C18_25  and  O4_26 
REMARK   10  A    between atoms: C18_25  and  N4_28 
REMARK   11  A    between atoms: N4_28  and  C19_30 
ROOT
HETATM    1  C3  UNL     1      16.148  14.910   2.751  1.00  0.00    -0.007 C 
HETATM    2  C14 UNL     1      15.235  15.328   3.824  1.00  0.00     0.031 C 
HETATM    3  C15 UNL     1      15.508  16.766   4.279  1.00  0.00     0.118 C 
HETATM    4  N2  UNL     1      16.823  16.944   4.752  1.00  0.00    -0.404 N 
HETATM    5  C24 UNL     1      17.782  15.970   4.383  1.00  0.00     0.118 C 
HETATM    6  C25 UNL     1      17.602  15.315   3.062  1.00  0.00     0.031 C 
ENDROOT
BRANCH   4   7
HETATM    7  C16 UNL     1      17.006  17.357   6.098  1.00  0.00     0.220 C 
BRANCH   7   8
HETATM    8  C17 UNL     1      16.141  16.704   7.118  1.00  0.00     0.242 C 
HETATM    9  O3  UNL     1      16.566  15.589   7.573  1.00  0.00    -0.271 OA
HETATM   10  N3  UNL     1      14.939  17.271   7.562  1.00  0.00    -0.292 N 
ATOM     11  H3  UNL     1      14.673  18.156   7.130  1.00  0.00     0.172 HD
BRANCH  10  12
HETATM   12  C18 UNL     1      14.070  16.773   8.518  1.00  0.00     0.219 C 
BRANCH  12  13
HETATM   13  O4  UNL     1      14.595  16.138   9.525  1.00  0.00    -0.332 OA
ATOM     14  H4  UNL     1      14.941  16.664  10.236  1.00  0.00     0.220 HD
ENDBRANCH  12  13
BRANCH  12  15
HETATM   15  N4  UNL     1      12.670  16.889   8.497  1.00  0.00    -0.351 N 
ATOM     16  H4  UNL     1      12.155  16.889   9.378  1.00  0.00     0.163 HD
BRANCH  15  17
HETATM   17  C19 UNL     1      11.933  17.008   7.231  1.00  0.00     0.089 C 
HETATM   18  C20 UNL     1      10.699  16.170   7.275  1.00  0.00     0.051 C 
HETATM   19  C21 UNL     1       9.610  16.888   6.504  1.00  0.00     0.169 C 
HETATM   20  O5  UNL     1       9.181  18.039   7.135  1.00  0.00    -0.391 OA
HETATM   21  C22 UNL     1      10.230  18.790   7.649  1.00  0.00     0.169 C 
HETATM   22  C23 UNL     1      11.542  18.449   7.006  1.00  0.00     0.051 C 
ENDBRANCH  15  17
ENDBRANCH  12  15
ENDBRANCH  10  12
ENDBRANCH   7   8
ENDBRANCH   4   7
BRANCH   1  23
HETATM   23  C2  UNL     1      15.771  15.728   1.535  1.00  0.00     0.124 C 
BRANCH  23  24
HETATM   24  C1  UNL     1      16.807  16.001   0.552  1.00  0.00     0.173 C 
HETATM   25  O1  UNL     1      17.176  17.229   0.469  1.00  0.00    -0.648 OA
HETATM   26  O2  UNL     1      17.469  15.184  -0.312  1.00  0.00    -0.648 OA
ENDBRANCH  23  24
ENDBRANCH   1  23
BRANCH   1  27
HETATM   27  C4  UNL     1      16.202  13.497   2.351  1.00  0.00     0.092 C 
HETATM   28  C5  UNL     1      16.360  12.668   3.652  1.00  0.00     0.026 C 
HETATM   29  C6  UNL     1      17.507  11.743   3.626  1.00  0.00     0.002 C 
HETATM   30  C7  UNL     1      18.012  11.331   2.299  1.00  0.00     0.002 C 
HETATM   31  C8  UNL     1      17.049  11.238   1.185  1.00  0.00     0.020 C 
HETATM   32  C9  UNL     1      15.610  11.429   1.489  1.00  0.00     0.122 C 
HETATM   33  N1  UNL     1      15.243  12.816   1.638  1.00  0.00    -0.388 N 
BRANCH  33  34
HETATM   34  C10 UNL     1      14.276  13.310   0.803  1.00  0.00     0.063 C 
BRANCH  34  35
HETATM   35  C11 UNL     1      13.597  12.269  -0.066  1.00  0.00     0.024 A 
HETATM   36  C12 UNL     1      12.147  12.013   0.116  1.00  0.00     0.010 A 
HETATM   37  C13 UNL     1      12.553  12.762  -1.086  1.00  0.00     0.010 A 
ENDBRANCH  34  35
ENDBRANCH  33  34
ENDBRANCH   1  27
TORSDOF 11
ENDMDL
MODEL 3
REMARK VINA RESULT: -6.135964924      2.367      7.826
REMARK  11 active torsions:
REMARK  status: ('A' for Active; 'I' for Inactive)
REMARK    1  A    between atoms: C1_2  and  C2_4 
REMARK    2  A    between atoms: C2_4  and  C3_5 
REMARK    3  A    between atoms: C3_5  and  C4_6 
REMARK    4  A    between atoms: N1_12  and  C10_13 
REMARK    5  A    between atoms: C10_13  and  C11_14 
REMARK    6  A    between atoms: N2_19  and  C16_20 
REMARK    7  A    between atoms: C16_20  and  C17_21 
REMARK       I    between atoms: C17_21  and  N3_23 
REMARK    8  A    between atoms: N3_23  and  C18_25 
REMARK    9  A    between atoms: C18_25  and  O4_26 
REMARK   10  A    between atoms: C18_25  and  N4_28 
REMARK   11  A    between atoms: N4_28  and  C19_30 
ROOT
HETATM    1  C3  UNL     1      14.998  13.004   0.139  1.00  0.00    -0.007 C 
HETATM    2  C14 UNL     1      16.425  12.995   0.490  1.00  0.00     0.031 C 
HETATM    3  C15 UNL     1      16.639  12.994   2.008  1.00  0.00     0.118 C 
HETATM    4  N2  UNL     1      16.058  14.112   2.638  1.00  0.00    -0.404 N 
HETATM    5  C24 UNL     1      15.064  14.817   1.918  1.00  0.00     0.118 C 
HETATM    6  C25 UNL     1      14.217  14.027   0.988  1.00  0.00     0.031 C 
ENDROOT
BRANCH   4   7
HETATM    7  C16 UNL     1      16.906  15.003   3.346  1.00  0.00     0.220 C 
BRANCH   7   8
HETATM    8  C17 UNL     1      16.674  15.122   4.811  1.00  0.00     0.242 C 
HETATM    9  O3  UNL     1      17.082  14.139   5.518  1.00  0.00    -0.271 OA
HETATM   10  N3  UNL     1      16.055  16.238   5.388  1.00  0.00    -0.292 N 
ATOM     11  H3  UNL     1      15.749  16.966   4.743  1.00  0.00     0.172 HD
BRANCH  10  12
HETATM   12  C18 UNL     1      15.810  16.470   6.732  1.00  0.00     0.219 C 
BRANCH  12  13
HETATM   13  O4  UNL     1      16.784  16.237   7.562  1.00  0.00    -0.332 OA
ATOM     14  H4  UNL     1      17.089  15.340   7.632  1.00  0.00     0.220 HD
ENDBRANCH  12  13
BRANCH  12  15
HETATM   15  N4  UNL     1      14.602  16.932   7.280  1.00  0.00    -0.351 N 
ATOM     16  H4  UNL     1      14.622  17.506   8.123  1.00  0.00     0.163 HD
BRANCH  15  17
HETATM   17  C19 UNL     1      13.309  16.605   6.661  1.00  0.00     0.089 C 
HETATM   18  C20 UNL     1      12.312  16.251   7.714  1.00  0.00     0.051 C 
HETATM   19  C21 UNL     1      10.955  16.755   7.271  1.00  0.00     0.169 C 
HETATM   20  O5  UNL     1      10.873  18.134   7.271  1.00  0.00    -0.391 OA
HETATM   21  C22 UNL     1      12.006  18.737   6.740  1.00  0.00     0.169 C 
HETATM   22  C23 UNL     1      12.803  17.797   5.885  1.00  0.00     0.051 C 
ENDBRANCH  15  17
ENDBRANCH  12  15
ENDBRANCH  10  12
ENDBRANCH   7   8
ENDBRANCH   4   7
BRANCH   1  23
HETATM   23  C2  UNL     1      14.451  11.657   0.558  1.00  0.00     0.124 C 
BRANCH  23  24
HETATM   24  C1  UNL     1      15.127  10.467   0.064  1.00  0.00     0.173 C 
HETATM   25  O1  UNL     1      15.665   9.727   0.965  1.00  0.00    -0.648 OA
HETATM   26  O2  UNL     1      15.298   9.984  -1.197  1.00  0.00    -0.648 OA
ENDBRANCH  23  24
ENDBRANCH   1  23
BRANCH   1  27
HETATM   27  C4  UNL     1      14.593  13.248  -1.254  1.00  0.00     0.092 C 
HETATM   28  C5  UNL     1      13.042  13.257  -1.275  1.00  0.00     0.026 C 
HETATM   29  C6  UNL     1      12.462  12.327  -2.259  1.00  0.00     0.002 C 
HETATM   30  C7  UNL     1      13.317  11.926  -3.397  1.00  0.00     0.002 C 
HETATM   31  C8  UNL     1      14.313  12.894  -3.894  1.00  0.00     0.020 C 
HETATM   32  C9  UNL     1      14.307  14.260  -3.318  1.00  0.00     0.122 C 
HETATM   33  N1  UNL     1      14.943  14.331  -2.025  1.00  0.00    -0.388 N 
BRANCH  33  34
HETATM   34  C10 UNL     1      16.009  15.179  -1.888  1.00  0.00     0.063 C 
BRANCH  34  35
HETATM   35  C11 UNL     1      15.651  16.652  -1.874  1.00  0.00     0.024 A 
HETATM   36  C12 UNL     1      14.545  17.117  -1.003  1.00  0.00     0.010 A 
HETATM   37  C13 UNL     1      15.917  17.440  -0.578  1.00  0.00     0.010 A 
ENDBRANCH  34  35
ENDBRANCH  33  34
ENDBRANCH   1  27
TORSDOF 11
ENDMDL
MODEL 4
REMARK VINA RESULT: -6.109834154      2.772      7.551
REMARK  11 active torsions:
REMARK  status: ('A' for Active; 'I' for Inactive)
REMARK    1  A    between atoms: C1_2  and  C2_4 
REMARK    2  A    between atoms: C2_4  and  C3_5 
REMARK    3  A    between atoms: C3_5  and  C4_6 
REMARK    4  A    between atoms: N1_12  and  C10_13 
REMARK    5  A    between atoms: C10_13  and  C11_14 
REMARK    6  A    between atoms: N2_19  and  C16_20 
REMARK    7  A    between atoms: C16_20  and  C17_21 
REMARK       I    between atoms: C17_21  and  N3_23 
REMARK    8  A    between atoms: N3_23  and  C18_25 
REMARK    9  A    between atoms: C18_25  and  O4_26 
REMARK   10  A    between atoms: C18_25  and  N4_28 
REMARK   11  A    between atoms: N4_28  and  C19_30 
ROOT
HETATM    1  C3  UNL     1      16.134  14.332   1.702  1.00  0.00    -0.007 C 
HETATM    2  C14 UNL     1      15.330  14.953   2.764  1.00  0.00     0.031 C 
HETATM    3  C15 UNL     1      15.827  16.363   3.107  1.00  0.00     0.118 C 
HETATM    4  N2  UNL     1      17.169  16.376   3.533  1.00  0.00    -0.404 N 
HETATM    5  C24 UNL     1      17.962  15.247   3.212  1.00  0.00     0.118 C 
HETATM    6  C25 UNL     1      17.642  14.537   1.947  1.00  0.00     0.031 C 
ENDROOT
BRANCH   4   7
HETATM    7  C16 UNL     1      17.457  16.847   4.840  1.00  0.00     0.220 C 
BRANCH   7   8
HETATM    8  C17 UNL     1      16.447  16.554   5.892  1.00  0.00     0.242 C 
HETATM    9  O3  UNL     1      16.620  15.466   6.538  1.00  0.00    -0.271 OA
HETATM   10  N3  UNL     1      15.375  17.412   6.168  1.00  0.00    -0.292 N 
ATOM     11  H3  UNL     1      15.309  18.250   5.590  1.00  0.00     0.172 HD
BRANCH  10  12
HETATM   12  C18 UNL     1      14.394  17.259   7.134  1.00  0.00     0.219 C 
BRANCH  12  13
HETATM   13  O4  UNL     1      14.721  16.617   8.217  1.00  0.00    -0.332 OA
ATOM     14  H4  UNL     1      14.788  17.124   9.018  1.00  0.00     0.220 HD
ENDBRANCH  12  13
BRANCH  12  15
HETATM   15  N4  UNL     1      13.073  17.731   7.047  1.00  0.00    -0.351 N 
ATOM     16  H4  UNL     1      12.847  18.654   7.418  1.00  0.00     0.163 HD
BRANCH  15  17
HETATM   17  C19 UNL     1      12.012  16.921   6.434  1.00  0.00     0.089 C 
HETATM   18  C20 UNL     1      10.950  16.619   7.438  1.00  0.00     0.051 C 
HETATM   19  C21 UNL     1       9.613  16.609   6.727  1.00  0.00     0.169 C 
HETATM   20  O5  UNL     1       9.231  17.864   6.295  1.00  0.00    -0.391 OA
HETATM   21  C22 UNL     1      10.278  18.574   5.721  1.00  0.00     0.169 C 
HETATM   22  C23 UNL     1      11.398  17.679   5.281  1.00  0.00     0.051 C 
ENDBRANCH  15  17
ENDBRANCH  12  15
ENDBRANCH  10  12
ENDBRANCH   7   8
ENDBRANCH   4   7
BRANCH   1  23
HETATM   23  C2  UNL     1      15.838  15.112   0.440  1.00  0.00     0.124 C 
BRANCH  23  24
HETATM   24  C1  UNL     1      16.772  14.991  -0.668  1.00  0.00     0.173 C 
HETATM   25  O1  UNL     1      17.383  16.073  -0.992  1.00  0.00    -0.648 OA
HETATM   26  O2  UNL     1      17.125  13.925  -1.438  1.00  0.00    -0.648 OA
ENDBRANCH  23  24
ENDBRANCH   1  23
BRANCH   1  27
HETATM   27  C4  UNL     1      15.966  12.902   1.405  1.00  0.00     0.092 C 
HETATM   28  C5  UNL     1      16.290  12.131   2.712  1.00  0.00     0.026 C 
HETATM   29  C6  UNL     1      17.311  11.083   2.540  1.00  0.00     0.002 C 
HETATM   30  C7  UNL     1      17.504  10.546   1.175  1.00  0.00     0.002 C 
HETATM   31  C8  UNL     1      16.339  10.503   0.272  1.00  0.00     0.020 C 
HETATM   32  C9  UNL     1      15.013  10.871   0.825  1.00  0.00     0.122 C 
HETATM   33  N1  UNL     1      14.823  12.297   0.938  1.00  0.00    -0.388 N 
BRANCH  33  34
HETATM   34  C10 UNL     1      13.768  12.852   0.264  1.00  0.00     0.063 C 
BRANCH  34  35
HETATM   35  C11 UNL     1      12.911  11.860  -0.499  1.00  0.00     0.024 A 
HETATM   36  C12 UNL     1      11.485  11.701  -0.124  1.00  0.00     0.010 A 
HETATM   37  C13 UNL     1      11.775  12.423  -1.374  1.00  0.00     0.010 A 
ENDBRANCH  34  35
ENDBRANCH  33  34
ENDBRANCH   1  27
TORSDOF 11
ENDMDL
MODEL 5
REMARK VINA RESULT: -6.085936434      2.530      7.683
REMARK  11 active torsions:
REMARK  status: ('A' for Active; 'I' for Inactive)
REMARK    1  A    between atoms: C1_2  and  C2_4 
REMARK    2  A    between atoms: C2_4  and  C3_5 
REMARK    3  A    between atoms: C3_5  and  C4_6 
REMARK    4  A    between atoms: N1_12  and  C10_13 
REMARK    5  A    between atoms: C10_13  and  C11_14 
REMARK    6  A    between atoms: N2_19  and  C16_20 
REMARK    7  A    between atoms: C16_20  and  C17_21 
REMARK       I    between atoms: C17_21  and  N3_23 
REMARK    8  A    between atoms: N3_23  and  C18_25 
REMARK    9  A    between atoms: C18_25  and  O4_26 
REMARK   10  A    between atoms: C18_25  and  N4_28 
REMARK   11  A    between atoms: N4_28  and  C19_30 
ROOT
HETATM    1  C3  UNL     1      15.546  13.201   0.577  1.00  0.00    -0.007 C 
HETATM    2  C14 UNL     1      16.901  13.485   1.068  1.00  0.00     0.031 C 
HETATM    3  C15 UNL     1      16.942  13.604   2.596  1.00  0.00     0.118 C 
HETATM    4  N2  UNL     1      16.097  14.620   3.083  1.00  0.00    -0.404 N 
HETATM    5  C24 UNL     1      15.075  15.082   2.219  1.00  0.00     0.118 C 
HETATM    6  C25 UNL     1      14.499  14.096   1.269  1.00  0.00     0.031 C 
ENDROOT
BRANCH   4   7
HETATM    7  C16 UNL     1      16.679  15.693   3.806  1.00  0.00     0.220 C 
BRANCH   7   8
HETATM    8  C17 UNL     1      16.137  15.952   5.167  1.00  0.00     0.242 C 
HETATM    9  O3  UNL     1      16.721  15.337   6.122  1.00  0.00    -0.271 OA
HETATM   10  N3  UNL     1      15.061  16.818   5.398  1.00  0.00    -0.292 N 
ATOM     11  H3  UNL     1      14.648  17.253   4.573  1.00  0.00     0.172 HD
BRANCH  10  12
HETATM   12  C18 UNL     1      14.491  17.155   6.615  1.00  0.00     0.219 C 
BRANCH  12  13
HETATM   13  O4  UNL     1      15.236  17.034   7.674  1.00  0.00    -0.332 OA
ATOM     14  H4  UNL     1      14.837  16.640   8.441  1.00  0.00     0.220 HD
ENDBRANCH  12  13
BRANCH  12  15
HETATM   15  N4  UNL     1      13.177  17.614   6.808  1.00  0.00    -0.351 N 
ATOM     16  H4  UNL     1      13.021  18.480   7.325  1.00  0.00     0.163 HD
BRANCH  15  17
HETATM   17  C19 UNL     1      12.024  16.871   6.282  1.00  0.00     0.089 C 
HETATM   18  C20 UNL     1      10.957  16.776   7.321  1.00  0.00     0.051 C 
HETATM   19  C21 UNL     1       9.612  16.847   6.628  1.00  0.00     0.169 C 
HETATM   20  O5  UNL     1       9.356  18.091   6.087  1.00  0.00    -0.391 OA
HETATM   21  C22 UNL     1      10.460  18.630   5.440  1.00  0.00     0.169 C 
HETATM   22  C23 UNL     1      11.470  17.584   5.072  1.00  0.00     0.051 C 
ENDBRANCH  15  17
ENDBRANCH  12  15
ENDBRANCH  10  12
ENDBRANCH   7   8
ENDBRANCH   4   7
BRANCH   1  23
HETATM   23  C2  UNL     1      15.217  11.796   1.035  1.00  0.00     0.124 C 
BRANCH  23  24
HETATM   24  C1  UNL     1      16.282  10.806   1.007  1.00  0.00     0.173 C 
HETATM   25  O1  UNL     1      16.433  10.132   2.089  1.00  0.00    -0.648 OA
HETATM   26  O2  UNL     1      17.162  10.456   0.029  1.00  0.00    -0.648 OA
ENDBRANCH  23  24
ENDBRANCH   1  23
BRANCH   1  27
HETATM   27  C4  UNL     1      15.260  13.289  -0.863  1.00  0.00     0.092 C 
HETATM   28  C5  UNL     1      16.629  13.271  -1.593  1.00  0.00     0.026 C 
HETATM   29  C6  UNL     1      16.817  14.401  -2.519  1.00  0.00     0.002 C 
HETATM   30  C7  UNL     1      15.599  15.067  -3.029  1.00  0.00     0.002 C 
HETATM   31  C8  UNL     1      14.382  14.253  -3.203  1.00  0.00     0.020 C 
HETATM   32  C9  UNL     1      14.484  12.789  -2.988  1.00  0.00     0.122 C 
HETATM   33  N1  UNL     1      14.483  12.421  -1.593  1.00  0.00    -0.388 N 
BRANCH  33  34
HETATM   34  C10 UNL     1      13.497  11.575  -1.161  1.00  0.00     0.063 C 
BRANCH  34  35
HETATM   35  C11 UNL     1      12.143  12.228  -0.962  1.00  0.00     0.024 A 
HETATM   36  C12 UNL     1      10.928  11.530  -1.449  1.00  0.00     0.010 A 
HETATM   37  C13 UNL     1      11.157  11.547   0.006  1.00  0.00     0.010 A 
ENDBRANCH  34  35
ENDBRANCH  33  34
ENDBRANCH   1  27
TORSDOF 11
ENDMDL
