MODEL 1
REMARK VINA RESULT: -5.000082830      0.000      0.000
REMARK  9 active torsions:
REMARK  status: ('A' for Active; 'I' for Inactive)
REMARK    1  A    between atoms: C2_2  and  C4_4 
REMARK    2  A    between atoms: C4_4  and  C5_5 
REMARK    3  A    between atoms: C7_10  and  C8_11 
REMARK    4  A    between atoms: C14_19  and  C15_20 
REMARK    5  A    between atoms: C15_20  and  C16_21 
REMARK    6  A    between atoms: C16_21  and  C17_22 
REMARK    7  A    between atoms: C17_22  and  N3_23 
REMARK    8  A    between atoms: N5_31  and  C19_32 
REMARK    9  A    between atoms: C19_32  and  C23_36 
ROOT
HETATM    1  C5  UNL     1      15.643  15.847   2.715  1.00  0.00     0.200 C 
HETATM    2  C6  UNL     1      15.957  14.513   3.356  1.00  0.00     0.243 C 
HETATM    3  O1  UNL     1      16.196  14.541   4.632  1.00  0.00    -0.271 OA
HETATM    4  N1  UNL     1      16.026  13.258   2.777  1.00  0.00    -0.345 N 
ATOM      5  H1  UNL     1      15.231  12.661   3.007  1.00  0.00     0.163 HD
HETATM    6  C7  UNL     1      16.976  12.629   1.929  1.00  0.00     0.184 C 
HETATM    7  C12 UNL     1      16.291  11.948   0.805  1.00  0.00     0.243 C 
HETATM    8  O2  UNL     1      16.431  10.674   0.654  1.00  0.00    -0.271 OA
HETATM    9  N2  UNL     1      15.467  12.535  -0.167  1.00  0.00    -0.341 N 
HETATM   10  C13 UNL     1      15.628  12.150  -1.572  1.00  0.00     0.153 C 
HETATM   11  C14 UNL     1      14.422  13.516   0.082  1.00  0.00     0.180 C 
HETATM   12  C18 UNL     1      14.792  14.888  -0.332  1.00  0.00     0.259 C 
HETATM   13  O3  UNL     1      14.485  15.129  -1.571  1.00  0.00    -0.269 OA
HETATM   14  N4  UNL     1      15.388  15.923   0.350  1.00  0.00    -0.265 N 
ATOM     15  H4  UNL     1      15.145  16.842  -0.018  1.00  0.00     0.190 HD
HETATM   16  N5  UNL     1      16.252  15.975   1.435  1.00  0.00    -0.276 N 
ENDROOT
BRANCH  11  17
HETATM   17  C15 UNL     1      13.200  12.987  -0.688  1.00  0.00     0.036 C 
BRANCH  17  18
HETATM   18  C16 UNL     1      12.407  12.013   0.150  1.00  0.00     0.030 C 
BRANCH  18  19
HETATM   19  C17 UNL     1      11.232  11.512  -0.674  1.00  0.00     0.230 C 
BRANCH  19  20
HETATM   20  N3  UNL     1      11.420  11.989  -2.029  1.00  0.00    -0.079 N 
ATOM     21  H33 UNL     1      11.320  13.001  -2.113  1.00  0.00     0.274 HD
ATOM     22  H32 UNL     1      12.388  11.925  -2.343  1.00  0.00     0.274 HD
ATOM     23  H31 UNL     1      10.772  11.473  -2.625  1.00  0.00     0.274 HD
ENDBRANCH  19  20
ENDBRANCH  18  19
ENDBRANCH  17  18
ENDBRANCH  11  17
BRANCH   6  24
HETATM   24  C8  UNL     1      17.682  11.540   2.760  1.00  0.00    -0.022 C 
HETATM   25  C9  UNL     1      18.807  12.203   3.525  1.00  0.00     0.017 C 
HETATM   26  C10 UNL     1      16.735  10.888   3.715  1.00  0.00     0.017 C 
HETATM   27  C11 UNL     1      18.318  10.513   1.847  1.00  0.00     0.017 C 
ENDBRANCH   6  24
BRANCH  16  28
HETATM   28  C19 UNL     1      17.324  16.909   1.272  1.00  0.00     0.055 C 
HETATM   29  C20 UNL     1      17.176  18.151   0.556  1.00  0.00    -0.059 C 
HETATM   30  C21 UNL     1      16.242  19.199   1.066  1.00  0.00     0.045 C 
HETATM   31  C22 UNL     1      18.368  18.862   0.002  1.00  0.00     0.045 C 
BRANCH  28  32
HETATM   32  C23 UNL     1      18.624  16.162   1.160  1.00  0.00    -0.059 C 
HETATM   33  C24 UNL     1      19.335  15.787   2.386  1.00  0.00     0.045 C 
HETATM   34  C25 UNL     1      18.689  15.170   0.018  1.00  0.00     0.045 C 
ENDBRANCH  28  32
ENDBRANCH  16  28
BRANCH   1  35
HETATM   35  C4  UNL     1      14.217  16.216   2.792  1.00  0.00     0.041 C 
BRANCH  35  36
HETATM   36  C2  UNL     1      13.790  17.412   3.544  1.00  0.00    -0.020 C 
HETATM   37  C1  UNL     1      14.792  18.138   4.363  1.00  0.00     0.009 C 
HETATM   38  C3  UNL     1      12.481  17.263   4.275  1.00  0.00     0.009 C 
ENDBRANCH  35  36
ENDBRANCH   1  35
TORSDOF 9
ENDMDL
MODEL 2
REMARK VINA RESULT: -4.994626633      1.822      2.329
REMARK  9 active torsions:
REMARK  status: ('A' for Active; 'I' for Inactive)
REMARK    1  A    between atoms: C2_2  and  C4_4 
REMARK    2  A    between atoms: C4_4  and  C5_5 
REMARK    3  A    between atoms: C7_10  and  C8_11 
REMARK    4  A    between atoms: C14_19  and  C15_20 
REMARK    5  A    between atoms: C15_20  and  C16_21 
REMARK    6  A    between atoms: C16_21  and  C17_22 
REMARK    7  A    between atoms: C17_22  and  N3_23 
REMARK    8  A    between atoms: N5_31  and  C19_32 
REMARK    9  A    between atoms: C19_32  and  C23_36 
ROOT
HETATM    1  C5  UNL     1      16.082  15.506   0.678  1.00  0.00     0.200 C 
HETATM    2  C6  UNL     1      16.161  14.663   1.932  1.00  0.00     0.243 C 
HETATM    3  O1  UNL     1      16.386  15.310   3.034  1.00  0.00    -0.271 OA
HETATM    4  N1  UNL     1      16.026  13.293   2.076  1.00  0.00    -0.345 N 
ATOM      5  H1  UNL     1      15.140  13.016   2.498  1.00  0.00     0.163 HD
HETATM    6  C7  UNL     1      16.868  12.195   1.758  1.00  0.00     0.184 C 
HETATM    7  C12 UNL     1      16.092  11.135   1.072  1.00  0.00     0.243 C 
HETATM    8  O2  UNL     1      16.018   9.959   1.600  1.00  0.00    -0.271 OA
HETATM    9  N2  UNL     1      15.390  11.244  -0.137  1.00  0.00    -0.341 N 
HETATM   10  C13 UNL     1      15.502  10.174  -1.133  1.00  0.00     0.153 C 
HETATM   11  C14 UNL     1      14.521  12.347  -0.521  1.00  0.00     0.180 C 
HETATM   12  C18 UNL     1      15.121  13.244  -1.533  1.00  0.00     0.259 C 
HETATM   13  O3  UNL     1      14.874  12.854  -2.747  1.00  0.00    -0.269 OA
HETATM   14  N4  UNL     1      15.874  14.389  -1.413  1.00  0.00    -0.265 N 
ATOM     15  H4  UNL     1      15.792  15.012  -2.217  1.00  0.00     0.190 HD
HETATM   16  N5  UNL     1      16.720  14.873  -0.426  1.00  0.00    -0.276 N 
ENDROOT
BRANCH  11  17
HETATM   17  C15 UNL     1      13.237  11.671  -1.031  1.00  0.00     0.036 C 
BRANCH  17  18
HETATM   18  C16 UNL     1      12.058  12.002  -0.149  1.00  0.00     0.030 C 
BRANCH  18  19
HETATM   19  C17 UNL     1      10.817  11.347  -0.734  1.00  0.00     0.230 C 
BRANCH  19  20
HETATM   20  N3  UNL     1      10.831  11.595  -2.162  1.00  0.00    -0.079 N 
ATOM     21  H33 UNL     1      10.313  12.434  -2.426  1.00  0.00     0.274 HD
ATOM     22  H32 UNL     1      11.744  11.889  -2.507  1.00  0.00     0.274 HD
ATOM     23  H31 UNL     1      10.484  10.752  -2.620  1.00  0.00     0.274 HD
ENDBRANCH  19  20
ENDBRANCH  18  19
ENDBRANCH  17  18
ENDBRANCH  11  17
BRANCH   6  24
HETATM   24  C8  UNL     1      17.371  11.603   3.089  1.00  0.00    -0.022 C 
HETATM   25  C9  UNL     1      18.580  12.404   3.519  1.00  0.00     0.017 C 
HETATM   26  C10 UNL     1      16.316  11.671   4.146  1.00  0.00     0.017 C 
HETATM   27  C11 UNL     1      17.839  10.177   2.886  1.00  0.00     0.017 C 
ENDBRANCH   6  24
BRANCH  16  28
HETATM   28  C19 UNL     1      17.936  15.432  -0.935  1.00  0.00     0.055 C 
HETATM   29  C20 UNL     1      18.002  16.155  -2.180  1.00  0.00    -0.059 C 
HETATM   30  C21 UNL     1      17.258  17.440  -2.336  1.00  0.00     0.045 C 
HETATM   31  C22 UNL     1      19.299  16.311  -2.906  1.00  0.00     0.045 C 
BRANCH  28  32
HETATM   32  C23 UNL     1      19.091  14.549  -0.550  1.00  0.00    -0.059 C 
HETATM   33  C24 UNL     1      19.725  14.741   0.758  1.00  0.00     0.045 C 
HETATM   34  C25 UNL     1      18.989  13.122  -1.043  1.00  0.00     0.045 C 
ENDBRANCH  28  32
ENDBRANCH  16  28
BRANCH   1  35
HETATM   35  C4  UNL     1      14.738  16.054   0.420  1.00  0.00     0.041 C 
BRANCH  35  36
HETATM   36  C2  UNL     1      14.504  17.512   0.439  1.00  0.00    -0.020 C 
HETATM   37  C1  UNL     1      13.845  18.145  -0.730  1.00  0.00     0.009 C 
HETATM   38  C3  UNL     1      15.668  18.331   0.930  1.00  0.00     0.009 C 
ENDBRANCH  35  36
ENDBRANCH   1  35
TORSDOF 9
ENDMDL
MODEL 3
REMARK VINA RESULT: -4.703129548      0.581      1.550
REMARK  9 active torsions:
REMARK  status: ('A' for Active; 'I' for Inactive)
REMARK    1  A    between atoms: C2_2  and  C4_4 
REMARK    2  A    between atoms: C4_4  and  C5_5 
REMARK    3  A    between atoms: C7_10  and  C8_11 
REMARK    4  A    between atoms: C14_19  and  C15_20 
REMARK    5  A    between atoms: C15_20  and  C16_21 
REMARK    6  A    between atoms: C16_21  and  C17_22 
REMARK    7  A    between atoms: C17_22  and  N3_23 
REMARK    8  A    between atoms: N5_31  and  C19_32 
REMARK    9  A    between atoms: C19_32  and  C23_36 
ROOT
HETATM    1  C5  UNL     1      15.702  15.882   2.782  1.00  0.00     0.200 C 
HETATM    2  C6  UNL     1      16.031  14.531   3.378  1.00  0.00     0.243 C 
HETATM    3  O1  UNL     1      16.283  14.521   4.651  1.00  0.00    -0.271 OA
HETATM    4  N1  UNL     1      16.102  13.295   2.759  1.00  0.00    -0.345 N 
ATOM      5  H1  UNL     1      15.313  12.687   2.978  1.00  0.00     0.163 HD
HETATM    6  C7  UNL     1      17.047  12.699   1.882  1.00  0.00     0.184 C 
HETATM    7  C12 UNL     1      16.355  12.050   0.744  1.00  0.00     0.243 C 
HETATM    8  O2  UNL     1      16.501  10.781   0.552  1.00  0.00    -0.271 OA
HETATM    9  N2  UNL     1      15.518  12.661  -0.201  1.00  0.00    -0.341 N 
HETATM   10  C13 UNL     1      15.668  12.322  -1.619  1.00  0.00     0.153 C 
HETATM   11  C14 UNL     1      14.469  13.628   0.089  1.00  0.00     0.180 C 
HETATM   12  C18 UNL     1      14.828  15.014  -0.285  1.00  0.00     0.259 C 
HETATM   13  O3  UNL     1      14.507  15.292  -1.513  1.00  0.00    -0.269 OA
HETATM   14  N4  UNL     1      15.424  16.031   0.423  1.00  0.00    -0.265 N 
ATOM     15  H4  UNL     1      15.172  16.960   0.086  1.00  0.00     0.190 HD
HETATM   16  N5  UNL     1      16.299  16.055   1.501  1.00  0.00    -0.276 N 
ENDROOT
BRANCH  11  17
HETATM   17  C15 UNL     1      13.243  13.115  -0.686  1.00  0.00     0.036 C 
BRANCH  17  18
HETATM   18  C16 UNL     1      12.501  12.063   0.102  1.00  0.00     0.030 C 
BRANCH  18  19
HETATM   19  C17 UNL     1      11.340  11.558  -0.740  1.00  0.00     0.230 C 
BRANCH  19  20
HETATM   20  N3  UNL     1      11.551  12.030  -2.093  1.00  0.00    -0.079 N 
ATOM     21  H33 UNL     1      12.326  11.562  -2.563  1.00  0.00     0.274 HD
ATOM     22  H32 UNL     1      10.814  11.742  -2.735  1.00  0.00     0.274 HD
ATOM     23  H31 UNL     1      11.665  13.043  -2.046  1.00  0.00     0.274 HD
ENDBRANCH  19  20
ENDBRANCH  18  19
ENDBRANCH  17  18
ENDBRANCH  11  17
BRANCH   6  24
HETATM   24  C8  UNL     1      17.768  11.590   2.671  1.00  0.00    -0.022 C 
HETATM   25  C9  UNL     1      18.812  12.250   3.545  1.00  0.00     0.017 C 
HETATM   26  C10 UNL     1      16.810  10.819   3.522  1.00  0.00     0.017 C 
HETATM   27  C11 UNL     1      18.508  10.668   1.724  1.00  0.00     0.017 C 
ENDBRANCH   6  24
BRANCH  16  28
HETATM   28  C19 UNL     1      17.363  17.000   1.356  1.00  0.00     0.055 C 
HETATM   29  C20 UNL     1      18.428  17.131   2.318  1.00  0.00    -0.059 C 
HETATM   30  C21 UNL     1      19.369  15.995   2.548  1.00  0.00     0.045 C 
HETATM   31  C22 UNL     1      19.233  18.388   2.403  1.00  0.00     0.045 C 
BRANCH  28  32
HETATM   32  C23 UNL     1      16.841  18.240   0.683  1.00  0.00    -0.059 C 
HETATM   33  C24 UNL     1      16.285  19.315   1.510  1.00  0.00     0.045 C 
HETATM   34  C25 UNL     1      17.617  18.670  -0.543  1.00  0.00     0.045 C 
ENDBRANCH  28  32
ENDBRANCH  16  28
BRANCH   1  35
HETATM   35  C4  UNL     1      14.276  16.240   2.884  1.00  0.00     0.041 C 
BRANCH  35  36
HETATM   36  C2  UNL     1      13.845  17.389   3.705  1.00  0.00    -0.020 C 
HETATM   37  C1  UNL     1      14.821  18.007   4.637  1.00  0.00     0.009 C 
HETATM   38  C3  UNL     1      12.491  17.234   4.345  1.00  0.00     0.009 C 
ENDBRANCH  35  36
ENDBRANCH   1  35
TORSDOF 9
ENDMDL
MODEL 4
REMARK VINA RESULT: -4.689676420      3.123      6.902
REMARK  9 active torsions:
REMARK  status: ('A' for Active; 'I' for Inactive)
REMARK    1  A    between atoms: C2_2  and  C4_4 
REMARK    2  A    between atoms: C4_4  and  C5_5 
REMARK    3  A    between atoms: C7_10  and  C8_11 
REMARK    4  A    between atoms: C14_19  and  C15_20 
REMARK    5  A    between atoms: C15_20  and  C16_21 
REMARK    6  A    between atoms: C16_21  and  C17_22 
REMARK    7  A    between atoms: C17_22  and  N3_23 
REMARK    8  A    between atoms: N5_31  and  C19_32 
REMARK    9  A    between atoms: C19_32  and  C23_36 
ROOT
HETATM    1  C5  UNL     1      13.610  13.597  -1.048  1.00  0.00     0.200 C 
HETATM    2  C6  UNL     1      14.622  14.622  -1.511  1.00  0.00     0.243 C 
HETATM    3  O1  UNL     1      14.297  15.864  -1.316  1.00  0.00    -0.271 OA
HETATM    4  N1  UNL     1      15.852  14.428  -2.114  1.00  0.00    -0.345 N 
ATOM      5  H1  UNL     1      16.641  14.606  -1.492  1.00  0.00     0.163 HD
HETATM    6  C7  UNL     1      16.242  14.032  -3.421  1.00  0.00     0.184 C 
HETATM    7  C12 UNL     1      17.299  12.995  -3.350  1.00  0.00     0.243 C 
HETATM    8  O2  UNL     1      18.450  13.222  -3.888  1.00  0.00    -0.271 OA
HETATM    9  N2  UNL     1      17.209  11.733  -2.744  1.00  0.00    -0.341 N 
HETATM   10  C13 UNL     1      17.744  10.561  -3.444  1.00  0.00     0.153 C 
HETATM   11  C14 UNL     1      16.628  11.453  -1.439  1.00  0.00     0.180 C 
HETATM   12  C18 UNL     1      15.304  10.796  -1.514  1.00  0.00     0.259 C 
HETATM   13  O3  UNL     1      15.398   9.502  -1.559  1.00  0.00    -0.269 OA
HETATM   14  N4  UNL     1      14.027  11.306  -1.543  1.00  0.00    -0.265 N 
ATOM     15  H4  UNL     1      13.326  10.662  -1.177  1.00  0.00     0.190 HD
HETATM   16  N5  UNL     1      13.494  12.516  -1.967  1.00  0.00    -0.276 N 
ENDROOT
BRANCH  11  17
HETATM   17  C15 UNL     1      17.673  10.576  -0.728  1.00  0.00     0.036 C 
BRANCH  17  18
HETATM   18  C16 UNL     1      18.670  11.421   0.027  1.00  0.00     0.030 C 
BRANCH  18  19
HETATM   19  C17 UNL     1      20.049  11.191  -0.571  1.00  0.00     0.230 C 
BRANCH  19  20
HETATM   20  N3  UNL     1      20.345  12.326  -1.421  1.00  0.00    -0.079 N 
ATOM     21  H33 UNL     1      19.597  12.534  -2.083  1.00  0.00     0.274 HD
ATOM     22  H32 UNL     1      20.329  13.214  -0.921  1.00  0.00     0.274 HD
ATOM     23  H31 UNL     1      21.240  12.140  -1.876  1.00  0.00     0.274 HD
ENDBRANCH  19  20
ENDBRANCH  18  19
ENDBRANCH  17  18
ENDBRANCH  11  17
BRANCH   6  24
HETATM   24  C8  UNL     1      16.859  15.265  -4.108  1.00  0.00    -0.022 C 
HETATM   25  C9  UNL     1      15.725  16.179  -4.517  1.00  0.00     0.017 C 
HETATM   26  C10 UNL     1      17.788  15.990  -3.188  1.00  0.00     0.017 C 
HETATM   27  C11 UNL     1      17.573  14.855  -5.380  1.00  0.00     0.017 C 
ENDBRANCH   6  24
BRANCH  16  28
HETATM   28  C19 UNL     1      12.286  12.378  -2.722  1.00  0.00     0.055 C 
HETATM   29  C20 UNL     1      11.199  11.528  -2.308  1.00  0.00    -0.059 C 
HETATM   30  C21 UNL     1      10.462  11.822  -1.044  1.00  0.00     0.045 C 
HETATM   31  C22 UNL     1      10.190  11.040  -3.298  1.00  0.00     0.045 C 
BRANCH  28  32
HETATM   32  C23 UNL     1      12.600  12.488  -4.189  1.00  0.00    -0.059 C 
HETATM   33  C24 UNL     1      12.226  13.712  -4.905  1.00  0.00     0.045 C 
HETATM   34  C25 UNL     1      13.899  11.836  -4.610  1.00  0.00     0.045 C 
ENDBRANCH  28  32
ENDBRANCH  16  28
BRANCH   1  35
HETATM   35  C4  UNL     1      13.755  13.225   0.371  1.00  0.00     0.041 C 
BRANCH  35  36
HETATM   36  C2  UNL     1      14.945  13.642   1.140  1.00  0.00    -0.020 C 
HETATM   37  C1  UNL     1      15.731  12.608   1.857  1.00  0.00     0.009 C 
HETATM   38  C3  UNL     1      14.750  14.873   1.985  1.00  0.00     0.009 C 
ENDBRANCH  35  36
ENDBRANCH   1  35
TORSDOF 9
ENDMDL
MODEL 5
REMARK VINA RESULT: -4.688545912      5.421      8.516
REMARK  9 active torsions:
REMARK  status: ('A' for Active; 'I' for Inactive)
REMARK    1  A    between atoms: C2_2  and  C4_4 
REMARK    2  A    between atoms: C4_4  and  C5_5 
REMARK    3  A    between atoms: C7_10  and  C8_11 
REMARK    4  A    between atoms: C14_19  and  C15_20 
REMARK    5  A    between atoms: C15_20  and  C16_21 
REMARK    6  A    between atoms: C16_21  and  C17_22 
REMARK    7  A    between atoms: C17_22  and  N3_23 
REMARK    8  A    between atoms: N5_31  and  C19_32 
REMARK    9  A    between atoms: C19_32  and  C23_36 
ROOT
HETATM    1  C5  UNL     1      12.117  18.126   8.295  1.00  0.00     0.200 C 
HETATM    2  C6  UNL     1      12.897  17.105   7.495  1.00  0.00     0.243 C 
HETATM    3  O1  UNL     1      12.697  15.863   7.816  1.00  0.00    -0.271 OA
HETATM    4  N1  UNL     1      13.797  17.303   6.462  1.00  0.00    -0.345 N 
ATOM      5  H1  UNL     1      13.422  17.057   5.546  1.00  0.00     0.163 HD
HETATM    6  C7  UNL     1      15.134  17.779   6.416  1.00  0.00     0.184 C 
HETATM    7  C12 UNL     1      15.288  18.775   5.329  1.00  0.00     0.243 C 
HETATM    8  O2  UNL     1      16.129  18.550   4.376  1.00  0.00    -0.271 OA
HETATM    9  N2  UNL     1      14.605  19.993   5.191  1.00  0.00    -0.341 N 
HETATM   10  C13 UNL     1      15.351  21.195   4.806  1.00  0.00     0.153 C 
HETATM   11  C14 UNL     1      13.178  20.197   5.389  1.00  0.00     0.180 C 
HETATM   12  C18 UNL     1      12.853  20.898   6.651  1.00  0.00     0.259 C 
HETATM   13  O3  UNL     1      12.843  22.189   6.509  1.00  0.00    -0.269 OA
HETATM   14  N4  UNL     1      12.568  20.432   7.913  1.00  0.00    -0.265 N 
ATOM     15  H4  UNL     1      11.988  21.070   8.458  1.00  0.00     0.190 HD
HETATM   16  N5  UNL     1      12.904  19.272   8.598  1.00  0.00    -0.276 N 
ENDROOT
BRANCH  11  17
HETATM   17  C15 UNL     1      12.723  20.988   4.151  1.00  0.00     0.036 C 
BRANCH  17  18
HETATM   18  C16 UNL     1      12.223  20.064   3.066  1.00  0.00     0.030 C 
BRANCH  18  19
HETATM   19  C17 UNL     1      13.200  20.112   1.902  1.00  0.00     0.230 C 
BRANCH  19  20
HETATM   20  N3  UNL     1      13.987  18.896   1.949  1.00  0.00    -0.079 N 
ATOM     21  H33 UNL     1      14.761  18.895   1.284  1.00  0.00     0.274 HD
ATOM     22  H32 UNL     1      14.544  18.814   2.799  1.00  0.00     0.274 HD
ATOM     23  H31 UNL     1      13.346  18.114   1.816  1.00  0.00     0.274 HD
ENDBRANCH  19  20
ENDBRANCH  18  19
ENDBRANCH  17  18
ENDBRANCH  11  17
BRANCH   6  24
HETATM   24  C8  UNL     1      16.035  16.579   6.066  1.00  0.00    -0.022 C 
HETATM   25  C9  UNL     1      16.302  15.817   7.345  1.00  0.00     0.017 C 
HETATM   26  C10 UNL     1      15.377  15.681   5.068  1.00  0.00     0.017 C 
HETATM   27  C11 UNL     1      17.376  17.062   5.554  1.00  0.00     0.017 C 
ENDBRANCH   6  24
BRANCH  16  28
HETATM   28  C19 UNL     1      13.296  19.501   9.956  1.00  0.00     0.055 C 
HETATM   29  C20 UNL     1      12.716  20.537  10.772  1.00  0.00    -0.059 C 
HETATM   30  C21 UNL     1      11.265  20.487  11.122  1.00  0.00     0.045 C 
HETATM   31  C22 UNL     1      13.437  21.057  11.975  1.00  0.00     0.045 C 
BRANCH  28  32
HETATM   32  C23 UNL     1      14.760  19.194  10.111  1.00  0.00    -0.059 C 
HETATM   33  C24 UNL     1      15.169  17.813  10.386  1.00  0.00     0.045 C 
HETATM   34  C25 UNL     1      15.675  19.997   9.212  1.00  0.00     0.045 C 
ENDBRANCH  28  32
ENDBRANCH  16  28
BRANCH   1  35
HETATM   35  C4  UNL     1      10.770  18.391   7.758  1.00  0.00     0.041 C 
BRANCH  35  36
HETATM   36  C2  UNL     1      10.323  17.759   6.500  1.00  0.00    -0.020 C 
HETATM   37  C1  UNL     1       9.875  18.627   5.384  1.00  0.00     0.009 C 
HETATM   38  C3  UNL     1       9.412  16.573   6.679  1.00  0.00     0.009 C 
ENDBRANCH  35  36
ENDBRANCH   1  35
TORSDOF 9
ENDMDL
