MODEL 1
REMARK VINA RESULT: -9.506052057      0.000      0.000
REMARK  8 active torsions:
REMARK  status: ('A' for Active; 'I' for Inactive)
REMARK    1  A    between atoms: C2_2  and  C3_3 
REMARK    2  A    between atoms: C2_2  and  C9_9 
REMARK    3  A    between atoms: C9_9  and  C10_10 
REMARK    4  A    between atoms: C10_10  and  N1_11 
REMARK    5  A    between atoms: N1_11  and  C11_14 
REMARK    6  A    between atoms: C16_19  and  C17_20 
REMARK       I    between atoms: C17_20  and  N2_22 
REMARK    7  A    between atoms: N3_27  and  C21_28 
REMARK    8  A    between atoms: C22_30  and  O4_32 
ROOT
HETATM    1  C9  UNL     1      27.116  10.409  -2.738  1.00  0.00    -0.013 C 
HETATM    2  C14 UNL     1      28.361  10.682  -3.633  1.00  0.00     0.012 C 
HETATM    3  C15 UNL     1      28.919  12.055  -3.353  1.00  0.00     0.015 C 
HETATM    4  C16 UNL     1      28.005  13.117  -3.951  1.00  0.00     0.078 C 
HETATM    5  C26 UNL     1      26.666  12.480  -4.149  1.00  0.00     0.015 C 
HETATM    6  C27 UNL     1      26.251  11.611  -3.002  1.00  0.00     0.012 C 
ENDROOT
BRANCH   4   7
HETATM    7  C17 UNL     1      27.909  14.299  -3.064  1.00  0.00     0.224 C 
HETATM    8  O1  UNL     1      27.082  14.272  -2.081  1.00  0.00    -0.273 OA
HETATM    9  N2  UNL     1      28.714  15.442  -3.289  1.00  0.00    -0.349 N 
HETATM   10  C18 UNL     1      28.734  16.635  -2.478  1.00  0.00     0.142 C 
HETATM   11  C25 UNL     1      29.640  15.631  -4.363  1.00  0.00     0.152 C 
HETATM   12  C19 UNL     1      29.151  17.730  -3.404  1.00  0.00     0.120 C 
HETATM   13  C20 UNL     1      30.613  17.992  -3.463  1.00  0.00     0.230 C 
HETATM   14  C24 UNL     1      29.402  17.093  -4.749  1.00  0.00     0.122 C 
HETATM   15  O2  UNL     1      31.516  18.224  -2.631  1.00  0.00    -0.273 OA
HETATM   16  N3  UNL     1      30.589  17.874  -4.871  1.00  0.00    -0.313 N 
BRANCH  16  17
HETATM   17  C21 UNL     1      31.417  18.351  -5.942  1.00  0.00     0.292 A 
HETATM   18  O3  UNL     1      32.544  19.069  -5.578  1.00  0.00    -0.321 OA
HETATM   19  C22 UNL     1      31.541  19.809  -6.151  1.00  0.00     0.205 A 
HETATM   20  C23 UNL     1      31.697  20.241  -7.614  1.00  0.00     0.084 C 
BRANCH  19  21
HETATM   21  O4  UNL     1      30.787  20.657  -5.381  1.00  0.00    -0.362 OA
ATOM     22  H4  UNL     1      31.025  21.576  -5.340  1.00  0.00     0.213 HD
ENDBRANCH  19  21
ENDBRANCH  16  17
ENDBRANCH   4   7
BRANCH   1  23
HETATM   23  C2  UNL     1      27.548  10.256  -1.340  1.00  0.00    -0.004 C 
HETATM   24  C1  UNL     1      26.434   9.686  -0.424  1.00  0.00     0.011 C 
BRANCH  23  25
HETATM   25  C3  UNL     1      28.045  11.482  -0.604  1.00  0.00    -0.010 C 
HETATM   26  C4  UNL     1      29.447  11.510  -0.156  1.00  0.00     0.005 C 
HETATM   27  C5  UNL     1      29.770  12.859   0.492  1.00  0.00     0.000 C 
HETATM   28  C6  UNL     1      28.809  13.255   1.548  1.00  0.00     0.000 C 
HETATM   29  C7  UNL     1      27.366  13.095   1.109  1.00  0.00     0.000 C 
HETATM   30  C8  UNL     1      27.168  11.664   0.663  1.00  0.00     0.005 C 
ENDBRANCH  23  25
ENDBRANCH   1  23
BRANCH   1  31
HETATM   31  C10 UNL     1      26.477   9.210  -3.373  1.00  0.00     0.242 C 
BRANCH  31  32
HETATM   32  N1  UNL     1      27.336   8.113  -3.660  1.00  0.00    -0.070 N 
ATOM     33  H12 UNL     1      27.470   7.991  -4.664  1.00  0.00     0.277 HD
ATOM     34  H11 UNL     1      28.302   8.310  -3.399  1.00  0.00     0.277 HD
BRANCH  32  35
HETATM   35  C11 UNL     1      26.845   6.899  -3.031  1.00  0.00     0.186 A 
HETATM   36  C12 UNL     1      27.889   6.084  -2.244  1.00  0.00     0.035 A 
HETATM   37  C13 UNL     1      27.300   5.567  -3.516  1.00  0.00     0.035 A 
ENDBRANCH  32  35
ENDBRANCH  31  32
ENDBRANCH   1  31
TORSDOF 8
ENDMDL
MODEL 2
REMARK VINA RESULT: -9.497066263      1.216      1.352
REMARK  8 active torsions:
REMARK  status: ('A' for Active; 'I' for Inactive)
REMARK    1  A    between atoms: C2_2  and  C3_3 
REMARK    2  A    between atoms: C2_2  and  C9_9 
REMARK    3  A    between atoms: C9_9  and  C10_10 
REMARK    4  A    between atoms: C10_10  and  N1_11 
REMARK    5  A    between atoms: N1_11  and  C11_14 
REMARK    6  A    between atoms: C16_19  and  C17_20 
REMARK       I    between atoms: C17_20  and  N2_22 
REMARK    7  A    between atoms: N3_27  and  C21_28 
REMARK    8  A    between atoms: C22_30  and  O4_32 
ROOT
HETATM    1  C9  UNL     1      27.029  11.227  -2.600  1.00  0.00    -0.013 C 
HETATM    2  C14 UNL     1      28.078  11.183  -3.751  1.00  0.00     0.012 C 
HETATM    3  C15 UNL     1      29.118  12.257  -3.555  1.00  0.00     0.015 C 
HETATM    4  C16 UNL     1      28.521  13.621  -3.880  1.00  0.00     0.078 C 
HETATM    5  C26 UNL     1      27.035  13.482  -3.783  1.00  0.00     0.015 C 
HETATM    6  C27 UNL     1      26.594  12.667  -2.606  1.00  0.00     0.012 C 
ENDROOT
BRANCH   4   7
HETATM    7  C17 UNL     1      29.023  14.658  -2.950  1.00  0.00     0.224 C 
HETATM    8  O1  UNL     1      28.975  14.433  -1.685  1.00  0.00    -0.273 OA
HETATM    9  N2  UNL     1      29.550  15.878  -3.438  1.00  0.00    -0.349 N 
HETATM   10  C18 UNL     1      30.097  16.945  -2.635  1.00  0.00     0.142 C 
HETATM   11  C25 UNL     1      29.625  16.283  -4.808  1.00  0.00     0.152 C 
HETATM   12  C19 UNL     1      29.886  18.186  -3.438  1.00  0.00     0.120 C 
HETATM   13  C20 UNL     1      31.008  18.562  -4.336  1.00  0.00     0.230 C 
HETATM   14  C24 UNL     1      29.239  17.762  -4.734  1.00  0.00     0.122 C 
HETATM   15  O2  UNL     1      32.237  18.743  -4.206  1.00  0.00    -0.273 OA
HETATM   16  N3  UNL     1      30.120  18.639  -5.433  1.00  0.00    -0.313 N 
BRANCH  16  17
HETATM   17  C21 UNL     1      30.127  19.321  -6.696  1.00  0.00     0.292 A 
HETATM   18  O3  UNL     1      30.981  20.405  -6.808  1.00  0.00    -0.321 OA
HETATM   19  C22 UNL     1      29.646  20.718  -6.754  1.00  0.00     0.205 A 
HETATM   20  C23 UNL     1      28.934  21.102  -8.056  1.00  0.00     0.084 C 
BRANCH  19  21
HETATM   21  O4  UNL     1      29.119  21.287  -5.623  1.00  0.00    -0.362 OA
ATOM     22  H4  UNL     1      29.439  21.007  -4.774  1.00  0.00     0.213 HD
ENDBRANCH  19  21
ENDBRANCH  16  17
ENDBRANCH   4   7
BRANCH   1  23
HETATM   23  C2  UNL     1      27.662  10.780  -1.350  1.00  0.00    -0.004 C 
HETATM   24  C1  UNL     1      26.706   9.951  -0.454  1.00  0.00     0.011 C 
BRANCH  23  25
HETATM   25  C3  UNL     1      28.230  11.829  -0.417  1.00  0.00    -0.010 C 
HETATM   26  C4  UNL     1      29.569  11.605   0.154  1.00  0.00     0.005 C 
HETATM   27  C5  UNL     1      29.991  12.810   1.000  1.00  0.00     0.000 C 
HETATM   28  C6  UNL     1      28.982  13.210   2.008  1.00  0.00     0.000 C 
HETATM   29  C7  UNL     1      27.585  13.308   1.424  1.00  0.00     0.000 C 
HETATM   30  C8  UNL     1      27.254  11.982   0.779  1.00  0.00     0.005 C 
ENDBRANCH  23  25
ENDBRANCH   1  23
BRANCH   1  31
HETATM   31  C10 UNL     1      25.900  10.384  -3.114  1.00  0.00     0.242 C 
BRANCH  31  32
HETATM   32  N1  UNL     1      26.263   9.223  -3.853  1.00  0.00    -0.070 N 
ATOM     33  H12 UNL     1      26.164   9.368  -4.857  1.00  0.00     0.277 HD
ATOM     34  H11 UNL     1      27.268   9.053  -3.820  1.00  0.00     0.277 HD
BRANCH  32  35
HETATM   35  C11 UNL     1      25.506   8.070  -3.398  1.00  0.00     0.186 A 
HETATM   36  C12 UNL     1      26.327   6.959  -2.713  1.00  0.00     0.035 A 
HETATM   37  C13 UNL     1      25.695   6.745  -4.051  1.00  0.00     0.035 A 
ENDBRANCH  32  35
ENDBRANCH  31  32
ENDBRANCH   1  31
TORSDOF 8
ENDMDL
MODEL 3
REMARK VINA RESULT: -9.459604530      1.714      2.293
REMARK  8 active torsions:
REMARK  status: ('A' for Active; 'I' for Inactive)
REMARK    1  A    between atoms: C2_2  and  C3_3 
REMARK    2  A    between atoms: C2_2  and  C9_9 
REMARK    3  A    between atoms: C9_9  and  C10_10 
REMARK    4  A    between atoms: C10_10  and  N1_11 
REMARK    5  A    between atoms: N1_11  and  C11_14 
REMARK    6  A    between atoms: C16_19  and  C17_20 
REMARK       I    between atoms: C17_20  and  N2_22 
REMARK    7  A    between atoms: N3_27  and  C21_28 
REMARK    8  A    between atoms: C22_30  and  O4_32 
ROOT
HETATM    1  C9  UNL     1      27.101  11.238  -2.580  1.00  0.00    -0.013 C 
HETATM    2  C14 UNL     1      28.105  11.221  -3.770  1.00  0.00     0.012 C 
HETATM    3  C15 UNL     1      29.135  12.310  -3.606  1.00  0.00     0.015 C 
HETATM    4  C16 UNL     1      28.503  13.667  -3.895  1.00  0.00     0.078 C 
HETATM    5  C26 UNL     1      27.025  13.502  -3.742  1.00  0.00     0.015 C 
HETATM    6  C27 UNL     1      26.643  12.670  -2.556  1.00  0.00     0.012 C 
ENDROOT
BRANCH   4   7
HETATM    7  C17 UNL     1      29.024  14.704  -2.975  1.00  0.00     0.224 C 
HETATM    8  O1  UNL     1      28.997  14.482  -1.710  1.00  0.00    -0.273 OA
HETATM    9  N2  UNL     1      29.546  15.921  -3.475  1.00  0.00    -0.349 N 
HETATM   10  C18 UNL     1      30.110  16.989  -2.683  1.00  0.00     0.142 C 
HETATM   11  C25 UNL     1      29.598  16.324  -4.846  1.00  0.00     0.152 C 
HETATM   12  C19 UNL     1      29.888  18.228  -3.485  1.00  0.00     0.120 C 
HETATM   13  C20 UNL     1      30.997  18.600  -4.403  1.00  0.00     0.230 C 
HETATM   14  C24 UNL     1      29.219  17.804  -4.769  1.00  0.00     0.122 C 
HETATM   15  O2  UNL     1      32.228  18.777  -4.295  1.00  0.00    -0.273 OA
HETATM   16  N3  UNL     1      30.090  18.677  -5.485  1.00  0.00    -0.313 N 
BRANCH  16  17
HETATM   17  C21 UNL     1      30.077  19.357  -6.749  1.00  0.00     0.292 A 
HETATM   18  O3  UNL     1      30.925  20.445  -6.874  1.00  0.00    -0.321 OA
HETATM   19  C22 UNL     1      29.589  20.751  -6.803  1.00  0.00     0.205 A 
HETATM   20  C23 UNL     1      28.859  21.130  -8.097  1.00  0.00     0.084 C 
BRANCH  19  21
HETATM   21  O4  UNL     1      29.075  21.320  -5.667  1.00  0.00    -0.362 OA
ATOM     22  H4  UNL     1      28.170  21.610  -5.666  1.00  0.00     0.213 HD
ENDBRANCH  19  21
ENDBRANCH  16  17
ENDBRANCH   4   7
BRANCH   1  23
HETATM   23  C2  UNL     1      27.789  10.790  -1.360  1.00  0.00    -0.004 C 
HETATM   24  C1  UNL     1      26.919   9.848  -0.488  1.00  0.00     0.011 C 
BRANCH  23  25
HETATM   25  C3  UNL     1      28.285  11.841  -0.388  1.00  0.00    -0.010 C 
HETATM   26  C4  UNL     1      29.622  11.670   0.204  1.00  0.00     0.005 C 
HETATM   27  C5  UNL     1      29.967  12.872   1.089  1.00  0.00     0.000 C 
HETATM   28  C6  UNL     1      28.919  13.194   2.086  1.00  0.00     0.000 C 
HETATM   29  C7  UNL     1      27.531  13.237   1.477  1.00  0.00     0.000 C 
HETATM   30  C8  UNL     1      27.280  11.913   0.791  1.00  0.00     0.005 C 
ENDBRANCH  23  25
ENDBRANCH   1  23
BRANCH   1  31
HETATM   31  C10 UNL     1      25.967  10.380  -3.058  1.00  0.00     0.242 C 
BRANCH  31  32
HETATM   32  N1  UNL     1      25.954  10.062  -4.444  1.00  0.00    -0.070 N 
ATOM     33  H12 UNL     1      26.674  10.572  -4.955  1.00  0.00     0.277 HD
ATOM     34  H11 UNL     1      26.286   9.113  -4.617  1.00  0.00     0.277 HD
BRANCH  32  35
HETATM   35  C11 UNL     1      24.634  10.283  -5.008  1.00  0.00     0.186 A 
HETATM   36  C12 UNL     1      24.599  10.654  -6.503  1.00  0.00     0.035 A 
HETATM   37  C13 UNL     1      24.226  11.645  -5.448  1.00  0.00     0.035 A 
ENDBRANCH  32  35
ENDBRANCH  31  32
ENDBRANCH   1  31
TORSDOF 8
ENDMDL
MODEL 4
REMARK VINA RESULT: -9.447869800      4.862      9.485
REMARK  8 active torsions:
REMARK  status: ('A' for Active; 'I' for Inactive)
REMARK    1  A    between atoms: C2_2  and  C3_3 
REMARK    2  A    between atoms: C2_2  and  C9_9 
REMARK    3  A    between atoms: C9_9  and  C10_10 
REMARK    4  A    between atoms: C10_10  and  N1_11 
REMARK    5  A    between atoms: N1_11  and  C11_14 
REMARK    6  A    between atoms: C16_19  and  C17_20 
REMARK       I    between atoms: C17_20  and  N2_22 
REMARK    7  A    between atoms: N3_27  and  C21_28 
REMARK    8  A    between atoms: C22_30  and  O4_32 
ROOT
HETATM    1  C9  UNL     1      27.061  10.958  -2.742  1.00  0.00    -0.013 C 
HETATM    2  C14 UNL     1      25.605  10.429  -2.910  1.00  0.00     0.012 C 
HETATM    3  C15 UNL     1      25.600   8.923  -3.000  1.00  0.00     0.015 C 
HETATM    4  C16 UNL     1      26.132   8.484  -4.359  1.00  0.00     0.078 C 
HETATM    5  C26 UNL     1      26.924   9.628  -4.908  1.00  0.00     0.015 C 
HETATM    6  C27 UNL     1      27.785  10.296  -3.881  1.00  0.00     0.012 C 
ENDROOT
BRANCH   4   7
HETATM    7  C17 UNL     1      26.965   7.266  -4.236  1.00  0.00     0.224 C 
HETATM    8  O1  UNL     1      27.732   7.139  -3.212  1.00  0.00    -0.273 OA
HETATM    9  N2  UNL     1      26.922   6.254  -5.225  1.00  0.00    -0.349 N 
HETATM   10  C18 UNL     1      27.659   5.013  -5.199  1.00  0.00     0.142 C 
HETATM   11  C25 UNL     1      26.156   6.279  -6.433  1.00  0.00     0.152 C 
HETATM   12  C19 UNL     1      27.835   4.633  -6.632  1.00  0.00     0.120 C 
HETATM   13  C20 UNL     1      26.775   3.755  -7.193  1.00  0.00     0.230 C 
HETATM   14  C24 UNL     1      27.132   5.687  -7.453  1.00  0.00     0.122 C 
HETATM   15  O2  UNL     1      26.250   2.668  -6.871  1.00  0.00    -0.273 OA
HETATM   16  N3  UNL     1      26.583   4.653  -8.267  1.00  0.00    -0.313 N 
BRANCH  16  17
HETATM   17  C21 UNL     1      26.059   4.543  -9.598  1.00  0.00     0.292 A 
HETATM   18  O3  UNL     1      26.953   4.761 -10.634  1.00  0.00    -0.321 OA
HETATM   19  C22 UNL     1      26.020   5.750 -10.451  1.00  0.00     0.205 A 
HETATM   20  C23 UNL     1      24.832   5.819 -11.418  1.00  0.00     0.084 C 
BRANCH  19  21
HETATM   21  O4  UNL     1      26.392   6.955  -9.914  1.00  0.00    -0.362 OA
ATOM     22  H4  UNL     1      25.724   7.607  -9.738  1.00  0.00     0.213 HD
ENDBRANCH  19  21
ENDBRANCH  16  17
ENDBRANCH   4   7
BRANCH   1  23
HETATM   23  C2  UNL     1      27.555  10.596  -1.404  1.00  0.00    -0.004 C 
HETATM   24  C1  UNL     1      26.449   9.999  -0.495  1.00  0.00     0.011 C 
BRANCH  23  25
HETATM   25  C3  UNL     1      28.189  11.678  -0.556  1.00  0.00    -0.010 C 
HETATM   26  C4  UNL     1      29.532  11.435  -0.003  1.00  0.00     0.005 C 
HETATM   27  C5  UNL     1      30.026  12.673   0.752  1.00  0.00     0.000 C 
HETATM   28  C6  UNL     1      29.060  13.181   1.754  1.00  0.00     0.000 C 
HETATM   29  C7  UNL     1      27.654  13.300   1.198  1.00  0.00     0.000 C 
HETATM   30  C8  UNL     1      27.252  11.950   0.650  1.00  0.00     0.005 C 
ENDBRANCH  23  25
ENDBRANCH   1  23
BRANCH   1  31
HETATM   31  C10 UNL     1      26.943  12.424  -3.034  1.00  0.00     0.242 C 
BRANCH  31  32
HETATM   32  N1  UNL     1      27.979  12.997  -3.823  1.00  0.00    -0.070 N 
ATOM     33  H12 UNL     1      28.862  12.500  -3.707  1.00  0.00     0.277 HD
ATOM     34  H11 UNL     1      27.835  12.824  -4.818  1.00  0.00     0.277 HD
BRANCH  32  35
HETATM   35  C11 UNL     1      28.116  14.414  -3.537  1.00  0.00     0.186 A 
HETATM   36  C12 UNL     1      29.160  14.783  -2.465  1.00  0.00     0.035 A 
HETATM   37  C13 UNL     1      27.696  14.956  -2.216  1.00  0.00     0.035 A 
ENDBRANCH  32  35
ENDBRANCH  31  32
ENDBRANCH   1  31
TORSDOF 8
ENDMDL
MODEL 5
REMARK VINA RESULT: -9.239518728      2.824      9.293
REMARK  8 active torsions:
REMARK  status: ('A' for Active; 'I' for Inactive)
REMARK    1  A    between atoms: C2_2  and  C3_3 
REMARK    2  A    between atoms: C2_2  and  C9_9 
REMARK    3  A    between atoms: C9_9  and  C10_10 
REMARK    4  A    between atoms: C10_10  and  N1_11 
REMARK    5  A    between atoms: N1_11  and  C11_14 
REMARK    6  A    between atoms: C16_19  and  C17_20 
REMARK       I    between atoms: C17_20  and  N2_22 
REMARK    7  A    between atoms: N3_27  and  C21_28 
REMARK    8  A    between atoms: C22_30  and  O4_32 
ROOT
HETATM    1  C9  UNL     1      29.548  16.871  -4.574  1.00  0.00    -0.013 C 
HETATM    2  C14 UNL     1      28.938  15.727  -5.437  1.00  0.00     0.012 C 
HETATM    3  C15 UNL     1      28.218  14.733  -4.560  1.00  0.00     0.015 C 
HETATM    4  C16 UNL     1      29.231  13.890  -3.795  1.00  0.00     0.078 C 
HETATM    5  C26 UNL     1      30.517  14.653  -3.786  1.00  0.00     0.015 C 
HETATM    6  C27 UNL     1      30.333  16.118  -3.535  1.00  0.00     0.012 C 
ENDROOT
BRANCH   4   7
HETATM    7  C17 UNL     1      28.762  13.615  -2.417  1.00  0.00     0.224 C 
HETATM    8  O1  UNL     1      28.770  14.570  -1.557  1.00  0.00    -0.273 OA
HETATM    9  N2  UNL     1      28.310  12.325  -2.048  1.00  0.00    -0.349 N 
HETATM   10  C18 UNL     1      27.801  11.946  -0.752  1.00  0.00     0.142 C 
HETATM   11  C25 UNL     1      28.288  11.163  -2.881  1.00  0.00     0.152 C 
HETATM   12  C19 UNL     1      28.095  10.487  -0.629  1.00  0.00     0.120 C 
HETATM   13  C20 UNL     1      27.014   9.579  -1.092  1.00  0.00     0.230 C 
HETATM   14  C24 UNL     1      28.748  10.062  -1.921  1.00  0.00     0.122 C 
HETATM   15  O2  UNL     1      25.793   9.448  -0.862  1.00  0.00    -0.273 OA
HETATM   16  N3  UNL     1      27.929   8.894  -1.923  1.00  0.00    -0.313 N 
BRANCH  16  17
HETATM   17  C21 UNL     1      27.986   7.583  -2.503  1.00  0.00     0.292 A 
HETATM   18  O3  UNL     1      28.710   7.458  -3.678  1.00  0.00    -0.321 OA
HETATM   19  C22 UNL     1      27.349   7.357  -3.818  1.00  0.00     0.205 A 
HETATM   20  C23 UNL     1      26.737   5.964  -4.008  1.00  0.00     0.084 C 
BRANCH  19  21
HETATM   21  O4  UNL     1      26.640   8.378  -4.397  1.00  0.00    -0.362 OA
ATOM     22  H4  UNL     1      26.471   8.350  -5.331  1.00  0.00     0.213 HD
ENDBRANCH  19  21
ENDBRANCH  16  17
ENDBRANCH   4   7
BRANCH   1  23
HETATM   23  C2  UNL     1      28.461  17.705  -4.039  1.00  0.00    -0.004 C 
HETATM   24  C1  UNL     1      27.966  17.232  -2.647  1.00  0.00     0.011 C 
BRANCH  23  25
HETATM   25  C3  UNL     1      27.193  17.844  -4.856  1.00  0.00    -0.010 C 
HETATM   26  C4  UNL     1      26.847  19.171  -5.391  1.00  0.00     0.005 C 
HETATM   27  C5  UNL     1      25.582  19.083  -6.250  1.00  0.00     0.000 C 
HETATM   28  C6  UNL     1      24.450  18.411  -5.570  1.00  0.00     0.000 C 
HETATM   29  C7  UNL     1      24.859  17.105  -4.913  1.00  0.00     0.000 C 
HETATM   30  C8  UNL     1      26.002  17.396  -3.968  1.00  0.00     0.005 C 
ENDBRANCH  23  25
ENDBRANCH   1  23
BRANCH   1  31
HETATM   31  C10 UNL     1      30.509  17.547  -5.505  1.00  0.00     0.242 C 
BRANCH  31  32
HETATM   32  N1  UNL     1      31.740  17.981  -4.939  1.00  0.00    -0.070 N 
ATOM     33  H12 UNL     1      31.986  17.441  -4.110  1.00  0.00     0.277 HD
ATOM     34  H11 UNL     1      32.535  17.730  -5.526  1.00  0.00     0.277 HD
BRANCH  32  35
HETATM   35  C11 UNL     1      31.703  19.407  -4.663  1.00  0.00     0.186 A 
HETATM   36  C12 UNL     1      32.788  19.931  -3.703  1.00  0.00     0.035 A 
HETATM   37  C13 UNL     1      31.349  19.897  -3.303  1.00  0.00     0.035 A 
ENDBRANCH  32  35
ENDBRANCH  31  32
ENDBRANCH   1  31
TORSDOF 8
ENDMDL
