MODEL 1
REMARK VINA RESULT: -10.591240130      0.000      0.000
REMARK  8 active torsions:
REMARK  status: ('A' for Active; 'I' for Inactive)
REMARK       I    between atoms: C2_2  and  N1_4 
REMARK    1  A    between atoms: C5_7  and  C6_8 
REMARK    2  A    between atoms: C6_8  and  C7_9 
REMARK       I    between atoms: C7_9  and  N2_11 
REMARK    3  A    between atoms: N2_11  and  C8_12 
REMARK    4  A    between atoms: C11_15  and  C12_16 
REMARK    5  A    between atoms: C12_16  and  C13_17 
REMARK    6  A    between atoms: C13_17  and  N3_18 
REMARK    7  A    between atoms: C16_21  and  N4_23 
REMARK    8  A    between atoms: C20_26  and  O3_28 
ROOT
HETATM    1  C12 UNL     1      27.903  13.264  -1.009  1.00  0.00     0.034 C 
ENDROOT
BRANCH   1   2
HETATM    2  C11 UNL     1      27.295  11.934  -1.277  1.00  0.00    -0.013 C 
HETATM    3  C10 UNL     1      28.112  11.357  -2.425  1.00  0.00     0.007 C 
HETATM    4  C9  UNL     1      28.629   9.984  -2.171  1.00  0.00     0.040 C 
HETATM    5  C8  UNL     1      27.387   9.152  -1.691  1.00  0.00     0.166 C 
HETATM    6  C27 UNL     1      27.107   9.586  -0.315  1.00  0.00     0.040 C 
HETATM    7  C26 UNL     1      27.275  11.058  -0.078  1.00  0.00     0.007 C 
BRANCH   5   8
HETATM    8  N2  UNL     1      27.515   7.838  -2.038  1.00  0.00    -0.410 NA
HETATM    9  C7  UNL     1      27.646   6.503  -2.389  1.00  0.00     0.288 C 
HETATM   10  O2  UNL     1      28.264   5.645  -1.780  1.00  0.00    -0.258 OA
BRANCH   9  11
HETATM   11  C6  UNL     1      26.946   6.105  -3.669  1.00  0.00     0.144 C 
BRANCH  11  12
HETATM   12  C5  UNL     1      27.372   6.640  -4.936  1.00  0.00     0.098 C 
HETATM   13  N1  UNL     1      27.693   5.990  -6.134  1.00  0.00    -0.347 N 
HETATM   14  C2  UNL     1      28.158   4.848  -6.809  1.00  0.00     0.216 C 
HETATM   15  C3  UNL     1      27.254   7.289  -6.807  1.00  0.00     0.128 C 
HETATM   16  C1  UNL     1      28.271   4.922  -8.330  1.00  0.00     0.117 C 
HETATM   17  O1  UNL     1      28.493   3.751  -6.278  1.00  0.00    -0.274 OA
HETATM   18  C4  UNL     1      26.229   7.361  -5.711  1.00  0.00     0.045 C 
ENDBRANCH  11  12
ENDBRANCH   9  11
ENDBRANCH   5   8
ENDBRANCH   1   2
BRANCH   1  19
HETATM   19  C13 UNL     1      28.394  14.093  -2.119  1.00  0.00     0.272 C 
BRANCH  19  20
HETATM   20  N3  UNL     1      27.353  14.816  -2.810  1.00  0.00     0.088 N 
HETATM   21  C14 UNL     1      27.480  14.802  -4.252  1.00  0.00     0.275 C 
HETATM   22  C15 UNL     1      28.519  15.710  -4.800  1.00  0.00     0.060 C 
HETATM   23  C16 UNL     1      28.422  17.145  -4.282  1.00  0.00     0.027 C 
HETATM   24  C17 UNL     1      27.085  17.767  -4.588  1.00  0.00     0.038 C 
HETATM   25  C24 UNL     1      28.501  17.008  -2.769  1.00  0.00     0.060 C 
HETATM   26  C25 UNL     1      27.304  16.203  -2.325  1.00  0.00     0.275 C 
BRANCH  23  27
HETATM   27  N4  UNL     1      29.522  17.848  -4.855  1.00  0.00    -0.404 N 
HETATM   28  C18 UNL     1      29.196  18.863  -5.799  1.00  0.00     0.120 C 
HETATM   29  C19 UNL     1      30.288  19.910  -5.923  1.00  0.00     0.057 C 
HETATM   30  C20 UNL     1      31.659  19.268  -6.034  1.00  0.00     0.057 C 
HETATM   31  C21 UNL     1      32.402  19.558  -4.752  1.00  0.00     0.046 C 
HETATM   32  C22 UNL     1      31.537  17.770  -6.153  1.00  0.00     0.057 C 
HETATM   33  C23 UNL     1      30.721  17.130  -5.067  1.00  0.00     0.120 C 
BRANCH  30  34
HETATM   34  O3  UNL     1      32.415  19.808  -7.066  1.00  0.00    -0.390 OA
ATOM     35  H3  UNL     1      32.304  20.749  -7.143  1.00  0.00     0.210 HD
ENDBRANCH  30  34
ENDBRANCH  23  27
ENDBRANCH  19  20
ENDBRANCH   1  19
TORSDOF 8
ENDMDL
MODEL 2
REMARK VINA RESULT: -10.565243323      1.774      2.761
REMARK  8 active torsions:
REMARK  status: ('A' for Active; 'I' for Inactive)
REMARK       I    between atoms: C2_2  and  N1_4 
REMARK    1  A    between atoms: C5_7  and  C6_8 
REMARK    2  A    between atoms: C6_8  and  C7_9 
REMARK       I    between atoms: C7_9  and  N2_11 
REMARK    3  A    between atoms: N2_11  and  C8_12 
REMARK    4  A    between atoms: C11_15  and  C12_16 
REMARK    5  A    between atoms: C12_16  and  C13_17 
REMARK    6  A    between atoms: C13_17  and  N3_18 
REMARK    7  A    between atoms: C16_21  and  N4_23 
REMARK    8  A    between atoms: C20_26  and  O3_28 
ROOT
HETATM    1  C12 UNL     1      28.009  11.098  -1.978  1.00  0.00     0.034 C 
ENDROOT
BRANCH   1   2
HETATM    2  C11 UNL     1      28.435   9.728  -2.366  1.00  0.00    -0.013 C 
HETATM    3  C10 UNL     1      27.313   8.820  -1.883  1.00  0.00     0.007 C 
HETATM    4  C9  UNL     1      26.787   7.897  -2.927  1.00  0.00     0.040 C 
HETATM    5  C8  UNL     1      28.051   7.201  -3.545  1.00  0.00     0.166 C 
HETATM    6  C27 UNL     1      28.705   8.210  -4.390  1.00  0.00     0.040 C 
HETATM    7  C26 UNL     1      28.704   9.598  -3.822  1.00  0.00     0.007 C 
BRANCH   5   8
HETATM    8  N2  UNL     1      27.749   5.947  -3.993  1.00  0.00    -0.410 NA
HETATM    9  C7  UNL     1      27.443   4.674  -4.449  1.00  0.00     0.288 C 
HETATM   10  O2  UNL     1      27.810   3.617  -3.961  1.00  0.00    -0.258 OA
BRANCH   9  11
HETATM   11  C6  UNL     1      26.572   4.626  -5.684  1.00  0.00     0.144 C 
BRANCH  11  12
HETATM   12  C5  UNL     1      27.154   4.421  -6.985  1.00  0.00     0.098 C 
HETATM   13  N1  UNL     1      26.679   4.769  -8.256  1.00  0.00    -0.347 N 
HETATM   14  C2  UNL     1      25.602   5.036  -9.119  1.00  0.00     0.216 C 
HETATM   15  C3  UNL     1      28.153   4.822  -8.651  1.00  0.00     0.128 C 
HETATM   16  C1  UNL     1      25.926   5.365 -10.575  1.00  0.00     0.117 C 
HETATM   17  O1  UNL     1      24.377   5.033  -8.808  1.00  0.00    -0.274 OA
HETATM   18  C4  UNL     1      28.375   5.347  -7.261  1.00  0.00     0.045 C 
ENDBRANCH  11  12
ENDBRANCH   9  11
ENDBRANCH   5   8
ENDBRANCH   1   2
BRANCH   1  19
HETATM   19  C13 UNL     1      28.270  12.236  -2.870  1.00  0.00     0.272 C 
BRANCH  19  20
HETATM   20  N3  UNL     1      27.289  13.290  -2.771  1.00  0.00     0.088 N 
HETATM   21  C14 UNL     1      26.961  13.914  -4.036  1.00  0.00     0.275 C 
HETATM   22  C15 UNL     1      27.979  14.865  -4.550  1.00  0.00     0.060 C 
HETATM   23  C16 UNL     1      28.414  15.916  -3.529  1.00  0.00     0.027 C 
HETATM   24  C17 UNL     1      27.254  16.737  -3.031  1.00  0.00     0.038 C 
HETATM   25  C24 UNL     1      28.915  15.106  -2.342  1.00  0.00     0.060 C 
HETATM   26  C25 UNL     1      27.747  14.309  -1.815  1.00  0.00     0.275 C 
BRANCH  23  27
HETATM   27  N4  UNL     1      29.427  16.690  -4.166  1.00  0.00    -0.404 N 
HETATM   28  C18 UNL     1      30.588  15.982  -4.587  1.00  0.00     0.120 C 
HETATM   29  C19 UNL     1      31.322  16.689  -5.712  1.00  0.00     0.057 C 
HETATM   30  C20 UNL     1      31.477  18.171  -5.424  1.00  0.00     0.057 C 
HETATM   31  C21 UNL     1      30.584  18.917  -6.388  1.00  0.00     0.046 C 
HETATM   32  C22 UNL     1      31.001  18.495  -4.030  1.00  0.00     0.057 C 
HETATM   33  C23 UNL     1      29.609  18.022  -3.729  1.00  0.00     0.120 C 
BRANCH  30  34
HETATM   34  O3  UNL     1      32.770  18.623  -5.646  1.00  0.00    -0.390 OA
ATOM     35  H3  UNL     1      33.269  18.708  -4.841  1.00  0.00     0.210 HD
ENDBRANCH  30  34
ENDBRANCH  23  27
ENDBRANCH  19  20
ENDBRANCH   1  19
TORSDOF 8
ENDMDL
MODEL 3
REMARK VINA RESULT: -10.528198472      2.331     11.226
REMARK  8 active torsions:
REMARK  status: ('A' for Active; 'I' for Inactive)
REMARK       I    between atoms: C2_2  and  N1_4 
REMARK    1  A    between atoms: C5_7  and  C6_8 
REMARK    2  A    between atoms: C6_8  and  C7_9 
REMARK       I    between atoms: C7_9  and  N2_11 
REMARK    3  A    between atoms: N2_11  and  C8_12 
REMARK    4  A    between atoms: C11_15  and  C12_16 
REMARK    5  A    between atoms: C12_16  and  C13_17 
REMARK    6  A    between atoms: C13_17  and  N3_18 
REMARK    7  A    between atoms: C16_21  and  N4_23 
REMARK    8  A    between atoms: C20_26  and  O3_28 
ROOT
HETATM    1  C12 UNL     1      26.192  10.255  -2.115  1.00  0.00     0.034 C 
ENDROOT
BRANCH   1   2
HETATM    2  C11 UNL     1      27.371  11.157  -2.031  1.00  0.00    -0.013 C 
HETATM    3  C10 UNL     1      27.373  11.919  -3.349  1.00  0.00     0.007 C 
HETATM    4  C9  UNL     1      27.456  13.398  -3.194  1.00  0.00     0.040 C 
HETATM    5  C8  UNL     1      28.664  13.649  -2.224  1.00  0.00     0.166 C 
HETATM    6  C27 UNL     1      28.200  13.270  -0.882  1.00  0.00     0.040 C 
HETATM    7  C26 UNL     1      27.331  12.048  -0.843  1.00  0.00     0.007 C 
BRANCH   5   8
HETATM    8  N2  UNL     1      29.260  14.849  -2.486  1.00  0.00    -0.410 NA
HETATM    9  C7  UNL     1      29.866  16.068  -2.751  1.00  0.00     0.288 C 
HETATM   10  O2  UNL     1      30.731  16.613  -2.085  1.00  0.00    -0.258 OA
BRANCH   9  11
HETATM   11  C6  UNL     1      29.374  16.772  -3.996  1.00  0.00     0.144 C 
BRANCH  11  12
HETATM   12  C5  UNL     1      30.291  17.486  -4.846  1.00  0.00     0.098 C 
HETATM   13  N1  UNL     1      31.235  18.474  -4.535  1.00  0.00    -0.347 N 
HETATM   14  C2  UNL     1      31.664  19.526  -3.707  1.00  0.00     0.216 C 
HETATM   15  C3  UNL     1      31.990  17.956  -5.757  1.00  0.00     0.128 C 
HETATM   16  C1  UNL     1      32.964  20.234  -4.080  1.00  0.00     0.117 C 
HETATM   17  O1  UNL     1      31.076  19.949  -2.672  1.00  0.00    -0.274 OA
HETATM   18  C4  UNL     1      31.476  16.606  -5.344  1.00  0.00     0.045 C 
ENDBRANCH  11  12
ENDBRANCH   9  11
ENDBRANCH   5   8
ENDBRANCH   1   2
BRANCH   1  19
HETATM   19  C13 UNL     1      26.167   9.155  -3.090  1.00  0.00     0.272 C 
BRANCH  19  20
HETATM   20  N3  UNL     1      26.913   7.993  -2.674  1.00  0.00     0.088 N 
HETATM   21  C14 UNL     1      28.106   7.743  -3.456  1.00  0.00     0.275 C 
HETATM   22  C15 UNL     1      27.865   7.150  -4.796  1.00  0.00     0.060 C 
HETATM   23  C16 UNL     1      26.969   5.911  -4.771  1.00  0.00     0.027 C 
HETATM   24  C17 UNL     1      27.534   4.821  -3.900  1.00  0.00     0.038 C 
HETATM   25  C24 UNL     1      25.688   6.384  -4.100  1.00  0.00     0.060 C 
HETATM   26  C25 UNL     1      26.044   6.807  -2.696  1.00  0.00     0.275 C 
BRANCH  23  27
HETATM   27  N4  UNL     1      26.796   5.521  -6.131  1.00  0.00    -0.404 N 
HETATM   28  C18 UNL     1      25.666   4.702  -6.411  1.00  0.00     0.120 C 
HETATM   29  C19 UNL     1      25.223   4.801  -7.860  1.00  0.00     0.057 C 
HETATM   30  C20 UNL     1      26.406   4.705  -8.806  1.00  0.00     0.057 C 
HETATM   31  C21 UNL     1      26.599   6.065  -9.432  1.00  0.00     0.046 C 
HETATM   32  C22 UNL     1      27.668   4.375  -8.050  1.00  0.00     0.057 C 
HETATM   33  C23 UNL     1      27.959   5.302  -6.905  1.00  0.00     0.120 C 
BRANCH  30  34
HETATM   34  O3  UNL     1      26.181   3.814  -9.847  1.00  0.00    -0.390 OA
ATOM     35  H3  UNL     1      26.988   3.513 -10.248  1.00  0.00     0.210 HD
ENDBRANCH  30  34
ENDBRANCH  23  27
ENDBRANCH  19  20
ENDBRANCH   1  19
TORSDOF 8
ENDMDL
MODEL 4
REMARK VINA RESULT: -10.502518580      1.705      2.364
REMARK  8 active torsions:
REMARK  status: ('A' for Active; 'I' for Inactive)
REMARK       I    between atoms: C2_2  and  N1_4 
REMARK    1  A    between atoms: C5_7  and  C6_8 
REMARK    2  A    between atoms: C6_8  and  C7_9 
REMARK       I    between atoms: C7_9  and  N2_11 
REMARK    3  A    between atoms: N2_11  and  C8_12 
REMARK    4  A    between atoms: C11_15  and  C12_16 
REMARK    5  A    between atoms: C12_16  and  C13_17 
REMARK    6  A    between atoms: C13_17  and  N3_18 
REMARK    7  A    between atoms: C16_21  and  N4_23 
REMARK    8  A    between atoms: C20_26  and  O3_28 
ROOT
HETATM    1  C12 UNL     1      28.370  11.308  -2.561  1.00  0.00     0.034 C 
ENDROOT
BRANCH   1   2
HETATM    2  C11 UNL     1      27.639  10.033  -2.789  1.00  0.00    -0.013 C 
HETATM    3  C10 UNL     1      28.107   9.557  -4.157  1.00  0.00     0.007 C 
HETATM    4  C9  UNL     1      28.591   8.148  -4.175  1.00  0.00     0.040 C 
HETATM    5  C8  UNL     1      27.465   7.309  -3.475  1.00  0.00     0.166 C 
HETATM    6  C27 UNL     1      27.564   7.603  -2.038  1.00  0.00     0.040 C 
HETATM    7  C26 UNL     1      27.870   9.035  -1.713  1.00  0.00     0.007 C 
BRANCH   5   8
HETATM    8  N2  UNL     1      27.426   6.036  -3.966  1.00  0.00    -0.410 NA
HETATM    9  C7  UNL     1      27.388   4.743  -4.464  1.00  0.00     0.288 C 
HETATM   10  O2  UNL     1      27.966   3.768  -4.010  1.00  0.00    -0.258 OA
BRANCH   9  11
HETATM   11  C6  UNL     1      26.542   4.557  -5.703  1.00  0.00     0.144 C 
BRANCH  11  12
HETATM   12  C5  UNL     1      27.157   4.400  -6.996  1.00  0.00     0.098 C 
HETATM   13  N1  UNL     1      26.697   4.759  -8.269  1.00  0.00    -0.347 N 
HETATM   14  C2  UNL     1      25.630   5.006  -9.149  1.00  0.00     0.216 C 
HETATM   15  C3  UNL     1      28.176   4.871  -8.631  1.00  0.00     0.128 C 
HETATM   16  C1  UNL     1      25.972   5.377 -10.591  1.00  0.00     0.117 C 
HETATM   17  O1  UNL     1      24.399   4.955  -8.865  1.00  0.00    -0.274 OA
HETATM   18  C4  UNL     1      28.351   5.374  -7.226  1.00  0.00     0.045 C 
ENDBRANCH  11  12
ENDBRANCH   9  11
ENDBRANCH   5   8
ENDBRANCH   1   2
BRANCH   1  19
HETATM   19  C13 UNL     1      28.284  12.398  -3.542  1.00  0.00     0.272 C 
BRANCH  19  20
HETATM   20  N3  UNL     1      27.428  13.484  -3.132  1.00  0.00     0.088 N 
HETATM   21  C14 UNL     1      26.969  14.321  -4.222  1.00  0.00     0.275 C 
HETATM   22  C15 UNL     1      27.978  15.273  -4.750  1.00  0.00     0.060 C 
HETATM   23  C16 UNL     1      28.655  16.119  -3.671  1.00  0.00     0.027 C 
HETATM   24  C17 UNL     1      27.661  16.924  -2.877  1.00  0.00     0.038 C 
HETATM   25  C24 UNL     1      29.255  15.100  -2.713  1.00  0.00     0.060 C 
HETATM   26  C25 UNL     1      28.113  14.308  -2.125  1.00  0.00     0.275 C 
BRANCH  23  27
HETATM   27  N4  UNL     1      29.625  16.916  -4.345  1.00  0.00    -0.404 N 
HETATM   28  C18 UNL     1      29.138  17.745  -5.395  1.00  0.00     0.120 C 
HETATM   29  C19 UNL     1      30.045  18.933  -5.663  1.00  0.00     0.057 C 
HETATM   30  C20 UNL     1      31.502  18.512  -5.726  1.00  0.00     0.057 C 
HETATM   31  C21 UNL     1      32.188  19.070  -4.502  1.00  0.00     0.046 C 
HETATM   32  C22 UNL     1      31.625  17.011  -5.665  1.00  0.00     0.057 C 
HETATM   33  C23 UNL     1      30.925  16.382  -4.495  1.00  0.00     0.120 C 
BRANCH  30  34
HETATM   34  O3  UNL     1      32.159  19.040  -6.829  1.00  0.00    -0.390 OA
ATOM     35  H3  UNL     1      32.578  19.872  -6.638  1.00  0.00     0.210 HD
ENDBRANCH  30  34
ENDBRANCH  23  27
ENDBRANCH  19  20
ENDBRANCH   1  19
TORSDOF 8
ENDMDL
MODEL 5
REMARK VINA RESULT: -10.448496198      0.837      1.195
REMARK  8 active torsions:
REMARK  status: ('A' for Active; 'I' for Inactive)
REMARK       I    between atoms: C2_2  and  N1_4 
REMARK    1  A    between atoms: C5_7  and  C6_8 
REMARK    2  A    between atoms: C6_8  and  C7_9 
REMARK       I    between atoms: C7_9  and  N2_11 
REMARK    3  A    between atoms: N2_11  and  C8_12 
REMARK    4  A    between atoms: C11_15  and  C12_16 
REMARK    5  A    between atoms: C12_16  and  C13_17 
REMARK    6  A    between atoms: C13_17  and  N3_18 
REMARK    7  A    between atoms: C16_21  and  N4_23 
REMARK    8  A    between atoms: C20_26  and  O3_28 
ROOT
HETATM    1  C12 UNL     1      27.890  13.334  -1.336  1.00  0.00     0.034 C 
ENDROOT
BRANCH   1   2
HETATM    2  C11 UNL     1      27.288  11.981  -1.474  1.00  0.00    -0.013 C 
HETATM    3  C10 UNL     1      27.987  11.365  -2.677  1.00  0.00     0.007 C 
HETATM    4  C9  UNL     1      28.561  10.015  -2.420  1.00  0.00     0.040 C 
HETATM    5  C8  UNL     1      27.401   9.184  -1.767  1.00  0.00     0.166 C 
HETATM    6  C27 UNL     1      27.263   9.679  -0.390  1.00  0.00     0.040 C 
HETATM    7  C26 UNL     1      27.421  11.163  -0.240  1.00  0.00     0.007 C 
BRANCH   5   8
HETATM    8  N2  UNL     1      27.521   7.857  -2.065  1.00  0.00    -0.410 NA
HETATM    9  C7  UNL     1      27.645   6.510  -2.367  1.00  0.00     0.288 C 
HETATM   10  O2  UNL     1      28.242   5.668  -1.717  1.00  0.00    -0.258 OA
BRANCH   9  11
HETATM   11  C6  UNL     1      26.964   6.074  -3.646  1.00  0.00     0.144 C 
BRANCH  11  12
HETATM   12  C5  UNL     1      27.374   6.615  -4.916  1.00  0.00     0.098 C 
HETATM   13  N1  UNL     1      27.685   5.968  -6.119  1.00  0.00    -0.347 N 
HETATM   14  C2  UNL     1      28.148   4.830  -6.802  1.00  0.00     0.216 C 
HETATM   15  C3  UNL     1      27.232   7.266  -6.785  1.00  0.00     0.128 C 
HETATM   16  C1  UNL     1      28.245   4.908  -8.324  1.00  0.00     0.117 C 
HETATM   17  O1  UNL     1      28.495   3.734  -6.277  1.00  0.00    -0.274 OA
HETATM   18  C4  UNL     1      26.219   7.331  -5.677  1.00  0.00     0.045 C 
ENDBRANCH  11  12
ENDBRANCH   9  11
ENDBRANCH   5   8
ENDBRANCH   1   2
BRANCH   1  19
HETATM   19  C13 UNL     1      28.489  14.001  -2.501  1.00  0.00     0.272 C 
BRANCH  19  20
HETATM   20  N3  UNL     1      27.534  14.705  -3.322  1.00  0.00     0.088 N 
HETATM   21  C14 UNL     1      27.990  14.959  -4.674  1.00  0.00     0.275 C 
HETATM   22  C15 UNL     1      28.970  16.065  -4.807  1.00  0.00     0.060 C 
HETATM   23  C16 UNL     1      28.532  17.366  -4.135  1.00  0.00     0.027 C 
HETATM   24  C17 UNL     1      27.220  17.869  -4.677  1.00  0.00     0.038 C 
HETATM   25  C24 UNL     1      28.281  16.977  -2.685  1.00  0.00     0.060 C 
HETATM   26  C25 UNL     1      27.157  15.971  -2.676  1.00  0.00     0.275 C 
BRANCH  23  27
HETATM   27  N4  UNL     1      29.608  18.283  -4.306  1.00  0.00    -0.404 N 
HETATM   28  C18 UNL     1      30.255  18.724  -3.117  1.00  0.00     0.120 C 
HETATM   29  C19 UNL     1      31.675  19.198  -3.370  1.00  0.00     0.057 C 
HETATM   30  C20 UNL     1      31.743  20.112  -4.581  1.00  0.00     0.057 C 
HETATM   31  C21 UNL     1      32.472  19.365  -5.672  1.00  0.00     0.046 C 
HETATM   32  C22 UNL     1      30.360  20.421  -5.094  1.00  0.00     0.057 C 
HETATM   33  C23 UNL     1      29.521  19.207  -5.373  1.00  0.00     0.120 C 
BRANCH  30  34
HETATM   34  O3  UNL     1      32.472  21.267  -4.332  1.00  0.00    -0.390 OA
ATOM     35  H3  UNL     1      32.810  21.299  -3.444  1.00  0.00     0.210 HD
ENDBRANCH  30  34
ENDBRANCH  23  27
ENDBRANCH  19  20
ENDBRANCH   1  19
TORSDOF 8
ENDMDL
