MODEL 1
REMARK VINA RESULT: -9.705994804      0.000      0.000
REMARK  9 active torsions:
REMARK  status: ('A' for Active; 'I' for Inactive)
REMARK    1  A    between atoms: C2_2  and  C3_3 
REMARK    2  A    between atoms: C3_3  and  N1_5 
REMARK    3  A    between atoms: C7_8  and  N2_9 
REMARK    4  A    between atoms: C10_14  and  N4_15 
REMARK       I    between atoms: N4_15  and  C11_16 
REMARK    5  A    between atoms: C11_16  and  C12_18 
REMARK    6  A    between atoms: C15_21  and  C16_22 
REMARK    7  A    between atoms: C16_22  and  O2_23 
REMARK    8  A    between atoms: N5_26  and  C18_27 
REMARK    9  A    between atoms: C18_27  and  C19_28 
ROOT
HETATM    1  N4  UNL     1      26.836  14.642  -4.096  1.00  0.00    -0.350 NA
HETATM    2  C11 UNL     1      26.929  13.368  -3.807  1.00  0.00     0.299 C 
HETATM    3  O1  UNL     1      26.400  12.456  -4.553  1.00  0.00    -0.257 OA
ENDROOT
BRANCH   2   4
HETATM    4  C12 UNL     1      27.637  12.776  -2.616  1.00  0.00     0.121 C 
HETATM    5  C13 UNL     1      27.598  13.763  -1.482  1.00  0.00     0.017 C 
HETATM    6  C14 UNL     1      28.832  13.560  -0.662  1.00  0.00     0.009 C 
HETATM    7  C15 UNL     1      28.732  12.520   0.392  1.00  0.00     0.037 C 
HETATM    8  C17 UNL     1      27.891  11.328   0.093  1.00  0.00     0.279 C 
HETATM    9  N5  UNL     1      27.882  10.870  -1.242  1.00  0.00     0.090 N 
HETATM   10  C25 UNL     1      26.901  11.547  -2.108  1.00  0.00     0.287 C 
BRANCH   7  11
HETATM   11  C16 UNL     1      28.274  13.140   1.726  1.00  0.00     0.170 C 
BRANCH  11  12
HETATM   12  O2  UNL     1      29.420  13.579   2.377  1.00  0.00    -0.400 OA
ATOM     13  H2  UNL     1      29.141  14.226   3.014  1.00  0.00     0.209 HD
ENDBRANCH  11  12
ENDBRANCH   7  11
BRANCH   9  14
HETATM   14  C18 UNL     1      27.872   9.463  -1.452  1.00  0.00     0.277 C 
BRANCH  14  15
HETATM   15  C19 UNL     1      27.617   9.016  -2.853  1.00  0.00     0.014 C 
HETATM   16  C20 UNL     1      26.938   7.663  -2.910  1.00  0.00     0.006 C 
HETATM   17  C21 UNL     1      26.684   7.298  -4.341  1.00  0.00     0.000 C 
HETATM   18  C22 UNL     1      27.425   8.169  -5.316  1.00  0.00     0.000 C 
HETATM   19  C23 UNL     1      28.858   8.410  -4.908  1.00  0.00     0.000 C 
HETATM   20  C24 UNL     1      29.010   8.778  -3.468  1.00  0.00     0.006 C 
ENDBRANCH  14  15
ENDBRANCH   9  14
ENDBRANCH   2   4
BRANCH   1  21
HETATM   21  C10 UNL     1      26.732  15.811  -4.371  1.00  0.00     0.201 A 
HETATM   22  N2  UNL     1      27.689  16.747  -4.473  1.00  0.00    -0.260 N 
HETATM   23  N3  UNL     1      27.146  17.881  -4.855  1.00  0.00    -0.307 N 
HETATM   24  C8  UNL     1      25.828  17.754  -5.019  1.00  0.00     0.112 A 
ATOM     25  H3  UNL     1      27.665  18.746  -5.007  1.00  0.00     0.186 HD
HETATM   26  C9  UNL     1      25.524  16.479  -4.727  1.00  0.00     0.084 A 
BRANCH  22  27
HETATM   27  C7  UNL     1      29.120  16.627  -4.195  1.00  0.00     0.117 C 
HETATM   28  C6  UNL     1      29.857  16.932  -5.468  1.00  0.00     0.071 C 
HETATM   29  C5  UNL     1      31.300  17.124  -5.173  1.00  0.00     0.060 C 
HETATM   30  N1  UNL     1      31.540  18.264  -4.400  1.00  0.00    -0.389 N 
HETATM   31  C27 UNL     1      30.537  18.602  -3.439  1.00  0.00     0.124 C 
HETATM   32  C26 UNL     1      29.552  17.564  -3.135  1.00  0.00     0.047 C 
BRANCH  30  33
HETATM   33  C3  UNL     1      32.282  19.342  -4.910  1.00  0.00     0.079 C 
HETATM   34  C4  UNL     1      33.022  20.174  -3.869  1.00  0.00     0.032 C 
BRANCH  33  35
HETATM   35  C2  UNL     1      31.455  20.310  -5.739  1.00  0.00     0.020 C 
HETATM   36  C1  UNL     1      31.671  20.039  -7.223  1.00  0.00     0.007 C 
ENDBRANCH  33  35
ENDBRANCH  30  33
ENDBRANCH  22  27
ENDBRANCH   1  21
TORSDOF 9
ENDMDL
MODEL 2
REMARK VINA RESULT: -9.471844264      2.225      4.160
REMARK  9 active torsions:
REMARK  status: ('A' for Active; 'I' for Inactive)
REMARK    1  A    between atoms: C2_2  and  C3_3 
REMARK    2  A    between atoms: C3_3  and  N1_5 
REMARK    3  A    between atoms: C7_8  and  N2_9 
REMARK    4  A    between atoms: C10_14  and  N4_15 
REMARK       I    between atoms: N4_15  and  C11_16 
REMARK    5  A    between atoms: C11_16  and  C12_18 
REMARK    6  A    between atoms: C15_21  and  C16_22 
REMARK    7  A    between atoms: C16_22  and  O2_23 
REMARK    8  A    between atoms: N5_26  and  C18_27 
REMARK    9  A    between atoms: C18_27  and  C19_28 
ROOT
HETATM    1  N4  UNL     1      25.807  13.294  -5.121  1.00  0.00    -0.350 NA
HETATM    2  C11 UNL     1      26.087  12.017  -5.208  1.00  0.00     0.299 C 
HETATM    3  O1  UNL     1      26.297  11.439  -6.344  1.00  0.00    -0.257 OA
ENDROOT
BRANCH   2   4
HETATM    4  C12 UNL     1      26.212  11.053  -4.057  1.00  0.00     0.121 C 
HETATM    5  C13 UNL     1      25.550   9.756  -4.430  1.00  0.00     0.017 C 
HETATM    6  C14 UNL     1      25.019   9.141  -3.175  1.00  0.00     0.009 C 
HETATM    7  C15 UNL     1      25.980   8.301  -2.420  1.00  0.00     0.037 C 
HETATM    8  C17 UNL     1      27.409   8.720  -2.438  1.00  0.00     0.279 C 
HETATM    9  N5  UNL     1      27.669  10.108  -2.457  1.00  0.00     0.090 N 
HETATM   10  C25 UNL     1      27.670  10.706  -3.802  1.00  0.00     0.287 C 
BRANCH   7  11
HETATM   11  C16 UNL     1      25.880   6.828  -2.862  1.00  0.00     0.170 C 
BRANCH  11  12
HETATM   12  O2  UNL     1      26.740   6.107  -2.044  1.00  0.00    -0.400 OA
ATOM     13  H2  UNL     1      26.794   6.580  -1.222  1.00  0.00     0.209 HD
ENDBRANCH  11  12
ENDBRANCH   7  11
BRANCH   9  14
HETATM   14  C18 UNL     1      28.764  10.580  -1.680  1.00  0.00     0.277 C 
BRANCH  14  15
HETATM   15  C19 UNL     1      28.415  11.476  -0.541  1.00  0.00     0.014 C 
HETATM   16  C20 UNL     1      27.169  11.018   0.190  1.00  0.00     0.006 C 
HETATM   17  C21 UNL     1      26.901  11.943   1.338  1.00  0.00     0.000 C 
HETATM   18  C22 UNL     1      27.703  13.212   1.276  1.00  0.00     0.000 C 
HETATM   19  C23 UNL     1      27.732  13.817  -0.106  1.00  0.00     0.000 C 
HETATM   20  C24 UNL     1      28.017  12.820  -1.182  1.00  0.00     0.006 C 
ENDBRANCH  14  15
ENDBRANCH   9  14
ENDBRANCH   2   4
BRANCH   1  21
HETATM   21  C10 UNL     1      25.539  14.467  -5.058  1.00  0.00     0.201 A 
HETATM   22  N2  UNL     1      26.253  15.474  -4.532  1.00  0.00    -0.260 N 
HETATM   23  N3  UNL     1      25.618  16.607  -4.732  1.00  0.00    -0.307 N 
HETATM   24  C8  UNL     1      24.472  16.409  -5.387  1.00  0.00     0.112 A 
ATOM     25  H3  UNL     1      25.957  17.519  -4.426  1.00  0.00     0.186 HD
HETATM   26  C9  UNL     1      24.380  15.088  -5.611  1.00  0.00     0.084 A 
BRANCH  22  27
HETATM   27  C7  UNL     1      27.523  15.414  -3.807  1.00  0.00     0.117 C 
HETATM   28  C6  UNL     1      28.627  15.433  -4.825  1.00  0.00     0.071 C 
HETATM   29  C5  UNL     1      29.924  15.682  -4.145  1.00  0.00     0.060 C 
HETATM   30  N1  UNL     1      30.000  16.962  -3.589  1.00  0.00    -0.389 N 
HETATM   31  C27 UNL     1      28.781  17.503  -3.074  1.00  0.00     0.124 C 
HETATM   32  C26 UNL     1      27.680  16.558  -2.882  1.00  0.00     0.047 C 
BRANCH  30  33
HETATM   33  C3  UNL     1      30.934  17.901  -4.055  1.00  0.00     0.079 C 
HETATM   34  C4  UNL     1      31.031  19.184  -3.238  1.00  0.00     0.032 C 
BRANCH  33  35
HETATM   35  C2  UNL     1      30.707  18.316  -5.499  1.00  0.00     0.020 C 
HETATM   36  C1  UNL     1      31.900  19.121  -6.001  1.00  0.00     0.007 C 
ENDBRANCH  33  35
ENDBRANCH  30  33
ENDBRANCH  22  27
ENDBRANCH   1  21
TORSDOF 9
ENDMDL
MODEL 3
REMARK VINA RESULT: -9.468616493      2.202      4.190
REMARK  9 active torsions:
REMARK  status: ('A' for Active; 'I' for Inactive)
REMARK    1  A    between atoms: C2_2  and  C3_3 
REMARK    2  A    between atoms: C3_3  and  N1_5 
REMARK    3  A    between atoms: C7_8  and  N2_9 
REMARK    4  A    between atoms: C10_14  and  N4_15 
REMARK       I    between atoms: N4_15  and  C11_16 
REMARK    5  A    between atoms: C11_16  and  C12_18 
REMARK    6  A    between atoms: C15_21  and  C16_22 
REMARK    7  A    between atoms: C16_22  and  O2_23 
REMARK    8  A    between atoms: N5_26  and  C18_27 
REMARK    9  A    between atoms: C18_27  and  C19_28 
ROOT
HETATM    1  N4  UNL     1      25.872  13.904  -5.110  1.00  0.00    -0.350 NA
HETATM    2  C11 UNL     1      26.048  12.619  -5.294  1.00  0.00     0.299 C 
HETATM    3  O1  UNL     1      26.241  12.118  -6.468  1.00  0.00    -0.257 OA
ENDROOT
BRANCH   2   4
HETATM    4  C12 UNL     1      26.060  11.561  -4.222  1.00  0.00     0.121 C 
HETATM    5  C13 UNL     1      25.343  10.341  -4.731  1.00  0.00     0.017 C 
HETATM    6  C14 UNL     1      24.715   9.662  -3.556  1.00  0.00     0.009 C 
HETATM    7  C15 UNL     1      25.588   8.706  -2.831  1.00  0.00     0.037 C 
HETATM    8  C17 UNL     1      27.038   9.036  -2.751  1.00  0.00     0.279 C 
HETATM    9  N5  UNL     1      27.378  10.401  -2.643  1.00  0.00     0.090 N 
HETATM   10  C25 UNL     1      27.481  11.105  -3.933  1.00  0.00     0.287 C 
BRANCH   7  11
HETATM   11  C16 UNL     1      25.424   7.282  -3.398  1.00  0.00     0.170 C 
BRANCH  11  12
HETATM   12  O2  UNL     1      25.263   6.435  -2.308  1.00  0.00    -0.400 OA
ATOM     13  H2  UNL     1      24.879   5.633  -2.641  1.00  0.00     0.209 HD
ENDBRANCH  11  12
ENDBRANCH   7  11
BRANCH   9  14
HETATM   14  C18 UNL     1      28.460  10.741  -1.782  1.00  0.00     0.277 C 
BRANCH  14  15
HETATM   15  C19 UNL     1      28.156  11.745  -0.722  1.00  0.00     0.014 C 
HETATM   16  C20 UNL     1      27.876  13.120  -1.296  1.00  0.00     0.006 C 
HETATM   17  C21 UNL     1      27.546  14.063  -0.179  1.00  0.00     0.000 C 
HETATM   18  C22 UNL     1      27.883  13.515   1.179  1.00  0.00     0.000 C 
HETATM   19  C23 UNL     1      29.234  12.845   1.218  1.00  0.00     0.000 C 
HETATM   20  C24 UNL     1      29.467  11.915   0.071  1.00  0.00     0.006 C 
ENDBRANCH  14  15
ENDBRANCH   9  14
ENDBRANCH   2   4
BRANCH   1  21
HETATM   21  C10 UNL     1      25.700  15.088  -4.958  1.00  0.00     0.201 A 
HETATM   22  N2  UNL     1      26.556  16.019  -4.508  1.00  0.00    -0.260 N 
HETATM   23  N3  UNL     1      25.980  17.199  -4.560  1.00  0.00    -0.307 N 
HETATM   24  C8  UNL     1      24.736  17.108  -5.036  1.00  0.00     0.112 A 
ATOM     25  H3  UNL     1      26.424  18.070  -4.274  1.00  0.00     0.186 HD
HETATM   26  C9  UNL     1      24.517  15.809  -5.297  1.00  0.00     0.084 A 
BRANCH  22  27
HETATM   27  C7  UNL     1      27.914  15.841  -3.994  1.00  0.00     0.117 C 
HETATM   28  C6  UNL     1      28.864  16.081  -5.132  1.00  0.00     0.071 C 
HETATM   29  C5  UNL     1      30.247  16.216  -4.604  1.00  0.00     0.060 C 
HETATM   30  N1  UNL     1      30.411  17.362  -3.822  1.00  0.00    -0.389 N 
HETATM   31  C27 UNL     1      29.281  17.768  -3.046  1.00  0.00     0.124 C 
HETATM   32  C26 UNL     1      28.210  16.783  -2.892  1.00  0.00     0.047 C 
BRANCH  30  33
HETATM   33  C3  UNL     1      31.279  18.393  -4.219  1.00  0.00     0.079 C 
HETATM   34  C4  UNL     1      30.684  19.796  -4.181  1.00  0.00     0.032 C 
BRANCH  33  35
HETATM   35  C2  UNL     1      31.857  18.197  -5.610  1.00  0.00     0.020 C 
HETATM   36  C1  UNL     1      31.675  19.469  -6.431  1.00  0.00     0.007 C 
ENDBRANCH  33  35
ENDBRANCH  30  33
ENDBRANCH  22  27
ENDBRANCH   1  21
TORSDOF 9
ENDMDL
MODEL 4
REMARK VINA RESULT: -9.457066194      3.098      9.706
REMARK  9 active torsions:
REMARK  status: ('A' for Active; 'I' for Inactive)
REMARK    1  A    between atoms: C2_2  and  C3_3 
REMARK    2  A    between atoms: C3_3  and  N1_5 
REMARK    3  A    between atoms: C7_8  and  N2_9 
REMARK    4  A    between atoms: C10_14  and  N4_15 
REMARK       I    between atoms: N4_15  and  C11_16 
REMARK    5  A    between atoms: C11_16  and  C12_18 
REMARK    6  A    between atoms: C15_21  and  C16_22 
REMARK    7  A    between atoms: C16_22  and  O2_23 
REMARK    8  A    between atoms: N5_26  and  C18_27 
REMARK    9  A    between atoms: C18_27  and  C19_28 
ROOT
HETATM    1  N4  UNL     1      26.907   8.964  -3.314  1.00  0.00    -0.350 NA
HETATM    2  C11 UNL     1      26.681  10.231  -3.558  1.00  0.00     0.299 C 
HETATM    3  O1  UNL     1      26.229  10.638  -4.697  1.00  0.00    -0.257 OA
ENDROOT
BRANCH   2   4
HETATM    4  C12 UNL     1      26.895  11.373  -2.599  1.00  0.00     0.121 C 
HETATM    5  C13 UNL     1      27.744  10.898  -1.453  1.00  0.00     0.017 C 
HETATM    6  C14 UNL     1      27.349  11.681  -0.241  1.00  0.00     0.009 C 
HETATM    7  C15 UNL     1      28.044  12.980  -0.067  1.00  0.00     0.037 C 
HETATM    8  C17 UNL     1      28.389  13.737  -1.303  1.00  0.00     0.279 C 
HETATM    9  N5  UNL     1      27.481  13.650  -2.381  1.00  0.00     0.090 N 
HETATM   10  C25 UNL     1      27.691  12.487  -3.259  1.00  0.00     0.287 C 
BRANCH   7  11
HETATM   11  C16 UNL     1      29.312  12.808   0.791  1.00  0.00     0.170 C 
BRANCH  11  12
HETATM   12  O2  UNL     1      29.271  13.797   1.766  1.00  0.00    -0.400 OA
ATOM     13  H2  UNL     1      28.721  13.467   2.466  1.00  0.00     0.209 HD
ENDBRANCH  11  12
ENDBRANCH   7  11
BRANCH   9  14
HETATM   14  C18 UNL     1      27.248  14.833  -3.137  1.00  0.00     0.277 C 
BRANCH  14  15
HETATM   15  C19 UNL     1      28.450  15.668  -3.425  1.00  0.00     0.014 C 
HETATM   16  C20 UNL     1      28.250  17.119  -3.036  1.00  0.00     0.006 C 
HETATM   17  C21 UNL     1      29.506  17.885  -3.321  1.00  0.00     0.000 C 
HETATM   18  C22 UNL     1      30.479  17.129  -4.181  1.00  0.00     0.000 C 
HETATM   19  C23 UNL     1      29.813  16.437  -5.345  1.00  0.00     0.000 C 
HETATM   20  C24 UNL     1      28.576  15.691  -4.962  1.00  0.00     0.006 C 
ENDBRANCH  14  15
ENDBRANCH   9  14
ENDBRANCH   2   4
BRANCH   1  21
HETATM   21  C10 UNL     1      27.120   7.795  -3.108  1.00  0.00     0.201 A 
HETATM   22  N2  UNL     1      26.816   6.731  -3.867  1.00  0.00    -0.260 N 
HETATM   23  N3  UNL     1      27.286   5.644  -3.297  1.00  0.00    -0.307 N 
HETATM   24  C8  UNL     1      27.911   5.931  -2.153  1.00  0.00     0.112 A 
ATOM     25  H3  UNL     1      27.187   4.704  -3.679  1.00  0.00     0.186 HD
HETATM   26  C9  UNL     1      27.831   7.261  -1.993  1.00  0.00     0.084 A 
BRANCH  22  27
HETATM   27  C7  UNL     1      26.061   6.686  -5.120  1.00  0.00     0.117 C 
HETATM   28  C6  UNL     1      26.999   7.072  -6.227  1.00  0.00     0.071 C 
HETATM   29  C5  UNL     1      26.379   6.750  -7.538  1.00  0.00     0.060 C 
HETATM   30  N1  UNL     1      26.226   5.374  -7.733  1.00  0.00    -0.389 N 
HETATM   31  C27 UNL     1      25.939   4.596  -6.569  1.00  0.00     0.124 C 
HETATM   32  C26 UNL     1      25.514   5.336  -5.381  1.00  0.00     0.047 C 
BRANCH  30  33
HETATM   33  C3  UNL     1      26.917   4.706  -8.757  1.00  0.00     0.079 C 
HETATM   34  C4  UNL     1      28.425   4.930  -8.779  1.00  0.00     0.032 C 
BRANCH  33  35
HETATM   35  C2  UNL     1      26.404   5.031 -10.149  1.00  0.00     0.020 C 
HETATM   36  C1  UNL     1      24.880   5.003 -10.160  1.00  0.00     0.007 C 
ENDBRANCH  33  35
ENDBRANCH  30  33
ENDBRANCH  22  27
ENDBRANCH   1  21
TORSDOF 9
ENDMDL
MODEL 5
REMARK VINA RESULT: -9.439168536      2.753      4.891
REMARK  9 active torsions:
REMARK  status: ('A' for Active; 'I' for Inactive)
REMARK    1  A    between atoms: C2_2  and  C3_3 
REMARK    2  A    between atoms: C3_3  and  N1_5 
REMARK    3  A    between atoms: C7_8  and  N2_9 
REMARK    4  A    between atoms: C10_14  and  N4_15 
REMARK       I    between atoms: N4_15  and  C11_16 
REMARK    5  A    between atoms: C11_16  and  C12_18 
REMARK    6  A    between atoms: C15_21  and  C16_22 
REMARK    7  A    between atoms: C16_22  and  O2_23 
REMARK    8  A    between atoms: N5_26  and  C18_27 
REMARK    9  A    between atoms: C18_27  and  C19_28 
ROOT
HETATM    1  N4  UNL     1      27.030  12.175  -3.156  1.00  0.00    -0.350 NA
HETATM    2  C11 UNL     1      26.712  11.393  -4.157  1.00  0.00     0.299 C 
HETATM    3  O1  UNL     1      25.990  11.808  -5.145  1.00  0.00    -0.257 OA
ENDROOT
BRANCH   2   4
HETATM    4  C12 UNL     1      27.115   9.951  -4.324  1.00  0.00     0.121 C 
HETATM    5  C13 UNL     1      27.427   9.371  -2.973  1.00  0.00     0.017 C 
HETATM    6  C14 UNL     1      28.472   8.318  -3.162  1.00  0.00     0.009 C 
HETATM    7  C15 UNL     1      27.961   6.966  -3.497  1.00  0.00     0.037 C 
HETATM    8  C17 UNL     1      26.738   6.893  -4.344  1.00  0.00     0.279 C 
HETATM    9  N5  UNL     1      26.587   7.885  -5.337  1.00  0.00     0.090 N 
HETATM   10  C25 UNL     1      25.956   9.127  -4.862  1.00  0.00     0.287 C 
BRANCH   7  11
HETATM   11  C16 UNL     1      27.742   6.135  -2.219  1.00  0.00     0.170 C 
BRANCH  11  12
HETATM   12  O2  UNL     1      28.358   4.908  -2.430  1.00  0.00    -0.400 OA
ATOM     13  H2  UNL     1      27.739   4.241  -2.157  1.00  0.00     0.209 HD
ENDBRANCH  11  12
ENDBRANCH   7  11
BRANCH   9  14
HETATM   14  C18 UNL     1      26.049   7.479  -6.591  1.00  0.00     0.277 C 
BRANCH  14  15
HETATM   15  C19 UNL     1      26.812   6.421  -7.314  1.00  0.00     0.014 C 
HETATM   16  C20 UNL     1      28.258   6.812  -7.544  1.00  0.00     0.006 C 
HETATM   17  C21 UNL     1      28.968   5.691  -8.242  1.00  0.00     0.000 C 
HETATM   18  C22 UNL     1      28.034   4.655  -8.800  1.00  0.00     0.000 C 
HETATM   19  C23 UNL     1      26.844   5.262  -9.502  1.00  0.00     0.000 C 
HETATM   20  C24 UNL     1      26.197   6.362  -8.726  1.00  0.00     0.006 C 
ENDBRANCH  14  15
ENDBRANCH   9  14
ENDBRANCH   2   4
BRANCH   1  21
HETATM   21  C10 UNL     1      27.306  12.903  -2.235  1.00  0.00     0.201 A 
HETATM   22  N2  UNL     1      27.456  14.236  -2.224  1.00  0.00    -0.260 N 
HETATM   23  N3  UNL     1      27.695  14.635  -0.994  1.00  0.00    -0.307 N 
HETATM   24  C8  UNL     1      27.715  13.603  -0.148  1.00  0.00     0.112 A 
ATOM     25  H3  UNL     1      27.845  15.606  -0.722  1.00  0.00     0.186 HD
HETATM   26  C9  UNL     1      27.478  12.501  -0.877  1.00  0.00     0.084 A 
BRANCH  22  27
HETATM   27  C7  UNL     1      27.413  15.172  -3.348  1.00  0.00     0.117 C 
HETATM   28  C6  UNL     1      27.622  16.553  -2.796  1.00  0.00     0.071 C 
HETATM   29  C5  UNL     1      27.892  17.498  -3.910  1.00  0.00     0.060 C 
HETATM   30  N1  UNL     1      29.107  17.238  -4.549  1.00  0.00    -0.389 N 
HETATM   31  C27 UNL     1      29.499  15.865  -4.632  1.00  0.00     0.124 C 
HETATM   32  C26 UNL     1      28.461  14.874  -4.349  1.00  0.00     0.047 C 
BRANCH  30  33
HETATM   33  C3  UNL     1      30.157  18.170  -4.517  1.00  0.00     0.079 C 
HETATM   34  C4  UNL     1      31.389  17.792  -5.332  1.00  0.00     0.032 C 
BRANCH  33  35
HETATM   35  C2  UNL     1      30.641  18.491  -3.113  1.00  0.00     0.020 C 
HETATM   36  C1  UNL     1      31.427  19.797  -3.121  1.00  0.00     0.007 C 
ENDBRANCH  33  35
ENDBRANCH  30  33
ENDBRANCH  22  27
ENDBRANCH   1  21
TORSDOF 9
ENDMDL
