MODEL 1
REMARK VINA RESULT: -9.013126135      0.000      0.000
REMARK  12 active torsions:
REMARK  status: ('A' for Active; 'I' for Inactive)
REMARK    1  A    between atoms: C2_2  and  O1_3 
REMARK    2  A    between atoms: O1_3  and  C3_4 
REMARK    3  A    between atoms: C3_4  and  C4_6 
REMARK    4  A    between atoms: C4_6  and  C28_34 
REMARK    5  A    between atoms: C10_12  and  C29_37 
REMARK    6  A    between atoms: C13_15  and  C14_16 
REMARK    7  A    between atoms: C13_15  and  C26_32 
REMARK    8  A    between atoms: C14_16  and  C15_17 
REMARK       I    between atoms: C15_17  and  N1_19 
REMARK    9  A    between atoms: N1_19  and  C16_21 
REMARK   10  A    between atoms: N2_24  and  C19_25 
REMARK   11  A    between atoms: C19_25  and  C20_26 
REMARK   12  A    between atoms: C28_34  and  O4_35 
ROOT
HETATM    1  C4  UNL     1      27.291   7.108  -4.005  1.00  0.00     0.080 C 
HETATM    2  C5  UNL     1      28.742   7.581  -4.160  1.00  0.00     0.023 C 
HETATM    3  C6  UNL     1      28.855   9.045  -4.388  1.00  0.00     0.007 C 
HETATM    4  C7  UNL     1      27.593   9.836  -4.362  1.00  0.00    -0.001 C 
HETATM    5  C8  UNL     1      26.404   9.138  -4.953  1.00  0.00    -0.004 C 
HETATM    6  C9  UNL     1      26.599   7.673  -5.229  1.00  0.00     0.028 C 
HETATM    7  C10 UNL     1      25.248   9.193  -3.967  1.00  0.00    -0.003 C 
HETATM    8  C11 UNL     1      24.865  10.642  -3.820  1.00  0.00     0.006 C 
HETATM    9  C12 UNL     1      26.084  11.395  -3.289  1.00  0.00     0.011 C 
HETATM   10  C13 UNL     1      27.252  10.458  -3.051  1.00  0.00    -0.024 C 
ENDROOT
BRANCH  10  11
HETATM   11  C14 UNL     1      28.333  11.184  -2.358  1.00  0.00     0.113 C 
BRANCH  11  12
HETATM   12  C15 UNL     1      28.421  12.642  -2.488  1.00  0.00     0.218 C 
HETATM   13  O3  UNL     1      27.945  13.391  -1.598  1.00  0.00    -0.274 OA
HETATM   14  N1  UNL     1      29.056  13.252  -3.641  1.00  0.00    -0.356 N 
ATOM     15  H1  UNL     1      29.440  12.639  -4.360  1.00  0.00     0.162 HD
BRANCH  14  16
HETATM   16  C16 UNL     1      29.173  14.648  -3.824  1.00  0.00     0.087 C 
HETATM   17  C17 UNL     1      28.133  15.270  -4.726  1.00  0.00     0.055 C 
HETATM   18  C18 UNL     1      28.229  16.779  -4.429  1.00  0.00     0.275 C 
HETATM   19  N2  UNL     1      29.526  17.274  -4.929  1.00  0.00     0.091 N 
HETATM   20  C24 UNL     1      30.559  16.636  -4.101  1.00  0.00     0.275 C 
HETATM   21  C25 UNL     1      30.535  15.127  -4.248  1.00  0.00     0.055 C 
BRANCH  19  22
HETATM   22  C19 UNL     1      29.546  18.697  -4.668  1.00  0.00     0.300 C 
BRANCH  22  23
HETATM   23  C20 UNL     1      30.744  19.159  -3.939  1.00  0.00     0.005 C 
HETATM   24  C21 UNL     1      31.699  19.799  -4.575  1.00  0.00    -0.090 C 
HETATM   25  C22 UNL     1      31.584  20.062  -6.022  1.00  0.00     0.042 C 
HETATM   26  C23 UNL     1      32.903  20.259  -3.840  1.00  0.00     0.042 C 
ENDBRANCH  22  23
ENDBRANCH  19  22
ENDBRANCH  14  16
ENDBRANCH  11  12
ENDBRANCH  10  11
BRANCH  10  27
HETATM   27  C26 UNL     1      26.681   9.455  -2.050  1.00  0.00     0.005 C 
HETATM   28  C27 UNL     1      26.043   9.977  -0.824  1.00  0.00     0.045 C 
HETATM   29  C28 UNL     1      27.341   9.729  -0.089  1.00  0.00     0.079 C 
HETATM   30  C29 UNL     1      27.762   8.866  -1.208  1.00  0.00     0.031 C 
BRANCH  29  31
HETATM   31  O4  UNL     1      27.070   8.929   1.050  1.00  0.00    -0.388 OA
ATOM     32  H4  UNL     1      27.453   8.065   0.946  1.00  0.00     0.210 HD
ENDBRANCH  29  31
ENDBRANCH  10  27
BRANCH   1  33
HETATM   33  C3  UNL     1      27.345   5.631  -4.176  1.00  0.00     0.270 C 
HETATM   34  O2  UNL     1      27.862   4.920  -3.284  1.00  0.00    -0.264 OA
BRANCH  33  35
HETATM   35  O1  UNL     1      26.836   5.005  -5.305  1.00  0.00    -0.321 OA
BRANCH  35  36
HETATM   36  C2  UNL     1      27.639   4.214  -6.159  1.00  0.00     0.174 C 
HETATM   37  C1  UNL     1      28.252   5.086  -7.199  1.00  0.00     0.034 C 
ENDBRANCH  35  36
ENDBRANCH  33  35
ENDBRANCH   1  33
TORSDOF 12
ENDMDL
MODEL 2
REMARK VINA RESULT: -8.762628493      1.095      1.444
REMARK  12 active torsions:
REMARK  status: ('A' for Active; 'I' for Inactive)
REMARK    1  A    between atoms: C2_2  and  O1_3 
REMARK    2  A    between atoms: O1_3  and  C3_4 
REMARK    3  A    between atoms: C3_4  and  C4_6 
REMARK    4  A    between atoms: C4_6  and  C28_34 
REMARK    5  A    between atoms: C10_12  and  C29_37 
REMARK    6  A    between atoms: C13_15  and  C14_16 
REMARK    7  A    between atoms: C13_15  and  C26_32 
REMARK    8  A    between atoms: C14_16  and  C15_17 
REMARK       I    between atoms: C15_17  and  N1_19 
REMARK    9  A    between atoms: N1_19  and  C16_21 
REMARK   10  A    between atoms: N2_24  and  C19_25 
REMARK   11  A    between atoms: C19_25  and  C20_26 
REMARK   12  A    between atoms: C28_34  and  O4_35 
ROOT
HETATM    1  C4  UNL     1      27.124   6.607  -4.375  1.00  0.00     0.080 C 
HETATM    2  C5  UNL     1      28.385   7.271  -4.942  1.00  0.00     0.023 C 
HETATM    3  C6  UNL     1      28.196   8.712  -5.251  1.00  0.00     0.007 C 
HETATM    4  C7  UNL     1      26.876   9.311  -4.910  1.00  0.00    -0.001 C 
HETATM    5  C8  UNL     1      25.701   8.403  -5.123  1.00  0.00    -0.004 C 
HETATM    6  C9  UNL     1      26.051   6.963  -5.383  1.00  0.00     0.028 C 
HETATM    7  C10 UNL     1      24.855   8.371  -3.859  1.00  0.00    -0.003 C 
HETATM    8  C11 UNL     1      24.296   9.756  -3.671  1.00  0.00     0.006 C 
HETATM    9  C12 UNL     1      25.473  10.719  -3.527  1.00  0.00     0.011 C 
HETATM   10  C13 UNL     1      26.799   9.984  -3.582  1.00  0.00    -0.024 C 
ENDROOT
BRANCH  10  11
HETATM   11  C14 UNL     1      27.892  10.914  -3.243  1.00  0.00     0.113 C 
BRANCH  11  12
HETATM   12  C15 UNL     1      27.865  12.282  -3.769  1.00  0.00     0.218 C 
HETATM   13  O3  UNL     1      27.114  12.580  -4.732  1.00  0.00    -0.274 OA
HETATM   14  N1  UNL     1      28.700  13.320  -3.195  1.00  0.00    -0.356 N 
ATOM     15  H1  UNL     1      29.307  13.072  -2.413  1.00  0.00     0.162 HD
BRANCH  14  16
HETATM   16  C16 UNL     1      28.719  14.655  -3.655  1.00  0.00     0.087 C 
HETATM   17  C17 UNL     1      30.075  15.176  -4.068  1.00  0.00     0.055 C 
HETATM   18  C18 UNL     1      29.760  16.444  -4.886  1.00  0.00     0.275 C 
HETATM   19  N2  UNL     1      29.211  17.466  -3.975  1.00  0.00     0.091 N 
HETATM   20  C24 UNL     1      27.913  16.953  -3.514  1.00  0.00     0.275 C 
HETATM   21  C25 UNL     1      28.070  15.659  -2.740  1.00  0.00     0.055 C 
BRANCH  19  22
HETATM   22  C19 UNL     1      28.976  18.645  -4.780  1.00  0.00     0.300 C 
BRANCH  22  23
HETATM   23  C20 UNL     1      29.929  18.813  -5.895  1.00  0.00     0.005 C 
HETATM   24  C21 UNL     1      30.832  19.767  -5.855  1.00  0.00    -0.090 C 
HETATM   25  C22 UNL     1      30.901  20.679  -4.696  1.00  0.00     0.042 C 
HETATM   26  C23 UNL     1      31.786  19.936  -6.978  1.00  0.00     0.042 C 
ENDBRANCH  22  23
ENDBRANCH  19  22
ENDBRANCH  14  16
ENDBRANCH  11  12
ENDBRANCH  10  11
BRANCH  10  27
HETATM   27  C26 UNL     1      26.684   8.995  -2.423  1.00  0.00     0.005 C 
HETATM   28  C27 UNL     1      26.090   9.469  -1.156  1.00  0.00     0.045 C 
HETATM   29  C28 UNL     1      27.490   9.684  -0.625  1.00  0.00     0.079 C 
HETATM   30  C29 UNL     1      27.992   8.838  -1.723  1.00  0.00     0.031 C 
BRANCH  29  31
HETATM   31  O4  UNL     1      27.618   8.989   0.604  1.00  0.00    -0.388 OA
ATOM     32  H4  UNL     1      28.030   8.143   0.465  1.00  0.00     0.210 HD
ENDBRANCH  29  31
ENDBRANCH  10  27
BRANCH   1  33
HETATM   33  C3  UNL     1      27.370   5.146  -4.494  1.00  0.00     0.270 C 
HETATM   34  O2  UNL     1      27.882   4.520  -3.538  1.00  0.00    -0.264 OA
BRANCH  33  35
HETATM   35  O1  UNL     1      27.046   4.440  -5.645  1.00  0.00    -0.321 OA
BRANCH  35  36
HETATM   36  C2  UNL     1      28.021   4.049  -6.593  1.00  0.00     0.174 C 
HETATM   37  C1  UNL     1      27.869   4.881  -7.819  1.00  0.00     0.034 C 
ENDBRANCH  35  36
ENDBRANCH  33  35
ENDBRANCH   1  33
TORSDOF 12
ENDMDL
MODEL 3
REMARK VINA RESULT: -8.747197986      0.776      1.188
REMARK  12 active torsions:
REMARK  status: ('A' for Active; 'I' for Inactive)
REMARK    1  A    between atoms: C2_2  and  O1_3 
REMARK    2  A    between atoms: O1_3  and  C3_4 
REMARK    3  A    between atoms: C3_4  and  C4_6 
REMARK    4  A    between atoms: C4_6  and  C28_34 
REMARK    5  A    between atoms: C10_12  and  C29_37 
REMARK    6  A    between atoms: C13_15  and  C14_16 
REMARK    7  A    between atoms: C13_15  and  C26_32 
REMARK    8  A    between atoms: C14_16  and  C15_17 
REMARK       I    between atoms: C15_17  and  N1_19 
REMARK    9  A    between atoms: N1_19  and  C16_21 
REMARK   10  A    between atoms: N2_24  and  C19_25 
REMARK   11  A    between atoms: C19_25  and  C20_26 
REMARK   12  A    between atoms: C28_34  and  O4_35 
ROOT
HETATM    1  C4  UNL     1      27.344   7.134  -3.881  1.00  0.00     0.080 C 
HETATM    2  C5  UNL     1      28.807   7.580  -3.981  1.00  0.00     0.023 C 
HETATM    3  C6  UNL     1      28.956   9.032  -4.260  1.00  0.00     0.007 C 
HETATM    4  C7  UNL     1      27.707   9.841  -4.327  1.00  0.00    -0.001 C 
HETATM    5  C8  UNL     1      26.537   9.138  -4.950  1.00  0.00    -0.004 C 
HETATM    6  C9  UNL     1      26.722   7.660  -5.158  1.00  0.00     0.028 C 
HETATM    7  C10 UNL     1      25.335   9.248  -4.024  1.00  0.00    -0.003 C 
HETATM    8  C11 UNL     1      24.969  10.707  -3.953  1.00  0.00     0.006 C 
HETATM    9  C12 UNL     1      26.172  11.463  -3.392  1.00  0.00     0.011 C 
HETATM   10  C13 UNL     1      27.312  10.520  -3.059  1.00  0.00    -0.024 C 
ENDROOT
BRANCH  10  11
HETATM   11  C14 UNL     1      28.369  11.257  -2.343  1.00  0.00     0.113 C 
BRANCH  11  12
HETATM   12  C15 UNL     1      28.445  12.716  -2.471  1.00  0.00     0.218 C 
HETATM   13  O3  UNL     1      27.976  13.460  -1.573  1.00  0.00    -0.274 OA
HETATM   14  N1  UNL     1      29.061  13.333  -3.631  1.00  0.00    -0.356 N 
ATOM     15  H1  UNL     1      29.440  12.723  -4.356  1.00  0.00     0.162 HD
BRANCH  14  16
HETATM   16  C16 UNL     1      29.165  14.729  -3.813  1.00  0.00     0.087 C 
HETATM   17  C17 UNL     1      28.077  15.354  -4.654  1.00  0.00     0.055 C 
HETATM   18  C18 UNL     1      28.187  16.861  -4.356  1.00  0.00     0.275 C 
HETATM   19  N2  UNL     1      29.454  17.361  -4.922  1.00  0.00     0.091 N 
HETATM   20  C24 UNL     1      30.531  16.721  -4.154  1.00  0.00     0.275 C 
HETATM   21  C25 UNL     1      30.502  15.213  -4.308  1.00  0.00     0.055 C 
BRANCH  19  22
HETATM   22  C19 UNL     1      29.486  18.783  -4.655  1.00  0.00     0.300 C 
BRANCH  22  23
HETATM   23  C20 UNL     1      28.824  19.605  -5.688  1.00  0.00     0.005 C 
HETATM   24  C21 UNL     1      29.529  20.142  -6.658  1.00  0.00    -0.090 C 
HETATM   25  C22 UNL     1      30.988  19.927  -6.725  1.00  0.00     0.042 C 
HETATM   26  C23 UNL     1      28.862  20.970  -7.692  1.00  0.00     0.042 C 
ENDBRANCH  22  23
ENDBRANCH  19  22
ENDBRANCH  14  16
ENDBRANCH  11  12
ENDBRANCH  10  11
BRANCH  10  27
HETATM   27  C26 UNL     1      26.676   9.565  -2.050  1.00  0.00     0.005 C 
HETATM   28  C27 UNL     1      26.008  10.143  -0.867  1.00  0.00     0.045 C 
HETATM   29  C28 UNL     1      27.271   9.885  -0.075  1.00  0.00     0.079 C 
HETATM   30  C29 UNL     1      27.709   8.975  -1.149  1.00  0.00     0.031 C 
BRANCH  29  31
HETATM   31  O4  UNL     1      26.934   9.130   1.077  1.00  0.00    -0.388 OA
ATOM     32  H4  UNL     1      27.062   8.202   0.913  1.00  0.00     0.210 HD
ENDBRANCH  29  31
ENDBRANCH  10  27
BRANCH   1  33
HETATM   33  C3  UNL     1      27.382   5.651  -3.991  1.00  0.00     0.270 C 
HETATM   34  O2  UNL     1      27.868   4.970  -3.059  1.00  0.00    -0.264 OA
BRANCH  33  35
HETATM   35  O1  UNL     1      26.892   4.986  -5.107  1.00  0.00    -0.321 OA
BRANCH  35  36
HETATM   36  C2  UNL     1      27.722   4.216  -5.954  1.00  0.00     0.174 C 
HETATM   37  C1  UNL     1      28.042   5.006  -7.175  1.00  0.00     0.034 C 
ENDBRANCH  35  36
ENDBRANCH  33  35
ENDBRANCH   1  33
TORSDOF 12
ENDMDL
MODEL 4
REMARK VINA RESULT: -8.148332895      1.703      2.382
REMARK  12 active torsions:
REMARK  status: ('A' for Active; 'I' for Inactive)
REMARK    1  A    between atoms: C2_2  and  O1_3 
REMARK    2  A    between atoms: O1_3  and  C3_4 
REMARK    3  A    between atoms: C3_4  and  C4_6 
REMARK    4  A    between atoms: C4_6  and  C28_34 
REMARK    5  A    between atoms: C10_12  and  C29_37 
REMARK    6  A    between atoms: C13_15  and  C14_16 
REMARK    7  A    between atoms: C13_15  and  C26_32 
REMARK    8  A    between atoms: C14_16  and  C15_17 
REMARK       I    between atoms: C15_17  and  N1_19 
REMARK    9  A    between atoms: N1_19  and  C16_21 
REMARK   10  A    between atoms: N2_24  and  C19_25 
REMARK   11  A    between atoms: C19_25  and  C20_26 
REMARK   12  A    between atoms: C28_34  and  O4_35 
ROOT
HETATM    1  C4  UNL     1      27.147   6.830  -4.286  1.00  0.00     0.080 C 
HETATM    2  C5  UNL     1      28.485   7.476  -4.667  1.00  0.00     0.023 C 
HETATM    3  C6  UNL     1      28.374   8.936  -4.922  1.00  0.00     0.007 C 
HETATM    4  C7  UNL     1      27.041   9.563  -4.706  1.00  0.00    -0.001 C 
HETATM    5  C8  UNL     1      25.874   8.707  -5.101  1.00  0.00    -0.004 C 
HETATM    6  C9  UNL     1      26.210   7.270  -5.392  1.00  0.00     0.028 C 
HETATM    7  C10 UNL     1      24.885   8.644  -3.947  1.00  0.00    -0.003 C 
HETATM    8  C11 UNL     1      24.347  10.037  -3.754  1.00  0.00     0.006 C 
HETATM    9  C12 UNL     1      25.526  10.950  -3.425  1.00  0.00     0.011 C 
HETATM   10  C13 UNL     1      26.827  10.174  -3.363  1.00  0.00    -0.024 C 
ENDROOT
BRANCH  10  11
HETATM   11  C14 UNL     1      27.899  11.048  -2.852  1.00  0.00     0.113 C 
BRANCH  11  12
HETATM   12  C15 UNL     1      27.715  12.503  -2.870  1.00  0.00     0.218 C 
HETATM   13  O3  UNL     1      27.269  13.102  -1.859  1.00  0.00    -0.274 OA
HETATM   14  N1  UNL     1      28.040  13.282  -4.050  1.00  0.00    -0.356 N 
ATOM     15  H1  UNL     1      28.401  12.790  -4.867  1.00  0.00     0.162 HD
BRANCH  14  16
HETATM   16  C16 UNL     1      27.885  14.683  -4.130  1.00  0.00     0.087 C 
HETATM   17  C17 UNL     1      26.522  15.158  -4.576  1.00  0.00     0.055 C 
HETATM   18  C18 UNL     1      26.495  16.649  -4.188  1.00  0.00     0.275 C 
HETATM   19  N2  UNL     1      27.458  17.373  -5.040  1.00  0.00     0.091 N 
HETATM   20  C24 UNL     1      28.791  16.885  -4.663  1.00  0.00     0.275 C 
HETATM   21  C25 UNL     1      28.937  15.400  -4.934  1.00  0.00     0.055 C 
BRANCH  19  22
HETATM   22  C19 UNL     1      27.361  18.768  -4.669  1.00  0.00     0.300 C 
BRANCH  22  23
HETATM   23  C20 UNL     1      27.039  19.670  -5.792  1.00  0.00     0.005 C 
HETATM   24  C21 UNL     1      25.834  20.182  -5.904  1.00  0.00    -0.090 C 
HETATM   25  C22 UNL     1      24.793  19.862  -4.908  1.00  0.00     0.042 C 
HETATM   26  C23 UNL     1      25.512  21.085  -7.036  1.00  0.00     0.042 C 
ENDBRANCH  22  23
ENDBRANCH  19  22
ENDBRANCH  14  16
ENDBRANCH  11  12
ENDBRANCH  10  11
BRANCH  10  27
HETATM   27  C26 UNL     1      26.548   9.135  -2.278  1.00  0.00     0.005 C 
HETATM   28  C27 UNL     1      25.960   9.597  -1.003  1.00  0.00     0.045 C 
HETATM   29  C28 UNL     1      27.352   9.608  -0.411  1.00  0.00     0.079 C 
HETATM   30  C29 UNL     1      27.798   8.779  -1.545  1.00  0.00     0.031 C 
BRANCH  29  31
HETATM   31  O4  UNL     1      27.345   8.827   0.773  1.00  0.00    -0.388 OA
ATOM     32  H4  UNL     1      26.679   9.143   1.373  1.00  0.00     0.210 HD
ENDBRANCH  29  31
ENDBRANCH  10  27
BRANCH   1  33
HETATM   33  C3  UNL     1      27.363   5.368  -4.451  1.00  0.00     0.270 C 
HETATM   34  O2  UNL     1      27.912   4.712  -3.537  1.00  0.00    -0.264 OA
BRANCH  33  35
HETATM   35  O1  UNL     1      26.972   4.694  -5.601  1.00  0.00    -0.321 OA
BRANCH  35  36
HETATM   36  C2  UNL     1      27.903   4.125  -6.500  1.00  0.00     0.174 C 
HETATM   37  C1  UNL     1      28.345   5.166  -7.469  1.00  0.00     0.034 C 
ENDBRANCH  35  36
ENDBRANCH  33  35
ENDBRANCH   1  33
TORSDOF 12
ENDMDL
MODEL 5
REMARK VINA RESULT: -7.751750400      3.774      6.318
REMARK  12 active torsions:
REMARK  status: ('A' for Active; 'I' for Inactive)
REMARK    1  A    between atoms: C2_2  and  O1_3 
REMARK    2  A    between atoms: O1_3  and  C3_4 
REMARK    3  A    between atoms: C3_4  and  C4_6 
REMARK    4  A    between atoms: C4_6  and  C28_34 
REMARK    5  A    between atoms: C10_12  and  C29_37 
REMARK    6  A    between atoms: C13_15  and  C14_16 
REMARK    7  A    between atoms: C13_15  and  C26_32 
REMARK    8  A    between atoms: C14_16  and  C15_17 
REMARK       I    between atoms: C15_17  and  N1_19 
REMARK    9  A    between atoms: N1_19  and  C16_21 
REMARK   10  A    between atoms: N2_24  and  C19_25 
REMARK   11  A    between atoms: C19_25  and  C20_26 
REMARK   12  A    between atoms: C28_34  and  O4_35 
ROOT
HETATM    1  C4  UNL     1      26.261   5.352  -8.897  1.00  0.00     0.080 C 
HETATM    2  C5  UNL     1      25.153   5.175  -7.852  1.00  0.00     0.023 C 
HETATM    3  C6  UNL     1      25.528   5.694  -6.511  1.00  0.00     0.007 C 
HETATM    4  C7  UNL     1      26.855   6.360  -6.389  1.00  0.00    -0.001 C 
HETATM    5  C8  UNL     1      27.944   5.745  -7.218  1.00  0.00    -0.004 C 
HETATM    6  C9  UNL     1      27.478   4.740  -8.234  1.00  0.00     0.028 C 
HETATM    7  C10 UNL     1      28.627   6.831  -8.035  1.00  0.00    -0.003 C 
HETATM    8  C11 UNL     1      29.303   7.756  -7.058  1.00  0.00     0.006 C 
HETATM    9  C12 UNL     1      28.224   8.341  -6.148  1.00  0.00     0.011 C 
HETATM   10  C13 UNL     1      26.844   7.844  -6.533  1.00  0.00    -0.024 C 
ENDROOT
BRANCH  10  11
HETATM   11  C14 UNL     1      25.823   8.579  -5.765  1.00  0.00     0.113 C 
BRANCH  11  12
HETATM   12  C15 UNL     1      26.236   9.426  -4.641  1.00  0.00     0.218 C 
HETATM   13  O3  UNL     1      26.167   8.998  -3.462  1.00  0.00    -0.274 OA
HETATM   14  N1  UNL     1      26.731  10.772  -4.862  1.00  0.00    -0.356 N 
ATOM     15  H1  UNL     1      26.784  11.114  -5.822  1.00  0.00     0.162 HD
BRANCH  14  16
HETATM   16  C16 UNL     1      27.143  11.635  -3.824  1.00  0.00     0.087 C 
HETATM   17  C17 UNL     1      27.252  13.094  -4.202  1.00  0.00     0.055 C 
HETATM   18  C18 UNL     1      27.304  13.832  -2.850  1.00  0.00     0.275 C 
HETATM   19  N2  UNL     1      28.581  13.505  -2.186  1.00  0.00     0.091 N 
HETATM   20  C24 UNL     1      28.521  12.073  -1.859  1.00  0.00     0.275 C 
HETATM   21  C25 UNL     1      28.402  11.223  -3.109  1.00  0.00     0.055 C 
BRANCH  19  22
HETATM   22  C19 UNL     1      28.600  14.255  -0.949  1.00  0.00     0.300 C 
BRANCH  22  23
HETATM   23  C20 UNL     1      27.623  13.787   0.054  1.00  0.00     0.005 C 
HETATM   24  C21 UNL     1      28.037  13.245   1.177  1.00  0.00    -0.090 C 
HETATM   25  C22 UNL     1      29.481  13.101   1.447  1.00  0.00     0.042 C 
HETATM   26  C23 UNL     1      27.054  12.773   2.182  1.00  0.00     0.042 C 
ENDBRANCH  22  23
ENDBRANCH  19  22
ENDBRANCH  14  16
ENDBRANCH  11  12
ENDBRANCH  10  11
BRANCH  10  27
HETATM   27  C26 UNL     1      26.717   8.297  -7.987  1.00  0.00     0.005 C 
HETATM   28  C27 UNL     1      27.135   9.672  -8.330  1.00  0.00     0.045 C 
HETATM   29  C28 UNL     1      25.685  10.093  -8.238  1.00  0.00     0.079 C 
HETATM   30  C29 UNL     1      25.309   8.669  -8.309  1.00  0.00     0.031 C 
BRANCH  29  31
HETATM   31  O4  UNL     1      25.326  10.738  -9.448  1.00  0.00    -0.388 OA
ATOM     32  H4  UNL     1      25.223  11.673  -9.307  1.00  0.00     0.210 HD
ENDBRANCH  29  31
ENDBRANCH  10  27
BRANCH   1  33
HETATM   33  C3  UNL     1      25.879   4.458 -10.023  1.00  0.00     0.270 C 
HETATM   34  O2  UNL     1      26.509   3.393 -10.213  1.00  0.00    -0.264 OA
BRANCH  33  35
HETATM   35  O1  UNL     1      24.833   4.767 -10.882  1.00  0.00    -0.321 OA
BRANCH  35  36
HETATM   36  C2  UNL     1      24.702   6.038 -11.489  1.00  0.00     0.174 C 
HETATM   37  C1  UNL     1      23.521   6.736 -10.909  1.00  0.00     0.034 C 
ENDBRANCH  35  36
ENDBRANCH  33  35
ENDBRANCH   1  33
TORSDOF 12
ENDMDL
