MODEL 1
REMARK VINA RESULT: -5.766280810      0.000      0.000
REMARK  2 active torsions:
REMARK  status: ('A' for Active; 'I' for Inactive)
REMARK    1  A    between atoms: C1_4  and  O1_5 
REMARK    2  A    between atoms: C1_4  and  N2_7 
ROOT
HETATM    1  N2  UNL     1      59.576  -5.942  57.511  1.00  0.00    -0.348 N 
HETATM    2  C2  UNL     1      58.763  -6.926  58.152  1.00  0.00     0.126 C 
HETATM    3  C3  UNL     1      57.681  -7.498  57.276  1.00  0.00     0.020 C 
HETATM    4  C4  UNL     1      58.198  -8.212  56.064  1.00  0.00     0.002 C 
HETATM    5  C5  UNL     1      57.750  -7.501  54.784  1.00  0.00     0.000 C 
HETATM    6  C6  UNL     1      58.911  -6.677  54.314  1.00  0.00     0.002 C 
HETATM    7  C7  UNL     1      59.017  -5.430  55.167  1.00  0.00     0.020 C 
HETATM    8  C8  UNL     1      60.098  -5.641  56.192  1.00  0.00     0.126 C 
ENDROOT
BRANCH   1   9
HETATM    9  C1  UNL     1      60.006  -4.960  58.447  1.00  0.00     0.212 C 
HETATM   10  N1  UNL     1      60.700  -3.937  58.165  1.00  0.00    -0.365 N 
ATOM     11  H12 UNL     1      61.009  -3.233  58.835  1.00  0.00     0.159 HD
ATOM     12  H11 UNL     1      60.978  -3.797  57.193  1.00  0.00     0.159 HD
BRANCH   9  13
HETATM   13  O1  UNL     1      59.626  -5.152  59.775  1.00  0.00    -0.333 OA
ATOM     14  H1  UNL     1      60.065  -5.830  60.273  1.00  0.00     0.220 HD
ENDBRANCH   9  13
ENDBRANCH   1   9
TORSDOF 2
ENDMDL
MODEL 2
REMARK VINA RESULT: -5.660714199      1.307      1.368
REMARK  2 active torsions:
REMARK  status: ('A' for Active; 'I' for Inactive)
REMARK    1  A    between atoms: C1_4  and  O1_5 
REMARK    2  A    between atoms: C1_4  and  N2_7 
ROOT
HETATM    1  N2  UNL     1      58.906  -6.638  57.712  1.00  0.00    -0.348 N 
HETATM    2  C2  UNL     1      57.964  -7.707  57.609  1.00  0.00     0.126 C 
HETATM    3  C3  UNL     1      57.442  -7.938  56.216  1.00  0.00     0.020 C 
HETATM    4  C4  UNL     1      58.503  -8.314  55.227  1.00  0.00     0.002 C 
HETATM    5  C5  UNL     1      58.634  -7.243  54.140  1.00  0.00     0.000 C 
HETATM    6  C6  UNL     1      59.819  -6.399  54.501  1.00  0.00     0.002 C 
HETATM    7  C7  UNL     1      59.435  -5.452  55.619  1.00  0.00     0.020 C 
HETATM    8  C8  UNL     1      59.946  -6.013  56.919  1.00  0.00     0.126 C 
ENDROOT
BRANCH   1   9
HETATM    9  C1  UNL     1      58.792  -5.989  58.974  1.00  0.00     0.212 C 
HETATM   10  N1  UNL     1      59.693  -5.278  59.513  1.00  0.00    -0.365 N 
ATOM     11  H12 UNL     1      59.612  -4.814  60.417  1.00  0.00     0.159 HD
ATOM     12  H11 UNL     1      60.573  -5.155  59.012  1.00  0.00     0.159 HD
BRANCH   9  13
HETATM   13  O1  UNL     1      57.589  -6.158  59.658  1.00  0.00    -0.333 OA
ATOM     14  H1  UNL     1      57.615  -6.562  60.517  1.00  0.00     0.220 HD
ENDBRANCH   9  13
ENDBRANCH   1   9
TORSDOF 2
ENDMDL
MODEL 3
REMARK VINA RESULT: -5.457591975      1.916      2.351
REMARK  2 active torsions:
REMARK  status: ('A' for Active; 'I' for Inactive)
REMARK    1  A    between atoms: C1_4  and  O1_5 
REMARK    2  A    between atoms: C1_4  and  N2_7 
ROOT
HETATM    1  N2  UNL     1      58.449  -7.346  57.388  1.00  0.00    -0.348 N 
HETATM    2  C2  UNL     1      57.492  -8.141  56.686  1.00  0.00     0.126 C 
HETATM    3  C3  UNL     1      57.276  -7.729  55.255  1.00  0.00     0.020 C 
HETATM    4  C4  UNL     1      58.504  -7.833  54.404  1.00  0.00     0.002 C 
HETATM    5  C5  UNL     1      58.934  -6.451  53.900  1.00  0.00     0.000 C 
HETATM    6  C6  UNL     1      60.057  -5.996  54.782  1.00  0.00     0.002 C 
HETATM    7  C7  UNL     1      59.493  -5.521  56.104  1.00  0.00     0.020 C 
HETATM    8  C8  UNL     1      59.673  -6.615  57.123  1.00  0.00     0.126 C 
ENDROOT
BRANCH   1   9
HETATM    9  C1  UNL     1      58.099  -7.237  58.763  1.00  0.00     0.212 C 
HETATM   10  N1  UNL     1      58.337  -6.233  59.500  1.00  0.00    -0.365 N 
ATOM     11  H12 UNL     1      58.087  -6.155  60.485  1.00  0.00     0.159 HD
ATOM     12  H11 UNL     1      58.818  -5.435  59.085  1.00  0.00     0.159 HD
BRANCH   9  13
HETATM   13  O1  UNL     1      57.441  -8.328  59.329  1.00  0.00    -0.333 OA
ATOM     14  H1  UNL     1      56.512  -8.249  59.506  1.00  0.00     0.220 HD
ENDBRANCH   9  13
ENDBRANCH   1   9
TORSDOF 2
ENDMDL
MODEL 4
REMARK VINA RESULT: -5.381572279      0.713      2.196
REMARK  2 active torsions:
REMARK  status: ('A' for Active; 'I' for Inactive)
REMARK    1  A    between atoms: C1_4  and  O1_5 
REMARK    2  A    between atoms: C1_4  and  N2_7 
ROOT
HETATM    1  N2  UNL     1      59.300  -5.711  57.388  1.00  0.00    -0.348 N 
HETATM    2  C2  UNL     1      59.705  -5.245  56.100  1.00  0.00     0.126 C 
HETATM    3  C3  UNL     1      59.725  -6.310  55.036  1.00  0.00     0.020 C 
HETATM    4  C4  UNL     1      58.387  -6.930  54.775  1.00  0.00     0.002 C 
HETATM    5  C5  UNL     1      58.398  -8.418  55.138  1.00  0.00     0.000 C 
HETATM    6  C6  UNL     1      57.758  -8.542  56.488  1.00  0.00     0.002 C 
HETATM    7  C7  UNL     1      58.744  -8.105  57.551  1.00  0.00     0.020 C 
HETATM    8  C8  UNL     1      58.409  -6.698  57.967  1.00  0.00     0.126 C 
ENDROOT
BRANCH   1   9
HETATM    9  C1  UNL     1      59.969  -4.989  58.416  1.00  0.00     0.212 C 
HETATM   10  N1  UNL     1      60.782  -4.035  58.227  1.00  0.00    -0.365 N 
ATOM     11  H12 UNL     1      61.262  -3.518  58.964  1.00  0.00     0.159 HD
ATOM     12  H11 UNL     1      60.981  -3.755  57.267  1.00  0.00     0.159 HD
BRANCH   9  13
HETATM   13  O1  UNL     1      59.696  -5.372  59.729  1.00  0.00    -0.333 OA
ATOM     14  H1  UNL     1      60.413  -5.380  60.351  1.00  0.00     0.220 HD
ENDBRANCH   9  13
ENDBRANCH   1   9
TORSDOF 2
ENDMDL
MODEL 5
REMARK VINA RESULT: -5.204378488      1.189      2.396
REMARK  2 active torsions:
REMARK  status: ('A' for Active; 'I' for Inactive)
REMARK    1  A    between atoms: C1_4  and  O1_5 
REMARK    2  A    between atoms: C1_4  and  N2_7 
ROOT
HETATM    1  N2  UNL     1      59.266  -5.925  57.380  1.00  0.00    -0.348 N 
HETATM    2  C2  UNL     1      59.797  -5.342  56.189  1.00  0.00     0.126 C 
HETATM    3  C3  UNL     1      59.868  -6.285  55.018  1.00  0.00     0.020 C 
HETATM    4  C4  UNL     1      58.534  -6.810  54.582  1.00  0.00     0.002 C 
HETATM    5  C5  UNL     1      58.458  -8.327  54.776  1.00  0.00     0.000 C 
HETATM    6  C6  UNL     1      57.700  -8.566  56.048  1.00  0.00     0.002 C 
HETATM    7  C7  UNL     1      58.608  -8.294  57.229  1.00  0.00     0.020 C 
HETATM    8  C8  UNL     1      58.292  -6.925  57.771  1.00  0.00     0.126 C 
ENDROOT
BRANCH   1   9
HETATM    9  C1  UNL     1      59.871  -5.351  58.532  1.00  0.00     0.212 C 
HETATM   10  N1  UNL     1      59.382  -5.371  59.701  1.00  0.00    -0.365 N 
ATOM     11  H12 UNL     1      59.815  -4.960  60.527  1.00  0.00     0.159 HD
ATOM     12  H11 UNL     1      58.482  -5.832  59.838  1.00  0.00     0.159 HD
BRANCH   9  13
HETATM   13  O1  UNL     1      61.101  -4.721  58.345  1.00  0.00    -0.333 OA
ATOM     14  H1  UNL     1      61.351  -4.035  58.952  1.00  0.00     0.220 HD
ENDBRANCH   9  13
ENDBRANCH   1   9
TORSDOF 2
ENDMDL
