MODEL 1
REMARK VINA RESULT: -8.404933973      0.000      0.000
REMARK  11 active torsions:
REMARK  status: ('A' for Active; 'I' for Inactive)
REMARK    1  A    between atoms: C2_2  and  C3_3 
REMARK    2  A    between atoms: C3_3  and  C4_4 
REMARK    3  A    between atoms: C4_4  and  N1_5 
REMARK    4  A    between atoms: N1_5  and  C5_6 
REMARK    5  A    between atoms: N1_5  and  C8_9 
REMARK    6  A    between atoms: C5_6  and  C6_7 
REMARK    7  A    between atoms: C17_19  and  O2_20 
REMARK    8  A    between atoms: C23_27  and  C24_28 
REMARK    9  A    between atoms: C24_28  and  O3_31 
REMARK   10  A    between atoms: C29_35  and  N2_37 
REMARK   11  A    between atoms: N2_37  and  S1_39 
ROOT
HETATM    1  C8  UNL     1      37.152  28.437  28.635  1.00  0.00     0.095 C 
HETATM    2  C9  UNL     1      38.602  28.327  28.413  1.00  0.00     0.104 C 
HETATM    3  C10 UNL     1      38.975  29.218  27.249  1.00  0.00     0.140 C 
HETATM    4  O1  UNL     1      39.570  28.676  26.377  1.00  0.00    -0.297 OA
HETATM    5  C11 UNL     1      38.548  30.625  27.374  1.00  0.00     0.046 C 
HETATM    6  C12 UNL     1      39.254  31.164  28.626  1.00  0.00     0.026 C 
HETATM    7  C13 UNL     1      37.065  30.665  27.557  1.00  0.00     0.010 C 
HETATM    8  C14 UNL     1      36.707  29.866  28.792  1.00  0.00     0.032 C 
HETATM    9  C15 UNL     1      36.564  32.055  27.628  1.00  0.00    -0.002 C 
HETATM   10  C16 UNL     1      35.139  32.278  27.961  1.00  0.00     0.038 C 
HETATM   11  C17 UNL     1      34.214  31.755  26.886  1.00  0.00     0.127 C 
HETATM   12  C18 UNL     1      34.529  32.167  25.492  1.00  0.00    -0.008 C 
HETATM   13  C19 UNL     1      34.209  30.870  24.656  1.00  0.00     0.019 C 
HETATM   14  C20 UNL     1      35.974  32.379  25.222  1.00  0.00     0.001 C 
HETATM   15  C21 UNL     1      35.958  33.300  24.046  1.00  0.00     0.006 C 
HETATM   16  C22 UNL     1      34.517  33.325  23.541  1.00  0.00     0.009 C 
HETATM   17  C23 UNL     1      33.690  33.172  24.834  1.00  0.00     0.030 C 
HETATM   18  C27 UNL     1      36.844  32.781  26.355  1.00  0.00    -0.003 C 
HETATM   19  C28 UNL     1      38.290  32.767  26.086  1.00  0.00     0.038 C 
HETATM   20  C29 UNL     1      39.049  31.509  26.232  1.00  0.00     0.051 C 
HETATM   21  C30 UNL     1      39.055  30.754  24.899  1.00  0.00     0.040 C 
ENDROOT
BRANCH   1  22
HETATM   22  N1  UNL     1      36.560  27.548  29.599  1.00  0.00    -0.369 N 
BRANCH  22  23
HETATM   23  C4  UNL     1      35.496  28.022  30.331  1.00  0.00     0.063 C 
BRANCH  23  24
HETATM   24  C3  UNL     1      34.091  27.717  30.048  1.00  0.00     0.044 C 
BRANCH  24  25
HETATM   25  C2  UNL     1      33.249  28.771  29.403  1.00  0.00     0.001 C 
HETATM   26  C1  UNL     1      33.241  30.036  30.285  1.00  0.00     0.005 C 
ENDBRANCH  24  25
ENDBRANCH  23  24
ENDBRANCH  22  23
BRANCH  22  27
HETATM   27  C5  UNL     1      36.907  26.212  29.480  1.00  0.00     0.063 C 
BRANCH  27  28
HETATM   28  C6  UNL     1      36.279  25.446  28.372  1.00  0.00     0.040 C 
HETATM   29  C7  UNL     1      36.869  24.128  28.006  1.00  0.00     0.010 C 
ENDBRANCH  27  28
ENDBRANCH  22  27
ENDBRANCH   1  22
BRANCH  20  30
HETATM   30  N2  UNL     1      40.411  31.798  26.537  1.00  0.00    -0.309 N 
ATOM     31  H2  UNL     1      40.843  31.346  27.343  1.00  0.00     0.173 HD
BRANCH  30  32
HETATM   32  S1  UNL     1      41.316  32.845  25.624  1.00  0.00     0.223 S 
HETATM   33  C31 UNL     1      42.956  32.320  25.192  1.00  0.00     0.185 C 
HETATM   34  O4  UNL     1      41.542  34.089  26.495  1.00  0.00    -0.206 OA
HETATM   35  O5  UNL     1      40.689  33.382  24.380  1.00  0.00    -0.206 OA
ENDBRANCH  30  32
ENDBRANCH  20  30
BRANCH  11  36
HETATM   36  O2  UNL     1      32.881  31.863  27.225  1.00  0.00    -0.395 OA
ATOM     37  H2  UNL     1      32.631  31.279  27.932  1.00  0.00     0.210 HD
ENDBRANCH  11  36
BRANCH  17  38
HETATM   38  C24 UNL     1      33.299  34.471  25.278  1.00  0.00     0.055 C 
HETATM   39  C25 UNL     1      33.096  35.344  24.004  1.00  0.00     0.045 C 
HETATM   40  C26 UNL     1      34.276  35.372  26.012  1.00  0.00     0.045 C 
BRANCH  38  41
HETATM   41  O3  UNL     1      32.093  34.615  25.930  1.00  0.00    -0.390 OA
ATOM     42  H3  UNL     1      31.325  34.855  25.425  1.00  0.00     0.210 HD
ENDBRANCH  38  41
ENDBRANCH  17  38
TORSDOF 11
ENDMDL
MODEL 2
REMARK VINA RESULT: -8.276359693      0.324      2.063
REMARK  11 active torsions:
REMARK  status: ('A' for Active; 'I' for Inactive)
REMARK    1  A    between atoms: C2_2  and  C3_3 
REMARK    2  A    between atoms: C3_3  and  C4_4 
REMARK    3  A    between atoms: C4_4  and  N1_5 
REMARK    4  A    between atoms: N1_5  and  C5_6 
REMARK    5  A    between atoms: N1_5  and  C8_9 
REMARK    6  A    between atoms: C5_6  and  C6_7 
REMARK    7  A    between atoms: C17_19  and  O2_20 
REMARK    8  A    between atoms: C23_27  and  C24_28 
REMARK    9  A    between atoms: C24_28  and  O3_31 
REMARK   10  A    between atoms: C29_35  and  N2_37 
REMARK   11  A    between atoms: N2_37  and  S1_39 
ROOT
HETATM    1  C8  UNL     1      37.156  28.369  28.593  1.00  0.00     0.095 C 
HETATM    2  C9  UNL     1      38.609  28.268  28.385  1.00  0.00     0.104 C 
HETATM    3  C10 UNL     1      38.993  29.181  27.242  1.00  0.00     0.140 C 
HETATM    4  O1  UNL     1      39.599  28.657  26.367  1.00  0.00    -0.297 OA
HETATM    5  C11 UNL     1      38.559  30.584  27.387  1.00  0.00     0.046 C 
HETATM    6  C12 UNL     1      39.249  31.103  28.658  1.00  0.00     0.026 C 
HETATM    7  C13 UNL     1      37.073  30.616  27.554  1.00  0.00     0.010 C 
HETATM    8  C14 UNL     1      36.704  29.793  28.770  1.00  0.00     0.032 C 
HETATM    9  C15 UNL     1      36.567  32.003  27.644  1.00  0.00    -0.002 C 
HETATM   10  C16 UNL     1      35.137  32.215  27.965  1.00  0.00     0.038 C 
HETATM   11  C17 UNL     1      34.226  31.708  26.870  1.00  0.00     0.127 C 
HETATM   12  C18 UNL     1      34.556  32.147  25.488  1.00  0.00    -0.008 C 
HETATM   13  C19 UNL     1      34.251  30.864  24.624  1.00  0.00     0.019 C 
HETATM   14  C20 UNL     1      36.003  32.368  25.238  1.00  0.00     0.001 C 
HETATM   15  C21 UNL     1      35.998  33.310  24.079  1.00  0.00     0.006 C 
HETATM   16  C22 UNL     1      34.563  33.340  23.558  1.00  0.00     0.009 C 
HETATM   17  C23 UNL     1      33.722  33.161  24.838  1.00  0.00     0.030 C 
HETATM   18  C27 UNL     1      36.859  32.752  26.388  1.00  0.00    -0.003 C 
HETATM   19  C28 UNL     1      38.308  32.748  26.136  1.00  0.00     0.038 C 
HETATM   20  C29 UNL     1      39.070  31.490  26.268  1.00  0.00     0.051 C 
HETATM   21  C30 UNL     1      39.094  30.760  24.922  1.00  0.00     0.040 C 
ENDROOT
BRANCH   1  22
HETATM   22  N1  UNL     1      36.557  27.460  29.533  1.00  0.00    -0.369 N 
BRANCH  22  23
HETATM   23  C4  UNL     1      37.206  26.270  29.769  1.00  0.00     0.063 C 
BRANCH  23  24
HETATM   24  C3  UNL     1      36.725  24.959  29.326  1.00  0.00     0.044 C 
BRANCH  24  25
HETATM   25  C2  UNL     1      36.225  24.819  27.924  1.00  0.00     0.001 C 
HETATM   26  C1  UNL     1      36.607  23.429  27.376  1.00  0.00     0.005 C 
ENDBRANCH  24  25
ENDBRANCH  23  24
ENDBRANCH  22  23
BRANCH  22  27
HETATM   27  C5  UNL     1      35.565  27.994  30.340  1.00  0.00     0.063 C 
BRANCH  27  28
HETATM   28  C6  UNL     1      34.159  27.655  29.999  1.00  0.00     0.040 C 
HETATM   29  C7  UNL     1      33.269  28.749  29.520  1.00  0.00     0.010 C 
ENDBRANCH  27  28
ENDBRANCH  22  27
ENDBRANCH   1  22
BRANCH  20  30
HETATM   30  N2  UNL     1      40.427  31.778  26.593  1.00  0.00    -0.309 N 
ATOM     31  H2  UNL     1      40.852  31.312  27.394  1.00  0.00     0.173 HD
BRANCH  30  32
HETATM   32  S1  UNL     1      41.337  32.848  25.712  1.00  0.00     0.223 S 
HETATM   33  C31 UNL     1      42.951  32.303  25.211  1.00  0.00     0.185 C 
HETATM   34  O4  UNL     1      41.620  34.038  26.640  1.00  0.00    -0.206 OA
HETATM   35  O5  UNL     1      40.695  33.465  24.515  1.00  0.00    -0.206 OA
ENDBRANCH  30  32
ENDBRANCH  20  30
BRANCH  11  36
HETATM   36  O2  UNL     1      32.889  31.806  27.196  1.00  0.00    -0.395 OA
ATOM     37  H2  UNL     1      32.747  32.102  28.087  1.00  0.00     0.210 HD
ENDBRANCH  11  36
BRANCH  17  38
HETATM   38  C24 UNL     1      33.321  34.450  25.301  1.00  0.00     0.055 C 
HETATM   39  C25 UNL     1      33.093  35.334  24.039  1.00  0.00     0.045 C 
HETATM   40  C26 UNL     1      34.295  35.354  26.034  1.00  0.00     0.045 C 
BRANCH  38  41
HETATM   41  O3  UNL     1      32.120  34.572  25.968  1.00  0.00    -0.390 OA
ATOM     42  H3  UNL     1      31.469  33.887  25.870  1.00  0.00     0.210 HD
ENDBRANCH  38  41
ENDBRANCH  17  38
TORSDOF 11
ENDMDL
MODEL 3
REMARK VINA RESULT: -8.066179426      1.240      1.477
REMARK  11 active torsions:
REMARK  status: ('A' for Active; 'I' for Inactive)
REMARK    1  A    between atoms: C2_2  and  C3_3 
REMARK    2  A    between atoms: C3_3  and  C4_4 
REMARK    3  A    between atoms: C4_4  and  N1_5 
REMARK    4  A    between atoms: N1_5  and  C5_6 
REMARK    5  A    between atoms: N1_5  and  C8_9 
REMARK    6  A    between atoms: C5_6  and  C6_7 
REMARK    7  A    between atoms: C17_19  and  O2_20 
REMARK    8  A    between atoms: C23_27  and  C24_28 
REMARK    9  A    between atoms: C24_28  and  O3_31 
REMARK   10  A    between atoms: C29_35  and  N2_37 
REMARK   11  A    between atoms: N2_37  and  S1_39 
ROOT
HETATM    1  C8  UNL     1      36.320  28.429  28.958  1.00  0.00     0.095 C 
HETATM    2  C9  UNL     1      37.746  28.073  28.886  1.00  0.00     0.104 C 
HETATM    3  C10 UNL     1      38.374  28.844  27.747  1.00  0.00     0.140 C 
HETATM    4  O1  UNL     1      38.951  28.177  26.952  1.00  0.00    -0.297 OA
HETATM    5  C11 UNL     1      38.179  30.305  27.795  1.00  0.00     0.046 C 
HETATM    6  C12 UNL     1      38.842  30.770  29.100  1.00  0.00     0.026 C 
HETATM    7  C13 UNL     1      36.713  30.596  27.826  1.00  0.00     0.010 C 
HETATM    8  C14 UNL     1      36.108  29.916  29.035  1.00  0.00     0.032 C 
HETATM    9  C15 UNL     1      36.448  32.052  27.813  1.00  0.00    -0.002 C 
HETATM   10  C16 UNL     1      35.055  32.519  27.995  1.00  0.00     0.038 C 
HETATM   11  C17 UNL     1      34.163  32.113  26.843  1.00  0.00     0.127 C 
HETATM   12  C18 UNL     1      34.676  32.413  25.480  1.00  0.00    -0.008 C 
HETATM   13  C19 UNL     1      34.225  31.154  24.645  1.00  0.00     0.019 C 
HETATM   14  C20 UNL     1      36.155  32.373  25.353  1.00  0.00     0.001 C 
HETATM   15  C21 UNL     1      36.408  33.236  24.160  1.00  0.00     0.006 C 
HETATM   16  C22 UNL     1      35.046  33.479  23.512  1.00  0.00     0.009 C 
HETATM   17  C23 UNL     1      34.085  33.515  24.717  1.00  0.00     0.030 C 
HETATM   18  C27 UNL     1      36.967  32.670  26.559  1.00  0.00    -0.003 C 
HETATM   19  C28 UNL     1      38.409  32.408  26.439  1.00  0.00     0.038 C 
HETATM   20  C29 UNL     1      38.929  31.049  26.690  1.00  0.00     0.051 C 
HETATM   21  C30 UNL     1      38.937  30.252  25.383  1.00  0.00     0.040 C 
ENDROOT
BRANCH   1  22
HETATM   22  N1  UNL     1      35.498  27.688  29.877  1.00  0.00    -0.369 N 
BRANCH  22  23
HETATM   23  C4  UNL     1      34.133  27.786  29.729  1.00  0.00     0.063 C 
BRANCH  23  24
HETATM   24  C3  UNL     1      33.255  28.556  30.613  1.00  0.00     0.044 C 
BRANCH  24  25
HETATM   25  C2  UNL     1      33.875  29.367  31.705  1.00  0.00     0.001 C 
HETATM   26  C1  UNL     1      33.401  28.839  33.074  1.00  0.00     0.005 C 
ENDBRANCH  24  25
ENDBRANCH  23  24
ENDBRANCH  22  23
BRANCH  22  27
HETATM   27  C5  UNL     1      36.146  26.710  30.612  1.00  0.00     0.063 C 
BRANCH  27  28
HETATM   28  C6  UNL     1      35.317  25.591  31.130  1.00  0.00     0.040 C 
HETATM   29  C7  UNL     1      34.837  25.664  32.538  1.00  0.00     0.010 C 
ENDBRANCH  27  28
ENDBRANCH  22  27
ENDBRANCH   1  22
BRANCH  20  30
HETATM   30  N2  UNL     1      40.284  31.122  27.125  1.00  0.00    -0.309 N 
ATOM     31  H2  UNL     1      40.491  31.006  28.117  1.00  0.00     0.173 HD
BRANCH  30  32
HETATM   32  S1  UNL     1      41.535  31.389  26.071  1.00  0.00     0.223 S 
HETATM   33  C31 UNL     1      42.365  29.956  25.432  1.00  0.00     0.185 C 
HETATM   34  O4  UNL     1      42.622  32.121  26.871  1.00  0.00    -0.206 OA
HETATM   35  O5  UNL     1      41.269  32.291  24.911  1.00  0.00    -0.206 OA
ENDBRANCH  30  32
ENDBRANCH  20  30
BRANCH  11  36
HETATM   36  O2  UNL     1      32.841  32.453  27.043  1.00  0.00    -0.395 OA
ATOM     37  H2  UNL     1      32.735  33.306  27.447  1.00  0.00     0.210 HD
ENDBRANCH  11  36
BRANCH  17  38
HETATM   38  C24 UNL     1      33.876  34.877  25.089  1.00  0.00     0.055 C 
HETATM   39  C25 UNL     1      33.499  35.650  23.790  1.00  0.00     0.045 C 
HETATM   40  C26 UNL     1      35.034  35.750  25.539  1.00  0.00     0.045 C 
BRANCH  38  41
HETATM   41  O3  UNL     1      32.827  35.183  25.930  1.00  0.00    -0.390 OA
ATOM     42  H3  UNL     1      32.826  36.023  26.375  1.00  0.00     0.210 HD
ENDBRANCH  38  41
ENDBRANCH  17  38
TORSDOF 11
ENDMDL
MODEL 4
REMARK VINA RESULT: -7.805435980      2.783      6.067
REMARK  11 active torsions:
REMARK  status: ('A' for Active; 'I' for Inactive)
REMARK    1  A    between atoms: C2_2  and  C3_3 
REMARK    2  A    between atoms: C3_3  and  C4_4 
REMARK    3  A    between atoms: C4_4  and  N1_5 
REMARK    4  A    between atoms: N1_5  and  C5_6 
REMARK    5  A    between atoms: N1_5  and  C8_9 
REMARK    6  A    between atoms: C5_6  and  C6_7 
REMARK    7  A    between atoms: C17_19  and  O2_20 
REMARK    8  A    between atoms: C23_27  and  C24_28 
REMARK    9  A    between atoms: C24_28  and  O3_31 
REMARK   10  A    between atoms: C29_35  and  N2_37 
REMARK   11  A    between atoms: N2_37  and  S1_39 
ROOT
HETATM    1  C8  UNL     1      37.180  30.270  27.782  1.00  0.00     0.095 C 
HETATM    2  C9  UNL     1      35.777  30.628  28.044  1.00  0.00     0.104 C 
HETATM    3  C10 UNL     1      35.501  31.973  27.411  1.00  0.00     0.140 C 
HETATM    4  O1  UNL     1      35.051  32.788  28.147  1.00  0.00    -0.297 OA
HETATM    5  C11 UNL     1      35.831  32.071  25.976  1.00  0.00     0.046 C 
HETATM    6  C12 UNL     1      34.945  31.030  25.275  1.00  0.00     0.026 C 
HETATM    7  C13 UNL     1      37.275  31.735  25.787  1.00  0.00     0.010 C 
HETATM    8  C14 UNL     1      37.521  30.339  26.319  1.00  0.00     0.032 C 
HETATM    9  C15 UNL     1      37.684  31.874  24.373  1.00  0.00    -0.002 C 
HETATM   10  C16 UNL     1      39.043  31.432  23.983  1.00  0.00     0.038 C 
HETATM   11  C17 UNL     1      40.122  32.278  24.619  1.00  0.00     0.127 C 
HETATM   12  C18 UNL     1      39.959  33.751  24.492  1.00  0.00    -0.008 C 
HETATM   13  C19 UNL     1      40.452  34.286  25.891  1.00  0.00     0.019 C 
HETATM   14  C20 UNL     1      38.549  34.217  24.447  1.00  0.00     0.001 C 
HETATM   15  C21 UNL     1      38.659  35.537  23.756  1.00  0.00     0.006 C 
HETATM   16  C22 UNL     1      40.148  35.873  23.711  1.00  0.00     0.009 C 
HETATM   17  C23 UNL     1      40.816  34.491  23.561  1.00  0.00     0.030 C 
HETATM   18  C27 UNL     1      37.525  33.284  23.915  1.00  0.00    -0.003 C 
HETATM   19  C28 UNL     1      36.126  33.704  24.090  1.00  0.00     0.038 C 
HETATM   20  C29 UNL     1      35.426  33.408  25.356  1.00  0.00     0.051 C 
HETATM   21  C30 UNL     1      35.628  34.566  26.338  1.00  0.00     0.040 C 
ENDROOT
BRANCH   1  22
HETATM   22  N1  UNL     1      37.696  29.095  28.433  1.00  0.00    -0.369 N 
BRANCH  22  23
HETATM   23  C4  UNL     1      36.784  28.186  28.918  1.00  0.00     0.063 C 
BRANCH  23  24
HETATM   24  C3  UNL     1      37.117  26.827  29.352  1.00  0.00     0.044 C 
BRANCH  24  25
HETATM   25  C2  UNL     1      36.302  26.205  30.439  1.00  0.00     0.001 C 
HETATM   26  C1  UNL     1      35.186  27.179  30.869  1.00  0.00     0.005 C 
ENDBRANCH  24  25
ENDBRANCH  23  24
ENDBRANCH  22  23
BRANCH  22  27
HETATM   27  C5  UNL     1      39.042  28.837  28.233  1.00  0.00     0.063 C 
BRANCH  27  28
HETATM   28  C6  UNL     1      40.012  29.728  28.919  1.00  0.00     0.040 C 
HETATM   29  C7  UNL     1      40.848  30.635  28.083  1.00  0.00     0.010 C 
ENDBRANCH  27  28
ENDBRANCH  22  27
ENDBRANCH   1  22
BRANCH  20  30
HETATM   30  N2  UNL     1      34.023  33.318  25.124  1.00  0.00    -0.309 N 
ATOM     31  H2  UNL     1      33.654  32.495  24.647  1.00  0.00     0.173 HD
BRANCH  30  32
HETATM   32  S1  UNL     1      32.971  34.506  25.603  1.00  0.00     0.223 S 
HETATM   33  C31 UNL     1      32.287  34.360  27.234  1.00  0.00     0.185 C 
HETATM   34  O4  UNL     1      31.751  34.398  24.678  1.00  0.00    -0.206 OA
HETATM   35  O5  UNL     1      33.423  35.920  25.445  1.00  0.00    -0.206 OA
ENDBRANCH  30  32
ENDBRANCH  20  30
BRANCH  11  36
HETATM   36  O2  UNL     1      41.394  31.819  24.347  1.00  0.00    -0.395 OA
ATOM     37  H2  UNL     1      41.865  32.374  23.736  1.00  0.00     0.210 HD
ENDBRANCH  11  36
BRANCH  17  38
HETATM   38  C24 UNL     1      41.075  34.260  22.177  1.00  0.00     0.055 C 
HETATM   39  C25 UNL     1      42.598  33.955  22.047  1.00  0.00     0.045 C 
HETATM   40  C26 UNL     1      40.988  35.390  21.167  1.00  0.00     0.045 C 
BRANCH  38  41
HETATM   41  O3  UNL     1      40.502  33.165  21.566  1.00  0.00    -0.390 OA
ATOM     42  H3  UNL     1      40.771  32.295  21.838  1.00  0.00     0.210 HD
ENDBRANCH  38  41
ENDBRANCH  17  38
TORSDOF 11
ENDMDL
MODEL 5
REMARK VINA RESULT: -7.673719792      1.139      2.090
REMARK  11 active torsions:
REMARK  status: ('A' for Active; 'I' for Inactive)
REMARK    1  A    between atoms: C2_2  and  C3_3 
REMARK    2  A    between atoms: C3_3  and  C4_4 
REMARK    3  A    between atoms: C4_4  and  N1_5 
REMARK    4  A    between atoms: N1_5  and  C5_6 
REMARK    5  A    between atoms: N1_5  and  C8_9 
REMARK    6  A    between atoms: C5_6  and  C6_7 
REMARK    7  A    between atoms: C17_19  and  O2_20 
REMARK    8  A    between atoms: C23_27  and  C24_28 
REMARK    9  A    between atoms: C24_28  and  O3_31 
REMARK   10  A    between atoms: C29_35  and  N2_37 
REMARK   11  A    between atoms: N2_37  and  S1_39 
ROOT
HETATM    1  C8  UNL     1      36.384  28.415  28.830  1.00  0.00     0.095 C 
HETATM    2  C9  UNL     1      37.814  28.075  28.768  1.00  0.00     0.104 C 
HETATM    3  C10 UNL     1      38.448  28.877  27.654  1.00  0.00     0.140 C 
HETATM    4  O1  UNL     1      39.040  28.235  26.850  1.00  0.00    -0.297 OA
HETATM    5  C11 UNL     1      38.237  30.336  27.733  1.00  0.00     0.046 C 
HETATM    6  C12 UNL     1      38.880  30.777  29.056  1.00  0.00     0.026 C 
HETATM    7  C13 UNL     1      36.768  30.611  27.753  1.00  0.00     0.010 C 
HETATM    8  C14 UNL     1      36.156  29.897  28.939  1.00  0.00     0.032 C 
HETATM    9  C15 UNL     1      36.488  32.064  27.771  1.00  0.00    -0.002 C 
HETATM   10  C16 UNL     1      35.088  32.513  27.947  1.00  0.00     0.038 C 
HETATM   11  C17 UNL     1      34.214  32.125  26.776  1.00  0.00     0.127 C 
HETATM   12  C18 UNL     1      34.740  32.461  25.425  1.00  0.00    -0.008 C 
HETATM   13  C19 UNL     1      34.312  31.217  24.557  1.00  0.00     0.019 C 
HETATM   14  C20 UNL     1      36.221  32.439  25.315  1.00  0.00     0.001 C 
HETATM   15  C21 UNL     1      36.479  33.332  24.146  1.00  0.00     0.006 C 
HETATM   16  C22 UNL     1      35.123  33.576  23.487  1.00  0.00     0.009 C 
HETATM   17  C23 UNL     1      34.147  33.575  24.681  1.00  0.00     0.030 C 
HETATM   18  C27 UNL     1      37.015  32.716  26.537  1.00  0.00    -0.003 C 
HETATM   19  C28 UNL     1      38.462  32.471  26.429  1.00  0.00     0.038 C 
HETATM   20  C29 UNL     1      38.992  31.112  26.655  1.00  0.00     0.051 C 
HETATM   21  C30 UNL     1      39.024  30.345  25.329  1.00  0.00     0.040 C 
ENDROOT
BRANCH   1  22
HETATM   22  N1  UNL     1      35.559  27.644  29.722  1.00  0.00    -0.369 N 
BRANCH  22  23
HETATM   23  C4  UNL     1      36.191  26.773  30.579  1.00  0.00     0.063 C 
BRANCH  23  24
HETATM   24  C3  UNL     1      35.582  25.559  31.128  1.00  0.00     0.044 C 
BRANCH  24  25
HETATM   25  C2  UNL     1      34.798  25.665  32.396  1.00  0.00     0.001 C 
HETATM   26  C1  UNL     1      33.355  25.179  32.154  1.00  0.00     0.005 C 
ENDBRANCH  24  25
ENDBRANCH  23  24
ENDBRANCH  22  23
BRANCH  22  27
HETATM   27  C5  UNL     1      34.249  28.075  29.854  1.00  0.00     0.063 C 
BRANCH  27  28
HETATM   28  C6  UNL     1      33.887  28.764  31.119  1.00  0.00     0.040 C 
HETATM   29  C7  UNL     1      33.225  30.096  31.030  1.00  0.00     0.010 C 
ENDBRANCH  27  28
ENDBRANCH  22  27
ENDBRANCH   1  22
BRANCH  20  30
HETATM   30  N2  UNL     1      40.341  31.188  27.107  1.00  0.00    -0.309 N 
ATOM     31  H2  UNL     1      40.588  30.759  27.999  1.00  0.00     0.173 HD
BRANCH  30  32
HETATM   32  S1  UNL     1      41.524  31.952  26.231  1.00  0.00     0.223 S 
HETATM   33  C31 UNL     1      42.726  30.917  25.435  1.00  0.00     0.185 C 
HETATM   34  O4  UNL     1      42.345  32.768  27.239  1.00  0.00    -0.206 OA
HETATM   35  O5  UNL     1      41.081  32.960  25.223  1.00  0.00    -0.206 OA
ENDBRANCH  30  32
ENDBRANCH  20  30
BRANCH  11  36
HETATM   36  O2  UNL     1      32.886  32.447  26.967  1.00  0.00    -0.395 OA
ATOM     37  H2  UNL     1      32.306  31.993  26.368  1.00  0.00     0.210 HD
ENDBRANCH  11  36
BRANCH  17  38
HETATM   38  C24 UNL     1      33.920  34.926  25.082  1.00  0.00     0.055 C 
HETATM   39  C25 UNL     1      33.375  35.684  23.835  1.00  0.00     0.045 C 
HETATM   40  C26 UNL     1      35.080  35.848  25.413  1.00  0.00     0.045 C 
BRANCH  38  41
HETATM   41  O3  UNL     1      32.953  35.184  26.030  1.00  0.00    -0.390 OA
ATOM     42  H3  UNL     1      32.049  34.967  25.834  1.00  0.00     0.210 HD
ENDBRANCH  38  41
ENDBRANCH  17  38
TORSDOF 11
ENDMDL
