MODEL 1
REMARK VINA RESULT: -8.127087077      0.000      0.000
REMARK  12 active torsions:
REMARK  status: ('A' for Active; 'I' for Inactive)
REMARK    1  A    between atoms: C2_2  and  C3_3 
REMARK    2  A    between atoms: C3_3  and  C4_4 
REMARK    3  A    between atoms: C4_4  and  N1_5 
REMARK    4  A    between atoms: C4_4  and  C7_9 
REMARK    5  A    between atoms: N1_5  and  C5_7 
REMARK    6  A    between atoms: C7_9  and  O2_11 
REMARK    7  A    between atoms: O2_11  and  C8_12 
REMARK    8  A    between atoms: N2_15  and  C10_16 
REMARK    9  A    between atoms: C10_16  and  C11_17 
REMARK   10  A    between atoms: C25_31  and  O4_32 
REMARK   11  A    between atoms: C27_35  and  C28_36 
REMARK   12  A    between atoms: C28_36  and  O5_39 
ROOT
HETATM    1  C8  UNL     1      35.874  32.143  25.887  1.00  0.00     0.233 C 
HETATM    2  C9  UNL     1      35.624  30.988  26.806  1.00  0.00     0.250 C 
HETATM    3  O3  UNL     1      34.480  30.579  26.967  1.00  0.00    -0.270 OA
HETATM    4  N2  UNL     1      36.717  30.393  27.470  1.00  0.00    -0.349 N 
HETATM    5  C15 UNL     1      38.066  30.441  26.894  1.00  0.00     0.131 C 
HETATM    6  C16 UNL     1      38.272  31.817  26.242  1.00  0.00     0.015 C 
HETATM    7  C17 UNL     1      39.671  31.834  25.684  1.00  0.00     0.012 C 
HETATM    8  C18 UNL     1      39.862  33.001  24.751  1.00  0.00    -0.002 C 
HETATM    9  C19 UNL     1      38.834  32.945  23.688  1.00  0.00    -0.005 C 
HETATM   10  C20 UNL     1      39.117  33.921  22.590  1.00  0.00     0.006 C 
HETATM   11  C21 UNL     1      40.464  33.694  21.961  1.00  0.00     0.010 C 
HETATM   12  C22 UNL     1      41.453  32.961  22.767  1.00  0.00    -0.031 C 
HETATM   13  C23 UNL     1      41.521  31.479  22.502  1.00  0.00     0.016 C 
HETATM   14  C24 UNL     1      41.265  33.136  24.269  1.00  0.00     0.027 C 
HETATM   15  C25 UNL     1      41.922  34.456  24.564  1.00  0.00     0.123 C 
HETATM   16  C26 UNL     1      42.727  34.832  23.310  1.00  0.00     0.040 C 
HETATM   17  C27 UNL     1      42.864  33.477  22.670  1.00  0.00     0.030 C 
HETATM   18  C31 UNL     1      37.478  33.202  24.324  1.00  0.00    -0.003 C 
HETATM   19  C32 UNL     1      37.427  34.497  25.056  1.00  0.00     0.011 C 
HETATM   20  C33 UNL     1      37.214  32.011  25.218  1.00  0.00     0.000 C 
HETATM   21  C34 UNL     1      37.221  30.779  24.314  1.00  0.00     0.019 C 
ENDROOT
BRANCH   1  22
HETATM   22  O2  UNL     1      34.795  32.304  24.993  1.00  0.00    -0.301 OA
BRANCH  22  23
HETATM   23  C7  UNL     1      33.806  33.253  25.056  1.00  0.00     0.306 C 
HETATM   24  O1  UNL     1      32.830  33.082  24.251  1.00  0.00    -0.258 OA
BRANCH  23  25
HETATM   25  C4  UNL     1      33.840  34.411  25.984  1.00  0.00     0.084 C 
BRANCH  25  26
HETATM   26  C3  UNL     1      34.167  35.714  25.358  1.00  0.00     0.063 C 
BRANCH  26  27
HETATM   27  C2  UNL     1      33.892  35.647  23.859  1.00  0.00     0.002 C 
HETATM   28  C1  UNL     1      35.100  35.829  23.009  1.00  0.00     0.005 C 
ENDBRANCH  26  27
ENDBRANCH  25  26
BRANCH  25  29
HETATM   29  N1  UNL     1      32.828  34.332  26.944  1.00  0.00    -0.368 N 
ATOM     30  H1  UNL     1      32.042  34.979  26.891  1.00  0.00     0.165 HD
BRANCH  29  31
HETATM   31  C5  UNL     1      32.866  33.385  27.979  1.00  0.00     0.057 C 
HETATM   32  C6  UNL     1      33.966  33.516  29.000  1.00  0.00     0.054 C 
ENDBRANCH  29  31
ENDBRANCH  25  29
ENDBRANCH  23  25
ENDBRANCH  22  23
ENDBRANCH   1  22
BRANCH   4  33
HETATM   33  C10 UNL     1      36.569  29.719  28.740  1.00  0.00     0.131 C 
BRANCH  33  34
HETATM   34  C11 UNL     1      36.592  28.224  28.428  1.00  0.00     0.012 A 
HETATM   35  C12 UNL     1      35.468  27.429  29.106  1.00  0.00    -0.004 A 
HETATM   36  C13 UNL     1      35.795  27.038  30.528  1.00  0.00     0.011 A 
HETATM   37  C14 UNL     1      36.872  27.241  29.482  1.00  0.00    -0.004 A 
ENDBRANCH  33  34
ENDBRANCH   4  33
BRANCH  15  38
HETATM   38  O4  UNL     1      41.076  35.454  24.969  1.00  0.00    -0.395 OA
ATOM     39  H4  UNL     1      41.329  36.332  24.708  1.00  0.00     0.210 HD
ENDBRANCH  15  38
BRANCH  17  40
HETATM   40  C28 UNL     1      43.564  33.415  21.392  1.00  0.00     0.055 C 
HETATM   41  C29 UNL     1      45.027  33.015  21.706  1.00  0.00     0.045 C 
HETATM   42  C30 UNL     1      43.694  34.736  20.669  1.00  0.00     0.045 C 
BRANCH  40  43
HETATM   43  O5  UNL     1      43.109  32.485  20.486  1.00  0.00    -0.390 OA
ATOM     44  H5  UNL     1      43.769  31.958  20.050  1.00  0.00     0.210 HD
ENDBRANCH  40  43
ENDBRANCH  17  40
TORSDOF 12
ENDMDL
MODEL 2
REMARK VINA RESULT: -7.971444200      3.552      6.673
REMARK  12 active torsions:
REMARK  status: ('A' for Active; 'I' for Inactive)
REMARK    1  A    between atoms: C2_2  and  C3_3 
REMARK    2  A    between atoms: C3_3  and  C4_4 
REMARK    3  A    between atoms: C4_4  and  N1_5 
REMARK    4  A    between atoms: C4_4  and  C7_9 
REMARK    5  A    between atoms: N1_5  and  C5_7 
REMARK    6  A    between atoms: C7_9  and  O2_11 
REMARK    7  A    between atoms: O2_11  and  C8_12 
REMARK    8  A    between atoms: N2_15  and  C10_16 
REMARK    9  A    between atoms: C10_16  and  C11_17 
REMARK   10  A    between atoms: C25_31  and  O4_32 
REMARK   11  A    between atoms: C27_35  and  C28_36 
REMARK   12  A    between atoms: C28_36  and  O5_39 
ROOT
HETATM    1  C8  UNL     1      36.191  29.789  28.202  1.00  0.00     0.233 C 
HETATM    2  C9  UNL     1      35.024  30.594  27.719  1.00  0.00     0.250 C 
HETATM    3  O3  UNL     1      33.903  30.353  28.150  1.00  0.00    -0.270 OA
HETATM    4  N2  UNL     1      35.244  31.617  26.773  1.00  0.00    -0.349 N 
HETATM    5  C15 UNL     1      36.540  32.299  26.687  1.00  0.00     0.131 C 
HETATM    6  C16 UNL     1      37.654  31.265  26.912  1.00  0.00     0.015 C 
HETATM    7  C17 UNL     1      38.965  31.998  26.794  1.00  0.00     0.012 C 
HETATM    8  C18 UNL     1      40.100  31.153  27.313  1.00  0.00    -0.002 C 
HETATM    9  C19 UNL     1      39.805  30.748  28.705  1.00  0.00    -0.005 C 
HETATM   10  C20 UNL     1      40.995  30.126  29.365  1.00  0.00     0.006 C 
HETATM   11  C21 UNL     1      42.184  31.046  29.379  1.00  0.00     0.010 C 
HETATM   12  C22 UNL     1      42.194  32.125  28.379  1.00  0.00    -0.031 C 
HETATM   13  C23 UNL     1      41.663  33.450  28.863  1.00  0.00     0.016 C 
HETATM   14  C24 UNL     1      41.434  31.782  27.104  1.00  0.00     0.027 C 
HETATM   15  C25 UNL     1      42.413  30.963  26.309  1.00  0.00     0.123 C 
HETATM   16  C26 UNL     1      43.778  31.131  26.995  1.00  0.00     0.040 C 
HETATM   17  C27 UNL     1      43.536  32.406  27.756  1.00  0.00     0.030 C 
HETATM   18  C31 UNL     1      38.621  29.797  28.683  1.00  0.00    -0.003 C 
HETATM   19  C32 UNL     1      38.857  28.611  27.816  1.00  0.00     0.011 C 
HETATM   20  C33 UNL     1      37.439  30.627  28.235  1.00  0.00     0.000 C 
HETATM   21  C34 UNL     1      37.280  31.747  29.263  1.00  0.00     0.019 C 
ENDROOT
BRANCH   1  22
HETATM   22  O2  UNL     1      35.883  29.161  29.426  1.00  0.00    -0.301 OA
BRANCH  22  23
HETATM   23  C7  UNL     1      35.464  27.867  29.607  1.00  0.00     0.306 C 
HETATM   24  O1  UNL     1      35.902  27.023  28.755  1.00  0.00    -0.258 OA
BRANCH  23  25
HETATM   25  C4  UNL     1      34.561  27.446  30.708  1.00  0.00     0.084 C 
BRANCH  25  26
HETATM   26  C3  UNL     1      33.198  28.027  30.666  1.00  0.00     0.063 C 
BRANCH  26  27
HETATM   27  C2  UNL     1      33.122  29.227  31.604  1.00  0.00     0.002 C 
HETATM   28  C1  UNL     1      33.405  28.905  33.029  1.00  0.00     0.005 C 
ENDBRANCH  26  27
ENDBRANCH  25  26
BRANCH  25  29
HETATM   29  N1  UNL     1      34.735  26.098  31.030  1.00  0.00    -0.368 N 
ATOM     30  H1  UNL     1      35.186  25.480  30.356  1.00  0.00     0.165 HD
BRANCH  29  31
HETATM   31  C5  UNL     1      34.307  25.572  32.259  1.00  0.00     0.057 C 
HETATM   32  C6  UNL     1      32.969  24.878  32.289  1.00  0.00     0.054 C 
ENDBRANCH  29  31
ENDBRANCH  25  29
ENDBRANCH  23  25
ENDBRANCH  22  23
ENDBRANCH   1  22
BRANCH   4  33
HETATM   33  C10 UNL     1      34.218  32.038  25.846  1.00  0.00     0.131 C 
BRANCH  33  34
HETATM   34  C11 UNL     1      34.931  32.311  24.523  1.00  0.00     0.012 A 
HETATM   35  C12 UNL     1      34.023  32.192  23.291  1.00  0.00    -0.004 A 
HETATM   36  C13 UNL     1      33.870  30.771  22.804  1.00  0.00     0.011 A 
HETATM   37  C14 UNL     1      35.112  31.242  23.534  1.00  0.00    -0.004 A 
ENDBRANCH  33  34
ENDBRANCH   4  33
BRANCH  15  38
HETATM   38  O4  UNL     1      42.069  29.650  26.130  1.00  0.00    -0.395 OA
ATOM     39  H4  UNL     1      42.474  29.221  25.385  1.00  0.00     0.210 HD
ENDBRANCH  15  38
BRANCH  17  40
HETATM   40  C28 UNL     1      44.625  32.898  28.590  1.00  0.00     0.055 C 
HETATM   41  C29 UNL     1      45.306  34.044  27.802  1.00  0.00     0.045 C 
HETATM   42  C30 UNL     1      45.742  31.909  28.833  1.00  0.00     0.045 C 
BRANCH  40  43
HETATM   43  O5  UNL     1      44.273  33.439  29.805  1.00  0.00    -0.390 OA
ATOM     44  H5  UNL     1      44.752  34.213  30.081  1.00  0.00     0.210 HD
ENDBRANCH  40  43
ENDBRANCH  17  40
TORSDOF 12
ENDMDL
MODEL 3
REMARK VINA RESULT: -7.863589721      3.044      9.141
REMARK  12 active torsions:
REMARK  status: ('A' for Active; 'I' for Inactive)
REMARK    1  A    between atoms: C2_2  and  C3_3 
REMARK    2  A    between atoms: C3_3  and  C4_4 
REMARK    3  A    between atoms: C4_4  and  N1_5 
REMARK    4  A    between atoms: C4_4  and  C7_9 
REMARK    5  A    between atoms: N1_5  and  C5_7 
REMARK    6  A    between atoms: C7_9  and  O2_11 
REMARK    7  A    between atoms: O2_11  and  C8_12 
REMARK    8  A    between atoms: N2_15  and  C10_16 
REMARK    9  A    between atoms: C10_16  and  C11_17 
REMARK   10  A    between atoms: C25_31  and  O4_32 
REMARK   11  A    between atoms: C27_35  and  C28_36 
REMARK   12  A    between atoms: C28_36  and  O5_39 
ROOT
HETATM    1  C8  UNL     1      39.715  32.022  24.527  1.00  0.00     0.233 C 
HETATM    2  C9  UNL     1      39.338  32.836  23.328  1.00  0.00     0.250 C 
HETATM    3  O3  UNL     1      40.057  32.820  22.335  1.00  0.00    -0.270 OA
HETATM    4  N2  UNL     1      38.158  33.607  23.369  1.00  0.00    -0.349 N 
HETATM    5  C15 UNL     1      37.034  33.220  24.229  1.00  0.00     0.131 C 
HETATM    6  C16 UNL     1      37.593  32.676  25.552  1.00  0.00     0.015 C 
HETATM    7  C17 UNL     1      36.411  32.312  26.413  1.00  0.00     0.012 C 
HETATM    8  C18 UNL     1      36.842  31.477  27.590  1.00  0.00    -0.002 C 
HETATM    9  C19 UNL     1      37.568  30.285  27.098  1.00  0.00    -0.005 C 
HETATM   10  C20 UNL     1      37.801  29.288  28.190  1.00  0.00     0.006 C 
HETATM   11  C21 UNL     1      36.519  28.834  28.829  1.00  0.00     0.010 C 
HETATM   12  C22 UNL     1      35.356  29.724  28.681  1.00  0.00    -0.031 C 
HETATM   13  C23 UNL     1      34.438  29.393  27.533  1.00  0.00     0.016 C 
HETATM   14  C24 UNL     1      35.730  31.195  28.540  1.00  0.00     0.027 C 
HETATM   15  C25 UNL     1      35.965  31.646  29.956  1.00  0.00     0.123 C 
HETATM   16  C26 UNL     1      35.418  30.532  30.863  1.00  0.00     0.040 C 
HETATM   17  C27 UNL     1      34.485  29.845  29.903  1.00  0.00     0.030 C 
HETATM   18  C31 UNL     1      38.876  30.746  26.478  1.00  0.00    -0.003 C 
HETATM   19  C32 UNL     1      39.711  31.533  27.426  1.00  0.00     0.011 C 
HETATM   20  C33 UNL     1      38.488  31.532  25.245  1.00  0.00     0.000 C 
HETATM   21  C34 UNL     1      37.711  30.573  24.345  1.00  0.00     0.019 C 
ENDROOT
BRANCH   1  22
HETATM   22  O2  UNL     1      40.619  31.002  24.165  1.00  0.00    -0.301 OA
BRANCH  22  23
HETATM   23  C7  UNL     1      41.989  31.057  24.215  1.00  0.00     0.306 C 
HETATM   24  O1  UNL     1      42.593  30.636  23.172  1.00  0.00    -0.258 OA
BRANCH  23  25
HETATM   25  C4  UNL     1      42.745  31.562  25.388  1.00  0.00     0.084 C 
BRANCH  25  26
HETATM   26  C3  UNL     1      43.415  30.523  26.205  1.00  0.00     0.063 C 
BRANCH  26  27
HETATM   27  C2  UNL     1      42.452  29.367  26.456  1.00  0.00     0.002 C 
HETATM   28  C1  UNL     1      42.332  28.975  27.886  1.00  0.00     0.005 C 
ENDBRANCH  26  27
ENDBRANCH  25  26
BRANCH  25  29
HETATM   29  N1  UNL     1      43.409  32.757  25.096  1.00  0.00    -0.368 N 
ATOM     30  H1  UNL     1      44.385  32.724  24.804  1.00  0.00     0.165 HD
BRANCH  29  31
HETATM   31  C5  UNL     1      42.766  34.000  25.196  1.00  0.00     0.057 C 
HETATM   32  C6  UNL     1      41.980  34.278  26.451  1.00  0.00     0.054 C 
ENDBRANCH  29  31
ENDBRANCH  25  29
ENDBRANCH  23  25
ENDBRANCH  22  23
ENDBRANCH   1  22
BRANCH   4  33
HETATM   33  C10 UNL     1      37.998  34.808  22.580  1.00  0.00     0.131 C 
BRANCH  33  34
HETATM   34  C11 UNL     1      38.553  35.948  23.431  1.00  0.00     0.012 A 
HETATM   35  C12 UNL     1      39.583  36.824  22.703  1.00  0.00    -0.004 A 
HETATM   36  C13 UNL     1      40.979  36.249  22.739  1.00  0.00     0.011 A 
HETATM   37  C14 UNL     1      39.965  35.969  23.830  1.00  0.00    -0.004 A 
ENDBRANCH  33  34
ENDBRANCH   4  33
BRANCH  15  38
HETATM   38  O4  UNL     1      37.256  31.986  30.255  1.00  0.00    -0.395 OA
ATOM     39  H4  UNL     1      37.898  31.297  30.131  1.00  0.00     0.210 HD
ENDBRANCH  15  38
BRANCH  17  40
HETATM   40  C28 UNL     1      33.774  28.671  30.394  1.00  0.00     0.055 C 
HETATM   41  C29 UNL     1      33.161  29.062  31.762  1.00  0.00     0.045 C 
HETATM   42  C30 UNL     1      34.649  27.480  30.714  1.00  0.00     0.045 C 
BRANCH  40  43
HETATM   43  O5  UNL     1      32.722  28.224  29.629  1.00  0.00    -0.390 OA
ATOM     44  H5  UNL     1      32.133  27.600  30.039  1.00  0.00     0.210 HD
ENDBRANCH  40  43
ENDBRANCH  17  40
TORSDOF 12
ENDMDL
MODEL 4
REMARK VINA RESULT: -7.853139452      2.861      9.186
REMARK  12 active torsions:
REMARK  status: ('A' for Active; 'I' for Inactive)
REMARK    1  A    between atoms: C2_2  and  C3_3 
REMARK    2  A    between atoms: C3_3  and  C4_4 
REMARK    3  A    between atoms: C4_4  and  N1_5 
REMARK    4  A    between atoms: C4_4  and  C7_9 
REMARK    5  A    between atoms: N1_5  and  C5_7 
REMARK    6  A    between atoms: C7_9  and  O2_11 
REMARK    7  A    between atoms: O2_11  and  C8_12 
REMARK    8  A    between atoms: N2_15  and  C10_16 
REMARK    9  A    between atoms: C10_16  and  C11_17 
REMARK   10  A    between atoms: C25_31  and  O4_32 
REMARK   11  A    between atoms: C27_35  and  C28_36 
REMARK   12  A    between atoms: C28_36  and  O5_39 
ROOT
HETATM    1  C8  UNL     1      39.669  32.026  24.494  1.00  0.00     0.233 C 
HETATM    2  C9  UNL     1      39.288  32.857  23.308  1.00  0.00     0.250 C 
HETATM    3  O3  UNL     1      39.992  32.838  22.305  1.00  0.00    -0.270 OA
HETATM    4  N2  UNL     1      38.121  33.647  23.373  1.00  0.00    -0.349 N 
HETATM    5  C15 UNL     1      37.004  33.271  24.245  1.00  0.00     0.131 C 
HETATM    6  C16 UNL     1      37.573  32.706  25.556  1.00  0.00     0.015 C 
HETATM    7  C17 UNL     1      36.398  32.354  26.430  1.00  0.00     0.012 C 
HETATM    8  C18 UNL     1      36.832  31.501  27.594  1.00  0.00    -0.002 C 
HETATM    9  C19 UNL     1      37.530  30.302  27.081  1.00  0.00    -0.005 C 
HETATM   10  C20 UNL     1      37.763  29.291  28.160  1.00  0.00     0.006 C 
HETATM   11  C21 UNL     1      36.483  28.853  28.814  1.00  0.00     0.010 C 
HETATM   12  C22 UNL     1      35.333  29.763  28.691  1.00  0.00    -0.031 C 
HETATM   13  C23 UNL     1      34.394  29.457  27.553  1.00  0.00     0.016 C 
HETATM   14  C24 UNL     1      35.729  31.229  28.558  1.00  0.00     0.027 C 
HETATM   15  C25 UNL     1      35.991  31.663  29.973  1.00  0.00     0.123 C 
HETATM   16  C26 UNL     1      35.439  30.551  30.879  1.00  0.00     0.040 C 
HETATM   17  C27 UNL     1      34.482  29.887  29.927  1.00  0.00     0.030 C 
HETATM   18  C31 UNL     1      38.837  30.747  26.446  1.00  0.00    -0.003 C 
HETATM   19  C32 UNL     1      39.699  31.512  27.388  1.00  0.00     0.011 C 
HETATM   20  C33 UNL     1      38.444  31.550  25.226  1.00  0.00     0.000 C 
HETATM   21  C34 UNL     1      37.639  30.612  24.328  1.00  0.00     0.019 C 
ENDROOT
BRANCH   1  22
HETATM   22  O2  UNL     1      40.550  30.995  24.110  1.00  0.00    -0.301 OA
BRANCH  22  23
HETATM   23  C7  UNL     1      41.880  30.883  24.431  1.00  0.00     0.306 C 
HETATM   24  O1  UNL     1      42.208  29.814  25.047  1.00  0.00    -0.258 OA
BRANCH  23  25
HETATM   25  C4  UNL     1      42.891  31.919  24.102  1.00  0.00     0.084 C 
BRANCH  25  26
HETATM   26  C3  UNL     1      43.423  32.674  25.261  1.00  0.00     0.063 C 
BRANCH  26  27
HETATM   27  C2  UNL     1      42.790  34.061  25.305  1.00  0.00     0.002 C 
HETATM   28  C1  UNL     1      41.952  34.310  26.509  1.00  0.00     0.005 C 
ENDBRANCH  26  27
ENDBRANCH  25  26
BRANCH  25  29
HETATM   29  N1  UNL     1      43.754  31.492  23.090  1.00  0.00    -0.368 N 
ATOM     30  H1  UNL     1      44.593  30.968  23.340  1.00  0.00     0.165 HD
BRANCH  29  31
HETATM   31  C5  UNL     1      43.497  31.765  21.738  1.00  0.00     0.057 C 
HETATM   32  C6  UNL     1      43.349  33.210  21.337  1.00  0.00     0.054 C 
ENDBRANCH  29  31
ENDBRANCH  25  29
ENDBRANCH  23  25
ENDBRANCH  22  23
ENDBRANCH   1  22
BRANCH   4  33
HETATM   33  C10 UNL     1      37.970  34.857  22.596  1.00  0.00     0.131 C 
BRANCH  33  34
HETATM   34  C11 UNL     1      38.571  35.978  23.442  1.00  0.00     0.012 A 
HETATM   35  C12 UNL     1      39.608  36.831  22.699  1.00  0.00    -0.004 A 
HETATM   36  C13 UNL     1      40.989  36.220  22.705  1.00  0.00     0.011 A 
HETATM   37  C14 UNL     1      39.990  35.960  23.814  1.00  0.00    -0.004 A 
ENDBRANCH  33  34
ENDBRANCH   4  33
BRANCH  15  38
HETATM   38  O4  UNL     1      37.293  31.980  30.257  1.00  0.00    -0.395 OA
ATOM     39  H4  UNL     1      37.942  31.572  29.696  1.00  0.00     0.210 HD
ENDBRANCH  15  38
BRANCH  17  40
HETATM   40  C28 UNL     1      33.759  28.721  30.418  1.00  0.00     0.055 C 
HETATM   41  C29 UNL     1      33.156  29.116  31.789  1.00  0.00     0.045 C 
HETATM   42  C30 UNL     1      34.621  27.519  30.732  1.00  0.00     0.045 C 
BRANCH  40  43
HETATM   43  O5  UNL     1      32.699  28.288  29.656  1.00  0.00    -0.390 OA
ATOM     44  H5  UNL     1      31.940  27.963  30.128  1.00  0.00     0.210 HD
ENDBRANCH  40  43
ENDBRANCH  17  40
TORSDOF 12
ENDMDL
MODEL 5
REMARK VINA RESULT: -7.798364265      0.570      1.949
REMARK  12 active torsions:
REMARK  status: ('A' for Active; 'I' for Inactive)
REMARK    1  A    between atoms: C2_2  and  C3_3 
REMARK    2  A    between atoms: C3_3  and  C4_4 
REMARK    3  A    between atoms: C4_4  and  N1_5 
REMARK    4  A    between atoms: C4_4  and  C7_9 
REMARK    5  A    between atoms: N1_5  and  C5_7 
REMARK    6  A    between atoms: C7_9  and  O2_11 
REMARK    7  A    between atoms: O2_11  and  C8_12 
REMARK    8  A    between atoms: N2_15  and  C10_16 
REMARK    9  A    between atoms: C10_16  and  C11_17 
REMARK   10  A    between atoms: C25_31  and  O4_32 
REMARK   11  A    between atoms: C27_35  and  C28_36 
REMARK   12  A    between atoms: C28_36  and  O5_39 
ROOT
HETATM    1  C8  UNL     1      35.926  32.339  25.831  1.00  0.00     0.233 C 
HETATM    2  C9  UNL     1      35.627  31.196  26.752  1.00  0.00     0.250 C 
HETATM    3  O3  UNL     1      34.466  30.838  26.913  1.00  0.00    -0.270 OA
HETATM    4  N2  UNL     1      36.693  30.556  27.416  1.00  0.00    -0.349 N 
HETATM    5  C15 UNL     1      38.042  30.545  26.841  1.00  0.00     0.131 C 
HETATM    6  C16 UNL     1      38.308  31.910  26.187  1.00  0.00     0.015 C 
HETATM    7  C17 UNL     1      39.707  31.865  25.629  1.00  0.00     0.012 C 
HETATM    8  C18 UNL     1      39.949  33.022  24.694  1.00  0.00    -0.002 C 
HETATM    9  C19 UNL     1      38.919  33.009  23.632  1.00  0.00    -0.005 C 
HETATM   10  C20 UNL     1      39.244  33.970  22.532  1.00  0.00     0.006 C 
HETATM   11  C21 UNL     1      40.580  33.685  21.904  1.00  0.00     0.010 C 
HETATM   12  C22 UNL     1      41.537  32.911  22.711  1.00  0.00    -0.031 C 
HETATM   13  C23 UNL     1      41.541  31.426  22.449  1.00  0.00     0.016 C 
HETATM   14  C24 UNL     1      41.356  33.095  24.213  1.00  0.00     0.027 C 
HETATM   15  C25 UNL     1      42.069  34.387  24.507  1.00  0.00     0.123 C 
HETATM   16  C26 UNL     1      42.890  34.725  23.252  1.00  0.00     0.040 C 
HETATM   17  C27 UNL     1      42.969  33.365  22.614  1.00  0.00     0.030 C 
HETATM   18  C31 UNL     1      37.575  33.325  24.267  1.00  0.00    -0.003 C 
HETATM   19  C32 UNL     1      37.580  34.622  24.997  1.00  0.00     0.011 C 
HETATM   20  C33 UNL     1      37.260  32.148  25.163  1.00  0.00     0.000 C 
HETATM   21  C34 UNL     1      37.213  30.915  24.260  1.00  0.00     0.019 C 
ENDROOT
BRANCH   1  22
HETATM   22  O2  UNL     1      34.856  32.545  24.937  1.00  0.00    -0.301 OA
BRANCH  22  23
HETATM   23  C7  UNL     1      33.846  33.467  25.056  1.00  0.00     0.306 C 
HETATM   24  O1  UNL     1      32.746  33.151  24.492  1.00  0.00    -0.258 OA
BRANCH  23  25
HETATM   25  C4  UNL     1      33.995  34.753  25.782  1.00  0.00     0.084 C 
BRANCH  25  26
HETATM   26  C3  UNL     1      34.573  34.649  27.142  1.00  0.00     0.063 C 
BRANCH  26  27
HETATM   27  C2  UNL     1      33.571  33.979  28.077  1.00  0.00     0.002 C 
HETATM   28  C1  UNL     1      34.165  33.470  29.342  1.00  0.00     0.005 C 
ENDBRANCH  26  27
ENDBRANCH  25  26
BRANCH  25  29
HETATM   29  N1  UNL     1      34.399  35.782  24.927  1.00  0.00    -0.368 N 
ATOM     30  H1  UNL     1      34.840  36.612  25.323  1.00  0.00     0.165 HD
BRANCH  29  31
HETATM   31  C5  UNL     1      34.213  35.703  23.539  1.00  0.00     0.057 C 
HETATM   32  C6  UNL     1      35.444  35.731  22.670  1.00  0.00     0.054 C 
ENDBRANCH  29  31
ENDBRANCH  25  29
ENDBRANCH  23  25
ENDBRANCH  22  23
ENDBRANCH   1  22
BRANCH   4  33
HETATM   33  C10 UNL     1      36.515  29.890  28.687  1.00  0.00     0.131 C 
BRANCH  33  34
HETATM   34  C11 UNL     1      36.509  28.394  28.381  1.00  0.00     0.012 A 
HETATM   35  C12 UNL     1      35.370  27.624  29.065  1.00  0.00    -0.004 A 
HETATM   36  C13 UNL     1      35.692  27.232  30.488  1.00  0.00     0.011 A 
HETATM   37  C14 UNL     1      36.771  27.411  29.439  1.00  0.00    -0.004 A 
ENDBRANCH  33  34
ENDBRANCH   4  33
BRANCH  15  38
HETATM   38  O4  UNL     1      41.267  35.420  24.910  1.00  0.00    -0.395 OA
ATOM     39  H4  UNL     1      40.693  35.774  24.240  1.00  0.00     0.210 HD
ENDBRANCH  15  38
BRANCH  17  40
HETATM   40  C28 UNL     1      43.665  33.270  21.337  1.00  0.00     0.055 C 
HETATM   41  C29 UNL     1      45.120  32.845  21.654  1.00  0.00     0.045 C 
HETATM   42  C30 UNL     1      43.822  34.579  20.595  1.00  0.00     0.045 C 
BRANCH  40  43
HETATM   43  O5  UNL     1      43.190  32.338  20.444  1.00  0.00    -0.390 OA
ATOM     44  H5  UNL     1      42.266  32.388  20.227  1.00  0.00     0.210 HD
ENDBRANCH  40  43
ENDBRANCH  17  40
TORSDOF 12
ENDMDL
