MODEL 1
REMARK VINA RESULT: -9.473719879      0.000      0.000
REMARK  12 active torsions:
REMARK  status: ('A' for Active; 'I' for Inactive)
REMARK    1  A    between atoms: C3_3  and  C4_4 
REMARK    2  A    between atoms: C4_4  and  C5_5 
REMARK    3  A    between atoms: C5_5  and  C6_6 
REMARK    4  A    between atoms: C8_8  and  O1_9 
REMARK    5  A    between atoms: C10_12  and  O2_13 
REMARK    6  A    between atoms: O2_13  and  C11_14 
REMARK    7  A    between atoms: C11_14  and  C12_16 
REMARK    8  A    between atoms: C12_16  and  C14_18 
REMARK    9  A    between atoms: C14_18  and  N1_19 
REMARK   10  A    between atoms: C17_22  and  C18_23 
REMARK   11  A    between atoms: C18_23  and  C19_24 
REMARK   12  A    between atoms: C27_38  and  C28_39 
ROOT
HETATM    1  C6  UNL     1      35.526  31.834  24.888  1.00  0.00     0.006 C 
HETATM    2  C7  UNL     1      34.334  30.951  25.342  1.00  0.00     0.046 C 
HETATM    3  C8  UNL     1      34.318  31.114  26.834  1.00  0.00     0.087 C 
HETATM    4  C9  UNL     1      34.387  29.771  27.547  1.00  0.00     0.075 C 
HETATM    5  C10 UNL     1      34.550  29.968  29.040  1.00  0.00     0.158 C 
HETATM    6  C25 UNL     1      35.121  31.316  29.337  1.00  0.00     0.200 C 
HETATM    7  O5  UNL     1      36.112  31.570  28.349  1.00  0.00    -0.380 OA
HETATM    8  C26 UNL     1      35.559  31.933  27.163  1.00  0.00     0.160 C 
HETATM    9  C27 UNL     1      36.471  31.544  25.949  1.00  0.00     0.028 C 
ENDROOT
BRANCH   5  10
HETATM   10  O2  UNL     1      33.352  29.656  29.711  1.00  0.00    -0.313 OA
BRANCH  10  11
HETATM   11  C11 UNL     1      33.196  28.482  30.460  1.00  0.00     0.264 C 
HETATM   12  O3  UNL     1      32.404  27.653  30.092  1.00  0.00    -0.265 OA
BRANCH  11  13
HETATM   13  C12 UNL     1      34.027  28.367  31.667  1.00  0.00     0.100 C 
HETATM   14  C13 UNL     1      33.513  29.118  32.847  1.00  0.00     0.022 C 
BRANCH  13  15
HETATM   15  C14 UNL     1      34.382  26.940  32.037  1.00  0.00     0.142 C 
BRANCH  15  16
HETATM   16  N1  UNL     1      35.231  26.355  30.999  1.00  0.00    -0.366 N 
HETATM   17  C15 UNL     1      36.120  27.060  30.322  1.00  0.00     0.091 A 
HETATM   18  C16 UNL     1      36.864  26.471  29.334  1.00  0.00     0.024 A 
HETATM   19  C17 UNL     1      36.698  25.132  29.025  1.00  0.00    -0.052 A 
HETATM   20  C23 UNL     1      35.765  24.427  29.747  1.00  0.00     0.024 A 
HETATM   21  C24 UNL     1      35.038  25.049  30.732  1.00  0.00     0.091 A 
BRANCH  19  22
HETATM   22  C18 UNL     1      37.477  24.469  27.978  1.00  0.00     0.085 C 
BRANCH  22  23
HETATM   23  C19 UNL     1      37.397  22.957  28.182  1.00  0.00     0.188 A 
HETATM   24  N2  UNL     1      38.725  22.427  28.319  1.00  0.00    -0.368 N 
HETATM   25  C20 UNL     1      39.042  21.658  27.362  1.00  0.00     0.071 A 
ATOM     26  H2  UNL     1      39.345  22.645  29.098  1.00  0.00     0.161 HD
HETATM   27  C21 UNL     1      40.322  20.958  27.196  1.00  0.00     0.074 C 
HETATM   28  C22 UNL     1      37.887  21.546  26.457  1.00  0.00     0.265 A 
HETATM   29  O4  UNL     1      37.853  20.860  25.391  1.00  0.00    -0.266 OA
HETATM   30  N3  UNL     1      36.867  22.333  26.999  1.00  0.00    -0.335 N 
ATOM     31  H3  UNL     1      35.924  22.444  26.626  1.00  0.00     0.164 HD
ENDBRANCH  22  23
ENDBRANCH  19  22
ENDBRANCH  15  16
ENDBRANCH  13  15
ENDBRANCH  11  13
ENDBRANCH  10  11
ENDBRANCH   5  10
BRANCH   3  32
HETATM   32  O1  UNL     1      33.181  31.831  27.184  1.00  0.00    -0.387 OA
ATOM     33  H1  UNL     1      33.317  32.206  28.046  1.00  0.00     0.210 HD
ENDBRANCH   3  32
BRANCH   1  34
HETATM   34  C5  UNL     1      35.095  33.078  24.358  1.00  0.00     0.090 C 
BRANCH  34  35
HETATM   35  C4  UNL     1      35.512  34.205  23.900  1.00  0.00    -0.156 C 
BRANCH  35  36
HETATM   36  C3  UNL     1      35.978  35.398  23.479  1.00  0.00     0.046 C 
HETATM   37  C2  UNL     1      37.115  35.777  22.898  1.00  0.00    -0.023 C 
HETATM   38  C1  UNL     1      38.263  34.981  22.513  1.00  0.00     0.036 C 
ENDBRANCH  35  36
ENDBRANCH  34  35
ENDBRANCH   1  34
BRANCH   9  39
HETATM   39  C28 UNL     1      37.756  32.210  26.121  1.00  0.00     0.010 A 
HETATM   40  C29 UNL     1      38.889  31.336  26.576  1.00  0.00    -0.036 A 
HETATM   41  C30 UNL     1      39.625  31.780  27.821  1.00  0.00     0.016 C 
HETATM   42  C31 UNL     1      38.972  29.867  26.323  1.00  0.00     0.016 C 
HETATM   43  C32 UNL     1      38.967  32.194  25.336  1.00  0.00    -0.036 A 
HETATM   44  C33 UNL     1      39.056  31.565  23.965  1.00  0.00     0.016 C 
HETATM   45  C34 UNL     1      39.964  33.340  25.479  1.00  0.00     0.016 C 
ENDBRANCH   9  39
TORSDOF 12
ENDMDL
MODEL 2
REMARK VINA RESULT: -9.315838724      4.415     10.101
REMARK  12 active torsions:
REMARK  status: ('A' for Active; 'I' for Inactive)
REMARK    1  A    between atoms: C3_3  and  C4_4 
REMARK    2  A    between atoms: C4_4  and  C5_5 
REMARK    3  A    between atoms: C5_5  and  C6_6 
REMARK    4  A    between atoms: C8_8  and  O1_9 
REMARK    5  A    between atoms: C10_12  and  O2_13 
REMARK    6  A    between atoms: O2_13  and  C11_14 
REMARK    7  A    between atoms: C11_14  and  C12_16 
REMARK    8  A    between atoms: C12_16  and  C14_18 
REMARK    9  A    between atoms: C14_18  and  N1_19 
REMARK   10  A    between atoms: C17_22  and  C18_23 
REMARK   11  A    between atoms: C18_23  and  C19_24 
REMARK   12  A    between atoms: C27_38  and  C28_39 
ROOT
HETATM    1  C6  UNL     1      36.550  28.015  28.829  1.00  0.00     0.006 C 
HETATM    2  C7  UNL     1      37.793  28.065  27.901  1.00  0.00     0.046 C 
HETATM    3  C8  UNL     1      38.523  29.298  28.348  1.00  0.00     0.087 C 
HETATM    4  C9  UNL     1      38.769  30.256  27.192  1.00  0.00     0.075 C 
HETATM    5  C10 UNL     1      39.343  31.563  27.697  1.00  0.00     0.158 C 
HETATM    6  C25 UNL     1      39.016  31.763  29.140  1.00  0.00     0.200 C 
HETATM    7  O5  UNL     1      37.681  31.312  29.326  1.00  0.00    -0.380 OA
HETATM    8  C26 UNL     1      37.610  29.956  29.373  1.00  0.00     0.160 C 
HETATM    9  C27 UNL     1      36.219  29.426  28.880  1.00  0.00     0.028 C 
ENDROOT
BRANCH   5  10
HETATM   10  O2  UNL     1      40.708  31.663  27.364  1.00  0.00    -0.313 OA
BRANCH  10  11
HETATM   11  C11 UNL     1      41.485  32.777  27.709  1.00  0.00     0.264 C 
HETATM   12  O3  UNL     1      41.985  32.826  28.803  1.00  0.00    -0.265 OA
BRANCH  11  13
HETATM   13  C12 UNL     1      41.615  33.820  26.681  1.00  0.00     0.100 C 
HETATM   14  C13 UNL     1      42.796  34.712  26.850  1.00  0.00     0.022 C 
BRANCH  13  15
HETATM   15  C14 UNL     1      41.520  33.299  25.260  1.00  0.00     0.142 C 
BRANCH  15  16
HETATM   16  N1  UNL     1      40.243  33.700  24.670  1.00  0.00    -0.366 N 
HETATM   17  C15 UNL     1      39.369  32.831  24.196  1.00  0.00     0.091 A 
HETATM   18  C16 UNL     1      38.203  33.263  23.620  1.00  0.00     0.024 A 
HETATM   19  C17 UNL     1      37.921  34.614  23.521  1.00  0.00    -0.052 A 
HETATM   20  C23 UNL     1      38.850  35.494  24.022  1.00  0.00     0.024 A 
HETATM   21  C24 UNL     1      40.007  35.025  24.595  1.00  0.00     0.091 A 
BRANCH  19  22
HETATM   22  C18 UNL     1      36.685  35.112  22.914  1.00  0.00     0.085 C 
BRANCH  22  23
HETATM   23  C19 UNL     1      35.844  35.797  23.991  1.00  0.00     0.188 A 
HETATM   24  N2  UNL     1      35.535  34.848  25.024  1.00  0.00    -0.368 N 
HETATM   25  C20 UNL     1      34.295  34.593  25.093  1.00  0.00     0.071 A 
ATOM     26  H2  UNL     1      36.235  34.425  25.633  1.00  0.00     0.161 HD
HETATM   27  C21 UNL     1      33.648  33.668  26.032  1.00  0.00     0.074 C 
HETATM   28  C22 UNL     1      33.597  35.419  24.095  1.00  0.00     0.265 A 
HETATM   29  O4  UNL     1      32.346  35.416  23.885  1.00  0.00    -0.266 OA
HETATM   30  N3  UNL     1      34.571  36.181  23.444  1.00  0.00    -0.335 N 
ATOM     31  H3  UNL     1      34.409  36.878  22.718  1.00  0.00     0.164 HD
ENDBRANCH  22  23
ENDBRANCH  19  22
ENDBRANCH  15  16
ENDBRANCH  13  15
ENDBRANCH  11  13
ENDBRANCH  10  11
ENDBRANCH   5  10
BRANCH   3  32
HETATM   32  O1  UNL     1      39.706  28.908  28.961  1.00  0.00    -0.387 OA
ATOM     33  H1  UNL     1      40.088  29.666  29.387  1.00  0.00     0.210 HD
ENDBRANCH   3  32
BRANCH   1  34
HETATM   34  C5  UNL     1      36.708  27.070  29.876  1.00  0.00     0.090 C 
BRANCH  34  35
HETATM   35  C4  UNL     1      36.060  26.360  30.730  1.00  0.00    -0.156 C 
BRANCH  35  36
HETATM   36  C3  UNL     1      35.380  25.565  31.581  1.00  0.00     0.046 C 
HETATM   37  C2  UNL     1      34.513  25.813  32.561  1.00  0.00    -0.023 C 
HETATM   38  C1  UNL     1      33.998  27.081  33.037  1.00  0.00     0.036 C 
ENDBRANCH  35  36
ENDBRANCH  34  35
ENDBRANCH   1  34
BRANCH   9  39
HETATM   39  C28 UNL     1      35.190  30.006  29.733  1.00  0.00     0.010 A 
HETATM   40  C29 UNL     1      34.070  30.707  29.019  1.00  0.00    -0.036 A 
HETATM   41  C30 UNL     1      33.801  32.139  29.428  1.00  0.00     0.016 C 
HETATM   42  C31 UNL     1      33.629  30.388  27.628  1.00  0.00     0.016 C 
HETATM   43  C32 UNL     1      33.834  29.604  30.022  1.00  0.00    -0.036 A 
HETATM   44  C33 UNL     1      33.255  28.277  29.591  1.00  0.00     0.016 C 
HETATM   45  C34 UNL     1      33.163  30.106  31.298  1.00  0.00     0.016 C 
ENDBRANCH   9  39
TORSDOF 12
ENDMDL
MODEL 3
REMARK VINA RESULT: -9.295052533      4.066      9.533
REMARK  12 active torsions:
REMARK  status: ('A' for Active; 'I' for Inactive)
REMARK    1  A    between atoms: C3_3  and  C4_4 
REMARK    2  A    between atoms: C4_4  and  C5_5 
REMARK    3  A    between atoms: C5_5  and  C6_6 
REMARK    4  A    between atoms: C8_8  and  O1_9 
REMARK    5  A    between atoms: C10_12  and  O2_13 
REMARK    6  A    between atoms: O2_13  and  C11_14 
REMARK    7  A    between atoms: C11_14  and  C12_16 
REMARK    8  A    between atoms: C12_16  and  C14_18 
REMARK    9  A    between atoms: C14_18  and  N1_19 
REMARK   10  A    between atoms: C17_22  and  C18_23 
REMARK   11  A    between atoms: C18_23  and  C19_24 
REMARK   12  A    between atoms: C27_38  and  C28_39 
ROOT
HETATM    1  C6  UNL     1      36.574  28.014  28.844  1.00  0.00     0.006 C 
HETATM    2  C7  UNL     1      37.823  28.042  27.926  1.00  0.00     0.046 C 
HETATM    3  C8  UNL     1      38.579  29.254  28.389  1.00  0.00     0.087 C 
HETATM    4  C9  UNL     1      38.856  30.216  27.243  1.00  0.00     0.075 C 
HETATM    5  C10 UNL     1      39.457  31.505  27.763  1.00  0.00     0.158 C 
HETATM    6  C25 UNL     1      39.124  31.701  29.205  1.00  0.00     0.200 C 
HETATM    7  O5  UNL     1      37.777  31.279  29.378  1.00  0.00    -0.380 OA
HETATM    8  C26 UNL     1      37.675  29.925  29.413  1.00  0.00     0.160 C 
HETATM    9  C27 UNL     1      36.275  29.432  28.906  1.00  0.00     0.028 C 
ENDROOT
BRANCH   5  10
HETATM   10  O2  UNL     1      40.826  31.575  27.441  1.00  0.00    -0.313 OA
BRANCH  10  11
HETATM   11  C11 UNL     1      41.396  30.812  26.413  1.00  0.00     0.264 C 
HETATM   12  O3  UNL     1      41.625  29.646  26.607  1.00  0.00    -0.265 OA
BRANCH  11  13
HETATM   13  C12 UNL     1      41.681  31.524  25.160  1.00  0.00     0.100 C 
HETATM   14  C13 UNL     1      43.130  31.712  24.869  1.00  0.00     0.022 C 
BRANCH  13  15
HETATM   15  C14 UNL     1      40.948  30.967  23.954  1.00  0.00     0.142 C 
BRANCH  15  16
HETATM   16  N1  UNL     1      39.542  31.365  24.002  1.00  0.00    -0.366 N 
HETATM   17  C15 UNL     1      39.158  32.617  24.180  1.00  0.00     0.091 A 
HETATM   18  C16 UNL     1      37.826  32.931  24.255  1.00  0.00     0.024 A 
HETATM   19  C17 UNL     1      36.860  31.945  24.148  1.00  0.00    -0.052 A 
HETATM   20  C23 UNL     1      37.291  30.653  23.965  1.00  0.00     0.024 A 
HETATM   21  C24 UNL     1      38.634  30.376  23.892  1.00  0.00     0.091 A 
BRANCH  19  22
HETATM   22  C18 UNL     1      35.429  32.244  24.220  1.00  0.00     0.085 C 
BRANCH  22  23
HETATM   23  C19 UNL     1      35.246  33.693  24.670  1.00  0.00     0.188 A 
HETATM   24  N2  UNL     1      34.596  33.712  25.950  1.00  0.00    -0.368 N 
HETATM   25  C20 UNL     1      33.441  34.233  25.901  1.00  0.00     0.071 A 
ATOM     26  H2  UNL     1      35.016  33.348  26.805  1.00  0.00     0.161 HD
HETATM   27  C21 UNL     1      32.514  34.402  27.026  1.00  0.00     0.074 C 
HETATM   28  C22 UNL     1      33.196  34.683  24.521  1.00  0.00     0.265 A 
HETATM   29  O4  UNL     1      32.136  35.245  24.110  1.00  0.00    -0.266 OA
HETATM   30  N3  UNL     1      34.339  34.368  23.780  1.00  0.00    -0.335 N 
ATOM     31  H3  UNL     1      34.499  34.577  22.795  1.00  0.00     0.164 HD
ENDBRANCH  22  23
ENDBRANCH  19  22
ENDBRANCH  15  16
ENDBRANCH  13  15
ENDBRANCH  11  13
ENDBRANCH  10  11
ENDBRANCH   5  10
BRANCH   3  32
HETATM   32  O1  UNL     1      39.748  28.831  29.007  1.00  0.00    -0.387 OA
ATOM     33  H1  UNL     1      40.151  29.579  29.431  1.00  0.00     0.210 HD
ENDBRANCH   3  32
BRANCH   1  34
HETATM   34  C5  UNL     1      36.701  27.057  29.885  1.00  0.00     0.090 C 
BRANCH  34  35
HETATM   35  C4  UNL     1      36.029  26.308  30.685  1.00  0.00    -0.156 C 
BRANCH  35  36
HETATM   36  C3  UNL     1      35.349  25.558  31.575  1.00  0.00     0.046 C 
HETATM   37  C2  UNL     1      34.487  25.856  32.547  1.00  0.00    -0.023 C 
HETATM   38  C1  UNL     1      33.982  27.148  32.966  1.00  0.00     0.036 C 
ENDBRANCH  35  36
ENDBRANCH  34  35
ENDBRANCH   1  34
BRANCH   9  39
HETATM   39  C28 UNL     1      35.253  30.029  29.755  1.00  0.00     0.010 A 
HETATM   40  C29 UNL     1      34.189  30.814  29.044  1.00  0.00    -0.036 A 
HETATM   41  C30 UNL     1      33.982  32.240  29.505  1.00  0.00     0.016 C 
HETATM   42  C31 UNL     1      33.771  30.575  27.631  1.00  0.00     0.016 C 
HETATM   43  C32 UNL     1      33.872  29.685  29.994  1.00  0.00    -0.036 A 
HETATM   44  C33 UNL     1      33.239  28.408  29.494  1.00  0.00     0.016 C 
HETATM   45  C34 UNL     1      33.193  30.169  31.272  1.00  0.00     0.016 C 
ENDBRANCH   9  39
TORSDOF 12
ENDMDL
MODEL 4
REMARK VINA RESULT: -9.235970536      1.309      1.708
REMARK  12 active torsions:
REMARK  status: ('A' for Active; 'I' for Inactive)
REMARK    1  A    between atoms: C3_3  and  C4_4 
REMARK    2  A    between atoms: C4_4  and  C5_5 
REMARK    3  A    between atoms: C5_5  and  C6_6 
REMARK    4  A    between atoms: C8_8  and  O1_9 
REMARK    5  A    between atoms: C10_12  and  O2_13 
REMARK    6  A    between atoms: O2_13  and  C11_14 
REMARK    7  A    between atoms: C11_14  and  C12_16 
REMARK    8  A    between atoms: C12_16  and  C14_18 
REMARK    9  A    between atoms: C14_18  and  N1_19 
REMARK   10  A    between atoms: C17_22  and  C18_23 
REMARK   11  A    between atoms: C18_23  and  C19_24 
REMARK   12  A    between atoms: C27_38  and  C28_39 
ROOT
HETATM    1  C6  UNL     1      36.532  32.659  24.147  1.00  0.00     0.006 C 
HETATM    2  C7  UNL     1      35.119  32.038  24.301  1.00  0.00     0.046 C 
HETATM    3  C8  UNL     1      34.881  32.054  25.783  1.00  0.00     0.087 C 
HETATM    4  C9  UNL     1      34.538  30.668  26.312  1.00  0.00     0.075 C 
HETATM    5  C10 UNL     1      34.480  30.675  27.825  1.00  0.00     0.158 C 
HETATM    6  C25 UNL     1      35.268  31.816  28.380  1.00  0.00     0.200 C 
HETATM    7  O5  UNL     1      36.444  31.928  27.590  1.00  0.00    -0.380 OA
HETATM    8  C26 UNL     1      36.194  32.524  26.396  1.00  0.00     0.160 C 
HETATM    9  C27 UNL     1      37.196  32.054  25.285  1.00  0.00     0.028 C 
ENDROOT
BRANCH   5  10
HETATM   10  O2  UNL     1      33.147  30.587  28.268  1.00  0.00    -0.313 OA
BRANCH  10  11
HETATM   11  C11 UNL     1      32.810  30.509  29.626  1.00  0.00     0.264 C 
HETATM   12  O3  UNL     1      31.943  31.224  30.057  1.00  0.00    -0.265 OA
BRANCH  11  13
HETATM   13  C12 UNL     1      33.574  29.543  30.429  1.00  0.00     0.100 C 
HETATM   14  C13 UNL     1      33.591  29.829  31.891  1.00  0.00     0.022 C 
BRANCH  13  15
HETATM   15  C14 UNL     1      33.214  28.095  30.157  1.00  0.00     0.142 C 
BRANCH  15  16
HETATM   16  N1  UNL     1      34.431  27.286  30.096  1.00  0.00    -0.366 N 
HETATM   17  C15 UNL     1      34.781  26.447  31.055  1.00  0.00     0.091 A 
HETATM   18  C16 UNL     1      35.952  25.740  30.965  1.00  0.00     0.024 A 
HETATM   19  C17 UNL     1      36.788  25.893  29.873  1.00  0.00    -0.052 A 
HETATM   20  C23 UNL     1      36.397  26.773  28.893  1.00  0.00     0.024 A 
HETATM   21  C24 UNL     1      35.216  27.463  29.016  1.00  0.00     0.091 A 
BRANCH  19  22
HETATM   22  C18 UNL     1      38.044  25.152  29.742  1.00  0.00     0.085 C 
BRANCH  22  23
HETATM   23  C19 UNL     1      37.734  23.657  29.671  1.00  0.00     0.188 A 
HETATM   24  N2  UNL     1      38.917  22.948  29.270  1.00  0.00    -0.368 N 
HETATM   25  C20 UNL     1      38.791  22.396  28.135  1.00  0.00     0.071 A 
ATOM     26  H2  UNL     1      39.765  22.893  29.835  1.00  0.00     0.161 HD
HETATM   27  C21 UNL     1      39.808  21.602  27.436  1.00  0.00     0.074 C 
HETATM   28  C22 UNL     1      37.426  22.651  27.648  1.00  0.00     0.265 A 
HETATM   29  O4  UNL     1      36.956  22.250  26.540  1.00  0.00    -0.266 OA
HETATM   30  N3  UNL     1      36.777  23.407  28.628  1.00  0.00    -0.335 N 
ATOM     31  H3  UNL     1      35.807  23.722  28.607  1.00  0.00     0.164 HD
ENDBRANCH  22  23
ENDBRANCH  19  22
ENDBRANCH  15  16
ENDBRANCH  13  15
ENDBRANCH  11  13
ENDBRANCH  10  11
ENDBRANCH   5  10
BRANCH   3  32
HETATM   32  O1  UNL     1      33.882  32.978  26.057  1.00  0.00    -0.387 OA
ATOM     33  H1  UNL     1      33.437  33.188  25.245  1.00  0.00     0.210 HD
ENDBRANCH   3  32
BRANCH   1  34
HETATM   34  C5  UNL     1      36.475  34.014  23.732  1.00  0.00     0.090 C 
BRANCH  34  35
HETATM   35  C4  UNL     1      37.199  35.017  23.379  1.00  0.00    -0.156 C 
BRANCH  35  36
HETATM   36  C3  UNL     1      37.920  36.107  23.048  1.00  0.00     0.046 C 
HETATM   37  C2  UNL     1      39.162  36.274  22.598  1.00  0.00    -0.023 C 
HETATM   38  C1  UNL     1      40.176  35.282  22.303  1.00  0.00     0.036 C 
ENDBRANCH  35  36
ENDBRANCH  34  35
ENDBRANCH   1  34
BRANCH   9  39
HETATM   39  C28 UNL     1      38.545  32.382  25.730  1.00  0.00     0.010 A 
HETATM   40  C29 UNL     1      39.394  31.218  26.154  1.00  0.00    -0.036 A 
HETATM   41  C30 UNL     1      39.999  31.293  27.538  1.00  0.00     0.016 C 
HETATM   42  C31 UNL     1      39.220  29.823  25.651  1.00  0.00     0.016 C 
HETATM   43  C32 UNL     1      39.836  32.214  25.108  1.00  0.00    -0.036 A 
HETATM   44  C33 UNL     1      40.012  31.795  23.667  1.00  0.00     0.016 C 
HETATM   45  C34 UNL     1      41.007  33.072  25.576  1.00  0.00     0.016 C 
ENDBRANCH   9  39
TORSDOF 12
ENDMDL
MODEL 5
REMARK VINA RESULT: -9.165095876      1.870      3.513
REMARK  12 active torsions:
REMARK  status: ('A' for Active; 'I' for Inactive)
REMARK    1  A    between atoms: C3_3  and  C4_4 
REMARK    2  A    between atoms: C4_4  and  C5_5 
REMARK    3  A    between atoms: C5_5  and  C6_6 
REMARK    4  A    between atoms: C8_8  and  O1_9 
REMARK    5  A    between atoms: C10_12  and  O2_13 
REMARK    6  A    between atoms: O2_13  and  C11_14 
REMARK    7  A    between atoms: C11_14  and  C12_16 
REMARK    8  A    between atoms: C12_16  and  C14_18 
REMARK    9  A    between atoms: C14_18  and  N1_19 
REMARK   10  A    between atoms: C17_22  and  C18_23 
REMARK   11  A    between atoms: C18_23  and  C19_24 
REMARK   12  A    between atoms: C27_38  and  C28_39 
ROOT
HETATM    1  C6  UNL     1      35.527  31.962  25.355  1.00  0.00     0.006 C 
HETATM    2  C7  UNL     1      36.095  31.182  26.570  1.00  0.00     0.046 C 
HETATM    3  C8  UNL     1      34.984  31.233  27.578  1.00  0.00     0.087 C 
HETATM    4  C9  UNL     1      35.456  31.813  28.905  1.00  0.00     0.075 C 
HETATM    5  C10 UNL     1      34.284  32.021  29.841  1.00  0.00     0.158 C 
HETATM    6  C25 UNL     1      33.006  32.123  29.076  1.00  0.00     0.200 C 
HETATM    7  O5  UNL     1      33.285  32.884  27.908  1.00  0.00    -0.380 OA
HETATM    8  C26 UNL     1      33.929  32.145  26.968  1.00  0.00     0.160 C 
HETATM    9  C27 UNL     1      34.836  33.033  26.046  1.00  0.00     0.028 C 
ENDROOT
BRANCH   5  10
HETATM   10  O2  UNL     1      34.299  31.060  30.870  1.00  0.00    -0.313 OA
BRANCH  10  11
HETATM   11  C11 UNL     1      33.460  29.938  30.862  1.00  0.00     0.264 C 
HETATM   12  O3  UNL     1      32.466  29.954  30.183  1.00  0.00    -0.265 OA
BRANCH  11  13
HETATM   13  C12 UNL     1      33.872  28.815  31.715  1.00  0.00     0.100 C 
HETATM   14  C13 UNL     1      33.513  28.965  33.154  1.00  0.00     0.022 C 
BRANCH  13  15
HETATM   15  C14 UNL     1      33.457  27.455  31.186  1.00  0.00     0.142 C 
BRANCH  15  16
HETATM   16  N1  UNL     1      34.640  26.710  30.756  1.00  0.00    -0.366 N 
HETATM   17  C15 UNL     1      35.264  25.844  31.536  1.00  0.00     0.091 A 
HETATM   18  C16 UNL     1      36.391  25.201  31.096  1.00  0.00     0.024 A 
HETATM   19  C17 UNL     1      36.897  25.445  29.831  1.00  0.00    -0.052 A 
HETATM   20  C23 UNL     1      36.227  26.351  29.045  1.00  0.00     0.024 A 
HETATM   21  C24 UNL     1      35.099  26.976  29.518  1.00  0.00     0.091 A 
BRANCH  19  22
HETATM   22  C18 UNL     1      38.096  24.774  29.327  1.00  0.00     0.085 C 
BRANCH  22  23
HETATM   23  C19 UNL     1      37.843  23.268  29.287  1.00  0.00     0.188 A 
HETATM   24  N2  UNL     1      39.049  22.595  28.892  1.00  0.00    -0.368 N 
HETATM   25  C20 UNL     1      38.937  22.018  27.769  1.00  0.00     0.071 A 
ATOM     26  H2  UNL     1      39.901  22.584  29.452  1.00  0.00     0.161 HD
HETATM   27  C21 UNL     1      39.980  21.249  27.079  1.00  0.00     0.074 C 
HETATM   28  C22 UNL     1      37.561  22.211  27.285  1.00  0.00     0.265 A 
HETATM   29  O4  UNL     1      37.100  21.771  26.189  1.00  0.00    -0.266 OA
HETATM   30  N3  UNL     1      36.889  22.961  28.255  1.00  0.00    -0.335 N 
ATOM     31  H3  UNL     1      35.908  23.239  28.234  1.00  0.00     0.164 HD
ENDBRANCH  22  23
ENDBRANCH  19  22
ENDBRANCH  15  16
ENDBRANCH  13  15
ENDBRANCH  11  13
ENDBRANCH  10  11
ENDBRANCH   5  10
BRANCH   3  32
HETATM   32  O1  UNL     1      34.466  29.954  27.725  1.00  0.00    -0.387 OA
ATOM     33  H1  UNL     1      34.985  29.492  28.372  1.00  0.00     0.210 HD
ENDBRANCH   3  32
BRANCH   1  34
HETATM   34  C5  UNL     1      35.077  31.092  24.328  1.00  0.00     0.090 C 
BRANCH  34  35
HETATM   35  C4  UNL     1      34.317  31.024  23.293  1.00  0.00    -0.156 C 
BRANCH  35  36
HETATM   36  C3  UNL     1      33.531  30.886  22.207  1.00  0.00     0.046 C 
HETATM   37  C2  UNL     1      33.475  29.979  21.233  1.00  0.00    -0.023 C 
HETATM   38  C1  UNL     1      34.282  28.792  21.032  1.00  0.00     0.036 C 
ENDBRANCH  35  36
ENDBRANCH  34  35
ENDBRANCH   1  34
BRANCH   9  39
HETATM   39  C28 UNL     1      33.985  34.025  25.400  1.00  0.00     0.010 A 
HETATM   40  C29 UNL     1      34.409  35.456  25.566  1.00  0.00    -0.036 A 
HETATM   41  C30 UNL     1      33.375  36.404  26.131  1.00  0.00     0.016 C 
HETATM   42  C31 UNL     1      35.817  35.893  25.804  1.00  0.00     0.016 C 
HETATM   43  C32 UNL     1      34.165  34.828  24.215  1.00  0.00    -0.036 A 
HETATM   44  C33 UNL     1      35.302  34.623  23.241  1.00  0.00     0.016 C 
HETATM   45  C34 UNL     1      32.940  35.407  23.513  1.00  0.00     0.016 C 
ENDBRANCH   9  39
TORSDOF 12
ENDMDL
