MODEL 1
REMARK VINA RESULT: -8.570260287      0.000      0.000
REMARK  13 active torsions:
REMARK  status: ('A' for Active; 'I' for Inactive)
REMARK    1  A    between atoms: C2_2  and  C3_3 
REMARK    2  A    between atoms: C3_3  and  C4_4 
REMARK       I    between atoms: C4_4  and  N1_6 
REMARK    3  A    between atoms: N1_6  and  C5_8 
REMARK    4  A    between atoms: C8_13  and  C9_14 
REMARK    5  A    between atoms: C9_14  and  C10_15 
REMARK    6  A    between atoms: C10_15  and  C11_16 
REMARK    7  A    between atoms: C11_16  and  C12_17 
REMARK    8  A    between atoms: C12_17  and  C13_18 
REMARK    9  A    between atoms: C14_23  and  N5_24 
REMARK       I    between atoms: N5_24  and  C15_26 
REMARK   10  A    between atoms: C15_26  and  C16_28 
REMARK   11  A    between atoms: C16_28  and  C17_29 
REMARK   12  A    between atoms: C16_28  and  C24_36 
REMARK   13  A    between atoms: C28_42  and  C29_43 
ROOT
HETATM    1  C13 UNL     1      34.206  33.243  24.808  1.00  0.00     0.058 A 
HETATM    2  N3  UNL     1      34.912  32.174  24.306  1.00  0.00    -0.288 N 
ATOM      3  H3  UNL     1      35.236  32.217  23.340  1.00  0.00     0.187 HD
HETATM    4  N4  UNL     1      35.189  31.098  25.014  1.00  0.00    -0.132 N 
ATOM      5  H4  UNL     1      35.717  30.342  24.578  1.00  0.00     0.205 HD
HETATM    6  C14 UNL     1      34.799  30.967  26.284  1.00  0.00     0.700 A 
HETATM    7  N6  UNL     1      34.107  32.018  26.778  1.00  0.00    -0.183 N 
ATOM      8  H6  UNL     1      33.793  31.954  27.746  1.00  0.00     0.184 HD
HETATM    9  C28 UNL     1      33.793  33.153  26.099  1.00  0.00     0.138 A 
ENDROOT
BRANCH   1  10
HETATM   10  C12 UNL     1      33.897  34.374  23.906  1.00  0.00     0.061 C 
BRANCH  10  11
HETATM   11  C11 UNL     1      35.186  34.907  23.334  1.00  0.00     0.006 C 
BRANCH  11  12
HETATM   12  C10 UNL     1      35.897  35.833  24.273  1.00  0.00     0.006 C 
BRANCH  12  13
HETATM   13  C9  UNL     1      37.276  36.125  23.667  1.00  0.00     0.048 C 
BRANCH  13  14
HETATM   14  C8  UNL     1      38.055  34.839  23.816  1.00  0.00     0.008 A 
HETATM   15  C6  UNL     1      38.952  34.294  22.932  1.00  0.00     0.020 A 
HETATM   16  N2  UNL     1      39.522  33.170  23.264  1.00  0.00    -0.339 N 
HETATM   17  C7  UNL     1      39.229  35.014  21.618  1.00  0.00     0.069 C 
HETATM   18  C5  UNL     1      39.210  32.615  24.432  1.00  0.00     0.151 A 
ATOM     19  H2  UNL     1      40.195  32.725  22.641  1.00  0.00     0.168 HD
HETATM   20  S1  UNL     1      38.075  33.705  25.089  1.00  0.00    -0.057 SA
BRANCH  18  21
HETATM   21  N1  UNL     1      39.682  31.491  24.940  1.00  0.00    -0.307 N 
HETATM   22  C4  UNL     1      38.764  30.510  25.343  1.00  0.00     0.223 C 
HETATM   23  O1  UNL     1      38.107  29.901  24.468  1.00  0.00    -0.273 OA
ATOM     24  H1  UNL     1      40.686  31.340  25.037  1.00  0.00     0.171 HD
BRANCH  22  25
HETATM   25  C3  UNL     1      38.589  30.216  26.781  1.00  0.00     0.103 C 
BRANCH  25  26
HETATM   26  C2  UNL     1      39.588  29.150  27.176  1.00  0.00     0.005 C 
HETATM   27  C1  UNL     1      39.916  29.309  28.639  1.00  0.00     0.005 C 
ENDBRANCH  25  26
ENDBRANCH  22  25
ENDBRANCH  18  21
ENDBRANCH  13  14
ENDBRANCH  12  13
ENDBRANCH  11  12
ENDBRANCH  10  11
ENDBRANCH   1  10
BRANCH   9  28
HETATM   28  C29 UNL     1      33.088  34.210  26.784  1.00  0.00     0.284 C 
HETATM   29  N7  UNL     1      31.721  34.391  26.883  1.00  0.00    -0.056 NA
HETATM   30  O3  UNL     1      33.815  35.100  27.372  1.00  0.00    -0.269 OA
ENDBRANCH   9  28
BRANCH   6  31
HETATM   31  N5  UNL     1      35.038  29.940  26.963  1.00  0.00    -0.158 N 
HETATM   32  C15 UNL     1      35.243  29.773  28.294  1.00  0.00     0.241 C 
HETATM   33  O2  UNL     1      35.899  30.610  29.020  1.00  0.00    -0.272 OA
ATOM     34  H5  UNL     1      35.087  29.079  26.419  1.00  0.00     0.187 HD
BRANCH  32  35
HETATM   35  C16 UNL     1      34.731  28.582  29.096  1.00  0.00     0.090 C 
BRANCH  35  36
HETATM   36  C17 UNL     1      35.932  28.074  29.815  1.00  0.00     0.003 C 
HETATM   37  C18 UNL     1      35.781  27.192  30.970  1.00  0.00     0.006 C 
HETATM   38  C19 UNL     1      35.666  25.702  30.650  1.00  0.00     0.005 C 
HETATM   39  C20 UNL     1      36.617  25.376  29.534  1.00  0.00    -0.014 C 
HETATM   40  C21 UNL     1      36.033  26.057  28.287  1.00  0.00     0.010 C 
HETATM   41  C23 UNL     1      37.750  26.390  29.400  1.00  0.00     0.010 C 
HETATM   42  C22 UNL     1      36.743  27.311  28.746  1.00  0.00    -0.009 C 
ENDBRANCH  35  36
BRANCH  35  43
HETATM   43  C24 UNL     1      33.615  29.134  29.934  1.00  0.00    -0.039 C 
HETATM   44  C25 UNL     1      32.697  27.922  30.197  1.00  0.00     0.015 C 
HETATM   45  C26 UNL     1      34.065  29.519  31.342  1.00  0.00     0.015 C 
HETATM   46  C27 UNL     1      32.780  30.190  29.300  1.00  0.00     0.015 C 
ENDBRANCH  35  43
ENDBRANCH  32  35
ENDBRANCH   6  31
TORSDOF 13
ENDMDL
MODEL 2
REMARK VINA RESULT: -8.476109613      5.262      9.446
REMARK  13 active torsions:
REMARK  status: ('A' for Active; 'I' for Inactive)
REMARK    1  A    between atoms: C2_2  and  C3_3 
REMARK    2  A    between atoms: C3_3  and  C4_4 
REMARK       I    between atoms: C4_4  and  N1_6 
REMARK    3  A    between atoms: N1_6  and  C5_8 
REMARK    4  A    between atoms: C8_13  and  C9_14 
REMARK    5  A    between atoms: C9_14  and  C10_15 
REMARK    6  A    between atoms: C10_15  and  C11_16 
REMARK    7  A    between atoms: C11_16  and  C12_17 
REMARK    8  A    between atoms: C12_17  and  C13_18 
REMARK    9  A    between atoms: C14_23  and  N5_24 
REMARK       I    between atoms: N5_24  and  C15_26 
REMARK   10  A    between atoms: C15_26  and  C16_28 
REMARK   11  A    between atoms: C16_28  and  C17_29 
REMARK   12  A    between atoms: C16_28  and  C24_36 
REMARK   13  A    between atoms: C28_42  and  C29_43 
ROOT
HETATM    1  C13 UNL     1      36.106  26.669  30.328  1.00  0.00     0.058 A 
HETATM    2  N3  UNL     1      36.742  27.394  29.347  1.00  0.00    -0.288 N 
ATOM      3  H3  UNL     1      37.557  26.984  28.891  1.00  0.00     0.187 HD
HETATM    4  N4  UNL     1      36.349  28.593  28.968  1.00  0.00    -0.132 N 
ATOM      5  H4  UNL     1      36.868  29.074  28.234  1.00  0.00     0.205 HD
HETATM    6  C14 UNL     1      35.291  29.196  29.517  1.00  0.00     0.700 A 
HETATM    7  N6  UNL     1      34.665  28.482  30.479  1.00  0.00    -0.183 N 
ATOM      8  H6  UNL     1      33.852  28.911  30.920  1.00  0.00     0.184 HD
HETATM    9  C28 UNL     1      35.023  27.244  30.911  1.00  0.00     0.138 A 
ENDROOT
BRANCH   1  10
HETATM   10  C12 UNL     1      36.671  25.359  30.718  1.00  0.00     0.061 C 
BRANCH  10  11
HETATM   11  C11 UNL     1      37.927  25.112  29.922  1.00  0.00     0.006 C 
BRANCH  11  12
HETATM   12  C10 UNL     1      38.186  23.656  29.686  1.00  0.00     0.006 C 
BRANCH  12  13
HETATM   13  C9  UNL     1      37.067  23.136  28.774  1.00  0.00     0.048 C 
BRANCH  13  14
HETATM   14  C8  UNL     1      37.723  22.098  27.893  1.00  0.00     0.008 A 
HETATM   15  C6  UNL     1      37.852  20.754  28.134  1.00  0.00     0.020 A 
HETATM   16  N2  UNL     1      38.452  20.032  27.230  1.00  0.00    -0.339 N 
HETATM   17  C7  UNL     1      37.300  20.177  29.432  1.00  0.00     0.069 C 
HETATM   18  C5  UNL     1      38.904  20.628  26.131  1.00  0.00     0.151 A 
ATOM     19  H2  UNL     1      38.572  19.028  27.363  1.00  0.00     0.168 HD
HETATM   20  S1  UNL     1      38.475  22.261  26.372  1.00  0.00    -0.057 SA
BRANCH  18  21
HETATM   21  N1  UNL     1      39.529  20.070  25.111  1.00  0.00    -0.307 N 
HETATM   22  C4  UNL     1      40.521  19.117  25.383  1.00  0.00     0.223 C 
HETATM   23  O1  UNL     1      40.180  18.006  25.851  1.00  0.00    -0.273 OA
ATOM     24  H1  UNL     1      39.297  20.325  24.151  1.00  0.00     0.171 HD
BRANCH  22  25
HETATM   25  C3  UNL     1      41.939  19.438  25.117  1.00  0.00     0.103 C 
BRANCH  25  26
HETATM   26  C2  UNL     1      42.668  19.519  26.442  1.00  0.00     0.005 C 
HETATM   27  C1  UNL     1      42.530  20.919  26.987  1.00  0.00     0.005 C 
ENDBRANCH  25  26
ENDBRANCH  22  25
ENDBRANCH  18  21
ENDBRANCH  13  14
ENDBRANCH  12  13
ENDBRANCH  11  12
ENDBRANCH  10  11
ENDBRANCH   1  10
BRANCH   9  28
HETATM   28  C29 UNL     1      34.219  26.591  31.916  1.00  0.00     0.284 C 
HETATM   29  N7  UNL     1      33.648  25.333  31.858  1.00  0.00    -0.056 NA
HETATM   30  O3  UNL     1      33.997  27.257  32.999  1.00  0.00    -0.269 OA
ENDBRANCH   9  28
BRANCH   6  31
HETATM   31  N5  UNL     1      34.917  30.345  29.180  1.00  0.00    -0.158 N 
HETATM   32  C15 UNL     1      35.618  31.480  28.936  1.00  0.00     0.241 C 
HETATM   33  O2  UNL     1      36.653  31.835  29.617  1.00  0.00    -0.272 OA
ATOM     34  H5  UNL     1      33.908  30.443  29.070  1.00  0.00     0.187 HD
BRANCH  32  35
HETATM   35  C16 UNL     1      35.276  32.477  27.835  1.00  0.00     0.090 C 
BRANCH  35  36
HETATM   36  C17 UNL     1      35.221  31.656  26.594  1.00  0.00     0.003 C 
HETATM   37  C18 UNL     1      34.465  32.122  25.434  1.00  0.00     0.006 C 
HETATM   38  C19 UNL     1      35.226  33.041  24.479  1.00  0.00     0.005 C 
HETATM   39  C20 UNL     1      36.634  32.533  24.344  1.00  0.00    -0.014 C 
HETATM   40  C21 UNL     1      37.296  32.802  25.704  1.00  0.00     0.010 C 
HETATM   41  C23 UNL     1      36.774  31.058  24.711  1.00  0.00     0.010 C 
HETATM   42  C22 UNL     1      36.693  31.492  26.158  1.00  0.00    -0.009 C 
ENDBRANCH  35  36
BRANCH  35  43
HETATM   43  C24 UNL     1      33.999  33.124  28.284  1.00  0.00    -0.039 C 
HETATM   44  C25 UNL     1      34.294  33.598  29.723  1.00  0.00     0.015 C 
HETATM   45  C26 UNL     1      33.712  34.437  27.558  1.00  0.00     0.015 C 
HETATM   46  C27 UNL     1      32.804  32.241  28.346  1.00  0.00     0.015 C 
ENDBRANCH  35  43
ENDBRANCH  32  35
ENDBRANCH   6  31
TORSDOF 13
ENDMDL
MODEL 3
REMARK VINA RESULT: -8.285318024      1.352      1.485
REMARK  13 active torsions:
REMARK  status: ('A' for Active; 'I' for Inactive)
REMARK    1  A    between atoms: C2_2  and  C3_3 
REMARK    2  A    between atoms: C3_3  and  C4_4 
REMARK       I    between atoms: C4_4  and  N1_6 
REMARK    3  A    between atoms: N1_6  and  C5_8 
REMARK    4  A    between atoms: C8_13  and  C9_14 
REMARK    5  A    between atoms: C9_14  and  C10_15 
REMARK    6  A    between atoms: C10_15  and  C11_16 
REMARK    7  A    between atoms: C11_16  and  C12_17 
REMARK    8  A    between atoms: C12_17  and  C13_18 
REMARK    9  A    between atoms: C14_23  and  N5_24 
REMARK       I    between atoms: N5_24  and  C15_26 
REMARK   10  A    between atoms: C15_26  and  C16_28 
REMARK   11  A    between atoms: C16_28  and  C17_29 
REMARK   12  A    between atoms: C16_28  and  C24_36 
REMARK   13  A    between atoms: C28_42  and  C29_43 
ROOT
HETATM    1  C13 UNL     1      35.151  34.087  26.099  1.00  0.00     0.058 A 
HETATM    2  N3  UNL     1      36.344  33.460  26.377  1.00  0.00    -0.288 N 
ATOM      3  H3  UNL     1      37.210  33.979  26.234  1.00  0.00     0.187 HD
HETATM    4  N4  UNL     1      36.420  32.221  26.818  1.00  0.00    -0.132 N 
ATOM      5  H4  UNL     1      37.339  31.818  27.003  1.00  0.00     0.205 HD
HETATM    6  C14 UNL     1      35.331  31.477  27.030  1.00  0.00     0.700 A 
HETATM    7  N6  UNL     1      34.160  32.095  26.759  1.00  0.00    -0.183 N 
ATOM      8  H6  UNL     1      33.306  31.558  26.910  1.00  0.00     0.184 HD
HETATM    9  C28 UNL     1      34.018  33.367  26.304  1.00  0.00     0.138 A 
ENDROOT
BRANCH   1  10
HETATM   10  C12 UNL     1      35.184  35.460  25.548  1.00  0.00     0.061 C 
BRANCH  10  11
HETATM   11  C11 UNL     1      35.652  35.399  24.117  1.00  0.00     0.006 C 
BRANCH  11  12
HETATM   12  C10 UNL     1      37.002  36.018  23.922  1.00  0.00     0.006 C 
BRANCH  12  13
HETATM   13  C9  UNL     1      37.621  35.378  22.673  1.00  0.00     0.048 C 
BRANCH  13  14
HETATM   14  C8  UNL     1      38.750  34.516  23.188  1.00  0.00     0.008 A 
HETATM   15  C6  UNL     1      40.075  34.851  23.306  1.00  0.00     0.020 A 
HETATM   16  N2  UNL     1      40.886  33.951  23.785  1.00  0.00    -0.339 N 
HETATM   17  C7  UNL     1      40.530  36.238  22.871  1.00  0.00     0.069 C 
HETATM   18  C5  UNL     1      40.394  32.765  24.132  1.00  0.00     0.151 A 
ATOM     19  H2  UNL     1      41.880  34.152  23.891  1.00  0.00     0.168 HD
HETATM   20  S1  UNL     1      38.734  32.915  23.774  1.00  0.00    -0.057 SA
BRANCH  18  21
HETATM   21  N1  UNL     1      41.052  31.736  24.635  1.00  0.00    -0.307 N 
HETATM   22  C4  UNL     1      40.865  30.479  24.044  1.00  0.00     0.223 C 
HETATM   23  O1  UNL     1      41.321  30.277  22.895  1.00  0.00    -0.273 OA
ATOM     24  H1  UNL     1      41.679  31.853  25.431  1.00  0.00     0.171 HD
BRANCH  22  25
HETATM   25  C3  UNL     1      40.139  29.423  24.781  1.00  0.00     0.103 C 
BRANCH  25  26
HETATM   26  C2  UNL     1      40.247  29.713  26.263  1.00  0.00     0.005 C 
HETATM   27  C1  UNL     1      38.909  29.456  26.908  1.00  0.00     0.005 C 
ENDBRANCH  25  26
ENDBRANCH  22  25
ENDBRANCH  18  21
ENDBRANCH  13  14
ENDBRANCH  12  13
ENDBRANCH  11  12
ENDBRANCH  10  11
ENDBRANCH   1  10
BRANCH   9  28
HETATM   28  C29 UNL     1      32.690  33.901  26.109  1.00  0.00     0.284 C 
HETATM   29  N7  UNL     1      32.105  34.303  24.923  1.00  0.00    -0.056 NA
HETATM   30  O3  UNL     1      31.959  34.025  27.165  1.00  0.00    -0.269 OA
ENDBRANCH   9  28
BRANCH   6  31
HETATM   31  N5  UNL     1      35.390  30.290  27.431  1.00  0.00    -0.158 N 
HETATM   32  C15 UNL     1      35.645  29.771  28.657  1.00  0.00     0.241 C 
HETATM   33  O2  UNL     1      36.514  30.264  29.470  1.00  0.00    -0.272 OA
ATOM     34  H5  UNL     1      35.215  29.593  26.707  1.00  0.00     0.187 HD
BRANCH  32  35
HETATM   35  C16 UNL     1      34.944  28.543  29.229  1.00  0.00     0.090 C 
BRANCH  35  36
HETATM   36  C17 UNL     1      36.000  27.845  30.013  1.00  0.00     0.003 C 
HETATM   37  C18 UNL     1      35.633  26.889  31.056  1.00  0.00     0.006 C 
HETATM   38  C19 UNL     1      35.403  25.454  30.583  1.00  0.00     0.005 C 
HETATM   39  C20 UNL     1      36.435  25.121  29.542  1.00  0.00    -0.014 C 
HETATM   40  C21 UNL     1      36.065  25.967  28.315  1.00  0.00     0.010 C 
HETATM   41  C23 UNL     1      37.673  26.011  29.623  1.00  0.00     0.010 C 
HETATM   42  C22 UNL     1      36.843  27.090  28.963  1.00  0.00    -0.009 C 
ENDBRANCH  35  36
BRANCH  35  43
HETATM   43  C24 UNL     1      33.774  29.089  29.993  1.00  0.00    -0.039 C 
HETATM   44  C25 UNL     1      32.822  27.884  30.151  1.00  0.00     0.015 C 
HETATM   45  C26 UNL     1      34.118  29.430  31.442  1.00  0.00     0.015 C 
HETATM   46  C27 UNL     1      33.005  30.174  29.326  1.00  0.00     0.015 C 
ENDBRANCH  35  43
ENDBRANCH  32  35
ENDBRANCH   6  31
TORSDOF 13
ENDMDL
MODEL 4
REMARK VINA RESULT: -8.170854109      1.667      2.140
REMARK  13 active torsions:
REMARK  status: ('A' for Active; 'I' for Inactive)
REMARK    1  A    between atoms: C2_2  and  C3_3 
REMARK    2  A    between atoms: C3_3  and  C4_4 
REMARK       I    between atoms: C4_4  and  N1_6 
REMARK    3  A    between atoms: N1_6  and  C5_8 
REMARK    4  A    between atoms: C8_13  and  C9_14 
REMARK    5  A    between atoms: C9_14  and  C10_15 
REMARK    6  A    between atoms: C10_15  and  C11_16 
REMARK    7  A    between atoms: C11_16  and  C12_17 
REMARK    8  A    between atoms: C12_17  and  C13_18 
REMARK    9  A    between atoms: C14_23  and  N5_24 
REMARK       I    between atoms: N5_24  and  C15_26 
REMARK   10  A    between atoms: C15_26  and  C16_28 
REMARK   11  A    between atoms: C16_28  and  C17_29 
REMARK   12  A    between atoms: C16_28  and  C24_36 
REMARK   13  A    between atoms: C28_42  and  C29_43 
ROOT
HETATM    1  C13 UNL     1      35.931  33.567  25.336  1.00  0.00     0.058 A 
HETATM    2  N3  UNL     1      36.942  33.115  26.154  1.00  0.00    -0.288 N 
ATOM      3  H3  UNL     1      37.758  33.711  26.291  1.00  0.00     0.187 HD
HETATM    4  N4  UNL     1      36.905  31.950  26.767  1.00  0.00    -0.132 N 
ATOM      5  H4  UNL     1      37.690  31.678  27.358  1.00  0.00     0.205 HD
HETATM    6  C14 UNL     1      35.871  31.114  26.637  1.00  0.00     0.700 A 
HETATM    7  N6  UNL     1      34.877  31.560  25.836  1.00  0.00    -0.183 N 
ATOM      8  H6  UNL     1      34.070  30.949  25.713  1.00  0.00     0.184 HD
HETATM    9  C28 UNL     1      34.858  32.750  25.179  1.00  0.00     0.138 A 
ENDROOT
BRANCH   1  10
HETATM   10  C12 UNL     1      36.104  34.865  24.648  1.00  0.00     0.061 C 
BRANCH  10  11
HETATM   11  C11 UNL     1      37.008  34.668  23.457  1.00  0.00     0.006 C 
BRANCH  11  12
HETATM   12  C10 UNL     1      38.430  35.044  23.742  1.00  0.00     0.006 C 
BRANCH  12  13
HETATM   13  C9  UNL     1      39.323  34.087  22.942  1.00  0.00     0.048 C 
BRANCH  13  14
HETATM   14  C8  UNL     1      39.871  33.113  23.959  1.00  0.00     0.008 A 
HETATM   15  C6  UNL     1      40.731  33.376  24.994  1.00  0.00     0.020 A 
HETATM   16  N2  UNL     1      41.074  32.381  25.763  1.00  0.00    -0.339 N 
HETATM   17  C7  UNL     1      41.244  34.797  25.189  1.00  0.00     0.069 C 
HETATM   18  C5  UNL     1      40.577  31.174  25.509  1.00  0.00     0.151 A 
ATOM     19  H2  UNL     1      41.711  32.526  26.546  1.00  0.00     0.168 HD
HETATM   20  S1  UNL     1      39.594  31.440  24.141  1.00  0.00    -0.057 SA
BRANCH  18  21
HETATM   21  N1  UNL     1      40.802  30.055  26.172  1.00  0.00    -0.307 N 
HETATM   22  C4  UNL     1      39.901  29.691  27.183  1.00  0.00     0.223 C 
HETATM   23  O1  UNL     1      38.745  29.331  26.861  1.00  0.00    -0.273 OA
ATOM     24  H1  UNL     1      41.610  29.470  25.954  1.00  0.00     0.171 HD
BRANCH  22  25
HETATM   25  C3  UNL     1      40.328  29.740  28.597  1.00  0.00     0.103 C 
BRANCH  25  26
HETATM   26  C2  UNL     1      39.913  31.076  29.176  1.00  0.00     0.005 C 
HETATM   27  C1  UNL     1      41.151  31.844  29.562  1.00  0.00     0.005 C 
ENDBRANCH  25  26
ENDBRANCH  22  25
ENDBRANCH  18  21
ENDBRANCH  13  14
ENDBRANCH  12  13
ENDBRANCH  11  12
ENDBRANCH  10  11
ENDBRANCH   1  10
BRANCH   9  28
HETATM   28  C29 UNL     1      33.697  33.103  24.398  1.00  0.00     0.284 C 
HETATM   29  N7  UNL     1      32.622  33.883  24.783  1.00  0.00    -0.056 NA
HETATM   30  O3  UNL     1      33.645  32.632  23.197  1.00  0.00    -0.269 OA
ENDBRANCH   9  28
BRANCH   6  31
HETATM   31  N5  UNL     1      35.831  29.994  27.199  1.00  0.00    -0.158 N 
HETATM   32  C15 UNL     1      35.879  29.647  28.509  1.00  0.00     0.241 C 
HETATM   33  O2  UNL     1      36.628  30.240  29.373  1.00  0.00    -0.272 OA
ATOM     34  H5  UNL     1      35.749  29.205  26.558  1.00  0.00     0.187 HD
BRANCH  32  35
HETATM   35  C16 UNL     1      35.062  28.517  29.125  1.00  0.00     0.090 C 
BRANCH  35  36
HETATM   36  C17 UNL     1      36.024  27.802  30.010  1.00  0.00     0.003 C 
HETATM   37  C18 UNL     1      35.538  26.896  31.048  1.00  0.00     0.006 C 
HETATM   38  C19 UNL     1      35.285  25.457  30.600  1.00  0.00     0.005 C 
HETATM   39  C20 UNL     1      36.379  25.050  29.654  1.00  0.00    -0.014 C 
HETATM   40  C21 UNL     1      36.140  25.870  28.378  1.00  0.00     0.010 C 
HETATM   41  C23 UNL     1      37.643  25.892  29.805  1.00  0.00     0.010 C 
HETATM   42  C22 UNL     1      36.913  26.981  29.051  1.00  0.00    -0.009 C 
ENDBRANCH  35  36
BRANCH  35  43
HETATM   43  C24 UNL     1      33.901  29.198  29.787  1.00  0.00    -0.039 C 
HETATM   44  C25 UNL     1      32.888  28.063  30.051  1.00  0.00     0.015 C 
HETATM   45  C26 UNL     1      34.225  29.685  31.199  1.00  0.00     0.015 C 
HETATM   46  C27 UNL     1      33.202  30.234  28.980  1.00  0.00     0.015 C 
ENDBRANCH  35  43
ENDBRANCH  32  35
ENDBRANCH   6  31
TORSDOF 13
ENDMDL
MODEL 5
REMARK VINA RESULT: -8.128644761      4.125      9.167
REMARK  13 active torsions:
REMARK  status: ('A' for Active; 'I' for Inactive)
REMARK    1  A    between atoms: C2_2  and  C3_3 
REMARK    2  A    between atoms: C3_3  and  C4_4 
REMARK       I    between atoms: C4_4  and  N1_6 
REMARK    3  A    between atoms: N1_6  and  C5_8 
REMARK    4  A    between atoms: C8_13  and  C9_14 
REMARK    5  A    between atoms: C9_14  and  C10_15 
REMARK    6  A    between atoms: C10_15  and  C11_16 
REMARK    7  A    between atoms: C11_16  and  C12_17 
REMARK    8  A    between atoms: C12_17  and  C13_18 
REMARK    9  A    between atoms: C14_23  and  N5_24 
REMARK       I    between atoms: N5_24  and  C15_26 
REMARK   10  A    between atoms: C15_26  and  C16_28 
REMARK   11  A    between atoms: C16_28  and  C17_29 
REMARK   12  A    between atoms: C16_28  and  C24_36 
REMARK   13  A    between atoms: C28_42  and  C29_43 
ROOT
HETATM    1  C13 UNL     1      35.876  29.871  28.532  1.00  0.00     0.058 A 
HETATM    2  N3  UNL     1      37.242  30.017  28.450  1.00  0.00    -0.288 N 
ATOM      3  H3  UNL     1      37.824  29.527  29.128  1.00  0.00     0.187 HD
HETATM    4  N4  UNL     1      37.832  30.760  27.536  1.00  0.00    -0.132 N 
ATOM      5  H4  UNL     1      38.850  30.823  27.533  1.00  0.00     0.205 HD
HETATM    6  C14 UNL     1      37.138  31.432  26.614  1.00  0.00     0.700 A 
HETATM    7  N6  UNL     1      35.797  31.287  26.694  1.00  0.00    -0.183 N 
ATOM      8  H6  UNL     1      35.234  31.785  26.005  1.00  0.00     0.184 HD
HETATM    9  C28 UNL     1      35.132  30.536  27.611  1.00  0.00     0.138 A 
ENDROOT
BRANCH   1  10
HETATM   10  C12 UNL     1      35.316  29.063  29.637  1.00  0.00     0.061 C 
BRANCH  10  11
HETATM   11  C11 UNL     1      36.209  27.871  29.870  1.00  0.00     0.006 C 
BRANCH  11  12
HETATM   12  C10 UNL     1      35.962  26.763  28.893  1.00  0.00     0.006 C 
BRANCH  12  13
HETATM   13  C9  UNL     1      35.878  25.458  29.696  1.00  0.00     0.048 C 
BRANCH  13  14
HETATM   14  C8  UNL     1      36.519  24.410  28.817  1.00  0.00     0.008 A 
HETATM   15  C6  UNL     1      37.709  23.758  29.019  1.00  0.00     0.020 A 
HETATM   16  N2  UNL     1      38.075  22.877  28.132  1.00  0.00    -0.339 N 
HETATM   17  C7  UNL     1      38.539  24.096  30.252  1.00  0.00     0.069 C 
HETATM   18  C5  UNL     1      37.285  22.656  27.086  1.00  0.00     0.151 A 
ATOM     19  H2  UNL     1      38.952  22.367  28.238  1.00  0.00     0.168 HD
HETATM   20  S1  UNL     1      35.980  23.721  27.353  1.00  0.00    -0.057 SA
BRANCH  18  21
HETATM   21  N1  UNL     1      37.482  21.807  26.093  1.00  0.00    -0.307 N 
HETATM   22  C4  UNL     1      38.195  20.630  26.360  1.00  0.00     0.223 C 
HETATM   23  O1  UNL     1      37.664  19.751  27.076  1.00  0.00    -0.273 OA
ATOM     24  H1  UNL     1      37.124  22.003  25.157  1.00  0.00     0.171 HD
BRANCH  22  25
HETATM   25  C3  UNL     1      39.550  20.450  25.796  1.00  0.00     0.103 C 
BRANCH  25  26
HETATM   26  C2  UNL     1      40.088  19.114  26.262  1.00  0.00     0.005 C 
HETATM   27  C1  UNL     1      41.056  18.594  25.229  1.00  0.00     0.005 C 
ENDBRANCH  25  26
ENDBRANCH  22  25
ENDBRANCH  18  21
ENDBRANCH  13  14
ENDBRANCH  12  13
ENDBRANCH  11  12
ENDBRANCH  10  11
ENDBRANCH   1  10
BRANCH   9  28
HETATM   28  C29 UNL     1      33.693  30.443  27.533  1.00  0.00     0.284 C 
HETATM   29  N7  UNL     1      32.758  31.304  28.076  1.00  0.00    -0.056 NA
HETATM   30  O3  UNL     1      33.215  29.433  26.886  1.00  0.00    -0.269 OA
ENDBRANCH   9  28
BRANCH   6  31
HETATM   31  N5  UNL     1      37.686  32.158  25.751  1.00  0.00    -0.158 N 
HETATM   32  C15 UNL     1      37.493  32.260  24.412  1.00  0.00     0.241 C 
HETATM   33  O2  UNL     1      37.253  31.250  23.651  1.00  0.00    -0.272 OA
ATOM     34  H5  UNL     1      38.404  32.782  26.120  1.00  0.00     0.187 HD
BRANCH  32  35
HETATM   35  C16 UNL     1      37.536  33.574  23.639  1.00  0.00     0.090 C 
BRANCH  35  36
HETATM   36  C17 UNL     1      36.749  34.523  24.474  1.00  0.00     0.003 C 
HETATM   37  C18 UNL     1      36.581  35.912  24.054  1.00  0.00     0.006 C 
HETATM   38  C19 UNL     1      35.408  36.177  23.111  1.00  0.00     0.005 C 
HETATM   39  C20 UNL     1      34.238  35.347  23.556  1.00  0.00    -0.014 C 
HETATM   40  C21 UNL     1      34.626  33.894  23.245  1.00  0.00     0.010 C 
HETATM   41  C23 UNL     1      34.329  34.923  25.020  1.00  0.00     0.010 C 
HETATM   42  C22 UNL     1      35.343  33.892  24.576  1.00  0.00    -0.009 C 
ENDBRANCH  35  36
BRANCH  35  43
HETATM   43  C24 UNL     1      38.997  33.869  23.462  1.00  0.00    -0.039 C 
HETATM   44  C25 UNL     1      39.076  34.622  22.117  1.00  0.00     0.015 C 
HETATM   45  C26 UNL     1      39.516  34.909  24.453  1.00  0.00     0.015 C 
HETATM   46  C27 UNL     1      39.896  32.688  23.361  1.00  0.00     0.015 C 
ENDBRANCH  35  43
ENDBRANCH  32  35
ENDBRANCH   6  31
TORSDOF 13
ENDMDL
