MODEL 1
REMARK VINA RESULT: -8.132964617      0.000      0.000
REMARK  14 active torsions:
REMARK  status: ('A' for Active; 'I' for Inactive)
REMARK    1  A    between atoms: C2_2  and  N1_3 
REMARK    2  A    between atoms: N1_3  and  C3_4 
REMARK    3  A    between atoms: N1_3  and  C5_6 
REMARK    4  A    between atoms: C5_6  and  C6_7 
REMARK    5  A    between atoms: C6_7  and  N2_8 
REMARK    6  A    between atoms: N2_8  and  C8_10 
REMARK    7  A    between atoms: C8_10  and  O1_11 
REMARK    8  A    between atoms: C8_10  and  C9_13 
REMARK    9  A    between atoms: C12_16  and  O2_17 
REMARK   10  A    between atoms: C20_26  and  O3_27 
REMARK   11  A    between atoms: C21_29  and  C22_30 
REMARK   12  A    between atoms: C22_30  and  O4_32 
REMARK   13  A    between atoms: C22_30  and  C24_34 
REMARK   14  A    between atoms: C24_34  and  O5_35 
ROOT
HETATM    1  C9  UNL     1      35.730  31.772  26.259  1.00  0.00     0.028 C 
HETATM    2  C10 UNL     1      36.405  31.713  24.896  1.00  0.00     0.025 C 
HETATM    3  C11 UNL     1      34.492  30.962  26.080  1.00  0.00     0.050 C 
HETATM    4  C12 UNL     1      33.776  30.518  27.290  1.00  0.00     0.123 C 
HETATM    5  C13 UNL     1      34.589  29.345  27.814  1.00  0.00     0.019 C 
HETATM    6  C14 UNL     1      33.642  28.269  28.138  1.00  0.00     0.008 C 
HETATM    7  C15 UNL     1      33.228  28.220  29.604  1.00  0.00     0.010 C 
HETATM    8  C16 UNL     1      34.285  28.385  30.600  1.00  0.00    -0.031 C 
HETATM    9  C17 UNL     1      33.999  29.660  31.409  1.00  0.00     0.016 C 
HETATM   10  C18 UNL     1      35.646  28.762  29.914  1.00  0.00     0.002 C 
HETATM   11  C19 UNL     1      36.228  27.483  29.463  1.00  0.00     0.038 C 
HETATM   12  C20 UNL     1      35.608  26.464  30.429  1.00  0.00     0.126 C 
HETATM   13  C21 UNL     1      34.777  27.264  31.398  1.00  0.00     0.059 C 
HETATM   14  C26 UNL     1      35.439  29.864  28.930  1.00  0.00     0.005 C 
HETATM   15  C27 UNL     1      36.578  30.722  28.543  1.00  0.00    -0.035 C 
HETATM   16  C28 UNL     1      36.785  31.729  29.691  1.00  0.00     0.016 C 
HETATM   17  C29 UNL     1      37.871  29.864  28.771  1.00  0.00     0.014 C 
HETATM   18  C30 UNL     1      39.119  30.710  28.621  1.00  0.00    -0.018 C 
HETATM   19  C31 UNL     1      40.274  29.697  28.712  1.00  0.00     0.010 C 
HETATM   20  C32 UNL     1      39.242  31.371  27.323  1.00  0.00     0.005 C 
HETATM   21  C33 UNL     1      37.943  32.106  27.038  1.00  0.00     0.007 C 
HETATM   22  C34 UNL     1      36.739  31.209  27.193  1.00  0.00     0.010 C 
ENDROOT
BRANCH   1  23
HETATM   23  C8  UNL     1      35.317  33.170  26.505  1.00  0.00     0.122 C 
BRANCH  23  24
HETATM   24  N2  UNL     1      35.192  34.275  25.677  1.00  0.00    -0.367 N 
HETATM   25  C7  UNL     1      33.866  34.417  24.980  1.00  0.00     0.151 C 
BRANCH  24  26
HETATM   26  C6  UNL     1      36.092  35.339  25.363  1.00  0.00     0.154 C 
BRANCH  26  27
HETATM   27  C5  UNL     1      36.742  35.243  24.022  1.00  0.00     0.292 C 
BRANCH  27  28
HETATM   28  N1  UNL     1      38.145  35.488  23.997  1.00  0.00     0.089 N 
BRANCH  28  29
HETATM   29  C2  UNL     1      38.506  35.810  22.595  1.00  0.00     0.268 C 
HETATM   30  C1  UNL     1      39.660  36.737  22.471  1.00  0.00     0.037 C 
ENDBRANCH  28  29
BRANCH  28  31
HETATM   31  C3  UNL     1      38.981  34.462  24.483  1.00  0.00     0.268 C 
HETATM   32  C4  UNL     1      39.312  33.309  23.601  1.00  0.00     0.037 C 
ENDBRANCH  28  31
ENDBRANCH  27  28
ENDBRANCH  26  27
ENDBRANCH  24  26
ENDBRANCH  23  24
BRANCH  23  33
HETATM   33  O1  UNL     1      34.980  33.480  27.733  1.00  0.00    -0.349 OA
ATOM     34  H1  UNL     1      34.479  32.775  28.126  1.00  0.00     0.219 HD
ENDBRANCH  23  33
ENDBRANCH   1  23
BRANCH   4  35
HETATM   35  O2  UNL     1      33.485  31.479  28.211  1.00  0.00    -0.395 OA
ATOM     36  H2  UNL     1      33.889  31.384  29.065  1.00  0.00     0.210 HD
ENDBRANCH   4  35
BRANCH  13  37
HETATM   37  C22 UNL     1      34.186  26.480  32.427  1.00  0.00     0.082 C 
HETATM   38  C23 UNL     1      34.064  27.098  33.809  1.00  0.00     0.049 C 
BRANCH  37  39
HETATM   39  O4  UNL     1      35.195  25.466  32.702  1.00  0.00    -0.388 OA
ATOM     40  H4  UNL     1      34.745  24.650  32.515  1.00  0.00     0.210 HD
ENDBRANCH  37  39
BRANCH  37  41
HETATM   41  C24 UNL     1      32.985  25.613  32.294  1.00  0.00     0.204 C 
BRANCH  41  42
HETATM   42  O5  UNL     1      33.012  24.386  32.878  1.00  0.00    -0.393 OA
HETATM   43  C25 UNL     1      32.160  24.164  33.909  1.00  0.00     0.201 C 
ENDBRANCH  41  42
ENDBRANCH  37  41
ENDBRANCH  13  37
BRANCH  12  44
HETATM   44  O3  UNL     1      35.016  25.513  29.709  1.00  0.00    -0.395 OA
ATOM     45  H3  UNL     1      34.485  24.985  30.293  1.00  0.00     0.210 HD
ENDBRANCH  12  44
TORSDOF 14
ENDMDL
MODEL 2
REMARK VINA RESULT: -7.864366350      0.688      1.060
REMARK  14 active torsions:
REMARK  status: ('A' for Active; 'I' for Inactive)
REMARK    1  A    between atoms: C2_2  and  N1_3 
REMARK    2  A    between atoms: N1_3  and  C3_4 
REMARK    3  A    between atoms: N1_3  and  C5_6 
REMARK    4  A    between atoms: C5_6  and  C6_7 
REMARK    5  A    between atoms: C6_7  and  N2_8 
REMARK    6  A    between atoms: N2_8  and  C8_10 
REMARK    7  A    between atoms: C8_10  and  O1_11 
REMARK    8  A    between atoms: C8_10  and  C9_13 
REMARK    9  A    between atoms: C12_16  and  O2_17 
REMARK   10  A    between atoms: C20_26  and  O3_27 
REMARK   11  A    between atoms: C21_29  and  C22_30 
REMARK   12  A    between atoms: C22_30  and  O4_32 
REMARK   13  A    between atoms: C22_30  and  C24_34 
REMARK   14  A    between atoms: C24_34  and  O5_35 
ROOT
HETATM    1  C9  UNL     1      35.428  31.931  26.492  1.00  0.00     0.028 C 
HETATM    2  C10 UNL     1      36.041  31.953  25.099  1.00  0.00     0.025 C 
HETATM    3  C11 UNL     1      34.198  31.107  26.329  1.00  0.00     0.050 C 
HETATM    4  C12 UNL     1      33.546  30.590  27.546  1.00  0.00     0.123 C 
HETATM    5  C13 UNL     1      34.402  29.409  27.973  1.00  0.00     0.019 C 
HETATM    6  C14 UNL     1      33.489  28.300  28.285  1.00  0.00     0.008 C 
HETATM    7  C15 UNL     1      33.144  28.171  29.765  1.00  0.00     0.010 C 
HETATM    8  C16 UNL     1      34.243  28.307  30.719  1.00  0.00    -0.031 C 
HETATM    9  C17 UNL     1      33.972  29.536  31.603  1.00  0.00     0.016 C 
HETATM   10  C18 UNL     1      35.564  28.745  29.992  1.00  0.00     0.002 C 
HETATM   11  C19 UNL     1      36.147  27.501  29.452  1.00  0.00     0.038 C 
HETATM   12  C20 UNL     1      35.589  26.423  30.392  1.00  0.00     0.126 C 
HETATM   13  C21 UNL     1      34.790  27.159  31.437  1.00  0.00     0.059 C 
HETATM   14  C26 UNL     1      35.293  29.889  29.075  1.00  0.00     0.005 C 
HETATM   15  C27 UNL     1      36.398  30.787  28.680  1.00  0.00    -0.035 C 
HETATM   16  C28 UNL     1      36.640  31.741  29.867  1.00  0.00     0.016 C 
HETATM   17  C29 UNL     1      37.715  29.944  28.806  1.00  0.00     0.014 C 
HETATM   18  C30 UNL     1      38.940  30.821  28.643  1.00  0.00    -0.018 C 
HETATM   19  C31 UNL     1      40.116  29.827  28.631  1.00  0.00     0.010 C 
HETATM   20  C32 UNL     1      38.992  31.548  27.375  1.00  0.00     0.005 C 
HETATM   21  C33 UNL     1      37.669  32.270  27.186  1.00  0.00     0.007 C 
HETATM   22  C34 UNL     1      36.488  31.342  27.350  1.00  0.00     0.010 C 
ENDROOT
BRANCH   1  23
HETATM   23  C8  UNL     1      35.003  33.307  26.826  1.00  0.00     0.122 C 
BRANCH  23  24
HETATM   24  N2  UNL     1      34.751  34.430  26.052  1.00  0.00    -0.367 N 
HETATM   25  C7  UNL     1      33.380  34.498  25.436  1.00  0.00     0.151 C 
BRANCH  24  26
HETATM   26  C6  UNL     1      35.553  35.568  25.732  1.00  0.00     0.154 C 
BRANCH  26  27
HETATM   27  C5  UNL     1      36.821  35.265  25.005  1.00  0.00     0.292 C 
BRANCH  27  28
HETATM   28  N1  UNL     1      36.977  35.902  23.741  1.00  0.00     0.089 N 
BRANCH  28  29
HETATM   29  C2  UNL     1      36.098  35.191  22.781  1.00  0.00     0.268 C 
HETATM   30  C1  UNL     1      34.837  35.911  22.474  1.00  0.00     0.037 C 
ENDBRANCH  28  29
BRANCH  28  31
HETATM   31  C3  UNL     1      38.286  35.983  23.223  1.00  0.00     0.268 C 
HETATM   32  C4  UNL     1      38.715  35.022  22.169  1.00  0.00     0.037 C 
ENDBRANCH  28  31
ENDBRANCH  27  28
ENDBRANCH  26  27
ENDBRANCH  24  26
ENDBRANCH  23  24
BRANCH  23  33
HETATM   33  O1  UNL     1      34.798  33.572  28.093  1.00  0.00    -0.349 OA
ATOM     34  H1  UNL     1      35.179  34.412  28.320  1.00  0.00     0.219 HD
ENDBRANCH  23  33
ENDBRANCH   1  23
BRANCH   4  35
HETATM   35  O2  UNL     1      33.280  31.499  28.526  1.00  0.00    -0.395 OA
ATOM     36  H2  UNL     1      32.913  32.329  28.246  1.00  0.00     0.210 HD
ENDBRANCH   4  35
BRANCH  13  37
HETATM   37  C22 UNL     1      34.260  26.313  32.450  1.00  0.00     0.082 C 
HETATM   38  C23 UNL     1      34.153  26.875  33.858  1.00  0.00     0.049 C 
BRANCH  37  39
HETATM   39  O4  UNL     1      35.317  25.332  32.659  1.00  0.00    -0.388 OA
ATOM     40  H4  UNL     1      35.015  24.839  33.413  1.00  0.00     0.210 HD
ENDBRANCH  37  39
BRANCH  37  41
HETATM   41  C24 UNL     1      33.092  25.403  32.317  1.00  0.00     0.204 C 
BRANCH  41  42
HETATM   42  O5  UNL     1      33.075  24.268  33.064  1.00  0.00    -0.393 OA
HETATM   43  C25 UNL     1      32.085  24.137  33.981  1.00  0.00     0.201 C 
ENDBRANCH  41  42
ENDBRANCH  37  41
ENDBRANCH  13  37
BRANCH  12  44
HETATM   44  O3  UNL     1      34.981  25.498  29.653  1.00  0.00    -0.395 OA
ATOM     45  H3  UNL     1      35.411  25.463  28.807  1.00  0.00     0.210 HD
ENDBRANCH  12  44
TORSDOF 14
ENDMDL
MODEL 3
REMARK VINA RESULT: -7.462950098      1.965      4.035
REMARK  14 active torsions:
REMARK  status: ('A' for Active; 'I' for Inactive)
REMARK    1  A    between atoms: C2_2  and  N1_3 
REMARK    2  A    between atoms: N1_3  and  C3_4 
REMARK    3  A    between atoms: N1_3  and  C5_6 
REMARK    4  A    between atoms: C5_6  and  C6_7 
REMARK    5  A    between atoms: C6_7  and  N2_8 
REMARK    6  A    between atoms: N2_8  and  C8_10 
REMARK    7  A    between atoms: C8_10  and  O1_11 
REMARK    8  A    between atoms: C8_10  and  C9_13 
REMARK    9  A    between atoms: C12_16  and  O2_17 
REMARK   10  A    between atoms: C20_26  and  O3_27 
REMARK   11  A    between atoms: C21_29  and  C22_30 
REMARK   12  A    between atoms: C22_30  and  O4_32 
REMARK   13  A    between atoms: C22_30  and  C24_34 
REMARK   14  A    between atoms: C24_34  and  O5_35 
ROOT
HETATM    1  C9  UNL     1      33.827  34.619  25.328  1.00  0.00     0.028 C 
HETATM    2  C10 UNL     1      32.657  35.174  24.530  1.00  0.00     0.025 C 
HETATM    3  C11 UNL     1      33.381  34.735  26.745  1.00  0.00     0.050 C 
HETATM    4  C12 UNL     1      34.120  33.973  27.768  1.00  0.00     0.123 C 
HETATM    5  C13 UNL     1      33.623  32.543  27.623  1.00  0.00     0.019 C 
HETATM    6  C14 UNL     1      33.333  32.044  28.973  1.00  0.00     0.008 C 
HETATM    7  C15 UNL     1      34.468  31.243  29.602  1.00  0.00     0.010 C 
HETATM    8  C16 UNL     1      35.142  30.264  28.751  1.00  0.00    -0.031 C 
HETATM    9  C17 UNL     1      36.614  30.680  28.600  1.00  0.00     0.016 C 
HETATM   10  C18 UNL     1      34.644  30.376  27.266  1.00  0.00     0.002 C 
HETATM   11  C19 UNL     1      33.388  29.602  27.213  1.00  0.00     0.038 C 
HETATM   12  C20 UNL     1      33.559  28.589  28.353  1.00  0.00     0.126 C 
HETATM   13  C21 UNL     1      34.938  28.827  28.914  1.00  0.00     0.059 C 
HETATM   14  C26 UNL     1      34.650  31.801  26.827  1.00  0.00     0.005 C 
HETATM   15  C27 UNL     1      34.720  32.121  25.387  1.00  0.00    -0.035 C 
HETATM   16  C28 UNL     1      36.192  31.941  24.964  1.00  0.00     0.016 C 
HETATM   17  C29 UNL     1      34.124  30.883  24.631  1.00  0.00     0.014 C 
HETATM   18  C30 UNL     1      34.346  30.997  23.137  1.00  0.00    -0.018 C 
HETATM   19  C31 UNL     1      33.571  29.805  22.548  1.00  0.00     0.010 C 
HETATM   20  C32 UNL     1      33.779  32.204  22.537  1.00  0.00     0.005 C 
HETATM   21  C33 UNL     1      34.255  33.403  23.340  1.00  0.00     0.007 C 
HETATM   22  C34 UNL     1      33.996  33.234  24.818  1.00  0.00     0.010 C 
ENDROOT
BRANCH   1  23
HETATM   23  C8  UNL     1      34.978  35.529  25.148  1.00  0.00     0.122 C 
BRANCH  23  24
HETATM   24  N2  UNL     1      36.114  35.466  24.356  1.00  0.00    -0.367 N 
HETATM   25  C7  UNL     1      35.930  35.886  22.923  1.00  0.00     0.151 C 
BRANCH  24  26
HETATM   26  C6  UNL     1      37.461  35.087  24.647  1.00  0.00     0.154 C 
BRANCH  26  27
HETATM   27  C5  UNL     1      38.497  35.706  23.768  1.00  0.00     0.292 C 
BRANCH  27  28
HETATM   28  N1  UNL     1      39.378  34.797  23.115  1.00  0.00     0.089 N 
BRANCH  28  29
HETATM   29  C2  UNL     1      39.423  35.182  21.684  1.00  0.00     0.268 C 
HETATM   30  C1  UNL     1      40.580  36.042  21.330  1.00  0.00     0.037 C 
ENDBRANCH  28  29
BRANCH  28  31
HETATM   31  C3  UNL     1      39.081  33.424  23.233  1.00  0.00     0.268 C 
HETATM   32  C4  UNL     1      40.186  32.458  23.488  1.00  0.00     0.037 C 
ENDBRANCH  28  31
ENDBRANCH  27  28
ENDBRANCH  26  27
ENDBRANCH  24  26
ENDBRANCH  23  24
BRANCH  23  33
HETATM   33  O1  UNL     1      34.970  36.639  25.845  1.00  0.00    -0.349 OA
ATOM     34  H1  UNL     1      34.124  36.761  26.261  1.00  0.00     0.219 HD
ENDBRANCH  23  33
ENDBRANCH   1  23
BRANCH   4  35
HETATM   35  O2  UNL     1      35.475  34.118  27.772  1.00  0.00    -0.395 OA
ATOM     36  H2  UNL     1      35.882  34.272  28.617  1.00  0.00     0.210 HD
ENDBRANCH   4  35
BRANCH  13  37
HETATM   37  C22 UNL     1      35.302  27.911  29.940  1.00  0.00     0.082 C 
HETATM   38  C23 UNL     1      36.672  27.260  29.855  1.00  0.00     0.049 C 
BRANCH  37  39
HETATM   39  O4  UNL     1      34.463  26.750  29.671  1.00  0.00    -0.388 OA
ATOM     40  H4  UNL     1      34.563  26.221  30.453  1.00  0.00     0.210 HD
ENDBRANCH  37  39
BRANCH  37  41
HETATM   41  C24 UNL     1      35.051  28.074  31.397  1.00  0.00     0.204 C 
BRANCH  41  42
HETATM   42  O5  UNL     1      33.774  27.949  31.845  1.00  0.00    -0.393 OA
HETATM   43  C25 UNL     1      33.278  28.953  32.608  1.00  0.00     0.201 C 
ENDBRANCH  41  42
ENDBRANCH  37  41
ENDBRANCH  13  37
BRANCH  12  44
HETATM   44  O3  UNL     1      32.510  28.692  29.165  1.00  0.00    -0.395 OA
ATOM     45  H3  UNL     1      32.573  29.518  29.630  1.00  0.00     0.210 HD
ENDBRANCH  12  44
TORSDOF 14
ENDMDL
MODEL 4
REMARK VINA RESULT: -7.262615275      2.161      4.720
REMARK  14 active torsions:
REMARK  status: ('A' for Active; 'I' for Inactive)
REMARK    1  A    between atoms: C2_2  and  N1_3 
REMARK    2  A    between atoms: N1_3  and  C3_4 
REMARK    3  A    between atoms: N1_3  and  C5_6 
REMARK    4  A    between atoms: C5_6  and  C6_7 
REMARK    5  A    between atoms: C6_7  and  N2_8 
REMARK    6  A    between atoms: N2_8  and  C8_10 
REMARK    7  A    between atoms: C8_10  and  O1_11 
REMARK    8  A    between atoms: C8_10  and  C9_13 
REMARK    9  A    between atoms: C12_16  and  O2_17 
REMARK   10  A    between atoms: C20_26  and  O3_27 
REMARK   11  A    between atoms: C21_29  and  C22_30 
REMARK   12  A    between atoms: C22_30  and  O4_32 
REMARK   13  A    between atoms: C22_30  and  C24_34 
REMARK   14  A    between atoms: C24_34  and  O5_35 
ROOT
HETATM    1  C9  UNL     1      37.928  33.214  25.042  1.00  0.00     0.028 C 
HETATM    2  C10 UNL     1      38.256  34.680  24.801  1.00  0.00     0.025 C 
HETATM    3  C11 UNL     1      38.645  32.890  26.308  1.00  0.00     0.050 C 
HETATM    4  C12 UNL     1      38.268  31.656  27.020  1.00  0.00     0.123 C 
HETATM    5  C13 UNL     1      36.966  31.997  27.727  1.00  0.00     0.019 C 
HETATM    6  C14 UNL     1      37.077  31.505  29.106  1.00  0.00     0.008 C 
HETATM    7  C15 UNL     1      36.463  30.128  29.332  1.00  0.00     0.010 C 
HETATM    8  C16 UNL     1      35.157  29.875  28.727  1.00  0.00    -0.031 C 
HETATM    9  C17 UNL     1      35.305  28.739  27.702  1.00  0.00     0.016 C 
HETATM   10  C18 UNL     1      34.731  31.066  27.797  1.00  0.00     0.002 C 
HETATM   11  C19 UNL     1      34.151  32.081  28.697  1.00  0.00     0.038 C 
HETATM   12  C20 UNL     1      33.657  31.245  29.886  1.00  0.00     0.126 C 
HETATM   13  C21 UNL     1      33.934  29.809  29.525  1.00  0.00     0.059 C 
HETATM   14  C26 UNL     1      35.856  31.441  26.892  1.00  0.00     0.005 C 
HETATM   15  C27 UNL     1      35.571  32.146  25.626  1.00  0.00    -0.035 C 
HETATM   16  C28 UNL     1      35.068  31.082  24.629  1.00  0.00     0.016 C 
HETATM   17  C29 UNL     1      34.214  32.902  25.839  1.00  0.00     0.014 C 
HETATM   18  C30 UNL     1      33.702  33.482  24.536  1.00  0.00    -0.018 C 
HETATM   19  C31 UNL     1      32.474  34.312  24.949  1.00  0.00     0.010 C 
HETATM   20  C32 UNL     1      34.631  34.404  23.885  1.00  0.00     0.005 C 
HETATM   21  C33 UNL     1      35.986  33.722  23.784  1.00  0.00     0.007 C 
HETATM   22  C34 UNL     1      36.445  33.176  25.115  1.00  0.00     0.010 C 
ENDROOT
BRANCH   1  23
HETATM   23  C8  UNL     1      38.553  32.421  23.961  1.00  0.00     0.122 C 
BRANCH  23  24
HETATM   24  N2  UNL     1      39.708  32.593  23.214  1.00  0.00    -0.367 N 
HETATM   25  C7  UNL     1      40.817  31.617  23.501  1.00  0.00     0.151 C 
BRANCH  24  26
HETATM   26  C6  UNL     1      40.052  33.527  22.190  1.00  0.00     0.154 C 
BRANCH  26  27
HETATM   27  C5  UNL     1      41.364  34.216  22.376  1.00  0.00     0.292 C 
BRANCH  27  28
HETATM   28  N1  UNL     1      41.338  35.388  23.186  1.00  0.00     0.089 N 
BRANCH  28  29
HETATM   29  C2  UNL     1      41.559  36.546  22.286  1.00  0.00     0.268 C 
HETATM   30  C1  UNL     1      40.316  37.274  21.928  1.00  0.00     0.037 C 
ENDBRANCH  28  29
BRANCH  28  31
HETATM   31  C3  UNL     1      42.244  35.440  24.265  1.00  0.00     0.268 C 
HETATM   32  C4  UNL     1      41.874  34.802  25.559  1.00  0.00     0.037 C 
ENDBRANCH  28  31
ENDBRANCH  27  28
ENDBRANCH  26  27
ENDBRANCH  24  26
ENDBRANCH  23  24
BRANCH  23  33
HETATM   33  O1  UNL     1      37.939  31.320  23.604  1.00  0.00    -0.349 OA
ATOM     34  H1  UNL     1      37.105  31.247  24.053  1.00  0.00     0.219 HD
ENDBRANCH  23  33
ENDBRANCH   1  23
BRANCH   4  35
HETATM   35  O2  UNL     1      38.244  30.511  26.281  1.00  0.00    -0.395 OA
ATOM     36  H2  UNL     1      38.165  29.697  26.763  1.00  0.00     0.210 HD
ENDBRANCH   4  35
BRANCH  13  37
HETATM   37  C22 UNL     1      33.462  28.877  30.490  1.00  0.00     0.082 C 
HETATM   38  C23 UNL     1      32.565  27.750  30.007  1.00  0.00     0.049 C 
BRANCH  37  39
HETATM   39  O4  UNL     1      32.493  29.647  31.259  1.00  0.00    -0.388 OA
ATOM     40  H4  UNL     1      32.035  30.149  30.595  1.00  0.00     0.210 HD
ENDBRANCH  37  39
BRANCH  37  41
HETATM   41  C24 UNL     1      34.252  28.281  31.600  1.00  0.00     0.204 C 
BRANCH  41  42
HETATM   42  O5  UNL     1      34.592  26.968  31.513  1.00  0.00    -0.393 OA
HETATM   43  C25 UNL     1      35.778  26.666  30.930  1.00  0.00     0.201 C 
ENDBRANCH  41  42
ENDBRANCH  37  41
ENDBRANCH  13  37
BRANCH  12  44
HETATM   44  O3  UNL     1      34.194  31.743  30.998  1.00  0.00    -0.395 OA
ATOM     45  H3  UNL     1      33.712  31.398  31.741  1.00  0.00     0.210 HD
ENDBRANCH  12  44
TORSDOF 14
ENDMDL
MODEL 5
REMARK VINA RESULT: -7.255016605      3.010      5.744
REMARK  14 active torsions:
REMARK  status: ('A' for Active; 'I' for Inactive)
REMARK    1  A    between atoms: C2_2  and  N1_3 
REMARK    2  A    between atoms: N1_3  and  C3_4 
REMARK    3  A    between atoms: N1_3  and  C5_6 
REMARK    4  A    between atoms: C5_6  and  C6_7 
REMARK    5  A    between atoms: C6_7  and  N2_8 
REMARK    6  A    between atoms: N2_8  and  C8_10 
REMARK    7  A    between atoms: C8_10  and  O1_11 
REMARK    8  A    between atoms: C8_10  and  C9_13 
REMARK    9  A    between atoms: C12_16  and  O2_17 
REMARK   10  A    between atoms: C20_26  and  O3_27 
REMARK   11  A    between atoms: C21_29  and  C22_30 
REMARK   12  A    between atoms: C22_30  and  O4_32 
REMARK   13  A    between atoms: C22_30  and  C24_34 
REMARK   14  A    between atoms: C24_34  and  O5_35 
ROOT
HETATM    1  C9  UNL     1      35.048  30.223  30.027  1.00  0.00     0.028 C 
HETATM    2  C10 UNL     1      35.342  31.306  31.054  1.00  0.00     0.025 C 
HETATM    3  C11 UNL     1      36.296  30.152  29.215  1.00  0.00     0.050 C 
HETATM    4  C12 UNL     1      36.493  28.973  28.352  1.00  0.00     0.123 C 
HETATM    5  C13 UNL     1      36.927  27.866  29.300  1.00  0.00     0.019 C 
HETATM    6  C14 UNL     1      38.081  27.195  28.687  1.00  0.00     0.008 C 
HETATM    7  C15 UNL     1      37.728  25.939  27.899  1.00  0.00     0.010 C 
HETATM    8  C16 UNL     1      36.775  25.015  28.510  1.00  0.00    -0.031 C 
HETATM    9  C17 UNL     1      35.528  24.938  27.614  1.00  0.00     0.016 C 
HETATM   10  C18 UNL     1      36.166  25.626  29.822  1.00  0.00     0.002 C 
HETATM   11  C19 UNL     1      37.157  25.351  30.880  1.00  0.00     0.038 C 
HETATM   12  C20 UNL     1      37.884  24.105  30.356  1.00  0.00     0.126 C 
HETATM   13  C21 UNL     1      37.192  23.732  29.071  1.00  0.00     0.059 C 
HETATM   14  C26 UNL     1      35.719  27.028  29.578  1.00  0.00     0.005 C 
HETATM   15  C27 UNL     1      34.690  27.629  30.451  1.00  0.00    -0.035 C 
HETATM   16  C28 UNL     1      33.331  27.070  29.985  1.00  0.00     0.016 C 
HETATM   17  C29 UNL     1      34.779  26.870  31.821  1.00  0.00     0.014 C 
HETATM   18  C30 UNL     1      33.624  27.245  32.727  1.00  0.00    -0.018 C 
HETATM   19  C31 UNL     1      33.951  26.550  34.061  1.00  0.00     0.010 C 
HETATM   20  C32 UNL     1      33.525  28.676  33.012  1.00  0.00     0.005 C 
HETATM   21  C33 UNL     1      33.562  29.427  31.692  1.00  0.00     0.007 C 
HETATM   22  C34 UNL     1      34.740  29.019  30.840  1.00  0.00     0.010 C 
ENDROOT
BRANCH   1  23
HETATM   23  C8  UNL     1      33.968  30.712  29.143  1.00  0.00     0.122 C 
BRANCH  23  24
HETATM   24  N2  UNL     1      33.542  31.983  28.791  1.00  0.00    -0.367 N 
HETATM   25  C7  UNL     1      32.069  32.244  28.963  1.00  0.00     0.151 C 
BRANCH  24  26
HETATM   26  C6  UNL     1      34.246  33.125  28.301  1.00  0.00     0.154 C 
BRANCH  26  27
HETATM   27  C5  UNL     1      34.956  32.923  27.004  1.00  0.00     0.292 C 
BRANCH  27  28
HETATM   28  N1  UNL     1      34.130  32.593  25.891  1.00  0.00     0.089 N 
BRANCH  28  29
HETATM   29  C2  UNL     1      34.584  31.274  25.387  1.00  0.00     0.268 C 
HETATM   30  C1  UNL     1      35.107  31.309  23.998  1.00  0.00     0.037 C 
ENDBRANCH  28  29
BRANCH  28  31
HETATM   31  C3  UNL     1      34.083  33.521  24.831  1.00  0.00     0.268 C 
HETATM   32  C4  UNL     1      32.914  34.436  24.713  1.00  0.00     0.037 C 
ENDBRANCH  28  31
ENDBRANCH  27  28
ENDBRANCH  26  27
ENDBRANCH  24  26
ENDBRANCH  23  24
BRANCH  23  33
HETATM   33  O1  UNL     1      33.243  29.804  28.536  1.00  0.00    -0.349 OA
ATOM     34  H1  UNL     1      32.336  29.868  28.812  1.00  0.00     0.219 HD
ENDBRANCH  23  33
ENDBRANCH   1  23
BRANCH   4  35
HETATM   35  O2  UNL     1      35.464  28.651  27.518  1.00  0.00    -0.395 OA
ATOM     36  H2  UNL     1      35.163  27.751  27.544  1.00  0.00     0.210 HD
ENDBRANCH   4  35
BRANCH  13  37
HETATM   37  C22 UNL     1      37.689  22.537  28.481  1.00  0.00     0.082 C 
HETATM   38  C23 UNL     1      37.482  21.235  29.236  1.00  0.00     0.049 C 
BRANCH  37  39
HETATM   39  O4  UNL     1      39.134  22.670  28.615  1.00  0.00    -0.388 OA
ATOM     40  H4  UNL     1      39.430  21.771  28.702  1.00  0.00     0.210 HD
ENDBRANCH  37  39
BRANCH  37  41
HETATM   41  C24 UNL     1      37.600  22.160  27.045  1.00  0.00     0.204 C 
BRANCH  41  42
HETATM   42  O5  UNL     1      37.510  20.840  26.734  1.00  0.00    -0.393 OA
HETATM   43  C25 UNL     1      38.354  20.361  25.788  1.00  0.00     0.201 C 
ENDBRANCH  41  42
ENDBRANCH  37  41
ENDBRANCH  13  37
BRANCH  12  44
HETATM   44  O3  UNL     1      39.190  24.363  30.331  1.00  0.00    -0.395 OA
ATOM     45  H3  UNL     1      39.540  24.044  29.508  1.00  0.00     0.210 HD
ENDBRANCH  12  44
TORSDOF 14
ENDMDL
