MODEL 1
REMARK VINA RESULT: -10.148834412      0.000      0.000
REMARK  4 active torsions:
REMARK  status: ('A' for Active; 'I' for Inactive)
REMARK    1  A    between atoms: N1_2  and  C2_4 
REMARK    2  A    between atoms: C3_7  and  N3_8 
REMARK    3  A    between atoms: N3_8  and  C4_10 
REMARK    4  A    between atoms: C7_13  and  C8_14 
ROOT
HETATM    1  C8  UNL     1     -27.328  -7.830  26.198  1.00  0.00    -0.005 A 
HETATM    2  C9  UNL     1     -26.382  -8.249  27.127  1.00  0.00     0.014 A 
HETATM    3  C10 UNL     1     -26.167  -7.561  28.304  1.00  0.00     0.001 A 
HETATM    4  C11 UNL     1     -26.895  -6.428  28.587  1.00  0.00     0.002 A 
HETATM    5  C12 UNL     1     -27.840  -6.001  27.667  1.00  0.00     0.023 A 
HETATM    6  C13 UNL     1     -28.060  -6.696  26.473  1.00  0.00     0.055 A 
HETATM    7  C14 UNL     1     -29.052  -6.153  25.592  1.00  0.00     0.100 C 
HETATM    8  N4  UNL     1     -29.828  -5.707  24.884  1.00  0.00    -0.191 NA
ENDROOT
BRANCH   1   9
HETATM    9  C7  UNL     1     -27.559  -8.564  24.970  1.00  0.00    -0.024 A 
HETATM   10  C6  UNL     1     -26.613  -8.569  23.965  1.00  0.00     0.014 A 
HETATM   11  C5  UNL     1     -26.820  -9.281  22.788  1.00  0.00     0.031 A 
HETATM   12  C4  UNL     1     -27.973 -10.006  22.579  1.00  0.00     0.039 A 
HETATM   13  C16 UNL     1     -28.893  -9.980  23.601  1.00  0.00    -0.034 A 
HETATM   14  C15 UNL     1     -28.712  -9.285  24.771  1.00  0.00     0.021 A 
HETATM   15  C17 UNL     1     -30.152 -10.770  23.375  1.00  0.00     0.050 C 
BRANCH  12  16
HETATM   16  N3  UNL     1     -28.130 -10.710  21.362  1.00  0.00    -0.342 N 
ATOM     17  H3  UNL     1     -27.876 -11.699  21.343  1.00  0.00     0.167 HD
BRANCH  16  18
HETATM   18  C3  UNL     1     -28.574 -10.176  20.277  1.00  0.00     0.107 C 
HETATM   19  N2  UNL     1     -27.800  -9.189  19.802  1.00  0.00    -0.328 N 
HETATM   20  C2  UNL     1     -28.029  -8.286  18.771  1.00  0.00     0.123 C 
ATOM     21  H2  UNL     1     -26.900  -9.086  20.271  1.00  0.00     0.169 HD
HETATM   22  C21 UNL     1     -29.289  -7.975  18.305  1.00  0.00     0.088 C 
HETATM   23  C20 UNL     1     -30.354  -8.847  18.115  1.00  0.00     0.027 C 
HETATM   24  C22 UNL     1     -29.527  -6.596  17.998  1.00  0.00     0.103 C 
HETATM   25  C19 UNL     1     -30.559 -10.061  18.765  1.00  0.00     0.005 C 
HETATM   26  C18 UNL     1     -29.746 -10.655  19.740  1.00  0.00     0.048 C 
HETATM   27  N5  UNL     1     -29.732  -5.488  17.773  1.00  0.00    -0.191 NA
BRANCH  20  28
HETATM   28  N1  UNL     1     -27.047  -7.755  18.281  1.00  0.00    -0.379 N 
HETATM   29  C1  UNL     1     -25.898  -7.122  18.731  1.00  0.00     0.147 C 
ATOM     30  H1  UNL     1     -27.080  -7.783  17.262  1.00  0.00     0.160 HD
ENDBRANCH  20  28
ENDBRANCH  16  18
ENDBRANCH  12  16
ENDBRANCH   1   9
TORSDOF 4
ENDMDL
MODEL 2
REMARK VINA RESULT: -10.140868929      1.421      1.592
REMARK  4 active torsions:
REMARK  status: ('A' for Active; 'I' for Inactive)
REMARK    1  A    between atoms: N1_2  and  C2_4 
REMARK    2  A    between atoms: C3_7  and  N3_8 
REMARK    3  A    between atoms: N3_8  and  C4_10 
REMARK    4  A    between atoms: C7_13  and  C8_14 
ROOT
HETATM    1  C8  UNL     1     -26.833  -8.055  27.056  1.00  0.00    -0.005 A 
HETATM    2  C9  UNL     1     -25.770  -8.641  27.734  1.00  0.00     0.014 A 
HETATM    3  C10 UNL     1     -25.310  -8.141  28.935  1.00  0.00     0.001 A 
HETATM    4  C11 UNL     1     -25.905  -7.034  29.496  1.00  0.00     0.002 A 
HETATM    5  C12 UNL     1     -26.966  -6.442  28.830  1.00  0.00     0.023 A 
HETATM    6  C13 UNL     1     -27.433  -6.947  27.611  1.00  0.00     0.055 A 
HETATM    7  C14 UNL     1     -28.527  -6.244  27.007  1.00  0.00     0.100 C 
HETATM    8  N4  UNL     1     -29.383  -5.670  26.517  1.00  0.00    -0.191 NA
ENDROOT
BRANCH   1   9
HETATM    9  C7  UNL     1     -27.320  -8.594  25.802  1.00  0.00    -0.024 A 
HETATM   10  C6  UNL     1     -26.519  -8.592  24.678  1.00  0.00     0.014 A 
HETATM   11  C5  UNL     1     -26.972  -9.117  23.472  1.00  0.00     0.031 A 
HETATM   12  C4  UNL     1     -28.233  -9.658  23.352  1.00  0.00     0.039 A 
HETATM   13  C16 UNL     1     -29.004  -9.644  24.491  1.00  0.00    -0.034 A 
HETATM   14  C15 UNL     1     -28.579  -9.131  25.691  1.00  0.00     0.021 A 
HETATM   15  C17 UNL     1     -30.381 -10.234  24.363  1.00  0.00     0.050 C 
BRANCH  12  16
HETATM   16  N3  UNL     1     -28.641 -10.178  22.101  1.00  0.00    -0.342 N 
ATOM     17  H3  UNL     1     -29.326 -10.934  22.095  1.00  0.00     0.167 HD
BRANCH  16  18
HETATM   18  C3  UNL     1     -28.197  -9.751  20.970  1.00  0.00     0.107 C 
HETATM   19  N2  UNL     1     -28.468  -8.458  20.733  1.00  0.00    -0.328 N 
HETATM   20  C2  UNL     1     -28.302  -7.703  19.579  1.00  0.00     0.123 C 
ATOM     21  H2  UNL     1     -28.857  -7.949  21.527  1.00  0.00     0.169 HD
HETATM   22  C21 UNL     1     -28.202  -8.259  18.320  1.00  0.00     0.088 C 
HETATM   23  C20 UNL     1     -27.519  -9.415  17.964  1.00  0.00     0.027 C 
HETATM   24  C22 UNL     1     -28.894  -7.573  17.269  1.00  0.00     0.103 C 
HETATM   25  C19 UNL     1     -27.209 -10.487  18.796  1.00  0.00     0.005 C 
HETATM   26  C18 UNL     1     -27.519 -10.627  20.156  1.00  0.00     0.048 C 
HETATM   27  N5  UNL     1     -29.466  -7.041  16.426  1.00  0.00    -0.191 NA
BRANCH  20  28
HETATM   28  N1  UNL     1     -28.254  -6.493  19.719  1.00  0.00    -0.379 N 
HETATM   29  C1  UNL     1     -27.276  -5.513  19.802  1.00  0.00     0.147 C 
ATOM     30  H1  UNL     1     -29.188  -6.091  19.796  1.00  0.00     0.160 HD
ENDBRANCH  20  28
ENDBRANCH  16  18
ENDBRANCH  12  16
ENDBRANCH   1   9
TORSDOF 4
ENDMDL
MODEL 3
REMARK VINA RESULT: -9.968270022      1.630      2.190
REMARK  4 active torsions:
REMARK  status: ('A' for Active; 'I' for Inactive)
REMARK    1  A    between atoms: N1_2  and  C2_4 
REMARK    2  A    between atoms: C3_7  and  N3_8 
REMARK    3  A    between atoms: N3_8  and  C4_10 
REMARK    4  A    between atoms: C7_13  and  C8_14 
ROOT
HETATM    1  C8  UNL     1     -29.779  -8.917  26.654  1.00  0.00    -0.005 A 
HETATM    2  C9  UNL     1     -29.992  -9.846  27.667  1.00  0.00     0.014 A 
HETATM    3  C10 UNL     1     -30.490  -9.475  28.899  1.00  0.00     0.001 A 
HETATM    4  C11 UNL     1     -30.792  -8.157  29.155  1.00  0.00     0.002 A 
HETATM    5  C12 UNL     1     -30.584  -7.222  28.153  1.00  0.00     0.023 A 
HETATM    6  C13 UNL     1     -30.078  -7.596  26.903  1.00  0.00     0.055 A 
HETATM    7  C14 UNL     1     -29.891  -6.542  25.950  1.00  0.00     0.100 C 
HETATM    8  N4  UNL     1     -29.722  -5.697  25.201  1.00  0.00    -0.191 NA
ENDROOT
BRANCH   1   9
HETATM    9  C7  UNL     1     -29.268  -9.315  25.358  1.00  0.00    -0.024 A 
HETATM   10  C6  UNL     1     -30.065 -10.008  24.471  1.00  0.00     0.014 A 
HETATM   11  C5  UNL     1     -29.588 -10.385  23.219  1.00  0.00     0.031 A 
HETATM   12  C4  UNL     1     -28.305 -10.081  22.817  1.00  0.00     0.039 A 
HETATM   13  C16 UNL     1     -27.539  -9.388  23.726  1.00  0.00    -0.034 A 
HETATM   14  C15 UNL     1     -27.987  -9.007  24.966  1.00  0.00     0.021 A 
HETATM   15  C17 UNL     1     -26.139  -9.055  23.290  1.00  0.00     0.050 C 
BRANCH  12  16
HETATM   16  N3  UNL     1     -27.873 -10.489  21.533  1.00  0.00    -0.342 N 
ATOM     17  H3  UNL     1     -27.123 -11.178  21.476  1.00  0.00     0.167 HD
BRANCH  16  18
HETATM   18  C3  UNL     1     -28.372 -10.041  20.434  1.00  0.00     0.107 C 
HETATM   19  N2  UNL     1     -27.690  -9.013  19.906  1.00  0.00    -0.328 N 
HETATM   20  C2  UNL     1     -28.006  -8.178  18.843  1.00  0.00     0.123 C 
ATOM     21  H2  UNL     1     -26.797  -8.814  20.358  1.00  0.00     0.169 HD
HETATM   22  C21 UNL     1     -29.293  -7.995  18.381  1.00  0.00     0.088 C 
HETATM   23  C20 UNL     1     -30.281  -8.961  18.243  1.00  0.00     0.027 C 
HETATM   24  C22 UNL     1     -29.651  -6.655  18.021  1.00  0.00     0.103 C 
HETATM   25  C19 UNL     1     -30.376 -10.159  18.946  1.00  0.00     0.005 C 
HETATM   26  C18 UNL     1     -29.505 -10.639  19.934  1.00  0.00     0.048 C 
HETATM   27  N5  UNL     1     -29.952  -5.579  17.753  1.00  0.00    -0.191 NA
BRANCH  20  28
HETATM   28  N1  UNL     1     -27.078  -7.586  18.317  1.00  0.00    -0.379 N 
HETATM   29  C1  UNL     1     -25.860  -7.048  18.705  1.00  0.00     0.147 C 
ATOM     30  H1  UNL     1     -27.243  -7.449  17.320  1.00  0.00     0.160 HD
ENDBRANCH  20  28
ENDBRANCH  16  18
ENDBRANCH  12  16
ENDBRANCH   1   9
TORSDOF 4
ENDMDL
MODEL 4
REMARK VINA RESULT: -9.760305523      2.158      8.140
REMARK  4 active torsions:
REMARK  status: ('A' for Active; 'I' for Inactive)
REMARK    1  A    between atoms: N1_2  and  C2_4 
REMARK    2  A    between atoms: C3_7  and  N3_8 
REMARK    3  A    between atoms: N3_8  and  C4_10 
REMARK    4  A    between atoms: C7_13  and  C8_14 
ROOT
HETATM    1  C8  UNL     1     -28.785  -8.719  20.109  1.00  0.00    -0.005 A 
HETATM    2  C9  UNL     1     -29.727  -9.740  20.049  1.00  0.00     0.014 A 
HETATM    3  C10 UNL     1     -30.111 -10.305  18.850  1.00  0.00     0.001 A 
HETATM    4  C11 UNL     1     -29.560  -9.862  17.669  1.00  0.00     0.002 A 
HETATM    5  C12 UNL     1     -28.620  -8.844  17.716  1.00  0.00     0.023 A 
HETATM    6  C13 UNL     1     -28.230  -8.270  18.932  1.00  0.00     0.055 A 
HETATM    7  C14 UNL     1     -27.262  -7.216  18.857  1.00  0.00     0.100 C 
HETATM    8  N4  UNL     1     -26.507  -6.362  18.792  1.00  0.00    -0.191 NA
ENDROOT
BRANCH   1   9
HETATM    9  C7  UNL     1     -28.377  -8.140  21.373  1.00  0.00    -0.024 A 
HETATM   10  C6  UNL     1     -29.001  -7.011  21.863  1.00  0.00     0.014 A 
HETATM   11  C5  UNL     1     -28.625  -6.453  23.081  1.00  0.00     0.031 A 
HETATM   12  C4  UNL     1     -27.618  -7.005  23.843  1.00  0.00     0.039 A 
HETATM   13  C16 UNL     1     -27.019  -8.129  23.326  1.00  0.00    -0.034 A 
HETATM   14  C15 UNL     1     -27.372  -8.696  22.127  1.00  0.00     0.021 A 
HETATM   15  C17 UNL     1     -25.921  -8.732  24.156  1.00  0.00     0.050 C 
BRANCH  12  16
HETATM   16  N3  UNL     1     -27.278  -6.395  25.074  1.00  0.00    -0.342 N 
ATOM     17  H3  UNL     1     -26.619  -5.616  25.058  1.00  0.00     0.167 HD
BRANCH  16  18
HETATM   18  C3  UNL     1     -27.751  -6.767  26.213  1.00  0.00     0.107 C 
HETATM   19  N2  UNL     1     -28.995  -7.264  26.147  1.00  0.00    -0.328 N 
HETATM   20  C2  UNL     1     -29.880  -7.605  27.163  1.00  0.00     0.123 C 
ATOM     21  H2  UNL     1     -29.348  -7.415  25.202  1.00  0.00     0.169 HD
HETATM   22  C21 UNL     1     -29.786  -7.107  28.446  1.00  0.00     0.088 C 
HETATM   23  C20 UNL     1     -28.629  -6.896  29.183  1.00  0.00     0.027 C 
HETATM   24  C22 UNL     1     -31.023  -6.755  29.079  1.00  0.00     0.103 C 
HETATM   25  C19 UNL     1     -27.350  -6.678  28.677  1.00  0.00     0.005 C 
HETATM   26  C18 UNL     1     -26.963  -6.624  27.331  1.00  0.00     0.048 C 
HETATM   27  N5  UNL     1     -32.009  -6.449  29.583  1.00  0.00    -0.191 NA
BRANCH  20  28
HETATM   28  N1  UNL     1     -30.775  -8.380  26.871  1.00  0.00    -0.379 N 
HETATM   29  C1  UNL     1     -30.890  -9.644  26.312  1.00  0.00     0.147 C 
ATOM     30  H1  UNL     1     -31.690  -7.992  27.101  1.00  0.00     0.160 HD
ENDBRANCH  20  28
ENDBRANCH  16  18
ENDBRANCH  12  16
ENDBRANCH   1   9
TORSDOF 4
ENDMDL
MODEL 5
REMARK VINA RESULT: -9.684329396      2.011      3.324
REMARK  4 active torsions:
REMARK  status: ('A' for Active; 'I' for Inactive)
REMARK    1  A    between atoms: N1_2  and  C2_4 
REMARK    2  A    between atoms: C3_7  and  N3_8 
REMARK    3  A    between atoms: N3_8  and  C4_10 
REMARK    4  A    between atoms: C7_13  and  C8_14 
ROOT
HETATM    1  C8  UNL     1     -27.151  -8.783  26.503  1.00  0.00    -0.005 A 
HETATM    2  C9  UNL     1     -26.140  -8.753  27.457  1.00  0.00     0.014 A 
HETATM    3  C10 UNL     1     -26.324  -9.264  28.726  1.00  0.00     0.001 A 
HETATM    4  C11 UNL     1     -27.531  -9.824  29.078  1.00  0.00     0.002 A 
HETATM    5  C12 UNL     1     -28.546  -9.859  28.134  1.00  0.00     0.023 A 
HETATM    6  C13 UNL     1     -28.361  -9.341  26.848  1.00  0.00     0.055 A 
HETATM    7  C14 UNL     1     -29.485  -9.420  25.961  1.00  0.00     0.100 C 
HETATM    8  N4  UNL     1     -30.389  -9.465  25.265  1.00  0.00    -0.191 NA
ENDROOT
BRANCH   1   9
HETATM    9  C7  UNL     1     -26.946  -8.257  25.168  1.00  0.00    -0.024 A 
HETATM   10  C6  UNL     1     -26.453  -9.062  24.162  1.00  0.00     0.014 A 
HETATM   11  C5  UNL     1     -26.265  -8.570  22.875  1.00  0.00     0.031 A 
HETATM   12  C4  UNL     1     -26.562  -7.263  22.554  1.00  0.00     0.039 A 
HETATM   13  C16 UNL     1     -27.052  -6.489  23.580  1.00  0.00    -0.034 A 
HETATM   14  C15 UNL     1     -27.246  -6.952  24.857  1.00  0.00     0.021 A 
HETATM   15  C17 UNL     1     -27.377  -5.063  23.232  1.00  0.00     0.050 C 
BRANCH  12  16
HETATM   16  N3  UNL     1     -26.350  -6.816  21.228  1.00  0.00    -0.342 N 
ATOM     17  H3  UNL     1     -25.862  -5.931  21.092  1.00  0.00     0.167 HD
BRANCH  16  18
HETATM   18  C3  UNL     1     -26.738  -7.463  20.184  1.00  0.00     0.107 C 
HETATM   19  N2  UNL     1     -28.040  -7.305  19.900  1.00  0.00    -0.328 N 
HETATM   20  C2  UNL     1     -28.842  -7.959  18.974  1.00  0.00     0.123 C 
ATOM     21  H2  UNL     1     -28.517  -6.592  20.453  1.00  0.00     0.169 HD
HETATM   22  C21 UNL     1     -28.533  -9.195  18.444  1.00  0.00     0.088 C 
HETATM   23  C20 UNL     1     -27.280  -9.654  18.059  1.00  0.00     0.027 C 
HETATM   24  C22 UNL     1     -29.626 -10.108  18.291  1.00  0.00     0.103 C 
HETATM   25  C19 UNL     1     -26.050  -9.209  18.535  1.00  0.00     0.005 C 
HETATM   26  C18 UNL     1     -25.816  -8.215  19.495  1.00  0.00     0.048 C 
HETATM   27  N5  UNL     1     -30.494 -10.854  18.187  1.00  0.00    -0.191 NA
BRANCH  20  28
HETATM   28  N1  UNL     1     -29.866  -7.389  18.638  1.00  0.00    -0.379 N 
HETATM   29  C1  UNL     1     -30.239  -6.117  18.228  1.00  0.00     0.147 C 
ATOM     30  H1  UNL     1     -30.668  -8.019  18.666  1.00  0.00     0.160 HD
ENDBRANCH  20  28
ENDBRANCH  16  18
ENDBRANCH  12  16
ENDBRANCH   1   9
TORSDOF 4
ENDMDL
