MODEL 1
REMARK VINA RESULT: -10.024774332      0.000      0.000
REMARK  3 active torsions:
REMARK  status: ('A' for Active; 'I' for Inactive)
REMARK    1  A    between atoms: C4_5  and  S1_6 
REMARK    2  A    between atoms: S1_6  and  N2_7 
REMARK    3  A    between atoms: C6_13  and  N3_14 
ROOT
HETATM    1  N3  UNL     1     -30.714  -9.572  26.391  1.00  0.00    -0.353 N 
ATOM      2  H3  UNL     1     -31.652  -9.886  26.145  1.00  0.00     0.166 HD
HETATM    3  C7  UNL     1     -29.898  -9.587  25.426  1.00  0.00     0.055 A 
HETATM    4  C8  UNL     1     -28.497  -9.240  25.298  1.00  0.00     0.003 A 
HETATM    5  C9  UNL     1     -27.586  -8.772  26.204  1.00  0.00     0.014 A 
HETATM    6  C10 UNL     1     -26.284  -8.517  25.805  1.00  0.00     0.001 A 
HETATM    7  C11 UNL     1     -25.851  -8.716  24.514  1.00  0.00     0.001 A 
HETATM    8  C12 UNL     1     -26.759  -9.188  23.589  1.00  0.00     0.013 A 
HETATM    9  C13 UNL     1     -28.065  -9.443  23.991  1.00  0.00    -0.013 A 
HETATM   10  C14 UNL     1     -29.222  -9.942  23.232  1.00  0.00    -0.013 A 
HETATM   11  C15 UNL     1     -29.340 -10.299  21.902  1.00  0.00     0.013 A 
HETATM   12  C16 UNL     1     -30.561 -10.750  21.411  1.00  0.00     0.001 A 
HETATM   13  C17 UNL     1     -31.662 -10.846  22.236  1.00  0.00     0.001 A 
HETATM   14  C18 UNL     1     -31.504 -10.479  23.559  1.00  0.00     0.014 A 
HETATM   15  C19 UNL     1     -30.309 -10.030  24.074  1.00  0.00     0.003 A 
ENDROOT
BRANCH   1  16
HETATM   16  C6  UNL     1     -30.575  -9.209  27.717  1.00  0.00     0.058 A 
HETATM   17  C1  UNL     1     -30.247 -10.166  28.654  1.00  0.00     0.073 A 
HETATM   18  N1  UNL     1     -30.037 -11.540  28.275  1.00  0.00    -0.100 NA
HETATM   19  C2  UNL     1     -30.127  -9.766  29.966  1.00  0.00     0.030 A 
HETATM   20  C3  UNL     1     -30.325  -8.454  30.341  1.00  0.00     0.027 A 
HETATM   21  C4  UNL     1     -30.654  -7.476  29.420  1.00  0.00     0.081 A 
HETATM   22  C5  UNL     1     -30.772  -7.885  28.108  1.00  0.00     0.056 A 
BRANCH  21  23
HETATM   23  S1  UNL     1     -30.905  -5.813  29.900  1.00  0.00     0.256 S 
HETATM   24  O1  UNL     1     -29.900  -5.398  30.957  1.00  0.00    -0.201 OA
HETATM   25  O2  UNL     1     -30.799  -4.879  28.726  1.00  0.00    -0.201 OA
BRANCH  23  26
HETATM   26  N2  UNL     1     -32.514  -5.638  30.548  1.00  0.00    -0.324 N 
ATOM     27  H22 UNL     1     -32.969  -6.317  31.158  1.00  0.00     0.169 HD
ATOM     28  H21 UNL     1     -32.915  -4.759  30.220  1.00  0.00     0.169 HD
ENDBRANCH  23  26
ENDBRANCH  21  23
ENDBRANCH   1  16
TORSDOF 3
ENDMDL
MODEL 2
REMARK VINA RESULT: -9.336055448      3.974      5.743
REMARK  3 active torsions:
REMARK  status: ('A' for Active; 'I' for Inactive)
REMARK    1  A    between atoms: C4_5  and  S1_6 
REMARK    2  A    between atoms: S1_6  and  N2_7 
REMARK    3  A    between atoms: C6_13  and  N3_14 
ROOT
HETATM    1  N3  UNL     1     -28.769  -6.908  21.739  1.00  0.00    -0.353 N 
ATOM      2  H3  UNL     1     -28.787  -5.952  21.385  1.00  0.00     0.166 HD
HETATM    3  C7  UNL     1     -28.851  -7.790  20.836  1.00  0.00     0.055 A 
HETATM    4  C8  UNL     1     -28.866  -9.239  20.856  1.00  0.00     0.003 A 
HETATM    5  C9  UNL     1     -28.794 -10.139  21.883  1.00  0.00     0.014 A 
HETATM    6  C10 UNL     1     -28.830 -11.498  21.614  1.00  0.00     0.001 A 
HETATM    7  C11 UNL     1     -28.939 -11.998  20.337  1.00  0.00     0.001 A 
HETATM    8  C12 UNL     1     -29.012 -11.102  19.291  1.00  0.00     0.013 A 
HETATM    9  C13 UNL     1     -28.975  -9.739  19.562  1.00  0.00    -0.013 A 
HETATM   10  C14 UNL     1     -29.034  -8.580  18.659  1.00  0.00    -0.013 A 
HETATM   11  C15 UNL     1     -29.143  -8.514  17.283  1.00  0.00     0.013 A 
HETATM   12  C16 UNL     1     -29.180  -7.277  16.648  1.00  0.00     0.001 A 
HETATM   13  C17 UNL     1     -29.109  -6.108  17.376  1.00  0.00     0.001 A 
HETATM   14  C18 UNL     1     -29.000  -6.215  18.749  1.00  0.00     0.014 A 
HETATM   15  C19 UNL     1     -28.962  -7.424  19.406  1.00  0.00     0.003 A 
ENDROOT
BRANCH   1  16
HETATM   16  C6  UNL     1     -28.659  -6.995  23.113  1.00  0.00     0.058 A 
HETATM   17  C1  UNL     1     -27.747  -6.201  23.775  1.00  0.00     0.073 A 
HETATM   18  N1  UNL     1     -26.908  -5.273  23.060  1.00  0.00    -0.100 NA
HETATM   19  C2  UNL     1     -27.661  -6.325  25.143  1.00  0.00     0.030 A 
HETATM   20  C3  UNL     1     -28.458  -7.209  25.839  1.00  0.00     0.027 A 
HETATM   21  C4  UNL     1     -29.381  -8.016  25.198  1.00  0.00     0.081 A 
HETATM   22  C5  UNL     1     -29.460  -7.885  23.828  1.00  0.00     0.056 A 
BRANCH  21  23
HETATM   23  S1  UNL     1     -30.390  -9.137  26.084  1.00  0.00     0.256 S 
HETATM   24  O1  UNL     1     -31.468  -9.717  25.190  1.00  0.00    -0.201 OA
HETATM   25  O2  UNL     1     -29.580 -10.259  26.671  1.00  0.00    -0.201 OA
BRANCH  23  26
HETATM   26  N2  UNL     1     -31.145  -8.301  27.415  1.00  0.00    -0.324 N 
ATOM     27  H22 UNL     1     -30.819  -7.416  27.802  1.00  0.00     0.169 HD
ATOM     28  H21 UNL     1     -31.952  -8.838  27.735  1.00  0.00     0.169 HD
ENDBRANCH  23  26
ENDBRANCH  21  23
ENDBRANCH   1  16
TORSDOF 3
ENDMDL
MODEL 3
REMARK VINA RESULT: -9.281591673      3.431      4.805
REMARK  3 active torsions:
REMARK  status: ('A' for Active; 'I' for Inactive)
REMARK    1  A    between atoms: C4_5  and  S1_6 
REMARK    2  A    between atoms: S1_6  and  N2_7 
REMARK    3  A    between atoms: C6_13  and  N3_14 
ROOT
HETATM    1  N3  UNL     1     -27.728  -8.529  23.825  1.00  0.00    -0.353 N 
ATOM      2  H3  UNL     1     -27.035  -8.156  23.176  1.00  0.00     0.166 HD
HETATM    3  C7  UNL     1     -28.434  -9.460  23.341  1.00  0.00     0.055 A 
HETATM    4  C8  UNL     1     -29.512 -10.272  23.869  1.00  0.00     0.003 A 
HETATM    5  C9  UNL     1     -30.127 -10.292  25.090  1.00  0.00     0.014 A 
HETATM    6  C10 UNL     1     -31.153 -11.190  25.332  1.00  0.00     0.001 A 
HETATM    7  C11 UNL     1     -31.596 -12.084  24.384  1.00  0.00     0.001 A 
HETATM    8  C12 UNL     1     -30.984 -12.076  23.147  1.00  0.00     0.013 A 
HETATM    9  C13 UNL     1     -29.955 -11.174  22.906  1.00  0.00    -0.013 A 
HETATM   10  C14 UNL     1     -29.141 -10.947  21.703  1.00  0.00    -0.013 A 
HETATM   11  C15 UNL     1     -29.166 -11.567  20.468  1.00  0.00     0.013 A 
HETATM   12  C16 UNL     1     -28.279 -11.170  19.473  1.00  0.00     0.001 A 
HETATM   13  C17 UNL     1     -27.369 -10.159  19.701  1.00  0.00     0.001 A 
HETATM   14  C18 UNL     1     -27.374  -9.564  20.948  1.00  0.00     0.014 A 
HETATM   15  C19 UNL     1     -28.239  -9.936  21.953  1.00  0.00     0.003 A 
ENDROOT
BRANCH   1  16
HETATM   16  C6  UNL     1     -27.718  -7.923  25.066  1.00  0.00     0.058 A 
HETATM   17  C1  UNL     1     -28.603  -6.899  25.331  1.00  0.00     0.073 A 
HETATM   18  N1  UNL     1     -29.548  -6.454  24.338  1.00  0.00    -0.100 NA
HETATM   19  C2  UNL     1     -28.555  -6.314  26.576  1.00  0.00     0.030 A 
HETATM   20  C3  UNL     1     -27.655  -6.731  27.534  1.00  0.00     0.027 A 
HETATM   21  C4  UNL     1     -26.758  -7.756  27.293  1.00  0.00     0.081 A 
HETATM   22  C5  UNL     1     -26.813  -8.336  26.044  1.00  0.00     0.056 A 
BRANCH  21  23
HETATM   23  S1  UNL     1     -25.618  -8.281  28.512  1.00  0.00     0.256 S 
HETATM   24  O1  UNL     1     -26.278  -8.348  29.875  1.00  0.00    -0.201 OA
HETATM   25  O2  UNL     1     -25.039  -9.628  28.178  1.00  0.00    -0.201 OA
BRANCH  23  26
HETATM   26  N2  UNL     1     -24.289  -7.156  28.579  1.00  0.00    -0.324 N 
ATOM     27  H22 UNL     1     -23.988  -6.569  27.801  1.00  0.00     0.169 HD
ATOM     28  H21 UNL     1     -23.872  -7.183  29.510  1.00  0.00     0.169 HD
ENDBRANCH  23  26
ENDBRANCH  21  23
ENDBRANCH   1  16
TORSDOF 3
ENDMDL
MODEL 4
REMARK VINA RESULT: -9.176999698      3.039      4.654
REMARK  3 active torsions:
REMARK  status: ('A' for Active; 'I' for Inactive)
REMARK    1  A    between atoms: C4_5  and  S1_6 
REMARK    2  A    between atoms: S1_6  and  N2_7 
REMARK    3  A    between atoms: C6_13  and  N3_14 
ROOT
HETATM    1  N3  UNL     1     -27.538  -7.135  23.461  1.00  0.00    -0.353 N 
ATOM      2  H3  UNL     1     -27.075  -6.249  23.260  1.00  0.00     0.166 HD
HETATM    3  C7  UNL     1     -28.033  -7.698  22.443  1.00  0.00     0.055 A 
HETATM    4  C8  UNL     1     -28.764  -8.933  22.243  1.00  0.00     0.003 A 
HETATM    5  C9  UNL     1     -29.162  -9.910  23.112  1.00  0.00     0.014 A 
HETATM    6  C10 UNL     1     -29.863 -11.009  22.643  1.00  0.00     0.001 A 
HETATM    7  C11 UNL     1     -30.186 -11.171  21.315  1.00  0.00     0.001 A 
HETATM    8  C12 UNL     1     -29.790 -10.193  20.425  1.00  0.00     0.013 A 
HETATM    9  C13 UNL     1     -29.087  -9.092  20.898  1.00  0.00    -0.013 A 
HETATM   10  C14 UNL     1     -28.551  -7.920  20.189  1.00  0.00    -0.013 A 
HETATM   11  C15 UNL     1     -28.593  -7.580  18.850  1.00  0.00     0.013 A 
HETATM   12  C16 UNL     1     -28.003  -6.398  18.416  1.00  0.00     0.001 A 
HETATM   13  C17 UNL     1     -27.373  -5.554  19.306  1.00  0.00     0.001 A 
HETATM   14  C18 UNL     1     -27.352  -5.929  20.636  1.00  0.00     0.014 A 
HETATM   15  C19 UNL     1     -27.927  -7.092  21.097  1.00  0.00     0.003 A 
ENDROOT
BRANCH   1  16
HETATM   16  C6  UNL     1     -27.507  -7.493  24.795  1.00  0.00     0.058 A 
HETATM   17  C1  UNL     1     -26.539  -8.369  25.243  1.00  0.00     0.073 A 
HETATM   18  N1  UNL     1     -25.553  -8.913  24.344  1.00  0.00    -0.100 NA
HETATM   19  C2  UNL     1     -26.547  -8.708  26.576  1.00  0.00     0.030 A 
HETATM   20  C3  UNL     1     -27.487  -8.195  27.445  1.00  0.00     0.027 A 
HETATM   21  C4  UNL     1     -28.466  -7.314  27.021  1.00  0.00     0.081 A 
HETATM   22  C5  UNL     1     -28.450  -6.980  25.684  1.00  0.00     0.056 A 
BRANCH  21  23
HETATM   23  S1  UNL     1     -29.656  -6.665  28.128  1.00  0.00     0.256 S 
HETATM   24  O1  UNL     1     -29.948  -5.211  27.815  1.00  0.00    -0.201 OA
HETATM   25  O2  UNL     1     -30.938  -7.448  28.077  1.00  0.00    -0.201 OA
BRANCH  23  26
HETATM   26  N2  UNL     1     -29.050  -6.784  29.758  1.00  0.00    -0.324 N 
ATOM     27  H22 UNL     1     -28.968  -7.655  30.282  1.00  0.00     0.169 HD
ATOM     28  H21 UNL     1     -28.796  -5.854  30.091  1.00  0.00     0.169 HD
ENDBRANCH  23  26
ENDBRANCH  21  23
ENDBRANCH   1  16
TORSDOF 3
ENDMDL
MODEL 5
REMARK VINA RESULT: -9.098961502      3.464      5.067
REMARK  3 active torsions:
REMARK  status: ('A' for Active; 'I' for Inactive)
REMARK    1  A    between atoms: C4_5  and  S1_6 
REMARK    2  A    between atoms: S1_6  and  N2_7 
REMARK    3  A    between atoms: C6_13  and  N3_14 
ROOT
HETATM    1  N3  UNL     1     -27.425  -7.588  23.262  1.00  0.00    -0.353 N 
ATOM      2  H3  UNL     1     -26.751  -6.967  22.814  1.00  0.00     0.166 HD
HETATM    3  C7  UNL     1     -27.789  -8.556  22.536  1.00  0.00     0.055 A 
HETATM    4  C8  UNL     1     -28.703  -9.663  22.735  1.00  0.00     0.003 A 
HETATM    5  C9  UNL     1     -29.484 -10.023  23.798  1.00  0.00     0.014 A 
HETATM    6  C10 UNL     1     -30.280 -11.154  23.718  1.00  0.00     0.001 A 
HETATM    7  C11 UNL     1     -30.327 -11.951  22.598  1.00  0.00     0.001 A 
HETATM    8  C12 UNL     1     -29.544 -11.601  21.517  1.00  0.00     0.013 A 
HETATM    9  C13 UNL     1     -28.745 -10.466  21.599  1.00  0.00    -0.013 A 
HETATM   10  C14 UNL     1     -27.828  -9.867  20.618  1.00  0.00    -0.013 A 
HETATM   11  C15 UNL     1     -27.498 -10.261  19.335  1.00  0.00     0.013 A 
HETATM   12  C16 UNL     1     -26.587  -9.516  18.593  1.00  0.00     0.001 A 
HETATM   13  C17 UNL     1     -26.006  -8.382  19.121  1.00  0.00     0.001 A 
HETATM   14  C18 UNL     1     -26.362  -8.021  20.406  1.00  0.00     0.014 A 
HETATM   15  C19 UNL     1     -27.259  -8.738  21.165  1.00  0.00     0.003 A 
ENDROOT
BRANCH   1  16
HETATM   16  C6  UNL     1     -27.768  -7.211  24.545  1.00  0.00     0.058 A 
HETATM   17  C1  UNL     1     -28.736  -6.246  24.737  1.00  0.00     0.073 A 
HETATM   18  N1  UNL     1     -29.403  -5.628  23.620  1.00  0.00    -0.100 NA
HETATM   19  C2  UNL     1     -29.042  -5.892  26.031  1.00  0.00     0.030 A 
HETATM   20  C3  UNL     1     -28.409  -6.476  27.108  1.00  0.00     0.027 A 
HETATM   21  C4  UNL     1     -27.436  -7.446  26.942  1.00  0.00     0.081 A 
HETATM   22  C5  UNL     1     -27.136  -7.795  25.643  1.00  0.00     0.056 A 
BRANCH  21  23
HETATM   23  S1  UNL     1     -26.637  -8.184  28.311  1.00  0.00     0.256 S 
HETATM   24  O1  UNL     1     -26.941  -7.426  29.588  1.00  0.00    -0.201 OA
HETATM   25  O2  UNL     1     -27.050  -9.620  28.480  1.00  0.00    -0.201 OA
BRANCH  23  26
HETATM   26  N2  UNL     1     -24.914  -8.176  28.044  1.00  0.00    -0.324 N 
ATOM     27  H22 UNL     1     -24.259  -8.830  28.472  1.00  0.00     0.169 HD
ATOM     28  H21 UNL     1     -24.677  -7.422  27.399  1.00  0.00     0.169 HD
ENDBRANCH  23  26
ENDBRANCH  21  23
ENDBRANCH   1  16
TORSDOF 3
ENDMDL
