MODEL 1
REMARK VINA RESULT: -8.368113182      0.000      0.000
REMARK  5 active torsions:
REMARK  status: ('A' for Active; 'I' for Inactive)
REMARK    1  A    between atoms: C1_2  and  N1_3 
REMARK    2  A    between atoms: C1_2  and  C12_21 
REMARK    3  A    between atoms: N1_3  and  C2_5 
REMARK    4  A    between atoms: C5_10  and  N3_11 
REMARK    5  A    between atoms: N3_11  and  C6_13 
ROOT
HETATM    1  C2  UNL     1     -29.400 -11.008  21.822  1.00  0.00     0.123 A 
HETATM    2  C3  UNL     1     -30.580 -11.460  22.386  1.00  0.00     0.066 A 
HETATM    3  C4  UNL     1     -30.904 -11.053  23.643  1.00  0.00     0.110 A 
HETATM    4  N2  UNL     1     -30.061 -10.226  24.287  1.00  0.00    -0.202 N 
ATOM      5  H2  UNL     1     -30.310  -9.926  25.229  1.00  0.00     0.183 HD
HETATM    6  C5  UNL     1     -28.916  -9.776  23.765  1.00  0.00     0.684 A 
HETATM    7  N4  UNL     1     -28.599 -10.179  22.524  1.00  0.00    -0.176 N 
ATOM      8  H4  UNL     1     -27.730  -9.851  22.102  1.00  0.00     0.186 HD
ENDROOT
BRANCH   1   9
HETATM    9  N1  UNL     1     -29.133 -11.418  20.634  1.00  0.00    -0.331 N 
ATOM     10  H1  UNL     1     -28.879 -12.398  20.509  1.00  0.00     0.168 HD
BRANCH   9  11
HETATM   11  C1  UNL     1     -29.171 -10.584  19.482  1.00  0.00     0.131 C 
HETATM   12  S1  UNL     1     -30.535 -10.572  18.588  1.00  0.00    -0.058 SA
BRANCH  11  13
HETATM   13  C12 UNL     1     -28.018  -9.761  19.109  1.00  0.00     0.094 A 
HETATM   14  C13 UNL     1     -26.822 -10.152  18.544  1.00  0.00     0.123 A 
HETATM   15  N5  UNL     1     -26.046  -9.070  18.369  1.00  0.00    -0.350 N 
HETATM   16  C14 UNL     1     -26.723  -7.983  18.814  1.00  0.00     0.111 A 
ATOM     17  H5  UNL     1     -25.108  -9.067  17.970  1.00  0.00     0.166 HD
HETATM   18  C15 UNL     1     -26.343  -6.651  18.842  1.00  0.00     0.049 A 
HETATM   19  N6  UNL     1     -27.914  -8.417  19.259  1.00  0.00    -0.304 N 
HETATM   20  C16 UNL     1     -27.236  -5.737  19.355  1.00  0.00     0.005 A 
HETATM   21  C17 UNL     1     -28.459  -6.187  19.810  1.00  0.00     0.018 A 
HETATM   22  C18 UNL     1     -28.796  -7.516  19.763  1.00  0.00     0.099 A 
ENDBRANCH  11  13
ENDBRANCH   9  11
ENDBRANCH   1   9
BRANCH   6  23
HETATM   23  N3  UNL     1     -28.113  -8.988  24.380  1.00  0.00    -0.192 N 
ATOM     24  H3  UNL     1     -27.594  -9.323  25.190  1.00  0.00     0.184 HD
BRANCH  23  25
HETATM   25  C6  UNL     1     -27.944  -7.632  23.929  1.00  0.00     0.049 A 
HETATM   26  C7  UNL     1     -28.979  -6.735  23.980  1.00  0.00     0.030 A 
HETATM   27  C8  UNL     1     -28.831  -5.440  23.555  1.00  0.00     0.002 A 
HETATM   28  C9  UNL     1     -27.593  -5.049  23.063  1.00  0.00     0.000 A 
HETATM   29  C10 UNL     1     -26.543  -5.954  23.011  1.00  0.00     0.002 A 
HETATM   30  C11 UNL     1     -26.725  -7.241  23.444  1.00  0.00     0.030 A 
ENDBRANCH  23  25
ENDBRANCH   6  23
TORSDOF 5
ENDMDL
MODEL 2
REMARK VINA RESULT: -8.362377279      1.915      4.790
REMARK  5 active torsions:
REMARK  status: ('A' for Active; 'I' for Inactive)
REMARK    1  A    between atoms: C1_2  and  N1_3 
REMARK    2  A    between atoms: C1_2  and  C12_21 
REMARK    3  A    between atoms: N1_3  and  C2_5 
REMARK    4  A    between atoms: C5_10  and  N3_11 
REMARK    5  A    between atoms: N3_11  and  C6_13 
ROOT
HETATM    1  C2  UNL     1     -30.200 -10.757  21.753  1.00  0.00     0.123 A 
HETATM    2  C3  UNL     1     -29.711 -12.038  21.935  1.00  0.00     0.066 A 
HETATM    3  C4  UNL     1     -28.911 -12.578  20.976  1.00  0.00     0.110 A 
HETATM    4  N2  UNL     1     -28.628 -11.840  19.888  1.00  0.00    -0.202 N 
ATOM      5  H2  UNL     1     -28.028 -12.251  19.173  1.00  0.00     0.183 HD
HETATM    6  C5  UNL     1     -29.087 -10.601  19.688  1.00  0.00     0.684 A 
HETATM    7  N4  UNL     1     -29.877 -10.071  20.636  1.00  0.00    -0.176 N 
ATOM      8  H4  UNL     1     -30.242  -9.127  20.508  1.00  0.00     0.186 HD
ENDROOT
BRANCH   1   9
HETATM    9  N1  UNL     1     -30.952 -10.287  22.683  1.00  0.00    -0.331 N 
ATOM     10  H1  UNL     1     -31.963 -10.323  22.547  1.00  0.00     0.168 HD
BRANCH   9  11
HETATM   11  C1  UNL     1     -30.458  -9.719  23.890  1.00  0.00     0.131 C 
HETATM   12  S1  UNL     1     -30.541 -10.616  25.250  1.00  0.00    -0.058 SA
BRANCH  11  13
HETATM   13  C12 UNL     1     -29.892  -8.369  23.911  1.00  0.00     0.094 A 
HETATM   14  C13 UNL     1     -30.453  -7.203  24.390  1.00  0.00     0.123 A 
HETATM   15  N5  UNL     1     -29.585  -6.194  24.210  1.00  0.00    -0.350 N 
HETATM   16  C14 UNL     1     -28.469  -6.690  23.621  1.00  0.00     0.111 A 
ATOM     17  H5  UNL     1     -29.739  -5.221  24.473  1.00  0.00     0.166 HD
HETATM   18  C15 UNL     1     -27.305  -6.044  23.238  1.00  0.00     0.049 A 
HETATM   19  N6  UNL     1     -28.670  -8.007  23.446  1.00  0.00    -0.304 N 
HETATM   20  C16 UNL     1     -26.314  -6.797  22.651  1.00  0.00     0.005 A 
HETATM   21  C17 UNL     1     -26.524  -8.150  22.474  1.00  0.00     0.018 A 
HETATM   22  C18 UNL     1     -27.692  -8.751  22.868  1.00  0.00     0.099 A 
ENDBRANCH  11  13
ENDBRANCH   9  11
ENDBRANCH   1   9
BRANCH   6  23
HETATM   23  N3  UNL     1     -28.816  -9.899  18.650  1.00  0.00    -0.192 N 
ATOM     24  H3  UNL     1     -29.299 -10.083  17.772  1.00  0.00     0.184 HD
BRANCH  23  25
HETATM   25  C6  UNL     1     -27.831  -8.852  18.721  1.00  0.00     0.049 A 
HETATM   26  C7  UNL     1     -28.202  -7.533  18.763  1.00  0.00     0.030 A 
HETATM   27  C8  UNL     1     -27.275  -6.526  18.832  1.00  0.00     0.002 A 
HETATM   28  C9  UNL     1     -25.931  -6.874  18.858  1.00  0.00     0.000 A 
HETATM   29  C10 UNL     1     -25.552  -8.207  18.816  1.00  0.00     0.002 A 
HETATM   30  C11 UNL     1     -26.505  -9.189  18.748  1.00  0.00     0.030 A 
ENDBRANCH  23  25
ENDBRANCH   6  23
TORSDOF 5
ENDMDL
MODEL 3
REMARK VINA RESULT: -8.353110914      1.938      4.514
REMARK  5 active torsions:
REMARK  status: ('A' for Active; 'I' for Inactive)
REMARK    1  A    between atoms: C1_2  and  N1_3 
REMARK    2  A    between atoms: C1_2  and  C12_21 
REMARK    3  A    between atoms: N1_3  and  C2_5 
REMARK    4  A    between atoms: C5_10  and  N3_11 
REMARK    5  A    between atoms: N3_11  and  C6_13 
ROOT
HETATM    1  C2  UNL     1     -29.892 -10.612  21.887  1.00  0.00     0.123 A 
HETATM    2  C3  UNL     1     -29.577 -11.949  22.057  1.00  0.00     0.066 A 
HETATM    3  C4  UNL     1     -28.960 -12.613  21.043  1.00  0.00     0.110 A 
HETATM    4  N2  UNL     1     -28.681 -11.940  19.913  1.00  0.00    -0.202 N 
ATOM      5  H2  UNL     1     -28.219 -12.444  19.156  1.00  0.00     0.183 HD
HETATM    6  C5  UNL     1     -28.974 -10.650  19.722  1.00  0.00     0.684 A 
HETATM    7  N4  UNL     1     -29.584  -9.997  20.724  1.00  0.00    -0.176 N 
ATOM      8  H4  UNL     1     -29.820  -9.012  20.605  1.00  0.00     0.186 HD
ENDROOT
BRANCH   1   9
HETATM    9  N1  UNL     1     -30.474 -10.025  22.869  1.00  0.00    -0.331 N 
ATOM     10  H1  UNL     1     -31.473  -9.832  22.790  1.00  0.00     0.168 HD
BRANCH   9  11
HETATM   11  C1  UNL     1     -29.808  -9.626  24.061  1.00  0.00     0.131 C 
HETATM   12  S1  UNL     1     -30.542  -9.926  25.487  1.00  0.00    -0.058 SA
BRANCH  11  13
HETATM   13  C12 UNL     1     -28.502  -8.967  24.010  1.00  0.00     0.094 A 
HETATM   14  C13 UNL     1     -27.322  -9.335  24.621  1.00  0.00     0.123 A 
HETATM   15  N5  UNL     1     -26.368  -8.444  24.304  1.00  0.00    -0.350 N 
HETATM   16  C14 UNL     1     -26.914  -7.503  23.496  1.00  0.00     0.111 A 
ATOM     17  H5  UNL     1     -25.398  -8.471  24.618  1.00  0.00     0.166 HD
HETATM   18  C15 UNL     1     -26.333  -6.388  22.912  1.00  0.00     0.049 A 
HETATM   19  N6  UNL     1     -28.205  -7.832  23.327  1.00  0.00    -0.304 N 
HETATM   20  C16 UNL     1     -27.128  -5.587  22.124  1.00  0.00     0.005 A 
HETATM   21  C17 UNL     1     -28.454  -5.929  21.952  1.00  0.00     0.018 A 
HETATM   22  C18 UNL     1     -28.989  -7.043  22.549  1.00  0.00     0.099 A 
ENDBRANCH  11  13
ENDBRANCH   9  11
ENDBRANCH   1   9
BRANCH   6  23
HETATM   23  N3  UNL     1     -28.708 -10.010  18.643  1.00  0.00    -0.192 N 
ATOM     24  H3  UNL     1     -29.147 -10.287  17.766  1.00  0.00     0.184 HD
BRANCH  23  25
HETATM   25  C6  UNL     1     -27.791  -8.901  18.668  1.00  0.00     0.049 A 
HETATM   26  C7  UNL     1     -28.219  -7.624  18.414  1.00  0.00     0.030 A 
HETATM   27  C8  UNL     1     -27.356  -6.558  18.435  1.00  0.00     0.002 A 
HETATM   28  C9  UNL     1     -26.020  -6.802  18.722  1.00  0.00     0.000 A 
HETATM   29  C10 UNL     1     -25.584  -8.093  18.979  1.00  0.00     0.002 A 
HETATM   30  C11 UNL     1     -26.473  -9.136  18.951  1.00  0.00     0.030 A 
ENDBRANCH  23  25
ENDBRANCH   6  23
TORSDOF 5
ENDMDL
MODEL 4
REMARK VINA RESULT: -8.352951786      2.398      4.714
REMARK  5 active torsions:
REMARK  status: ('A' for Active; 'I' for Inactive)
REMARK    1  A    between atoms: C1_2  and  N1_3 
REMARK    2  A    between atoms: C1_2  and  C12_21 
REMARK    3  A    between atoms: N1_3  and  C2_5 
REMARK    4  A    between atoms: C5_10  and  N3_11 
REMARK    5  A    between atoms: N3_11  and  C6_13 
ROOT
HETATM    1  C2  UNL     1     -30.335 -11.212  23.044  1.00  0.00     0.123 A 
HETATM    2  C3  UNL     1     -30.738 -12.439  23.539  1.00  0.00     0.066 A 
HETATM    3  C4  UNL     1     -30.338 -13.570  22.895  1.00  0.00     0.110 A 
HETATM    4  N2  UNL     1     -29.567 -13.446  21.801  1.00  0.00    -0.202 N 
ATOM      5  H2  UNL     1     -29.272 -14.297  21.323  1.00  0.00     0.183 HD
HETATM    6  C5  UNL     1     -29.165 -12.273  21.302  1.00  0.00     0.684 A 
HETATM    7  N4  UNL     1     -29.560 -11.159  21.939  1.00  0.00    -0.176 N 
ATOM      8  H4  UNL     1     -29.268 -10.250  21.579  1.00  0.00     0.186 HD
ENDROOT
BRANCH   1   9
HETATM    9  N1  UNL     1     -30.735 -10.171  23.682  1.00  0.00    -0.331 N 
ATOM     10  H1  UNL     1     -31.692  -9.852  23.529  1.00  0.00     0.168 HD
BRANCH   9  11
HETATM   11  C1  UNL     1     -29.921  -9.437  24.589  1.00  0.00     0.131 C 
HETATM   12  S1  UNL     1     -30.514  -9.133  26.078  1.00  0.00    -0.058 SA
BRANCH  11  13
HETATM   13  C12 UNL     1     -28.590  -8.968  24.197  1.00  0.00     0.094 A 
HETATM   14  C13 UNL     1     -27.375  -9.210  24.803  1.00  0.00     0.123 A 
HETATM   15  N5  UNL     1     -26.409  -8.585  24.110  1.00  0.00    -0.350 N 
HETATM   16  C14 UNL     1     -26.982  -7.941  23.063  1.00  0.00     0.111 A 
ATOM     17  H5  UNL     1     -25.414  -8.594  24.333  1.00  0.00     0.166 HD
HETATM   18  C15 UNL     1     -26.401  -7.166  22.072  1.00  0.00     0.049 A 
HETATM   19  N6  UNL     1     -28.302  -8.182  23.130  1.00  0.00    -0.304 N 
HETATM   20  C16 UNL     1     -27.228  -6.621  21.116  1.00  0.00     0.005 A 
HETATM   21  C17 UNL     1     -28.583  -6.871  21.187  1.00  0.00     0.018 A 
HETATM   22  C18 UNL     1     -29.117  -7.645  22.186  1.00  0.00     0.099 A 
ENDBRANCH  11  13
ENDBRANCH   9  11
ENDBRANCH   1   9
BRANCH   6  23
HETATM   23  N3  UNL     1     -28.429 -12.156  20.258  1.00  0.00    -0.192 N 
ATOM     24  H3  UNL     1     -27.745 -12.879  20.036  1.00  0.00     0.184 HD
BRANCH  23  25
HETATM   25  C6  UNL     1     -28.567 -11.009  19.401  1.00  0.00     0.049 A 
HETATM   26  C7  UNL     1     -29.771 -10.694  18.828  1.00  0.00     0.030 A 
HETATM   27  C8  UNL     1     -29.916  -9.604  18.009  1.00  0.00     0.002 A 
HETATM   28  C9  UNL     1     -28.801  -8.813  17.768  1.00  0.00     0.000 A 
HETATM   29  C10 UNL     1     -27.581  -9.128  18.347  1.00  0.00     0.002 A 
HETATM   30  C11 UNL     1     -27.471 -10.225  19.160  1.00  0.00     0.030 A 
ENDBRANCH  23  25
ENDBRANCH   6  23
TORSDOF 5
ENDMDL
MODEL 5
REMARK VINA RESULT: -8.178008134      2.024      4.600
REMARK  5 active torsions:
REMARK  status: ('A' for Active; 'I' for Inactive)
REMARK    1  A    between atoms: C1_2  and  N1_3 
REMARK    2  A    between atoms: C1_2  and  C12_21 
REMARK    3  A    between atoms: N1_3  and  C2_5 
REMARK    4  A    between atoms: C5_10  and  N3_11 
REMARK    5  A    between atoms: N3_11  and  C6_13 
ROOT
HETATM    1  C2  UNL     1     -27.579  -6.630  21.816  1.00  0.00     0.123 A 
HETATM    2  C3  UNL     1     -26.674  -6.350  22.824  1.00  0.00     0.066 A 
HETATM    3  C4  UNL     1     -27.036  -6.585  24.115  1.00  0.00     0.110 A 
HETATM    4  N2  UNL     1     -28.262  -7.080  24.357  1.00  0.00    -0.202 N 
ATOM      5  H2  UNL     1     -28.527  -7.253  25.326  1.00  0.00     0.183 HD
HETATM    6  C5  UNL     1     -29.155  -7.358  23.402  1.00  0.00     0.684 A 
HETATM    7  N4  UNL     1     -28.795  -7.125  22.129  1.00  0.00    -0.176 N 
ATOM      8  H4  UNL     1     -29.458  -7.328  21.381  1.00  0.00     0.186 HD
ENDROOT
BRANCH   1   9
HETATM    9  N1  UNL     1     -27.196  -6.393  20.613  1.00  0.00    -0.331 N 
ATOM     10  H1  UNL     1     -27.250  -5.433  20.272  1.00  0.00     0.168 HD
BRANCH   9  11
HETATM   11  C1  UNL     1     -26.701  -7.391  19.728  1.00  0.00     0.131 C 
HETATM   12  S1  UNL     1     -25.599  -6.947  18.611  1.00  0.00    -0.058 SA
BRANCH  11  13
HETATM   13  C12 UNL     1     -27.169  -8.776  19.817  1.00  0.00     0.094 A 
HETATM   14  C13 UNL     1     -26.525  -9.873  20.349  1.00  0.00     0.123 A 
HETATM   15  N5  UNL     1     -27.318 -10.950  20.223  1.00  0.00    -0.350 N 
HETATM   16  C14 UNL     1     -28.468 -10.564  19.616  1.00  0.00     0.111 A 
ATOM     17  H5  UNL     1     -27.094 -11.896  20.532  1.00  0.00     0.166 HD
HETATM   18  C15 UNL     1     -29.583 -11.311  19.272  1.00  0.00     0.049 A 
HETATM   19  N6  UNL     1     -28.362  -9.247  19.376  1.00  0.00    -0.304 N 
HETATM   20  C16 UNL     1     -30.627 -10.660  18.654  1.00  0.00     0.005 A 
HETATM   21  C17 UNL     1     -30.515  -9.305  18.410  1.00  0.00     0.018 A 
HETATM   22  C18 UNL     1     -29.392  -8.604  18.768  1.00  0.00     0.099 A 
ENDBRANCH  11  13
ENDBRANCH   9  11
ENDBRANCH   1   9
BRANCH   6  23
HETATM   23  N3  UNL     1     -30.324  -7.831  23.634  1.00  0.00    -0.192 N 
ATOM     24  H3  UNL     1     -31.123  -7.201  23.697  1.00  0.00     0.184 HD
BRANCH  23  25
HETATM   25  C6  UNL     1     -30.512  -9.247  23.806  1.00  0.00     0.049 A 
HETATM   26  C7  UNL     1     -30.498 -10.098  22.731  1.00  0.00     0.030 A 
HETATM   27  C8  UNL     1     -30.674 -11.449  22.881  1.00  0.00     0.002 A 
HETATM   28  C9  UNL     1     -30.872 -11.946  24.162  1.00  0.00     0.000 A 
HETATM   29  C10 UNL     1     -30.886 -11.088  25.251  1.00  0.00     0.002 A 
HETATM   30  C11 UNL     1     -30.706  -9.743  25.066  1.00  0.00     0.030 A 
ENDBRANCH  23  25
ENDBRANCH   6  23
TORSDOF 5
ENDMDL
