MODEL 1
REMARK VINA RESULT: -7.112555726      0.000      0.000
REMARK  13 active torsions:
REMARK  status: ('A' for Active; 'I' for Inactive)
REMARK    1  A    between atoms: N1_1  and  C1_5 
REMARK    2  A    between atoms: C1_5  and  C2_6 
REMARK    3  A    between atoms: C2_6  and  N2_7 
REMARK    4  A    between atoms: N2_7  and  C3_10 
REMARK    5  A    between atoms: C3_10  and  C4_11 
REMARK       I    between atoms: C4_11  and  N3_13 
REMARK    6  A    between atoms: N3_13  and  C5_15 
REMARK    7  A    between atoms: C5_15  and  C6_16 
REMARK       I    between atoms: C6_16  and  N4_18 
REMARK    8  A    between atoms: N4_18  and  C7_20 
REMARK    9  A    between atoms: C8_24  and  N6_25 
REMARK       I    between atoms: N6_25  and  C9_27 
REMARK   10  A    between atoms: C9_27  and  C10_29 
REMARK   11  A    between atoms: C10_29  and  N7_30 
REMARK   12  A    between atoms: C10_29  and  C11_34 
REMARK   13  A    between atoms: C11_34  and  N8_35 
ROOT
HETATM    1  C7  UNL     1      80.252  24.975   2.791  1.00  0.00     0.339 A 
HETATM    2  N5  UNL     1      80.655  24.967   4.158  1.00  0.00    -0.026 N 
ATOM      3  H51 UNL     1      81.517  24.672   4.617  1.00  0.00     0.282 HD
ATOM      4  H52 UNL     1      80.360  24.403   4.955  1.00  0.00     0.282 HD
HETATM    5  C8  UNL     1      80.215  26.236   3.666  1.00  0.00     0.339 A 
ENDROOT
BRANCH   1   6
HETATM    6  N4  UNL     1      81.355  24.880   1.822  1.00  0.00    -0.329 N 
HETATM    7  C6  UNL     1      82.135  23.721   1.711  1.00  0.00     0.237 C 
HETATM    8  O2  UNL     1      81.873  22.749   2.466  1.00  0.00    -0.272 OA
ATOM      9  H4  UNL     1      81.557  25.676   1.218  1.00  0.00     0.164 HD
BRANCH   7  10
HETATM   10  C5  UNL     1      83.233  23.586   0.769  1.00  0.00     0.225 C 
BRANCH  10  11
HETATM   11  N3  UNL     1      83.640  22.273   0.404  1.00  0.00    -0.351 N 
HETATM   12  C4  UNL     1      82.725  21.475  -0.362  1.00  0.00     0.243 C 
HETATM   13  O1  UNL     1      81.599  21.953  -0.687  1.00  0.00    -0.272 OA
ATOM     14  H3  UNL     1      84.553  21.910   0.677  1.00  0.00     0.163 HD
BRANCH  12  15
HETATM   15  C3  UNL     1      83.136  20.121  -0.744  1.00  0.00     0.334 C 
BRANCH  15  16
HETATM   16  N2  UNL     1      83.702  19.379   0.338  1.00  0.00    -0.065 N 
ATOM     17  H22 UNL     1      83.158  19.488   1.194  1.00  0.00     0.277 HD
ATOM     18  H21 UNL     1      84.579  19.789   0.658  1.00  0.00     0.277 HD
BRANCH  16  19
HETATM   19  C2  UNL     1      83.861  18.002  -0.013  1.00  0.00     0.260 C 
BRANCH  19  20
HETATM   20  C1  UNL     1      84.668  17.251   1.062  1.00  0.00     0.257 C 
BRANCH  20  21
HETATM   21  N1  UNL     1      84.913  18.217   2.122  1.00  0.00    -0.078 N 
ATOM     22  H13 UNL     1      84.330  19.052   2.057  1.00  0.00     0.274 HD
ATOM     23  H12 UNL     1      84.583  17.910   3.038  1.00  0.00     0.274 HD
ATOM     24  H11 UNL     1      85.913  18.414   2.094  1.00  0.00     0.274 HD
ENDBRANCH  20  21
ENDBRANCH  19  20
ENDBRANCH  16  19
ENDBRANCH  15  16
ENDBRANCH  12  15
ENDBRANCH  10  11
ENDBRANCH   7  10
ENDBRANCH   1   6
BRANCH   5  25
HETATM   25  N6  UNL     1      81.158  27.286   3.363  1.00  0.00    -0.328 N 
HETATM   26  C9  UNL     1      82.500  27.283   3.813  1.00  0.00     0.251 C 
HETATM   27  O3  UNL     1      82.832  26.269   4.516  1.00  0.00    -0.271 OA
ATOM     28  H6  UNL     1      80.841  28.072   2.795  1.00  0.00     0.164 HD
BRANCH  26  29
HETATM   29  C10 UNL     1      83.500  28.306   3.547  1.00  0.00     0.299 C 
BRANCH  29  30
HETATM   30  N7  UNL     1      82.845  29.533   3.118  1.00  0.00    -0.065 N 
ATOM     31  H73 UNL     1      83.515  30.246   2.829  1.00  0.00     0.275 HD
ATOM     32  H72 UNL     1      82.360  29.418   2.228  1.00  0.00     0.275 HD
ATOM     33  H71 UNL     1      82.222  29.866   3.854  1.00  0.00     0.275 HD
ENDBRANCH  29  30
BRANCH  29  34
HETATM   34  C11 UNL     1      84.577  27.926   2.567  1.00  0.00     0.272 C 
BRANCH  34  35
HETATM   35  N8  UNL     1      84.368  26.665   1.929  1.00  0.00    -0.077 N 
ATOM     36  H83 UNL     1      83.673  26.118   2.437  1.00  0.00     0.274 HD
ATOM     37  H82 UNL     1      83.877  26.790   1.043  1.00  0.00     0.274 HD
ATOM     38  H81 UNL     1      85.219  26.120   1.790  1.00  0.00     0.274 HD
ENDBRANCH  34  35
ENDBRANCH  29  34
ENDBRANCH  26  29
ENDBRANCH   5  25
TORSDOF 13
ENDMDL
MODEL 2
REMARK VINA RESULT: -7.000289422      1.341      1.341
REMARK  13 active torsions:
REMARK  status: ('A' for Active; 'I' for Inactive)
REMARK    1  A    between atoms: N1_1  and  C1_5 
REMARK    2  A    between atoms: C1_5  and  C2_6 
REMARK    3  A    between atoms: C2_6  and  N2_7 
REMARK    4  A    between atoms: N2_7  and  C3_10 
REMARK    5  A    between atoms: C3_10  and  C4_11 
REMARK       I    between atoms: C4_11  and  N3_13 
REMARK    6  A    between atoms: N3_13  and  C5_15 
REMARK    7  A    between atoms: C5_15  and  C6_16 
REMARK       I    between atoms: C6_16  and  N4_18 
REMARK    8  A    between atoms: N4_18  and  C7_20 
REMARK    9  A    between atoms: C8_24  and  N6_25 
REMARK       I    between atoms: N6_25  and  C9_27 
REMARK   10  A    between atoms: C9_27  and  C10_29 
REMARK   11  A    between atoms: C10_29  and  N7_30 
REMARK   12  A    between atoms: C10_29  and  C11_34 
REMARK   13  A    between atoms: C11_34  and  N8_35 
ROOT
HETATM    1  C7  UNL     1      80.079  24.790   3.148  1.00  0.00     0.339 A 
HETATM    2  N5  UNL     1      80.010  25.382   4.443  1.00  0.00    -0.026 N 
ATOM      3  H51 UNL     1      80.597  25.288   5.272  1.00  0.00     0.282 HD
ATOM      4  H52 UNL     1      79.364  25.253   5.221  1.00  0.00     0.282 HD
HETATM    5  C8  UNL     1      80.028  26.310   3.354  1.00  0.00     0.339 A 
ENDROOT
BRANCH   1   6
HETATM    6  N4  UNL     1      81.389  24.217   2.801  1.00  0.00    -0.329 N 
HETATM    7  C6  UNL     1      81.920  24.331   1.508  1.00  0.00     0.237 C 
HETATM    8  O2  UNL     1      81.247  24.938   0.637  1.00  0.00    -0.272 OA
ATOM      9  H4  UNL     1      81.923  23.726   3.517  1.00  0.00     0.164 HD
BRANCH   7  10
HETATM   10  C5  UNL     1      83.208  23.780   1.124  1.00  0.00     0.225 C 
BRANCH  10  11
HETATM   11  N3  UNL     1      83.244  22.443   0.640  1.00  0.00    -0.351 N 
HETATM   12  C4  UNL     1      84.467  21.972   0.057  1.00  0.00     0.243 C 
HETATM   13  O1  UNL     1      85.467  22.747  -0.010  1.00  0.00    -0.272 OA
ATOM     14  H3  UNL     1      82.425  21.838   0.706  1.00  0.00     0.163 HD
BRANCH  12  15
HETATM   15  C3  UNL     1      84.514  20.595  -0.444  1.00  0.00     0.334 C 
BRANCH  15  16
HETATM   16  N2  UNL     1      83.870  19.660   0.422  1.00  0.00    -0.065 N 
ATOM     17  H22 UNL     1      82.942  19.981   0.700  1.00  0.00     0.277 HD
ATOM     18  H21 UNL     1      84.307  19.637   1.343  1.00  0.00     0.277 HD
BRANCH  16  19
HETATM   19  C2  UNL     1      83.822  18.360  -0.171  1.00  0.00     0.260 C 
BRANCH  19  20
HETATM   20  C1  UNL     1      84.474  17.312   0.749  1.00  0.00     0.257 C 
BRANCH  20  21
HETATM   21  N1  UNL     1      84.853  18.026   1.959  1.00  0.00    -0.078 N 
ATOM     22  H13 UNL     1      85.745  17.722   2.350  1.00  0.00     0.274 HD
ATOM     23  H12 UNL     1      85.117  18.997   1.794  1.00  0.00     0.274 HD
ATOM     24  H11 UNL     1      84.068  17.920   2.602  1.00  0.00     0.274 HD
ENDBRANCH  20  21
ENDBRANCH  19  20
ENDBRANCH  16  19
ENDBRANCH  15  16
ENDBRANCH  12  15
ENDBRANCH  10  11
ENDBRANCH   7  10
ENDBRANCH   1   6
BRANCH   5  25
HETATM   25  N6  UNL     1      81.217  27.066   3.038  1.00  0.00    -0.328 N 
HETATM   26  C9  UNL     1      82.053  27.651   4.019  1.00  0.00     0.251 C 
HETATM   27  O3  UNL     1      81.684  27.461   5.227  1.00  0.00    -0.271 OA
ATOM     28  H6  UNL     1      81.467  27.185   2.057  1.00  0.00     0.164 HD
BRANCH  26  29
HETATM   29  C10 UNL     1      83.261  28.425   3.770  1.00  0.00     0.299 C 
BRANCH  29  30
HETATM   30  N7  UNL     1      82.903  29.762   3.322  1.00  0.00    -0.065 N 
ATOM     31  H73 UNL     1      83.321  30.487   3.904  1.00  0.00     0.275 HD
ATOM     32  H72 UNL     1      83.353  30.004   2.440  1.00  0.00     0.275 HD
ATOM     33  H71 UNL     1      81.888  29.848   3.270  1.00  0.00     0.275 HD
ENDBRANCH  29  30
BRANCH  29  34
HETATM   34  C11 UNL     1      84.246  27.806   2.816  1.00  0.00     0.272 C 
BRANCH  34  35
HETATM   35  N8  UNL     1      84.522  26.428   3.073  1.00  0.00    -0.077 N 
ATOM     36  H83 UNL     1      84.731  25.937   2.204  1.00  0.00     0.274 HD
ATOM     37  H82 UNL     1      85.419  26.326   3.549  1.00  0.00     0.274 HD
ATOM     38  H81 UNL     1      83.788  25.943   3.589  1.00  0.00     0.274 HD
ENDBRANCH  34  35
ENDBRANCH  29  34
ENDBRANCH  26  29
ENDBRANCH   5  25
TORSDOF 13
ENDMDL
MODEL 3
REMARK VINA RESULT: -6.994831327      1.023      1.407
REMARK  13 active torsions:
REMARK  status: ('A' for Active; 'I' for Inactive)
REMARK    1  A    between atoms: N1_1  and  C1_5 
REMARK    2  A    between atoms: C1_5  and  C2_6 
REMARK    3  A    between atoms: C2_6  and  N2_7 
REMARK    4  A    between atoms: N2_7  and  C3_10 
REMARK    5  A    between atoms: C3_10  and  C4_11 
REMARK       I    between atoms: C4_11  and  N3_13 
REMARK    6  A    between atoms: N3_13  and  C5_15 
REMARK    7  A    between atoms: C5_15  and  C6_16 
REMARK       I    between atoms: C6_16  and  N4_18 
REMARK    8  A    between atoms: N4_18  and  C7_20 
REMARK    9  A    between atoms: C8_24  and  N6_25 
REMARK       I    between atoms: N6_25  and  C9_27 
REMARK   10  A    between atoms: C9_27  and  C10_29 
REMARK   11  A    between atoms: C10_29  and  N7_30 
REMARK   12  A    between atoms: C10_29  and  C11_34 
REMARK   13  A    between atoms: C11_34  and  N8_35 
ROOT
HETATM    1  C7  UNL     1      80.706  24.610   2.305  1.00  0.00     0.339 A 
HETATM    2  N5  UNL     1      81.205  24.731   3.635  1.00  0.00    -0.026 N 
ATOM      3  H51 UNL     1      82.075  24.422   4.071  1.00  0.00     0.282 HD
ATOM      4  H52 UNL     1      80.929  24.290   4.512  1.00  0.00     0.282 HD
HETATM    5  C8  UNL     1      80.825  25.964   3.019  1.00  0.00     0.339 A 
ENDROOT
BRANCH   1   6
HETATM    6  N4  UNL     1      81.726  24.312   1.288  1.00  0.00    -0.329 N 
HETATM    7  C6  UNL     1      82.484  23.134   1.333  1.00  0.00     0.237 C 
HETATM    8  O2  UNL     1      82.276  22.325   2.273  1.00  0.00    -0.272 OA
ATOM      9  H4  UNL     1      81.885  24.978   0.532  1.00  0.00     0.164 HD
BRANCH   7  10
HETATM   10  C5  UNL     1      83.500  22.801   0.349  1.00  0.00     0.225 C 
BRANCH  10  11
HETATM   11  N3  UNL     1      83.707  21.428   0.043  1.00  0.00    -0.351 N 
HETATM   12  C4  UNL     1      82.717  20.761  -0.754  1.00  0.00     0.243 C 
HETATM   13  O1  UNL     1      81.703  21.403  -1.157  1.00  0.00    -0.272 OA
ATOM     14  H3  UNL     1      84.533  20.933   0.379  1.00  0.00     0.163 HD
BRANCH  12  15
HETATM   15  C3  UNL     1      82.922  19.346  -1.076  1.00  0.00     0.334 C 
BRANCH  15  16
HETATM   16  N2  UNL     1      84.296  18.956  -1.047  1.00  0.00    -0.065 N 
ATOM     17  H22 UNL     1      84.895  19.713  -0.718  1.00  0.00     0.277 HD
ATOM     18  H21 UNL     1      84.677  18.854  -1.987  1.00  0.00     0.277 HD
BRANCH  16  19
HETATM   19  C2  UNL     1      84.475  17.768  -0.273  1.00  0.00     0.260 C 
BRANCH  19  20
HETATM   20  C1  UNL     1      84.451  18.084   1.233  1.00  0.00     0.257 C 
BRANCH  20  21
HETATM   21  N1  UNL     1      85.226  17.031   1.872  1.00  0.00    -0.078 N 
ATOM     22  H13 UNL     1      84.975  16.875   2.849  1.00  0.00     0.274 HD
ATOM     23  H12 UNL     1      84.997  16.095   1.537  1.00  0.00     0.274 HD
ATOM     24  H11 UNL     1      86.204  17.285   1.738  1.00  0.00     0.274 HD
ENDBRANCH  20  21
ENDBRANCH  19  20
ENDBRANCH  16  19
ENDBRANCH  15  16
ENDBRANCH  12  15
ENDBRANCH  10  11
ENDBRANCH   7  10
ENDBRANCH   1   6
BRANCH   5  25
HETATM   25  N6  UNL     1      81.818  26.891   2.530  1.00  0.00    -0.328 N 
HETATM   26  C9  UNL     1      83.104  27.032   3.104  1.00  0.00     0.251 C 
HETATM   27  O3  UNL     1      83.336  26.270   4.103  1.00  0.00    -0.271 OA
ATOM     28  H6  UNL     1      81.581  27.475   1.727  1.00  0.00     0.164 HD
BRANCH  26  29
HETATM   29  C10 UNL     1      84.148  27.945   2.664  1.00  0.00     0.299 C 
BRANCH  29  30
HETATM   30  N7  UNL     1      85.289  27.855   3.563  1.00  0.00    -0.065 N 
ATOM     31  H73 UNL     1      85.673  26.911   3.604  1.00  0.00     0.275 HD
ATOM     32  H72 UNL     1      86.110  28.332   3.190  1.00  0.00     0.275 HD
ATOM     33  H71 UNL     1      85.029  28.205   4.486  1.00  0.00     0.275 HD
ENDBRANCH  29  30
BRANCH  29  34
HETATM   34  C11 UNL     1      83.731  29.381   2.500  1.00  0.00     0.272 C 
BRANCH  34  35
HETATM   35  N8  UNL     1      82.826  29.846   3.503  1.00  0.00    -0.077 N 
ATOM     36  H83 UNL     1      82.321  29.063   3.918  1.00  0.00     0.274 HD
ATOM     37  H82 UNL     1      83.338  30.176   4.321  1.00  0.00     0.274 HD
ATOM     38  H81 UNL     1      82.173  30.559   3.178  1.00  0.00     0.274 HD
ENDBRANCH  34  35
ENDBRANCH  29  34
ENDBRANCH  26  29
ENDBRANCH   5  25
TORSDOF 13
ENDMDL
MODEL 4
REMARK VINA RESULT: -6.973420895      1.589      2.914
REMARK  13 active torsions:
REMARK  status: ('A' for Active; 'I' for Inactive)
REMARK    1  A    between atoms: N1_1  and  C1_5 
REMARK    2  A    between atoms: C1_5  and  C2_6 
REMARK    3  A    between atoms: C2_6  and  N2_7 
REMARK    4  A    between atoms: N2_7  and  C3_10 
REMARK    5  A    between atoms: C3_10  and  C4_11 
REMARK       I    between atoms: C4_11  and  N3_13 
REMARK    6  A    between atoms: N3_13  and  C5_15 
REMARK    7  A    between atoms: C5_15  and  C6_16 
REMARK       I    between atoms: C6_16  and  N4_18 
REMARK    8  A    between atoms: N4_18  and  C7_20 
REMARK    9  A    between atoms: C8_24  and  N6_25 
REMARK       I    between atoms: N6_25  and  C9_27 
REMARK   10  A    between atoms: C9_27  and  C10_29 
REMARK   11  A    between atoms: C10_29  and  N7_30 
REMARK   12  A    between atoms: C10_29  and  C11_34 
REMARK   13  A    between atoms: C11_34  and  N8_35 
ROOT
HETATM    1  C7  UNL     1      85.050  24.789   2.094  1.00  0.00     0.339 A 
HETATM    2  N5  UNL     1      85.313  25.684   1.016  1.00  0.00    -0.026 N 
ATOM      3  H51 UNL     1      85.042  25.670   0.032  1.00  0.00     0.282 HD
ATOM      4  H52 UNL     1      86.164  25.897   0.495  1.00  0.00     0.282 HD
HETATM    5  C8  UNL     1      84.717  26.285   2.168  1.00  0.00     0.339 A 
ENDROOT
BRANCH   1   6
HETATM    6  N4  UNL     1      83.920  23.874   1.874  1.00  0.00    -0.329 N 
HETATM    7  C6  UNL     1      83.913  22.958   0.813  1.00  0.00     0.237 C 
HETATM    8  O2  UNL     1      84.904  22.932   0.039  1.00  0.00    -0.272 OA
ATOM      9  H4  UNL     1      83.122  23.907   2.508  1.00  0.00     0.164 HD
BRANCH   7  10
HETATM   10  C5  UNL     1      82.817  22.037   0.561  1.00  0.00     0.225 C 
BRANCH  10  11
HETATM   11  N3  UNL     1      83.139  20.687   0.251  1.00  0.00    -0.351 N 
HETATM   12  C4  UNL     1      82.770  20.188  -1.042  1.00  0.00     0.243 C 
HETATM   13  O1  UNL     1      82.177  20.951  -1.861  1.00  0.00    -0.272 OA
ATOM     14  H3  UNL     1      83.617  20.092   0.928  1.00  0.00     0.163 HD
BRANCH  12  15
HETATM   15  C3  UNL     1      83.098  18.798  -1.371  1.00  0.00     0.334 C 
BRANCH  15  16
HETATM   16  N2  UNL     1      84.468  18.473  -1.135  1.00  0.00    -0.065 N 
ATOM     17  H22 UNL     1      84.996  19.282  -0.807  1.00  0.00     0.277 HD
ATOM     18  H21 UNL     1      84.970  18.304  -2.006  1.00  0.00     0.277 HD
BRANCH  16  19
HETATM   19  C2  UNL     1      84.586  17.368  -0.235  1.00  0.00     0.260 C 
BRANCH  19  20
HETATM   20  C1  UNL     1      84.507  17.839   1.228  1.00  0.00     0.257 C 
BRANCH  20  21
HETATM   21  N1  UNL     1      85.473  17.033   1.958  1.00  0.00    -0.078 N 
ATOM     22  H13 UNL     1      86.349  16.892   1.456  1.00  0.00     0.274 HD
ATOM     23  H12 UNL     1      85.872  17.508   2.768  1.00  0.00     0.274 HD
ATOM     24  H11 UNL     1      84.992  16.164   2.190  1.00  0.00     0.274 HD
ENDBRANCH  20  21
ENDBRANCH  19  20
ENDBRANCH  16  19
ENDBRANCH  15  16
ENDBRANCH  12  15
ENDBRANCH  10  11
ENDBRANCH   7  10
ENDBRANCH   1   6
BRANCH   5  25
HETATM   25  N6  UNL     1      83.322  26.658   2.177  1.00  0.00    -0.328 N 
HETATM   26  C9  UNL     1      82.594  26.927   3.361  1.00  0.00     0.251 C 
HETATM   27  O3  UNL     1      83.264  26.820   4.443  1.00  0.00    -0.271 OA
ATOM     28  H6  UNL     1      82.836  26.732   1.284  1.00  0.00     0.164 HD
BRANCH  26  29
HETATM   29  C10 UNL     1      81.191  27.304   3.442  1.00  0.00     0.299 C 
BRANCH  29  30
HETATM   30  N7  UNL     1      81.028  28.385   4.402  1.00  0.00    -0.065 N 
ATOM     31  H73 UNL     1      81.529  28.205   5.272  1.00  0.00     0.275 HD
ATOM     32  H72 UNL     1      81.524  29.229   4.118  1.00  0.00     0.275 HD
ATOM     33  H71 UNL     1      80.035  28.559   4.559  1.00  0.00     0.275 HD
ENDBRANCH  29  30
BRANCH  29  34
HETATM   34  C11 UNL     1      80.233  26.186   3.754  1.00  0.00     0.272 C 
BRANCH  34  35
HETATM   35  N8  UNL     1      80.840  24.894   3.809  1.00  0.00    -0.077 N 
ATOM     36  H83 UNL     1      80.698  24.395   2.931  1.00  0.00     0.274 HD
ATOM     37  H82 UNL     1      81.857  24.977   3.799  1.00  0.00     0.274 HD
ATOM     38  H81 UNL     1      80.537  24.323   4.598  1.00  0.00     0.274 HD
ENDBRANCH  34  35
ENDBRANCH  29  34
ENDBRANCH  26  29
ENDBRANCH   5  25
TORSDOF 13
ENDMDL
MODEL 5
REMARK VINA RESULT: -6.831853238      1.383      3.038
REMARK  13 active torsions:
REMARK  status: ('A' for Active; 'I' for Inactive)
REMARK    1  A    between atoms: N1_1  and  C1_5 
REMARK    2  A    between atoms: C1_5  and  C2_6 
REMARK    3  A    between atoms: C2_6  and  N2_7 
REMARK    4  A    between atoms: N2_7  and  C3_10 
REMARK    5  A    between atoms: C3_10  and  C4_11 
REMARK       I    between atoms: C4_11  and  N3_13 
REMARK    6  A    between atoms: N3_13  and  C5_15 
REMARK    7  A    between atoms: C5_15  and  C6_16 
REMARK       I    between atoms: C6_16  and  N4_18 
REMARK    8  A    between atoms: N4_18  and  C7_20 
REMARK    9  A    between atoms: C8_24  and  N6_25 
REMARK       I    between atoms: N6_25  and  C9_27 
REMARK   10  A    between atoms: C9_27  and  C10_29 
REMARK   11  A    between atoms: C10_29  and  N7_30 
REMARK   12  A    between atoms: C10_29  and  C11_34 
REMARK   13  A    between atoms: C11_34  and  N8_35 
ROOT
HETATM    1  C7  UNL     1      84.597  27.153   2.945  1.00  0.00     0.339 A 
HETATM    2  N5  UNL     1      84.379  28.547   2.737  1.00  0.00    -0.026 N 
ATOM      3  H51 UNL     1      84.123  29.084   1.908  1.00  0.00     0.282 HD
ATOM      4  H52 UNL     1      85.015  29.344   2.721  1.00  0.00     0.282 HD
HETATM    5  C8  UNL     1      83.596  27.964   3.782  1.00  0.00     0.339 A 
ENDROOT
BRANCH   1   6
HETATM    6  N4  UNL     1      84.030  26.279   1.908  1.00  0.00    -0.329 N 
HETATM    7  C6  UNL     1      84.541  24.995   1.671  1.00  0.00     0.237 C 
HETATM    8  O2  UNL     1      85.508  24.599   2.370  1.00  0.00    -0.272 OA
ATOM      9  H4  UNL     1      83.246  26.614   1.348  1.00  0.00     0.164 HD
BRANCH   7  10
HETATM   10  C5  UNL     1      84.010  24.100   0.657  1.00  0.00     0.225 C 
BRANCH  10  11
HETATM   11  N3  UNL     1      84.671  22.857   0.454  1.00  0.00    -0.351 N 
HETATM   12  C4  UNL     1      83.893  21.755  -0.035  1.00  0.00     0.243 C 
HETATM   13  O1  UNL     1      82.658  21.916  -0.269  1.00  0.00    -0.272 OA
ATOM     14  H3  UNL     1      85.666  22.752   0.650  1.00  0.00     0.163 HD
BRANCH  12  15
HETATM   15  C3  UNL     1      84.564  20.470  -0.248  1.00  0.00     0.334 C 
BRANCH  15  16
HETATM   16  N2  UNL     1      84.083  19.435   0.610  1.00  0.00    -0.065 N 
ATOM     17  H22 UNL     1      83.304  19.754   1.185  1.00  0.00     0.277 HD
ATOM     18  H21 UNL     1      84.748  19.223   1.354  1.00  0.00     0.277 HD
BRANCH  16  19
HETATM   19  C2  UNL     1      83.740  18.266  -0.138  1.00  0.00     0.260 C 
BRANCH  19  20
HETATM   20  C1  UNL     1      84.495  17.033   0.391  1.00  0.00     0.257 C 
BRANCH  20  21
HETATM   21  N1  UNL     1      84.873  17.356   1.759  1.00  0.00    -0.078 N 
ATOM     22  H13 UNL     1      85.022  18.352   1.916  1.00  0.00     0.274 HD
ATOM     23  H12 UNL     1      84.114  17.239   2.430  1.00  0.00     0.274 HD
ATOM     24  H11 UNL     1      85.692  16.783   1.964  1.00  0.00     0.274 HD
ENDBRANCH  20  21
ENDBRANCH  19  20
ENDBRANCH  16  19
ENDBRANCH  15  16
ENDBRANCH  12  15
ENDBRANCH  10  11
ENDBRANCH   7  10
ENDBRANCH   1   6
BRANCH   5  25
HETATM   25  N6  UNL     1      82.192  27.685   3.596  1.00  0.00    -0.328 N 
HETATM   26  C9  UNL     1      81.595  26.440   3.907  1.00  0.00     0.251 C 
HETATM   27  O3  UNL     1      82.394  25.561   4.377  1.00  0.00    -0.271 OA
ATOM     28  H6  UNL     1      81.599  28.425   3.220  1.00  0.00     0.164 HD
BRANCH  26  29
HETATM   29  C10 UNL     1      80.191  26.093   3.742  1.00  0.00     0.299 C 
BRANCH  29  30
HETATM   30  N7  UNL     1      79.976  24.713   4.149  1.00  0.00    -0.065 N 
ATOM     31  H73 UNL     1      79.506  24.647   5.051  1.00  0.00     0.275 HD
ATOM     32  H72 UNL     1      79.268  24.250   3.580  1.00  0.00     0.275 HD
ATOM     33  H71 UNL     1      80.864  24.209   4.140  1.00  0.00     0.275 HD
ENDBRANCH  29  30
BRANCH  29  34
HETATM   34  C11 UNL     1      79.621  26.322   2.369  1.00  0.00     0.272 C 
BRANCH  34  35
HETATM   35  N8  UNL     1      80.596  26.333   1.325  1.00  0.00    -0.077 N 
ATOM     36  H83 UNL     1      81.243  27.111   1.448  1.00  0.00     0.274 HD
ATOM     37  H82 UNL     1      81.243  25.551   1.432  1.00  0.00     0.274 HD
ATOM     38  H81 UNL     1      80.202  26.342   0.384  1.00  0.00     0.274 HD
ENDBRANCH  34  35
ENDBRANCH  29  34
ENDBRANCH  26  29
ENDBRANCH   5  25
TORSDOF 13
ENDMDL
