MODEL 1
REMARK VINA RESULT: -7.768097705      0.000      0.000
REMARK  12 active torsions:
REMARK  status: ('A' for Active; 'I' for Inactive)
REMARK    1  A    between atoms: N1_1  and  C1_4 
REMARK    2  A    between atoms: C2_7  and  C3_8 
REMARK    3  A    between atoms: C3_8  and  C4_9 
REMARK    4  A    between atoms: C4_9  and  C5_10 
REMARK    5  A    between atoms: C5_10  and  N3_11 
REMARK    6  A    between atoms: N4_15  and  C6_17 
REMARK    7  A    between atoms: C6_17  and  C7_18 
REMARK    8  A    between atoms: C6_17  and  C10_28 
REMARK    9  A    between atoms: C7_18  and  N5_19 
REMARK   10  A    between atoms: N5_19  and  C8_22 
REMARK   11  A    between atoms: C8_22  and  C9_23 
REMARK   12  A    between atoms: C9_23  and  N6_24 
ROOT
HETATM    1  C4  UNL     1      84.385  25.085   1.382  1.00  0.00     0.018 C 
HETATM    2  N4  UNL     1      84.206  23.731   1.427  1.00  0.00    -0.359 N 
ATOM      3  H4  UNL     1      84.491  23.293   2.303  1.00  0.00     0.165 HD
ENDROOT
BRANCH   1   4
HETATM    4  C3  UNL     1      83.104  25.907   1.158  1.00  0.00     0.112 C 
BRANCH   4   5
HETATM    5  C2  UNL     1      82.378  26.122   2.478  1.00  0.00     0.037 A 
HETATM    6  N2  UNL     1      81.293  25.407   2.769  1.00  0.00    -0.195 N 
HETATM    7  C1  UNL     1      80.662  25.613   3.933  1.00  0.00     0.678 A 
ATOM      8  H2  UNL     1      80.945  24.708   2.112  1.00  0.00     0.184 HD
HETATM    9  N8  UNL     1      81.118  26.548   4.821  1.00  0.00    -0.156 N 
HETATM   10  C12 UNL     1      82.209  27.280   4.548  1.00  0.00     0.261 A 
ATOM     11  H8  UNL     1      80.623  26.689   5.702  1.00  0.00     0.187 HD
HETATM   12  C11 UNL     1      82.843  27.062   3.363  1.00  0.00     0.100 A 
HETATM   13  O2  UNL     1      82.609  28.137   5.386  1.00  0.00    -0.268 OA
BRANCH   7  14
HETATM   14  N1  UNL     1      79.619  24.918   4.197  1.00  0.00    -0.234 N 
ATOM     15  H12 UNL     1      79.495  23.993   3.788  1.00  0.00     0.174 HD
ATOM     16  H11 UNL     1      78.917  25.309   4.827  1.00  0.00     0.174 HD
ENDBRANCH   7  14
ENDBRANCH   4   5
ENDBRANCH   1   4
BRANCH   1  17
HETATM   17  C5  UNL     1      85.545  25.748   0.728  1.00  0.00     0.282 C 
BRANCH  17  18
HETATM   18  N3  UNL     1      86.630  24.886   0.362  1.00  0.00    -0.074 N 
ATOM     19  H33 UNL     1      86.864  24.272   1.142  1.00  0.00     0.274 HD
ATOM     20  H32 UNL     1      86.313  24.199  -0.322  1.00  0.00     0.274 HD
ATOM     21  H31 UNL     1      87.471  25.352   0.022  1.00  0.00     0.274 HD
ENDBRANCH  17  18
ENDBRANCH   1  17
BRANCH   2  22
HETATM   22  C6  UNL     1      83.701  22.857   0.480  1.00  0.00     0.100 C 
BRANCH  22  23
HETATM   23  C7  UNL     1      84.536  21.697   0.094  1.00  0.00     0.294 C 
BRANCH  23  24
HETATM   24  N5  UNL     1      83.891  20.448   0.423  1.00  0.00    -0.068 N 
ATOM     25  H52 UNL     1      83.882  20.287   1.430  1.00  0.00     0.277 HD
ATOM     26  H51 UNL     1      82.886  20.493   0.261  1.00  0.00     0.277 HD
BRANCH  24  27
HETATM   27  C8  UNL     1      84.493  19.337  -0.286  1.00  0.00     0.260 C 
BRANCH  27  28
HETATM   28  C9  UNL     1      84.327  18.013   0.411  1.00  0.00     0.257 C 
BRANCH  28  29
HETATM   29  N6  UNL     1      84.777  18.027   1.767  1.00  0.00    -0.078 N 
ATOM     30  H63 UNL     1      85.499  17.322   1.916  1.00  0.00     0.274 HD
ATOM     31  H62 UNL     1      85.320  18.868   1.959  1.00  0.00     0.274 HD
ATOM     32  H61 UNL     1      84.022  17.921   2.444  1.00  0.00     0.274 HD
ENDBRANCH  28  29
ENDBRANCH  27  28
ENDBRANCH  24  27
ENDBRANCH  23  24
ENDBRANCH  22  23
BRANCH  22  33
HETATM   33  C10 UNL     1      82.252  22.540   0.514  1.00  0.00     0.279 C 
HETATM   34  N7  UNL     1      81.481  22.086  -0.577  1.00  0.00    -0.056 NA
HETATM   35  O1  UNL     1      81.599  22.670   1.606  1.00  0.00    -0.270 OA
ENDBRANCH  22  33
ENDBRANCH   2  22
TORSDOF 12
ENDMDL
MODEL 2
REMARK VINA RESULT: -7.453634140      2.135      7.487
REMARK  12 active torsions:
REMARK  status: ('A' for Active; 'I' for Inactive)
REMARK    1  A    between atoms: N1_1  and  C1_4 
REMARK    2  A    between atoms: C2_7  and  C3_8 
REMARK    3  A    between atoms: C3_8  and  C4_9 
REMARK    4  A    between atoms: C4_9  and  C5_10 
REMARK    5  A    between atoms: C5_10  and  N3_11 
REMARK    6  A    between atoms: N4_15  and  C6_17 
REMARK    7  A    between atoms: C6_17  and  C7_18 
REMARK    8  A    between atoms: C6_17  and  C10_28 
REMARK    9  A    between atoms: C7_18  and  N5_19 
REMARK   10  A    between atoms: N5_19  and  C8_22 
REMARK   11  A    between atoms: C8_22  and  C9_23 
REMARK   12  A    between atoms: C9_23  and  N6_24 
ROOT
HETATM    1  C4  UNL     1      83.260  22.072   0.689  1.00  0.00     0.018 C 
HETATM    2  N4  UNL     1      83.424  23.167   1.487  1.00  0.00    -0.359 N 
ATOM      3  H4  UNL     1      83.226  23.008   2.475  1.00  0.00     0.165 HD
ENDROOT
BRANCH   1   4
HETATM    4  C3  UNL     1      84.522  21.615  -0.064  1.00  0.00     0.112 C 
BRANCH   4   5
HETATM    5  C2  UNL     1      84.522  20.102  -0.227  1.00  0.00     0.037 A 
HETATM    6  N2  UNL     1      84.610  19.315   0.844  1.00  0.00    -0.195 N 
HETATM    7  C1  UNL     1      84.615  17.985   0.683  1.00  0.00     0.678 A 
ATOM      8  H2  UNL     1      84.674  19.720   1.777  1.00  0.00     0.184 HD
HETATM    9  N8  UNL     1      84.532  17.429  -0.564  1.00  0.00    -0.156 N 
HETATM   10  C12 UNL     1      84.443  18.204  -1.657  1.00  0.00     0.261 A 
ATOM     11  H8  UNL     1      84.537  16.415  -0.665  1.00  0.00     0.187 HD
HETATM   12  C11 UNL     1      84.438  19.554  -1.482  1.00  0.00     0.100 A 
HETATM   13  O2  UNL     1      84.368  17.666  -2.797  1.00  0.00    -0.268 OA
BRANCH   7  14
HETATM   14  N1  UNL     1      84.702  17.240   1.722  1.00  0.00    -0.234 N 
ATOM     15  H12 UNL     1      83.925  17.176   2.379  1.00  0.00     0.174 HD
ATOM     16  H11 UNL     1      85.562  16.713   1.875  1.00  0.00     0.174 HD
ENDBRANCH   7  14
ENDBRANCH   4   5
ENDBRANCH   1   4
BRANCH   1  17
HETATM   17  C5  UNL     1      82.048  21.818  -0.134  1.00  0.00     0.282 C 
BRANCH  17  18
HETATM   18  N3  UNL     1      81.321  22.983  -0.547  1.00  0.00    -0.074 N 
ATOM     19  H33 UNL     1      81.885  23.534  -1.193  1.00  0.00     0.274 HD
ATOM     20  H32 UNL     1      80.552  22.713  -1.160  1.00  0.00     0.274 HD
ATOM     21  H31 UNL     1      80.972  23.578   0.205  1.00  0.00     0.274 HD
ENDBRANCH  17  18
ENDBRANCH   1  17
BRANCH   2  22
HETATM   22  C6  UNL     1      83.816  24.458   1.176  1.00  0.00     0.100 C 
BRANCH  22  23
HETATM   23  C7  UNL     1      82.848  25.552   1.414  1.00  0.00     0.294 C 
BRANCH  23  24
HETATM   24  N5  UNL     1      83.097  26.215   2.673  1.00  0.00    -0.068 N 
ATOM     25  H52 UNL     1      84.071  26.118   2.959  1.00  0.00     0.277 HD
ATOM     26  H51 UNL     1      83.061  27.229   2.574  1.00  0.00     0.277 HD
BRANCH  24  27
HETATM   27  C8  UNL     1      82.192  25.751   3.705  1.00  0.00     0.260 C 
BRANCH  27  28
HETATM   28  C9  UNL     1      80.742  25.785   3.299  1.00  0.00     0.257 C 
BRANCH  28  29
HETATM   29  N6  UNL     1      79.927  24.875   4.040  1.00  0.00    -0.078 N 
ATOM     30  H63 UNL     1      80.057  23.919   3.708  1.00  0.00     0.274 HD
ATOM     31  H62 UNL     1      80.275  24.771   4.993  1.00  0.00     0.274 HD
ATOM     32  H61 UNL     1      78.939  25.127   4.041  1.00  0.00     0.274 HD
ENDBRANCH  28  29
ENDBRANCH  27  28
ENDBRANCH  24  27
ENDBRANCH  23  24
ENDBRANCH  22  23
BRANCH  22  33
HETATM   33  C10 UNL     1      85.218  24.856   1.456  1.00  0.00     0.279 C 
HETATM   34  N7  UNL     1      86.203  25.145   0.486  1.00  0.00    -0.056 NA
HETATM   35  O1  UNL     1      85.618  24.965   2.665  1.00  0.00    -0.270 OA
ENDBRANCH  22  33
ENDBRANCH   2  22
TORSDOF 12
ENDMDL
MODEL 3
REMARK VINA RESULT: -7.436714657      1.094      1.102
REMARK  12 active torsions:
REMARK  status: ('A' for Active; 'I' for Inactive)
REMARK    1  A    between atoms: N1_1  and  C1_4 
REMARK    2  A    between atoms: C2_7  and  C3_8 
REMARK    3  A    between atoms: C3_8  and  C4_9 
REMARK    4  A    between atoms: C4_9  and  C5_10 
REMARK    5  A    between atoms: C5_10  and  N3_11 
REMARK    6  A    between atoms: N4_15  and  C6_17 
REMARK    7  A    between atoms: C6_17  and  C7_18 
REMARK    8  A    between atoms: C6_17  and  C10_28 
REMARK    9  A    between atoms: C7_18  and  N5_19 
REMARK   10  A    between atoms: N5_19  and  C8_22 
REMARK   11  A    between atoms: C8_22  and  C9_23 
REMARK   12  A    between atoms: C9_23  and  N6_24 
ROOT
HETATM    1  C4  UNL     1      83.844  23.966   1.664  1.00  0.00     0.018 C 
HETATM    2  N4  UNL     1      83.575  22.673   1.313  1.00  0.00    -0.359 N 
ATOM      3  H4  UNL     1      83.332  22.062   2.092  1.00  0.00     0.165 HD
ENDROOT
BRANCH   1   4
HETATM    4  C3  UNL     1      82.925  25.022   1.025  1.00  0.00     0.112 C 
BRANCH   4   5
HETATM    5  C2  UNL     1      82.178  25.794   2.102  1.00  0.00     0.037 A 
HETATM    6  N2  UNL     1      81.025  25.330   2.580  1.00  0.00    -0.195 N 
HETATM    7  C1  UNL     1      80.377  26.025   3.524  1.00  0.00     0.678 A 
ATOM      8  H2  UNL     1      80.638  24.454   2.229  1.00  0.00     0.184 HD
HETATM    9  N8  UNL     1      80.885  27.202   4.001  1.00  0.00    -0.156 N 
HETATM   10  C12 UNL     1      82.046  27.688   3.534  1.00  0.00     0.261 A 
ATOM     11  H8  UNL     1      80.377  27.716   4.719  1.00  0.00     0.187 HD
HETATM   12  C11 UNL     1      82.697  26.974   2.574  1.00  0.00     0.100 A 
HETATM   13  O2  UNL     1      82.493  28.778   3.990  1.00  0.00    -0.268 OA
BRANCH   7  14
HETATM   14  N1  UNL     1      79.268  25.567   3.972  1.00  0.00    -0.234 N 
ATOM     15  H12 UNL     1      79.250  24.966   4.795  1.00  0.00     0.174 HD
ATOM     16  H11 UNL     1      78.404  25.818   3.490  1.00  0.00     0.174 HD
ENDBRANCH   7  14
ENDBRANCH   4   5
ENDBRANCH   1   4
BRANCH   1  17
HETATM   17  C5  UNL     1      85.217  24.511   1.835  1.00  0.00     0.282 C 
BRANCH  17  18
HETATM   18  N3  UNL     1      85.893  24.885   0.628  1.00  0.00    -0.074 N 
ATOM     19  H33 UNL     1      86.902  24.881   0.779  1.00  0.00     0.274 HD
ATOM     20  H32 UNL     1      85.809  24.140  -0.063  1.00  0.00     0.274 HD
ATOM     21  H31 UNL     1      85.607  25.774   0.217  1.00  0.00     0.274 HD
ENDBRANCH  17  18
ENDBRANCH   1  17
BRANCH   2  22
HETATM   22  C6  UNL     1      83.576  22.057   0.073  1.00  0.00     0.100 C 
BRANCH  22  23
HETATM   23  C7  UNL     1      84.620  21.041  -0.193  1.00  0.00     0.294 C 
BRANCH  23  24
HETATM   24  N5  UNL     1      84.355  19.812   0.517  1.00  0.00    -0.068 N 
ATOM     25  H52 UNL     1      84.945  19.725   1.344  1.00  0.00     0.277 HD
ATOM     26  H51 UNL     1      83.444  19.833   0.973  1.00  0.00     0.277 HD
BRANCH  24  27
HETATM   27  C8  UNL     1      84.488  18.659  -0.351  1.00  0.00     0.260 C 
BRANCH  27  28
HETATM   28  C9  UNL     1      84.410  17.342   0.376  1.00  0.00     0.257 C 
BRANCH  28  29
HETATM   29  N6  UNL     1      84.887  17.411   1.721  1.00  0.00    -0.078 N 
ATOM     30  H63 UNL     1      85.621  18.113   1.810  1.00  0.00     0.274 HD
ATOM     31  H62 UNL     1      84.184  17.824   2.334  1.00  0.00     0.274 HD
ATOM     32  H61 UNL     1      85.200  16.511   2.084  1.00  0.00     0.274 HD
ENDBRANCH  28  29
ENDBRANCH  27  28
ENDBRANCH  24  27
ENDBRANCH  23  24
ENDBRANCH  22  23
BRANCH  22  33
HETATM   33  C10 UNL     1      82.272  21.723  -0.550  1.00  0.00     0.279 C 
HETATM   34  N7  UNL     1      81.988  20.559  -1.296  1.00  0.00    -0.056 NA
HETATM   35  O1  UNL     1      81.285  22.527  -0.427  1.00  0.00    -0.270 OA
ENDBRANCH  22  33
ENDBRANCH   2  22
TORSDOF 12
ENDMDL
MODEL 4
REMARK VINA RESULT: -7.360102086      1.576      1.993
REMARK  12 active torsions:
REMARK  status: ('A' for Active; 'I' for Inactive)
REMARK    1  A    between atoms: N1_1  and  C1_4 
REMARK    2  A    between atoms: C2_7  and  C3_8 
REMARK    3  A    between atoms: C3_8  and  C4_9 
REMARK    4  A    between atoms: C4_9  and  C5_10 
REMARK    5  A    between atoms: C5_10  and  N3_11 
REMARK    6  A    between atoms: N4_15  and  C6_17 
REMARK    7  A    between atoms: C6_17  and  C7_18 
REMARK    8  A    between atoms: C6_17  and  C10_28 
REMARK    9  A    between atoms: C7_18  and  N5_19 
REMARK   10  A    between atoms: N5_19  and  C8_22 
REMARK   11  A    between atoms: C8_22  and  C9_23 
REMARK   12  A    between atoms: C9_23  and  N6_24 
ROOT
HETATM    1  C4  UNL     1      83.902  24.047   1.660  1.00  0.00     0.018 C 
HETATM    2  N4  UNL     1      83.598  22.751   1.351  1.00  0.00    -0.359 N 
ATOM      3  H4  UNL     1      83.335  22.174   2.149  1.00  0.00     0.165 HD
ENDROOT
BRANCH   1   4
HETATM    4  C3  UNL     1      83.017  25.106   0.980  1.00  0.00     0.112 C 
BRANCH   4   5
HETATM    5  C2  UNL     1      82.270  25.921   2.026  1.00  0.00     0.037 A 
HETATM    6  N2  UNL     1      82.760  27.089   2.439  1.00  0.00    -0.195 N 
HETATM    7  C1  UNL     1      82.094  27.791   3.365  1.00  0.00     0.678 A 
ATOM      8  H2  UNL     1      83.635  27.445   2.054  1.00  0.00     0.184 HD
HETATM    9  N8  UNL     1      80.921  27.323   3.890  1.00  0.00    -0.156 N 
HETATM   10  C12 UNL     1      80.409  26.149   3.489  1.00  0.00     0.261 A 
ATOM     11  H8  UNL     1      80.429  27.873   4.594  1.00  0.00     0.187 HD
HETATM   12  C11 UNL     1      81.094  25.443   2.547  1.00  0.00     0.100 A 
HETATM   13  O2  UNL     1      79.324  25.739   3.990  1.00  0.00    -0.268 OA
BRANCH   7  14
HETATM   14  N1  UNL     1      82.579  28.911   3.753  1.00  0.00    -0.234 N 
ATOM     15  H12 UNL     1      83.090  28.977   4.633  1.00  0.00     0.174 HD
ATOM     16  H11 UNL     1      82.445  29.733   3.164  1.00  0.00     0.174 HD
ENDBRANCH   7  14
ENDBRANCH   4   5
ENDBRANCH   1   4
BRANCH   1  17
HETATM   17  C5  UNL     1      85.288  24.559   1.822  1.00  0.00     0.282 C 
BRANCH  17  18
HETATM   18  N3  UNL     1      85.974  24.895   0.608  1.00  0.00    -0.074 N 
ATOM     19  H33 UNL     1      86.692  25.593   0.797  1.00  0.00     0.274 HD
ATOM     20  H32 UNL     1      86.554  24.112   0.309  1.00  0.00     0.274 HD
ATOM     21  H31 UNL     1      85.383  25.204  -0.164  1.00  0.00     0.274 HD
ENDBRANCH  17  18
ENDBRANCH   1  17
BRANCH   2  22
HETATM   22  C6  UNL     1      83.589  22.094   0.133  1.00  0.00     0.100 C 
BRANCH  22  23
HETATM   23  C7  UNL     1      84.583  21.017  -0.079  1.00  0.00     0.294 C 
BRANCH  23  24
HETATM   24  N5  UNL     1      84.167  19.783   0.544  1.00  0.00    -0.068 N 
ATOM     25  H52 UNL     1      84.563  19.686   1.479  1.00  0.00     0.277 HD
ATOM     26  H51 UNL     1      83.178  19.805   0.793  1.00  0.00     0.277 HD
BRANCH  24  27
HETATM   27  C8  UNL     1      84.479  18.637  -0.285  1.00  0.00     0.260 C 
BRANCH  27  28
HETATM   28  C9  UNL     1      84.381  17.320   0.439  1.00  0.00     0.257 C 
BRANCH  28  29
HETATM   29  N6  UNL     1      84.949  17.353   1.750  1.00  0.00    -0.078 N 
ATOM     30  H63 UNL     1      85.955  17.192   1.713  1.00  0.00     0.274 HD
ATOM     31  H62 UNL     1      84.944  18.302   2.124  1.00  0.00     0.274 HD
ATOM     32  H61 UNL     1      84.502  16.706   2.399  1.00  0.00     0.274 HD
ENDBRANCH  28  29
ENDBRANCH  27  28
ENDBRANCH  24  27
ENDBRANCH  23  24
ENDBRANCH  22  23
BRANCH  22  33
HETATM   33  C10 UNL     1      82.280  21.808  -0.504  1.00  0.00     0.279 C 
HETATM   34  N7  UNL     1      81.972  20.669  -1.279  1.00  0.00    -0.056 NA
HETATM   35  O1  UNL     1      81.312  22.632  -0.366  1.00  0.00    -0.270 OA
ENDBRANCH  22  33
ENDBRANCH   2  22
TORSDOF 12
ENDMDL
MODEL 5
REMARK VINA RESULT: -7.310434985      1.223      1.699
REMARK  12 active torsions:
REMARK  status: ('A' for Active; 'I' for Inactive)
REMARK    1  A    between atoms: N1_1  and  C1_4 
REMARK    2  A    between atoms: C2_7  and  C3_8 
REMARK    3  A    between atoms: C3_8  and  C4_9 
REMARK    4  A    between atoms: C4_9  and  C5_10 
REMARK    5  A    between atoms: C5_10  and  N3_11 
REMARK    6  A    between atoms: N4_15  and  C6_17 
REMARK    7  A    between atoms: C6_17  and  C7_18 
REMARK    8  A    between atoms: C6_17  and  C10_28 
REMARK    9  A    between atoms: C7_18  and  N5_19 
REMARK   10  A    between atoms: N5_19  and  C8_22 
REMARK   11  A    between atoms: C8_22  and  C9_23 
REMARK   12  A    between atoms: C9_23  and  N6_24 
ROOT
HETATM    1  C4  UNL     1      84.308  25.063   1.366  1.00  0.00     0.018 C 
HETATM    2  N4  UNL     1      84.134  23.709   1.419  1.00  0.00    -0.359 N 
ATOM      3  H4  UNL     1      84.387  23.282   2.309  1.00  0.00     0.165 HD
ENDROOT
BRANCH   1   4
HETATM    4  C3  UNL     1      83.033  25.876   1.084  1.00  0.00     0.112 C 
BRANCH   4   5
HETATM    5  C2  UNL     1      82.331  26.227   2.388  1.00  0.00     0.037 A 
HETATM    6  N2  UNL     1      82.923  27.029   3.271  1.00  0.00    -0.195 N 
HETATM    7  C1  UNL     1      82.294  27.324   4.416  1.00  0.00     0.678 A 
ATOM      8  H2  UNL     1      83.846  27.417   3.076  1.00  0.00     0.184 HD
HETATM    9  N8  UNL     1      81.056  26.810   4.689  1.00  0.00    -0.156 N 
HETATM   10  C12 UNL     1      80.442  25.998   3.814  1.00  0.00     0.261 A 
ATOM     11  H8  UNL     1      80.595  27.046   5.567  1.00  0.00     0.187 HD
HETATM   12  C11 UNL     1      81.089  25.706   2.652  1.00  0.00     0.100 A 
HETATM   13  O2  UNL     1      79.299  25.536   4.090  1.00  0.00    -0.268 OA
BRANCH   7  14
HETATM   14  N1  UNL     1      82.877  28.096   5.256  1.00  0.00    -0.234 N 
ATOM     15  H12 UNL     1      83.554  28.789   4.939  1.00  0.00     0.174 HD
ATOM     16  H11 UNL     1      82.647  28.004   6.246  1.00  0.00     0.174 HD
ENDBRANCH   7  14
ENDBRANCH   4   5
ENDBRANCH   1   4
BRANCH   1  17
HETATM   17  C5  UNL     1      85.489  25.725   0.750  1.00  0.00     0.282 C 
BRANCH  17  18
HETATM   18  N3  UNL     1      86.576  24.859   0.401  1.00  0.00    -0.074 N 
ATOM     19  H33 UNL     1      87.443  25.207   0.811  1.00  0.00     0.274 HD
ATOM     20  H32 UNL     1      86.485  23.970   0.893  1.00  0.00     0.274 HD
ATOM     21  H31 UNL     1      86.707  24.691  -0.597  1.00  0.00     0.274 HD
ENDBRANCH  17  18
ENDBRANCH   1  17
BRANCH   2  22
HETATM   22  C6  UNL     1      83.670  22.822   0.462  1.00  0.00     0.100 C 
BRANCH  22  23
HETATM   23  C7  UNL     1      84.534  21.673   0.107  1.00  0.00     0.294 C 
BRANCH  23  24
HETATM   24  N5  UNL     1      83.898  20.416   0.421  1.00  0.00    -0.068 N 
ATOM     25  H52 UNL     1      83.912  20.231   1.424  1.00  0.00     0.277 HD
ATOM     26  H51 UNL     1      82.889  20.463   0.283  1.00  0.00     0.277 HD
BRANCH  24  27
HETATM   27  C8  UNL     1      84.485  19.323  -0.326  1.00  0.00     0.260 C 
BRANCH  27  28
HETATM   28  C9  UNL     1      84.400  17.994   0.377  1.00  0.00     0.257 C 
BRANCH  28  29
HETATM   29  N6  UNL     1      84.760  18.061   1.758  1.00  0.00    -0.078 N 
ATOM     30  H63 UNL     1      85.774  18.070   1.868  1.00  0.00     0.274 HD
ATOM     31  H62 UNL     1      84.541  18.979   2.146  1.00  0.00     0.274 HD
ATOM     32  H61 UNL     1      84.341  17.321   2.321  1.00  0.00     0.274 HD
ENDBRANCH  28  29
ENDBRANCH  27  28
ENDBRANCH  24  27
ENDBRANCH  23  24
ENDBRANCH  22  23
BRANCH  22  33
HETATM   33  C10 UNL     1      82.226  22.483   0.456  1.00  0.00     0.279 C 
HETATM   34  N7  UNL     1      81.485  22.048  -0.664  1.00  0.00    -0.056 NA
HETATM   35  O1  UNL     1      81.548  22.573   1.537  1.00  0.00    -0.270 OA
ENDBRANCH  22  33
ENDBRANCH   2  22
TORSDOF 12
ENDMDL
