MODEL 1
REMARK VINA RESULT: -7.022437186      0.000      0.000
REMARK  14 active torsions:
REMARK  status: ('A' for Active; 'I' for Inactive)
REMARK    1  A    between atoms: N1_1  and  C1_5 
REMARK    2  A    between atoms: C1_5  and  C2_6 
REMARK    3  A    between atoms: C2_6  and  N2_7 
REMARK    4  A    between atoms: N2_7  and  C3_9 
REMARK    5  A    between atoms: C3_9  and  C4_10 
REMARK    6  A    between atoms: N3_11  and  C5_13 
REMARK    7  A    between atoms: C8_19  and  N5_20 
REMARK       I    between atoms: N5_20  and  C9_22 
REMARK    8  A    between atoms: C9_22  and  C10_24 
REMARK    9  A    between atoms: C10_24  and  O3_25 
REMARK   10  A    between atoms: C10_24  and  C11_27 
REMARK   11  A    between atoms: C11_27  and  N6_28 
REMARK   12  A    between atoms: N6_28  and  C12_31 
REMARK   13  A    between atoms: C12_31  and  C13_32 
REMARK   14  A    between atoms: C13_32  and  N7_33 
ROOT
HETATM    1  C5  UNL     1      82.617  25.792   0.583  1.00  0.00     0.151 C 
HETATM    2  C6  UNL     1      81.591  26.754   0.983  1.00  0.00     0.091 C 
HETATM    3  N4  UNL     1      80.913  26.290   2.014  1.00  0.00    -0.337 N 
ATOM      4  H4  UNL     1      80.147  26.765   2.489  1.00  0.00     0.168 HD
HETATM    5  C7  UNL     1      81.442  25.000   2.349  1.00  0.00     0.246 C 
HETATM    6  O1  UNL     1      81.494  24.482   3.464  1.00  0.00    -0.271 OA
HETATM    7  C8  UNL     1      81.895  24.474   1.044  1.00  0.00     0.204 C 
ENDROOT
BRANCH   7   8
HETATM    8  N5  UNL     1      82.761  23.364   1.069  1.00  0.00    -0.343 N 
HETATM    9  C9  UNL     1      82.500  22.242   0.242  1.00  0.00     0.248 C 
HETATM   10  O2  UNL     1      81.477  22.239  -0.529  1.00  0.00    -0.271 OA
ATOM     11  H5  UNL     1      83.576  23.368   1.682  1.00  0.00     0.163 HD
BRANCH   9  12
HETATM   12  C10 UNL     1      83.371  21.066   0.232  1.00  0.00     0.235 C 
BRANCH  12  13
HETATM   13  O3  UNL     1      84.729  21.454   0.340  1.00  0.00    -0.384 OA
ATOM     14  H3  UNL     1      85.259  20.727   0.646  1.00  0.00     0.210 HD
ENDBRANCH  12  13
BRANCH  12  15
HETATM   15  C11 UNL     1      83.226  20.265  -1.058  1.00  0.00     0.273 C 
BRANCH  15  16
HETATM   16  N6  UNL     1      83.098  18.858  -0.692  1.00  0.00    -0.071 N 
ATOM     17  H62 UNL     1      82.505  18.740   0.129  1.00  0.00     0.277 HD
ATOM     18  H61 UNL     1      82.534  18.346  -1.370  1.00  0.00     0.277 HD
BRANCH  16  19
HETATM   19  C12 UNL     1      84.375  18.245  -0.506  1.00  0.00     0.259 C 
BRANCH  19  20
HETATM   20  C13 UNL     1      84.384  17.280   0.659  1.00  0.00     0.257 C 
BRANCH  20  21
HETATM   21  N7  UNL     1      84.830  18.019   1.829  1.00  0.00    -0.078 N 
ATOM     22  H73 UNL     1      85.640  18.611   1.642  1.00  0.00     0.274 HD
ATOM     23  H72 UNL     1      84.186  18.761   2.102  1.00  0.00     0.274 HD
ATOM     24  H71 UNL     1      84.996  17.341   2.572  1.00  0.00     0.274 HD
ENDBRANCH  20  21
ENDBRANCH  19  20
ENDBRANCH  16  19
ENDBRANCH  15  16
ENDBRANCH  12  15
ENDBRANCH   9  12
ENDBRANCH   7   8
BRANCH   1  25
HETATM   25  N3  UNL     1      83.816  25.879   1.238  1.00  0.00    -0.386 N 
HETATM   26  C4  UNL     1      84.440  26.903   1.891  1.00  0.00     0.100 C 
ATOM     27  H3  UNL     1      84.348  25.008   1.238  1.00  0.00     0.159 HD
BRANCH  26  28
HETATM   28  C3  UNL     1      84.051  27.499   3.173  1.00  0.00     0.099 C 
BRANCH  28  29
HETATM   29  N2  UNL     1      83.360  28.715   3.082  1.00  0.00    -0.396 N 
ATOM     30  H2  UNL     1      83.587  29.407   2.370  1.00  0.00     0.158 HD
BRANCH  29  31
HETATM   31  C2  UNL     1      82.327  28.935   4.032  1.00  0.00     0.146 C 
BRANCH  31  32
HETATM   32  C1  UNL     1      82.433  28.119   5.290  1.00  0.00     0.249 C 
BRANCH  32  33
HETATM   33  N1  UNL     1      81.461  27.030   5.238  1.00  0.00    -0.078 N 
ATOM     34  H13 UNL     1      81.689  26.276   5.886  1.00  0.00     0.274 HD
ATOM     35  H12 UNL     1      80.561  27.295   5.637  1.00  0.00     0.274 HD
ATOM     36  H11 UNL     1      81.377  26.702   4.276  1.00  0.00     0.274 HD
ENDBRANCH  32  33
ENDBRANCH  31  32
ENDBRANCH  29  31
ENDBRANCH  28  29
ENDBRANCH  26  28
ENDBRANCH   1  25
TORSDOF 14
ENDMDL
MODEL 2
REMARK VINA RESULT: -6.905643862      1.503      2.480
REMARK  14 active torsions:
REMARK  status: ('A' for Active; 'I' for Inactive)
REMARK    1  A    between atoms: N1_1  and  C1_5 
REMARK    2  A    between atoms: C1_5  and  C2_6 
REMARK    3  A    between atoms: C2_6  and  N2_7 
REMARK    4  A    between atoms: N2_7  and  C3_9 
REMARK    5  A    between atoms: C3_9  and  C4_10 
REMARK    6  A    between atoms: N3_11  and  C5_13 
REMARK    7  A    between atoms: C8_19  and  N5_20 
REMARK       I    between atoms: N5_20  and  C9_22 
REMARK    8  A    between atoms: C9_22  and  C10_24 
REMARK    9  A    between atoms: C10_24  and  O3_25 
REMARK   10  A    between atoms: C10_24  and  C11_27 
REMARK   11  A    between atoms: C11_27  and  N6_28 
REMARK   12  A    between atoms: N6_28  and  C12_31 
REMARK   13  A    between atoms: C12_31  and  C13_32 
REMARK   14  A    between atoms: C13_32  and  N7_33 
ROOT
HETATM    1  C5  UNL     1      83.314  24.514   2.769  1.00  0.00     0.151 C 
HETATM    2  C6  UNL     1      83.838  25.835   3.112  1.00  0.00     0.091 C 
HETATM    3  N4  UNL     1      83.663  26.667   2.104  1.00  0.00    -0.337 N 
ATOM      4  H4  UNL     1      83.935  27.650   2.085  1.00  0.00     0.168 HD
HETATM    5  C7  UNL     1      83.023  25.950   1.042  1.00  0.00     0.246 C 
HETATM    6  O1  UNL     1      82.241  26.397   0.203  1.00  0.00    -0.271 OA
HETATM    7  C8  UNL     1      83.532  24.572   1.213  1.00  0.00     0.204 C 
ENDROOT
BRANCH   7   8
HETATM    8  N5  UNL     1      82.845  23.549   0.532  1.00  0.00    -0.343 N 
HETATM    9  C9  UNL     1      83.557  22.431   0.028  1.00  0.00     0.248 C 
HETATM   10  O2  UNL     1      84.824  22.351   0.194  1.00  0.00    -0.271 OA
ATOM     11  H5  UNL     1      81.835  23.611   0.403  1.00  0.00     0.163 HD
BRANCH   9  12
HETATM   12  C10 UNL     1      82.888  21.341  -0.684  1.00  0.00     0.235 C 
BRANCH  12  13
HETATM   13  O3  UNL     1      81.485  21.537  -0.684  1.00  0.00    -0.384 OA
ATOM     14  H3  UNL     1      81.185  21.787  -1.550  1.00  0.00     0.210 HD
ENDBRANCH  12  13
BRANCH  12  15
HETATM   15  C11 UNL     1      83.160  19.988  -0.034  1.00  0.00     0.273 C 
BRANCH  15  16
HETATM   16  N6  UNL     1      84.178  19.312  -0.832  1.00  0.00    -0.071 N 
ATOM     17  H62 UNL     1      83.860  19.162  -1.789  1.00  0.00     0.277 HD
ATOM     18  H61 UNL     1      84.970  19.926  -1.022  1.00  0.00     0.277 HD
BRANCH  16  19
HETATM   19  C12 UNL     1      84.598  18.090  -0.224  1.00  0.00     0.259 C 
BRANCH  19  20
HETATM   20  C13 UNL     1      84.479  18.129   1.284  1.00  0.00     0.257 C 
BRANCH  20  21
HETATM   21  N7  UNL     1      85.270  17.028   1.809  1.00  0.00    -0.078 N 
ATOM     22  H73 UNL     1      84.716  16.359   2.345  1.00  0.00     0.274 HD
ATOM     23  H72 UNL     1      85.588  16.384   1.085  1.00  0.00     0.274 HD
ATOM     24  H71 UNL     1      86.036  17.433   2.347  1.00  0.00     0.274 HD
ENDBRANCH  20  21
ENDBRANCH  19  20
ENDBRANCH  16  19
ENDBRANCH  15  16
ENDBRANCH  12  15
ENDBRANCH   9  12
ENDBRANCH   7   8
BRANCH   1  25
HETATM   25  N3  UNL     1      81.982  24.311   3.011  1.00  0.00    -0.386 N 
HETATM   26  C4  UNL     1      81.024  25.078   3.610  1.00  0.00     0.100 C 
ATOM     27  H3  UNL     1      81.637  23.410   2.678  1.00  0.00     0.159 HD
BRANCH  26  28
HETATM   28  C3  UNL     1      80.422  26.308   3.084  1.00  0.00     0.099 C 
BRANCH  28  29
HETATM   29  N2  UNL     1      80.707  27.471   3.812  1.00  0.00    -0.396 N 
ATOM     30  H2  UNL     1      80.327  28.378   3.541  1.00  0.00     0.158 HD
BRANCH  29  31
HETATM   31  C2  UNL     1      81.550  27.325   4.946  1.00  0.00     0.146 C 
BRANCH  31  32
HETATM   32  C1  UNL     1      82.381  28.531   5.281  1.00  0.00     0.249 C 
BRANCH  32  33
HETATM   33  N1  UNL     1      82.561  29.339   4.077  1.00  0.00    -0.078 N 
ATOM     34  H13 UNL     1      83.159  28.881   3.389  1.00  0.00     0.274 HD
ATOM     35  H12 UNL     1      81.711  29.392   3.516  1.00  0.00     0.274 HD
ATOM     36  H11 UNL     1      82.910  30.260   4.341  1.00  0.00     0.274 HD
ENDBRANCH  32  33
ENDBRANCH  31  32
ENDBRANCH  29  31
ENDBRANCH  28  29
ENDBRANCH  26  28
ENDBRANCH   1  25
TORSDOF 14
ENDMDL
MODEL 3
REMARK VINA RESULT: -6.579671810      1.614      2.361
REMARK  14 active torsions:
REMARK  status: ('A' for Active; 'I' for Inactive)
REMARK    1  A    between atoms: N1_1  and  C1_5 
REMARK    2  A    between atoms: C1_5  and  C2_6 
REMARK    3  A    between atoms: C2_6  and  N2_7 
REMARK    4  A    between atoms: N2_7  and  C3_9 
REMARK    5  A    between atoms: C3_9  and  C4_10 
REMARK    6  A    between atoms: N3_11  and  C5_13 
REMARK    7  A    between atoms: C8_19  and  N5_20 
REMARK       I    between atoms: N5_20  and  C9_22 
REMARK    8  A    between atoms: C9_22  and  C10_24 
REMARK    9  A    between atoms: C10_24  and  O3_25 
REMARK   10  A    between atoms: C10_24  and  C11_27 
REMARK   11  A    between atoms: C11_27  and  N6_28 
REMARK   12  A    between atoms: N6_28  and  C12_31 
REMARK   13  A    between atoms: C12_31  and  C13_32 
REMARK   14  A    between atoms: C13_32  and  N7_33 
ROOT
HETATM    1  C5  UNL     1      83.428  24.690   2.465  1.00  0.00     0.151 C 
HETATM    2  C6  UNL     1      83.700  26.123   2.356  1.00  0.00     0.091 C 
HETATM    3  N4  UNL     1      83.105  26.617   1.289  1.00  0.00    -0.337 N 
ATOM      4  H4  UNL     1      83.130  27.590   0.985  1.00  0.00     0.168 HD
HETATM    5  C7  UNL     1      82.416  25.547   0.629  1.00  0.00     0.246 C 
HETATM    6  O1  UNL     1      81.377  25.619  -0.027  1.00  0.00    -0.271 OA
HETATM    7  C8  UNL     1      83.255  24.369   0.935  1.00  0.00     0.204 C 
ENDROOT
BRANCH   7   8
HETATM    8  N5  UNL     1      82.682  23.102   0.712  1.00  0.00    -0.343 N 
HETATM    9  C9  UNL     1      83.478  22.044   0.202  1.00  0.00     0.248 C 
HETATM   10  O2  UNL     1      84.717  22.242  -0.053  1.00  0.00    -0.271 OA
ATOM     11  H5  UNL     1      81.696  22.945   0.917  1.00  0.00     0.163 HD
BRANCH   9  12
HETATM   12  C10 UNL     1      82.929  20.710  -0.046  1.00  0.00     0.235 C 
BRANCH  12  13
HETATM   13  O3  UNL     1      83.364  19.803   0.951  1.00  0.00    -0.384 OA
ATOM     14  H3  UNL     1      83.243  18.906   0.660  1.00  0.00     0.210 HD
ENDBRANCH  12  13
BRANCH  12  15
HETATM   15  C11 UNL     1      83.378  20.156  -1.395  1.00  0.00     0.273 C 
BRANCH  15  16
HETATM   16  N6  UNL     1      84.523  19.283  -1.153  1.00  0.00    -0.071 N 
ATOM     17  H62 UNL     1      85.403  19.763  -1.340  1.00  0.00     0.277 HD
ATOM     18  H61 UNL     1      84.649  19.102  -0.157  1.00  0.00     0.277 HD
BRANCH  16  19
HETATM   19  C12 UNL     1      84.425  18.067  -1.896  1.00  0.00     0.259 C 
BRANCH  19  20
HETATM   20  C13 UNL     1      84.963  16.880  -1.128  1.00  0.00     0.257 C 
BRANCH  20  21
HETATM   21  N7  UNL     1      84.533  17.027   0.253  1.00  0.00    -0.078 N 
ATOM     22  H73 UNL     1      84.478  18.001   0.551  1.00  0.00     0.274 HD
ATOM     23  H72 UNL     1      83.551  16.790   0.393  1.00  0.00     0.274 HD
ATOM     24  H71 UNL     1      85.164  16.469   0.828  1.00  0.00     0.274 HD
ENDBRANCH  20  21
ENDBRANCH  19  20
ENDBRANCH  16  19
ENDBRANCH  15  16
ENDBRANCH  12  15
ENDBRANCH   9  12
ENDBRANCH   7   8
BRANCH   1  25
HETATM   25  N3  UNL     1      82.275  24.341   3.113  1.00  0.00    -0.386 N 
HETATM   26  C4  UNL     1      81.400  25.047   3.888  1.00  0.00     0.100 C 
ATOM     27  H3  UNL     1      82.018  23.361   2.994  1.00  0.00     0.159 HD
BRANCH  26  28
HETATM   28  C3  UNL     1      80.466  26.086   3.442  1.00  0.00     0.099 C 
BRANCH  28  29
HETATM   29  N2  UNL     1      80.734  27.376   3.920  1.00  0.00    -0.396 N 
ATOM     30  H2  UNL     1      80.290  28.199   3.515  1.00  0.00     0.158 HD
BRANCH  29  31
HETATM   31  C2  UNL     1      81.654  27.479   4.997  1.00  0.00     0.146 C 
BRANCH  31  32
HETATM   32  C1  UNL     1      82.452  28.753   5.033  1.00  0.00     0.249 C 
BRANCH  32  33
HETATM   33  N1  UNL     1      82.551  29.294   3.679  1.00  0.00    -0.078 N 
ATOM     34  H13 UNL     1      81.836  29.997   3.490  1.00  0.00     0.274 HD
ATOM     35  H12 UNL     1      83.371  29.887   3.558  1.00  0.00     0.274 HD
ATOM     36  H11 UNL     1      82.526  28.525   3.009  1.00  0.00     0.274 HD
ENDBRANCH  32  33
ENDBRANCH  31  32
ENDBRANCH  29  31
ENDBRANCH  28  29
ENDBRANCH  26  28
ENDBRANCH   1  25
TORSDOF 14
ENDMDL
MODEL 4
REMARK VINA RESULT: -6.557700808      1.829      2.620
REMARK  14 active torsions:
REMARK  status: ('A' for Active; 'I' for Inactive)
REMARK    1  A    between atoms: N1_1  and  C1_5 
REMARK    2  A    between atoms: C1_5  and  C2_6 
REMARK    3  A    between atoms: C2_6  and  N2_7 
REMARK    4  A    between atoms: N2_7  and  C3_9 
REMARK    5  A    between atoms: C3_9  and  C4_10 
REMARK    6  A    between atoms: N3_11  and  C5_13 
REMARK    7  A    between atoms: C8_19  and  N5_20 
REMARK       I    between atoms: N5_20  and  C9_22 
REMARK    8  A    between atoms: C9_22  and  C10_24 
REMARK    9  A    between atoms: C10_24  and  O3_25 
REMARK   10  A    between atoms: C10_24  and  C11_27 
REMARK   11  A    between atoms: C11_27  and  N6_28 
REMARK   12  A    between atoms: N6_28  and  C12_31 
REMARK   13  A    between atoms: C12_31  and  C13_32 
REMARK   14  A    between atoms: C13_32  and  N7_33 
ROOT
HETATM    1  C5  UNL     1      82.873  23.952   2.201  1.00  0.00     0.151 C 
HETATM    2  C6  UNL     1      83.847  24.641   3.047  1.00  0.00     0.091 C 
HETATM    3  N4  UNL     1      85.032  24.635   2.471  1.00  0.00    -0.337 N 
ATOM      4  H4  UNL     1      85.884  25.051   2.847  1.00  0.00     0.168 HD
HETATM    5  C7  UNL     1      84.915  23.941   1.222  1.00  0.00     0.246 C 
HETATM    6  O1  UNL     1      85.558  24.143   0.192  1.00  0.00    -0.271 OA
HETATM    7  C8  UNL     1      83.852  22.949   1.488  1.00  0.00     0.204 C 
ENDROOT
BRANCH   7   8
HETATM    8  N5  UNL     1      83.265  22.326   0.369  1.00  0.00    -0.343 N 
HETATM    9  C9  UNL     1      83.774  21.089  -0.101  1.00  0.00     0.248 C 
HETATM   10  O2  UNL     1      84.766  20.538   0.493  1.00  0.00    -0.271 OA
ATOM     11  H5  UNL     1      82.475  22.765  -0.102  1.00  0.00     0.163 HD
BRANCH   9  12
HETATM   12  C10 UNL     1      83.199  20.403  -1.259  1.00  0.00     0.235 C 
BRANCH  12  13
HETATM   13  O3  UNL     1      81.869  20.838  -1.482  1.00  0.00    -0.384 OA
ATOM     14  H3  UNL     1      81.708  21.658  -1.029  1.00  0.00     0.210 HD
ENDBRANCH  12  13
BRANCH  12  15
HETATM   15  C11 UNL     1      83.157  18.891  -1.057  1.00  0.00     0.273 C 
BRANCH  15  16
HETATM   16  N6  UNL     1      84.402  18.342  -1.583  1.00  0.00    -0.071 N 
ATOM     17  H62 UNL     1      84.289  18.016  -2.543  1.00  0.00     0.277 HD
ATOM     18  H61 UNL     1      85.093  19.074  -1.744  1.00  0.00     0.277 HD
BRANCH  16  19
HETATM   19  C12 UNL     1      84.921  17.312  -0.740  1.00  0.00     0.259 C 
BRANCH  19  20
HETATM   20  C13 UNL     1      84.122  17.158   0.535  1.00  0.00     0.257 C 
BRANCH  20  21
HETATM   21  N7  UNL     1      85.023  17.426   1.645  1.00  0.00    -0.078 N 
ATOM     22  H73 UNL     1      85.043  16.674   2.333  1.00  0.00     0.274 HD
ATOM     23  H72 UNL     1      86.006  17.387   1.378  1.00  0.00     0.274 HD
ATOM     24  H71 UNL     1      84.753  18.325   2.044  1.00  0.00     0.274 HD
ENDBRANCH  20  21
ENDBRANCH  19  20
ENDBRANCH  16  19
ENDBRANCH  15  16
ENDBRANCH  12  15
ENDBRANCH   9  12
ENDBRANCH   7   8
BRANCH   1  25
HETATM   25  N3  UNL     1      82.260  24.713   1.243  1.00  0.00    -0.386 N 
HETATM   26  C4  UNL     1      81.689  25.952   1.272  1.00  0.00     0.100 C 
ATOM     27  H3  UNL     1      82.223  24.266   0.326  1.00  0.00     0.159 HD
BRANCH  26  28
HETATM   28  C3  UNL     1      82.380  27.239   1.408  1.00  0.00     0.099 C 
BRANCH  28  29
HETATM   29  N2  UNL     1      82.434  27.754   2.710  1.00  0.00    -0.396 N 
ATOM     30  H2  UNL     1      83.092  28.489   2.968  1.00  0.00     0.158 HD
BRANCH  29  31
HETATM   31  C2  UNL     1      81.526  27.202   3.654  1.00  0.00     0.146 C 
BRANCH  31  32
HETATM   32  C1  UNL     1      81.814  27.541   5.089  1.00  0.00     0.249 C 
BRANCH  32  33
HETATM   33  N1  UNL     1      82.952  28.457   5.145  1.00  0.00    -0.078 N 
ATOM     34  H13 UNL     1      83.646  28.170   5.836  1.00  0.00     0.274 HD
ATOM     35  H12 UNL     1      83.541  28.393   4.316  1.00  0.00     0.274 HD
ATOM     36  H11 UNL     1      82.611  29.404   5.308  1.00  0.00     0.274 HD
ENDBRANCH  32  33
ENDBRANCH  31  32
ENDBRANCH  29  31
ENDBRANCH  28  29
ENDBRANCH  26  28
ENDBRANCH   1  25
TORSDOF 14
ENDMDL
MODEL 5
REMARK VINA RESULT: -6.265632067      1.352      1.601
REMARK  14 active torsions:
REMARK  status: ('A' for Active; 'I' for Inactive)
REMARK    1  A    between atoms: N1_1  and  C1_5 
REMARK    2  A    between atoms: C1_5  and  C2_6 
REMARK    3  A    between atoms: C2_6  and  N2_7 
REMARK    4  A    between atoms: N2_7  and  C3_9 
REMARK    5  A    between atoms: C3_9  and  C4_10 
REMARK    6  A    between atoms: N3_11  and  C5_13 
REMARK    7  A    between atoms: C8_19  and  N5_20 
REMARK       I    between atoms: N5_20  and  C9_22 
REMARK    8  A    between atoms: C9_22  and  C10_24 
REMARK    9  A    between atoms: C10_24  and  O3_25 
REMARK   10  A    between atoms: C10_24  and  C11_27 
REMARK   11  A    between atoms: C11_27  and  N6_28 
REMARK   12  A    between atoms: N6_28  and  C12_31 
REMARK   13  A    between atoms: C12_31  and  C13_32 
REMARK   14  A    between atoms: C13_32  and  N7_33 
ROOT
HETATM    1  C5  UNL     1      81.375  25.000   1.746  1.00  0.00     0.151 C 
HETATM    2  C6  UNL     1      80.888  25.504   3.029  1.00  0.00     0.091 C 
HETATM    3  N4  UNL     1      81.742  25.202   3.987  1.00  0.00    -0.337 N 
ATOM      4  H4  UNL     1      81.643  25.441   4.974  1.00  0.00     0.168 HD
HETATM    5  C7  UNL     1      82.832  24.481   3.400  1.00  0.00     0.246 C 
HETATM    6  O1  UNL     1      84.008  24.477   3.766  1.00  0.00    -0.271 OA
HETATM    7  C8  UNL     1      82.194  23.766   2.275  1.00  0.00     0.204 C 
ENDROOT
BRANCH   7   8
HETATM    8  N5  UNL     1      83.049  23.226   1.295  1.00  0.00    -0.343 N 
HETATM    9  C9  UNL     1      82.571  22.226   0.411  1.00  0.00     0.248 C 
HETATM   10  O2  UNL     1      81.361  21.815   0.502  1.00  0.00    -0.271 OA
ATOM     11  H5  UNL     1      84.012  23.554   1.221  1.00  0.00     0.163 HD
BRANCH   9  12
HETATM   12  C10 UNL     1      83.420  21.634  -0.624  1.00  0.00     0.235 C 
BRANCH  12  13
HETATM   13  O3  UNL     1      82.647  20.835  -1.502  1.00  0.00    -0.384 OA
ATOM     14  H3  UNL     1      81.850  20.547  -1.072  1.00  0.00     0.210 HD
ENDBRANCH  12  13
BRANCH  12  15
HETATM   15  C11 UNL     1      84.502  20.740  -0.026  1.00  0.00     0.273 C 
BRANCH  15  16
HETATM   16  N6  UNL     1      83.839  19.580   0.561  1.00  0.00    -0.071 N 
ATOM     17  H62 UNL     1      83.898  19.593   1.579  1.00  0.00     0.277 HD
ATOM     18  H61 UNL     1      82.826  19.639   0.461  1.00  0.00     0.277 HD
BRANCH  16  19
HETATM   19  C12 UNL     1      84.345  18.356   0.026  1.00  0.00     0.259 C 
BRANCH  19  20
HETATM   20  C13 UNL     1      84.532  17.297   1.090  1.00  0.00     0.257 C 
BRANCH  20  21
HETATM   21  N7  UNL     1      85.088  17.955   2.261  1.00  0.00    -0.078 N 
ATOM     22  H73 UNL     1      86.035  17.646   2.481  1.00  0.00     0.274 HD
ATOM     23  H72 UNL     1      85.305  18.939   2.101  1.00  0.00     0.274 HD
ATOM     24  H71 UNL     1      84.433  17.811   3.030  1.00  0.00     0.274 HD
ENDBRANCH  20  21
ENDBRANCH  19  20
ENDBRANCH  16  19
ENDBRANCH  15  16
ENDBRANCH  12  15
ENDBRANCH   9  12
ENDBRANCH   7   8
BRANCH   1  25
HETATM   25  N3  UNL     1      82.228  25.822   1.059  1.00  0.00    -0.386 N 
HETATM   26  C4  UNL     1      82.623  27.114   1.253  1.00  0.00     0.100 C 
ATOM     27  H3  UNL     1      82.651  25.382   0.241  1.00  0.00     0.159 HD
BRANCH  26  28
HETATM   28  C3  UNL     1      83.494  27.620   2.319  1.00  0.00     0.099 C 
BRANCH  28  29
HETATM   29  N2  UNL     1      83.451  29.006   2.519  1.00  0.00    -0.396 N 
ATOM     30  H2  UNL     1      84.013  29.645   1.959  1.00  0.00     0.158 HD
BRANCH  29  31
HETATM   31  C2  UNL     1      82.584  29.477   3.542  1.00  0.00     0.146 C 
BRANCH  31  32
HETATM   32  C1  UNL     1      82.230  28.464   4.593  1.00  0.00     0.249 C 
BRANCH  32  33
HETATM   33  N1  UNL     1      83.009  28.733   5.800  1.00  0.00    -0.078 N 
ATOM     34  H13 UNL     1      83.932  29.114   5.588  1.00  0.00     0.274 HD
ATOM     35  H12 UNL     1      82.644  29.526   6.327  1.00  0.00     0.274 HD
ATOM     36  H11 UNL     1      83.059  27.884   6.362  1.00  0.00     0.274 HD
ENDBRANCH  32  33
ENDBRANCH  31  32
ENDBRANCH  29  31
ENDBRANCH  28  29
ENDBRANCH  26  28
ENDBRANCH   1  25
TORSDOF 14
ENDMDL
