MODEL 1
REMARK VINA RESULT: -9.523232334      0.000      0.000
REMARK  7 active torsions:
REMARK  status: ('A' for Active; 'I' for Inactive)
REMARK    1  A    between atoms: N3_4  and  N4_6 
REMARK       I    between atoms: C2_8  and  N6_10 
REMARK    2  A    between atoms: N6_10  and  C3_12 
REMARK    3  A    between atoms: C3_12  and  C4_13 
REMARK    4  A    between atoms: C4_13  and  N7_14 
REMARK    5  A    between atoms: N7_14  and  C5_16 
REMARK    6  A    between atoms: C5_16  and  C6_17 
REMARK    7  A    between atoms: C6_17  and  N8_18 
ROOT
HETATM    1  N7  UNL     1      14.074  46.608  -1.000  1.00  0.00    -0.399 N 
ATOM      2  H7  UNL     1      14.761  46.421  -0.271  1.00  0.00     0.158 HD
ENDROOT
BRANCH   1   3
HETATM    3  C4  UNL     1      13.502  47.888  -1.114  1.00  0.00     0.075 C 
BRANCH   3   4
HETATM    4  C3  UNL     1      12.373  48.256  -0.226  1.00  0.00     0.166 C 
BRANCH   4   5
HETATM    5  N6  UNL     1      11.670  49.460  -0.562  1.00  0.00    -0.359 N 
HETATM    6  C2  UNL     1      11.872  50.672   0.185  1.00  0.00     0.203 C 
HETATM    7  N4  UNL     1      12.767  51.494  -0.190  1.00  0.00    -0.272 N 
HETATM    8  N5  UNL     1      11.057  50.889   1.311  1.00  0.00    -0.062 NA
ATOM      9  H4  UNL     1      13.318  51.266  -1.017  1.00  0.00     0.189 HD
ATOM     10  H6  UNL     1      11.016  49.457  -1.345  1.00  0.00     0.162 HD
BRANCH   7  11
HETATM   11  N3  UNL     1      13.031  52.675   0.464  1.00  0.00    -0.274 N 
HETATM   12  C1  UNL     1      13.428  53.764  -0.065  1.00  0.00     0.215 C 
HETATM   13  N1  UNL     1      13.628  53.788  -1.488  1.00  0.00    -0.065 NA
HETATM   14  N2  UNL     1      13.679  54.946   0.678  1.00  0.00    -0.065 NA
ATOM     15  H3  UNL     1      12.895  52.679   1.475  1.00  0.00     0.189 HD
ENDBRANCH   7  11
ENDBRANCH   4   5
ENDBRANCH   3   4
ENDBRANCH   1   3
BRANCH   1  16
HETATM   16  C5  UNL     1      13.698  45.581  -1.896  1.00  0.00     0.140 C 
BRANCH  16  17
HETATM   17  C6  UNL     1      13.044  46.146  -3.148  1.00  0.00     0.172 C 
BRANCH  17  18
HETATM   18  N8  UNL     1      11.846  45.449  -3.547  1.00  0.00    -0.247 N 
HETATM   19  N9  UNL     1      11.839  44.272  -4.168  1.00  0.00    -0.246 N 
HETATM   20  C7  UNL     1      10.715  43.639  -4.547  1.00  0.00     0.342 A 
ATOM     21  H9  UNL     1      12.734  43.826  -4.367  1.00  0.00     0.192 HD
HETATM   22  O1  UNL     1      10.779  42.520  -5.134  1.00  0.00    -0.245 OA
HETATM   23  N10 UNL     1       9.495  44.157  -4.324  1.00  0.00    -0.270 N 
HETATM   24  C8  UNL     1       9.450  45.347  -3.699  1.00  0.00     0.319 A 
ATOM     25  H10 UNL     1       8.646  43.672  -4.614  1.00  0.00     0.174 HD
HETATM   26  O2  UNL     1       8.307  45.842  -3.484  1.00  0.00    -0.262 OA
HETATM   27  C9  UNL     1      10.614  45.988  -3.314  1.00  0.00     0.330 A 
HETATM   28  O3  UNL     1      10.554  47.091  -2.735  1.00  0.00    -0.260 OA
ENDBRANCH  17  18
ENDBRANCH  16  17
ENDBRANCH   1  16
TORSDOF 7
ENDMDL
MODEL 2
REMARK VINA RESULT: -9.409629216      4.076      6.855
REMARK  7 active torsions:
REMARK  status: ('A' for Active; 'I' for Inactive)
REMARK    1  A    between atoms: N3_4  and  N4_6 
REMARK       I    between atoms: C2_8  and  N6_10 
REMARK    2  A    between atoms: N6_10  and  C3_12 
REMARK    3  A    between atoms: C3_12  and  C4_13 
REMARK    4  A    between atoms: C4_13  and  N7_14 
REMARK    5  A    between atoms: N7_14  and  C5_16 
REMARK    6  A    between atoms: C5_16  and  C6_17 
REMARK    7  A    between atoms: C6_17  and  N8_18 
ROOT
HETATM    1  N7  UNL     1      13.271  43.156  -2.738  1.00  0.00    -0.399 N 
ATOM      2  H7  UNL     1      13.457  42.172  -2.930  1.00  0.00     0.158 HD
ENDROOT
BRANCH   1   3
HETATM    3  C4  UNL     1      11.945  43.623  -2.691  1.00  0.00     0.075 C 
BRANCH   3   4
HETATM    4  C3  UNL     1      11.238  43.919  -3.960  1.00  0.00     0.166 C 
BRANCH   4   5
HETATM    5  N6  UNL     1      11.108  45.306  -4.303  1.00  0.00    -0.359 N 
HETATM    6  C2  UNL     1      11.167  46.329  -3.295  1.00  0.00     0.203 C 
HETATM    7  N4  UNL     1      12.288  46.856  -3.007  1.00  0.00    -0.272 N 
HETATM    8  N5  UNL     1       9.963  46.700  -2.668  1.00  0.00    -0.062 NA
ATOM      9  H4  UNL     1      13.117  46.534  -3.506  1.00  0.00     0.189 HD
ATOM     10  H6  UNL     1      10.971  45.570  -5.279  1.00  0.00     0.162 HD
BRANCH   7  11
HETATM   11  N3  UNL     1      12.440  47.840  -2.057  1.00  0.00    -0.274 N 
HETATM   12  C1  UNL     1      13.273  47.843  -1.093  1.00  0.00     0.215 C 
HETATM   13  N1  UNL     1      14.156  46.717  -0.962  1.00  0.00    -0.065 NA
HETATM   14  N2  UNL     1      13.370  48.898  -0.150  1.00  0.00    -0.065 NA
ATOM     15  H3  UNL     1      11.822  48.648  -2.132  1.00  0.00     0.189 HD
ENDBRANCH   7  11
ENDBRANCH   4   5
ENDBRANCH   3   4
ENDBRANCH   1   3
BRANCH   1  16
HETATM   16  C5  UNL     1      14.345  44.048  -2.521  1.00  0.00     0.140 C 
BRANCH  16  17
HETATM   17  C6  UNL     1      15.675  43.314  -2.458  1.00  0.00     0.172 C 
BRANCH  17  18
HETATM   18  N8  UNL     1      16.815  44.182  -2.285  1.00  0.00    -0.247 N 
HETATM   19  N9  UNL     1      17.124  44.788  -1.142  1.00  0.00    -0.246 N 
HETATM   20  C7  UNL     1      18.182  45.605  -0.997  1.00  0.00     0.342 A 
ATOM     21  H9  UNL     1      16.526  44.625  -0.332  1.00  0.00     0.192 HD
HETATM   22  O1  UNL     1      18.419  46.151   0.119  1.00  0.00    -0.245 OA
HETATM   23  N10 UNL     1      19.019  45.874  -2.013  1.00  0.00    -0.270 N 
HETATM   24  C8  UNL     1      18.749  45.284  -3.191  1.00  0.00     0.319 A 
ATOM     25  H10 UNL     1      19.821  46.495  -1.897  1.00  0.00     0.174 HD
HETATM   26  O2  UNL     1      19.531  45.531  -4.153  1.00  0.00    -0.262 OA
HETATM   27  C9  UNL     1      17.657  44.446  -3.327  1.00  0.00     0.330 A 
HETATM   28  O3  UNL     1      17.420  43.906  -4.426  1.00  0.00    -0.260 OA
ENDBRANCH  17  18
ENDBRANCH  16  17
ENDBRANCH   1  16
TORSDOF 7
ENDMDL
MODEL 3
REMARK VINA RESULT: -9.362288999      3.963      6.037
REMARK  7 active torsions:
REMARK  status: ('A' for Active; 'I' for Inactive)
REMARK    1  A    between atoms: N3_4  and  N4_6 
REMARK       I    between atoms: C2_8  and  N6_10 
REMARK    2  A    between atoms: N6_10  and  C3_12 
REMARK    3  A    between atoms: C3_12  and  C4_13 
REMARK    4  A    between atoms: C4_13  and  N7_14 
REMARK    5  A    between atoms: N7_14  and  C5_16 
REMARK    6  A    between atoms: C5_16  and  C6_17 
REMARK    7  A    between atoms: C6_17  and  N8_18 
ROOT
HETATM    1  N7  UNL     1      13.828  45.152  -3.117  1.00  0.00    -0.399 N 
ATOM      2  H7  UNL     1      14.540  45.742  -3.548  1.00  0.00     0.158 HD
ENDROOT
BRANCH   1   3
HETATM    3  C4  UNL     1      12.477  45.307  -3.476  1.00  0.00     0.075 C 
BRANCH   3   4
HETATM    4  C3  UNL     1      11.733  46.494  -2.992  1.00  0.00     0.166 C 
BRANCH   4   5
HETATM    5  N6  UNL     1      11.753  46.719  -1.575  1.00  0.00    -0.359 N 
HETATM    6  C2  UNL     1      12.509  47.801  -1.006  1.00  0.00     0.203 C 
HETATM    7  N4  UNL     1      11.949  48.930  -0.833  1.00  0.00    -0.272 N 
HETATM    8  N5  UNL     1      13.851  47.552  -0.663  1.00  0.00    -0.062 NA
ATOM      9  H4  UNL     1      10.972  49.033  -1.106  1.00  0.00     0.189 HD
ATOM     10  H6  UNL     1      11.222  46.101  -0.962  1.00  0.00     0.162 HD
BRANCH   7  11
HETATM   11  N3  UNL     1      12.594  50.021  -0.297  1.00  0.00    -0.274 N 
HETATM   12  C1  UNL     1      12.166  50.774   0.636  1.00  0.00     0.215 C 
HETATM   13  N1  UNL     1      10.880  50.477   1.205  1.00  0.00    -0.065 NA
HETATM   14  N2  UNL     1      12.892  51.884   1.138  1.00  0.00    -0.065 NA
ATOM     15  H3  UNL     1      13.509  50.249  -0.687  1.00  0.00     0.189 HD
ENDBRANCH   7  11
ENDBRANCH   4   5
ENDBRANCH   3   4
ENDBRANCH   1   3
BRANCH   1  16
HETATM   16  C5  UNL     1      14.201  44.180  -2.161  1.00  0.00     0.140 C 
BRANCH  16  17
HETATM   17  C6  UNL     1      15.488  43.475  -2.555  1.00  0.00     0.172 C 
BRANCH  17  18
HETATM   18  N8  UNL     1      16.679  44.258  -2.330  1.00  0.00    -0.247 N 
HETATM   19  N9  UNL     1      16.991  44.822  -1.167  1.00  0.00    -0.246 N 
HETATM   20  C7  UNL     1      18.097  45.561  -0.972  1.00  0.00     0.342 A 
ATOM     21  H9  UNL     1      16.357  44.687  -0.379  1.00  0.00     0.192 HD
HETATM   22  O1  UNL     1      18.335  46.071   0.161  1.00  0.00    -0.245 OA
HETATM   23  N10 UNL     1      18.983  45.789  -1.957  1.00  0.00    -0.270 N 
HETATM   24  C8  UNL     1      18.712  45.240  -3.154  1.00  0.00     0.319 A 
ATOM     25  H10 UNL     1      19.822  46.351  -1.803  1.00  0.00     0.174 HD
HETATM   26  O2  UNL     1      19.540  45.448  -4.085  1.00  0.00    -0.262 OA
HETATM   27  C9  UNL     1      17.570  44.482  -3.339  1.00  0.00     0.330 A 
HETATM   28  O3  UNL     1      17.332  43.978  -4.456  1.00  0.00    -0.260 OA
ENDBRANCH  17  18
ENDBRANCH  16  17
ENDBRANCH   1  16
TORSDOF 7
ENDMDL
MODEL 4
REMARK VINA RESULT: -9.220574591      1.018      2.056
REMARK  7 active torsions:
REMARK  status: ('A' for Active; 'I' for Inactive)
REMARK    1  A    between atoms: N3_4  and  N4_6 
REMARK       I    between atoms: C2_8  and  N6_10 
REMARK    2  A    between atoms: N6_10  and  C3_12 
REMARK    3  A    between atoms: C3_12  and  C4_13 
REMARK    4  A    between atoms: C4_13  and  N7_14 
REMARK    5  A    between atoms: N7_14  and  C5_16 
REMARK    6  A    between atoms: C5_16  and  C6_17 
REMARK    7  A    between atoms: C6_17  and  N8_18 
ROOT
HETATM    1  N7  UNL     1      13.587  47.262  -1.924  1.00  0.00    -0.399 N 
ATOM      2  H7  UNL     1      13.574  47.711  -2.840  1.00  0.00     0.158 HD
ENDROOT
BRANCH   1   3
HETATM    3  C4  UNL     1      13.425  48.036  -0.761  1.00  0.00     0.075 C 
BRANCH   3   4
HETATM    4  C3  UNL     1      12.056  48.331  -0.275  1.00  0.00     0.166 C 
BRANCH   4   5
HETATM    5  N6  UNL     1      11.566  49.655  -0.529  1.00  0.00    -0.359 N 
HETATM    6  C2  UNL     1      11.895  50.749   0.344  1.00  0.00     0.203 C 
HETATM    7  N4  UNL     1      12.926  51.452   0.101  1.00  0.00    -0.272 N 
HETATM    8  N5  UNL     1      11.046  50.990   1.440  1.00  0.00    -0.062 NA
ATOM      9  H4  UNL     1      13.492  51.216  -0.714  1.00  0.00     0.189 HD
ATOM     10  H6  UNL     1      10.974  49.823  -1.342  1.00  0.00     0.162 HD
BRANCH   7  11
HETATM   11  N3  UNL     1      13.318  52.515   0.881  1.00  0.00    -0.274 N 
HETATM   12  C1  UNL     1      13.517  53.712   0.491  1.00  0.00     0.215 C 
HETATM   13  N1  UNL     1      13.320  54.007  -0.902  1.00  0.00    -0.065 NA
HETATM   14  N2  UNL     1      13.921  54.758   1.359  1.00  0.00    -0.065 NA
ATOM     15  H3  UNL     1      13.464  52.326   1.873  1.00  0.00     0.189 HD
ENDBRANCH   7  11
ENDBRANCH   4   5
ENDBRANCH   3   4
ENDBRANCH   1   3
BRANCH   1  16
HETATM   16  C5  UNL     1      13.768  45.864  -1.826  1.00  0.00     0.140 C 
BRANCH  16  17
HETATM   17  C6  UNL     1      12.519  45.177  -1.297  1.00  0.00     0.172 C 
BRANCH  17  18
HETATM   18  N8  UNL     1      11.473  45.025  -2.279  1.00  0.00    -0.247 N 
HETATM   19  N9  UNL     1      10.485  45.897  -2.457  1.00  0.00    -0.246 N 
HETATM   20  C7  UNL     1       9.508  45.739  -3.367  1.00  0.00     0.342 A 
ATOM     21  H9  UNL     1      10.467  46.733  -1.872  1.00  0.00     0.192 HD
HETATM   22  O1  UNL     1       8.596  46.607  -3.485  1.00  0.00    -0.245 OA
HETATM   23  N10 UNL     1       9.457  44.667  -4.177  1.00  0.00    -0.270 N 
HETATM   24  C8  UNL     1      10.435  43.755  -4.035  1.00  0.00     0.319 A 
ATOM     25  H10 UNL     1       8.713  44.552  -4.866  1.00  0.00     0.174 HD
HETATM   26  O2  UNL     1      10.395  42.745  -4.793  1.00  0.00    -0.262 OA
HETATM   27  C9  UNL     1      11.434  43.931  -3.095  1.00  0.00     0.330 A 
HETATM   28  O3  UNL     1      12.334  43.076  -2.976  1.00  0.00    -0.260 OA
ENDBRANCH  17  18
ENDBRANCH  16  17
ENDBRANCH   1  16
TORSDOF 7
ENDMDL
MODEL 5
REMARK VINA RESULT: -9.002459978      2.127      3.009
REMARK  7 active torsions:
REMARK  status: ('A' for Active; 'I' for Inactive)
REMARK    1  A    between atoms: N3_4  and  N4_6 
REMARK       I    between atoms: C2_8  and  N6_10 
REMARK    2  A    between atoms: N6_10  and  C3_12 
REMARK    3  A    between atoms: C3_12  and  C4_13 
REMARK    4  A    between atoms: C4_13  and  N7_14 
REMARK    5  A    between atoms: N7_14  and  C5_16 
REMARK    6  A    between atoms: C5_16  and  C6_17 
REMARK    7  A    between atoms: C6_17  and  N8_18 
ROOT
HETATM    1  N7  UNL     1      10.530  47.166  -1.669  1.00  0.00    -0.399 N 
ATOM      2  H7  UNL     1       9.760  47.830  -1.586  1.00  0.00     0.158 HD
ENDROOT
BRANCH   1   3
HETATM    3  C4  UNL     1      11.547  47.146  -0.697  1.00  0.00     0.075 C 
BRANCH   3   4
HETATM    4  C3  UNL     1      12.305  48.390  -0.419  1.00  0.00     0.166 C 
BRANCH   4   5
HETATM    5  N6  UNL     1      11.593  49.621  -0.611  1.00  0.00    -0.359 N 
HETATM    6  C2  UNL     1      11.876  50.777   0.196  1.00  0.00     0.203 C 
HETATM    7  N4  UNL     1      12.747  51.615  -0.199  1.00  0.00    -0.272 N 
HETATM    8  N5  UNL     1      11.163  50.924   1.400  1.00  0.00    -0.062 NA
ATOM      9  H4  UNL     1      13.221  51.439  -1.085  1.00  0.00     0.189 HD
ATOM     10  H6  UNL     1      10.874  49.677  -1.333  1.00  0.00     0.162 HD
BRANCH   7  11
HETATM   11  N3  UNL     1      13.083  52.746   0.507  1.00  0.00    -0.274 N 
HETATM   12  C1  UNL     1      13.468  53.859   0.021  1.00  0.00     0.215 C 
HETATM   13  N1  UNL     1      13.572  53.970  -1.408  1.00  0.00    -0.065 NA
HETATM   14  N2  UNL     1      13.798  54.986   0.818  1.00  0.00    -0.065 NA
ATOM     15  H3  UNL     1      13.016  52.689   1.524  1.00  0.00     0.189 HD
ENDBRANCH   7  11
ENDBRANCH   4   5
ENDBRANCH   3   4
ENDBRANCH   1   3
BRANCH   1  16
HETATM   16  C5  UNL     1      10.574  46.268  -2.759  1.00  0.00     0.140 C 
BRANCH  16  17
HETATM   17  C6  UNL     1      11.961  46.213  -3.380  1.00  0.00     0.172 C 
BRANCH  17  18
HETATM   18  N8  UNL     1      12.672  44.985  -3.118  1.00  0.00    -0.247 N 
HETATM   19  N9  UNL     1      12.120  43.776  -3.177  1.00  0.00    -0.246 N 
HETATM   20  C7  UNL     1      12.790  42.640  -2.917  1.00  0.00     0.342 A 
ATOM     21  H9  UNL     1      11.135  43.707  -3.434  1.00  0.00     0.192 HD
HETATM   22  O1  UNL     1      12.205  41.521  -2.991  1.00  0.00    -0.245 OA
HETATM   23  N10 UNL     1      14.089  42.642  -2.571  1.00  0.00    -0.270 N 
HETATM   24  C8  UNL     1      14.692  43.842  -2.497  1.00  0.00     0.319 A 
ATOM     25  H10 UNL     1      14.593  41.776  -2.375  1.00  0.00     0.174 HD
HETATM   26  O2  UNL     1      15.914  43.854  -2.173  1.00  0.00    -0.262 OA
HETATM   27  C9  UNL     1      13.991  45.003  -2.767  1.00  0.00     0.330 A 
HETATM   28  O3  UNL     1      14.565  46.108  -2.694  1.00  0.00    -0.260 OA
ENDBRANCH  17  18
ENDBRANCH  16  17
ENDBRANCH   1  16
TORSDOF 7
ENDMDL
