MODEL 1
REMARK VINA RESULT: -8.873591680      0.000      0.000
REMARK  9 active torsions:
REMARK  status: ('A' for Active; 'I' for Inactive)
REMARK    1  A    between atoms: C2_2  and  N1_3 
REMARK    2  A    between atoms: C2_2  and  C3_7 
REMARK       I    between atoms: C3_7  and  N2_9 
REMARK    3  A    between atoms: N2_9  and  N3_11 
REMARK    4  A    between atoms: N3_11  and  C4_13 
REMARK    5  A    between atoms: C6_15  and  C7_16 
REMARK    6  A    between atoms: C7_16  and  O2_17 
REMARK    7  A    between atoms: C10_23  and  N5_24 
REMARK    8  A    between atoms: N5_24  and  N6_26 
REMARK    9  A    between atoms: N6_26  and  C11_28 
ROOT
HETATM    1  C4  UNL     1      11.375  47.064  -1.110  1.00  0.00     0.123 C 
HETATM    2  C5  UNL     1      11.939  46.072  -1.739  1.00  0.00     0.043 A 
HETATM    3  C6  UNL     1      11.169  45.195  -2.467  1.00  0.00    -0.004 A 
HETATM    4  C8  UNL     1      11.754  44.132  -3.143  1.00  0.00     0.099 A 
HETATM    5  N4  UNL     1      13.086  43.922  -3.111  1.00  0.00    -0.361 N 
ATOM      6  H4  UNL     1      13.503  43.137  -3.612  1.00  0.00     0.165 HD
HETATM    7  C9  UNL     1      13.848  44.768  -2.404  1.00  0.00     0.100 A 
HETATM    8  C10 UNL     1      15.156  44.613  -2.326  1.00  0.00     0.140 C 
HETATM    9  C12 UNL     1      13.293  45.851  -1.710  1.00  0.00     0.212 A 
HETATM   10  O4  UNL     1      14.021  46.633  -1.054  1.00  0.00    -0.285 OA
ENDROOT
BRANCH   1  11
HETATM   11  N3  UNL     1      12.083  48.020  -0.334  1.00  0.00    -0.308 N 
ATOM     12  H3  UNL     1      12.863  47.724   0.253  1.00  0.00     0.186 HD
BRANCH  11  13
HETATM   13  N2  UNL     1      11.710  49.366  -0.376  1.00  0.00    -0.269 N 
HETATM   14  C3  UNL     1      12.592  50.373   0.092  1.00  0.00     0.266 C 
HETATM   15  O1  UNL     1      13.719  50.071   0.546  1.00  0.00    -0.269 OA
ATOM     16  H2  UNL     1      10.796  49.626  -0.746  1.00  0.00     0.190 HD
BRANCH  14  17
HETATM   17  C2  UNL     1      12.192  51.786   0.048  1.00  0.00     0.272 C 
HETATM   18  C1  UNL     1      11.758  52.299   1.413  1.00  0.00     0.050 C 
BRANCH  17  19
HETATM   19  N1  UNL     1      13.262  52.576  -0.500  1.00  0.00    -0.067 N 
ATOM     20  H13 UNL     1      12.928  53.193  -1.241  1.00  0.00     0.275 HD
ATOM     21  H12 UNL     1      13.581  53.282   0.163  1.00  0.00     0.275 HD
ATOM     22  H11 UNL     1      14.034  51.992  -0.823  1.00  0.00     0.275 HD
ENDBRANCH  17  19
ENDBRANCH  14  17
ENDBRANCH  11  13
ENDBRANCH   1  11
BRANCH   3  23
HETATM   23  C7  UNL     1       9.700  45.412  -2.513  1.00  0.00     0.205 C 
BRANCH  23  24
HETATM   24  O2  UNL     1       9.406  46.161  -3.673  1.00  0.00    -0.396 OA
ATOM     25  H2  UNL     1       9.607  45.623  -4.428  1.00  0.00     0.209 HD
ENDBRANCH  23  24
ENDBRANCH   3  23
BRANCH   8  26
HETATM   26  N5  UNL     1      15.868  43.574  -2.958  1.00  0.00    -0.307 N 
ATOM     27  H5  UNL     1      15.618  42.606  -2.757  1.00  0.00     0.186 HD
BRANCH  26  28
HETATM   28  N6  UNL     1      16.912  43.837  -3.855  1.00  0.00    -0.278 N 
ATOM     29  H6  UNL     1      16.892  43.394  -4.775  1.00  0.00     0.189 HD
BRANCH  28  30
HETATM   30  C11 UNL     1      17.982  44.688  -3.538  1.00  0.00     0.368 C 
HETATM   31  O3  UNL     1      18.566  45.400  -4.373  1.00  0.00    -0.282 OA
ENDBRANCH  28  30
ENDBRANCH  26  28
ENDBRANCH   8  26
TORSDOF 9
ENDMDL
MODEL 2
REMARK VINA RESULT: -8.751694505      1.879      6.694
REMARK  9 active torsions:
REMARK  status: ('A' for Active; 'I' for Inactive)
REMARK    1  A    between atoms: C2_2  and  N1_3 
REMARK    2  A    between atoms: C2_2  and  C3_7 
REMARK       I    between atoms: C3_7  and  N2_9 
REMARK    3  A    between atoms: N2_9  and  N3_11 
REMARK    4  A    between atoms: N3_11  and  C4_13 
REMARK    5  A    between atoms: C6_15  and  C7_16 
REMARK    6  A    between atoms: C7_16  and  O2_17 
REMARK    7  A    between atoms: C10_23  and  N5_24 
REMARK    8  A    between atoms: N5_24  and  N6_26 
REMARK    9  A    between atoms: N6_26  and  C11_28 
ROOT
HETATM    1  C4  UNL     1      13.187  45.475  -1.745  1.00  0.00     0.123 C 
HETATM    2  C5  UNL     1      12.644  46.634  -1.498  1.00  0.00     0.043 A 
HETATM    3  C6  UNL     1      11.383  46.916  -1.969  1.00  0.00    -0.004 A 
HETATM    4  C8  UNL     1      10.791  48.146  -1.714  1.00  0.00     0.099 A 
HETATM    5  N4  UNL     1      11.424  49.101  -1.003  1.00  0.00    -0.361 N 
ATOM      6  H4  UNL     1      10.977  50.001  -0.823  1.00  0.00     0.165 HD
HETATM    7  C9  UNL     1      12.654  48.840  -0.539  1.00  0.00     0.100 A 
HETATM    8  C10 UNL     1      13.329  49.735   0.158  1.00  0.00     0.140 C 
HETATM    9  C12 UNL     1      13.282  47.611  -0.776  1.00  0.00     0.212 A 
HETATM   10  O4  UNL     1      14.433  47.384  -0.334  1.00  0.00    -0.285 OA
ENDROOT
BRANCH   1  11
HETATM   11  N3  UNL     1      14.480  45.091  -1.303  1.00  0.00    -0.308 N 
ATOM     12  H3  UNL     1      14.657  44.942  -0.310  1.00  0.00     0.186 HD
BRANCH  11  13
HETATM   13  N2  UNL     1      15.511  44.917  -2.231  1.00  0.00    -0.269 N 
HETATM   14  C3  UNL     1      16.856  44.797  -1.800  1.00  0.00     0.266 C 
HETATM   15  O1  UNL     1      17.140  44.843  -0.581  1.00  0.00    -0.269 OA
ATOM     16  H2  UNL     1      15.293  44.875  -3.226  1.00  0.00     0.190 HD
BRANCH  14  17
HETATM   17  C2  UNL     1      17.934  44.617  -2.780  1.00  0.00     0.272 C 
HETATM   18  C1  UNL     1      17.439  43.958  -4.059  1.00  0.00     0.050 C 
BRANCH  17  19
HETATM   19  N1  UNL     1      18.566  45.881  -3.045  1.00  0.00    -0.067 N 
ATOM     20  H13 UNL     1      19.576  45.779  -3.146  1.00  0.00     0.275 HD
ATOM     21  H12 UNL     1      18.347  46.218  -3.983  1.00  0.00     0.275 HD
ATOM     22  H11 UNL     1      18.332  46.576  -2.336  1.00  0.00     0.275 HD
ENDBRANCH  17  19
ENDBRANCH  14  17
ENDBRANCH  11  13
ENDBRANCH   1  11
BRANCH   3  23
HETATM   23  C7  UNL     1      10.672  45.875  -2.756  1.00  0.00     0.205 C 
BRANCH  23  24
HETATM   24  O2  UNL     1      10.594  46.319  -4.094  1.00  0.00    -0.396 OA
ATOM     25  H2  UNL     1       9.692  46.558  -4.270  1.00  0.00     0.209 HD
ENDBRANCH  23  24
ENDBRANCH   3  23
BRANCH   8  26
HETATM   26  N5  UNL     1      12.844  51.019   0.477  1.00  0.00    -0.307 N 
ATOM     27  H5  UNL     1      12.392  51.170   1.379  1.00  0.00     0.186 HD
BRANCH  26  28
HETATM   28  N6  UNL     1      12.966  52.094  -0.414  1.00  0.00    -0.278 N 
ATOM     29  H6  UNL     1      13.049  51.897  -1.412  1.00  0.00     0.189 HD
BRANCH  28  30
HETATM   30  C11 UNL     1      12.979  53.430   0.016  1.00  0.00     0.368 C 
HETATM   31  O3  UNL     1      13.343  54.379  -0.700  1.00  0.00    -0.282 OA
ENDBRANCH  28  30
ENDBRANCH  26  28
ENDBRANCH   8  26
TORSDOF 9
ENDMDL
MODEL 3
REMARK VINA RESULT: -8.725157272      2.809      3.181
REMARK  9 active torsions:
REMARK  status: ('A' for Active; 'I' for Inactive)
REMARK    1  A    between atoms: C2_2  and  N1_3 
REMARK    2  A    between atoms: C2_2  and  C3_7 
REMARK       I    between atoms: C3_7  and  N2_9 
REMARK    3  A    between atoms: N2_9  and  N3_11 
REMARK    4  A    between atoms: N3_11  and  C4_13 
REMARK    5  A    between atoms: C6_15  and  C7_16 
REMARK    6  A    between atoms: C7_16  and  O2_17 
REMARK    7  A    between atoms: C10_23  and  N5_24 
REMARK    8  A    between atoms: N5_24  and  N6_26 
REMARK    9  A    between atoms: N6_26  and  C11_28 
ROOT
HETATM    1  C4  UNL     1      10.856  46.548  -1.744  1.00  0.00     0.123 C 
HETATM    2  C5  UNL     1      10.893  45.417  -2.389  1.00  0.00     0.043 A 
HETATM    3  C6  UNL     1       9.946  45.143  -3.348  1.00  0.00    -0.004 A 
HETATM    4  C8  UNL     1       9.972  43.941  -4.045  1.00  0.00     0.099 A 
HETATM    5  N4  UNL     1      10.916  43.008  -3.810  1.00  0.00    -0.361 N 
ATOM      6  H4  UNL     1      10.924  42.130  -4.330  1.00  0.00     0.165 HD
HETATM    7  C9  UNL     1      11.845  43.262  -2.877  1.00  0.00     0.100 A 
HETATM    8  C10 UNL     1      12.792  42.388  -2.595  1.00  0.00     0.140 C 
HETATM    9  C12 UNL     1      11.850  44.462  -2.155  1.00  0.00     0.212 A 
HETATM   10  O4  UNL     1      12.727  44.684  -1.286  1.00  0.00    -0.285 OA
ENDROOT
BRANCH   1  11
HETATM   11  N3  UNL     1      11.786  46.923  -0.739  1.00  0.00    -0.308 N 
ATOM     12  H3  UNL     1      12.123  46.229  -0.071  1.00  0.00     0.186 HD
BRANCH  11  13
HETATM   13  N2  UNL     1      12.241  48.242  -0.666  1.00  0.00    -0.269 N 
HETATM   14  C3  UNL     1      11.464  49.237  -0.022  1.00  0.00     0.266 C 
HETATM   15  O1  UNL     1      10.360  48.948   0.494  1.00  0.00    -0.269 OA
ATOM     16  H2  UNL     1      13.140  48.490  -1.079  1.00  0.00     0.190 HD
BRANCH  14  17
HETATM   17  C2  UNL     1      11.947  50.622   0.049  1.00  0.00     0.272 C 
HETATM   18  C1  UNL     1      11.533  51.306   1.344  1.00  0.00     0.050 C 
BRANCH  17  19
HETATM   19  N1  UNL     1      13.374  50.649  -0.131  1.00  0.00    -0.067 N 
ATOM     20  H13 UNL     1      13.857  50.857   0.744  1.00  0.00     0.275 HD
ATOM     21  H12 UNL     1      13.746  49.715  -0.299  1.00  0.00     0.275 HD
ATOM     22  H11 UNL     1      13.648  51.298  -0.870  1.00  0.00     0.275 HD
ENDBRANCH  17  19
ENDBRANCH  14  17
ENDBRANCH  11  13
ENDBRANCH   1  11
BRANCH   3  23
HETATM   23  C7  UNL     1       8.897  46.159  -3.619  1.00  0.00     0.205 C 
BRANCH  23  24
HETATM   24  O2  UNL     1       7.715  45.479  -3.984  1.00  0.00    -0.396 OA
ATOM     25  H2  UNL     1       7.624  45.535  -4.927  1.00  0.00     0.209 HD
ENDBRANCH  23  24
ENDBRANCH   3  23
BRANCH   8  26
HETATM   26  N5  UNL     1      12.923  41.133  -3.224  1.00  0.00    -0.307 N 
ATOM     27  H5  UNL     1      12.243  40.859  -3.932  1.00  0.00     0.186 HD
BRANCH  26  28
HETATM   28  N6  UNL     1      13.965  40.254  -2.901  1.00  0.00    -0.278 N 
ATOM     29  H6  UNL     1      14.761  40.610  -2.369  1.00  0.00     0.189 HD
BRANCH  28  30
HETATM   30  C11 UNL     1      13.956  38.903  -3.281  1.00  0.00     0.368 C 
HETATM   31  O3  UNL     1      14.817  38.389  -4.017  1.00  0.00    -0.282 OA
ENDBRANCH  28  30
ENDBRANCH  26  28
ENDBRANCH   8  26
TORSDOF 9
ENDMDL
MODEL 4
REMARK VINA RESULT: -8.719193168      1.330      1.346
REMARK  9 active torsions:
REMARK  status: ('A' for Active; 'I' for Inactive)
REMARK    1  A    between atoms: C2_2  and  N1_3 
REMARK    2  A    between atoms: C2_2  and  C3_7 
REMARK       I    between atoms: C3_7  and  N2_9 
REMARK    3  A    between atoms: N2_9  and  N3_11 
REMARK    4  A    between atoms: N3_11  and  C4_13 
REMARK    5  A    between atoms: C6_15  and  C7_16 
REMARK    6  A    between atoms: C7_16  and  O2_17 
REMARK    7  A    between atoms: C10_23  and  N5_24 
REMARK    8  A    between atoms: N5_24  and  N6_26 
REMARK    9  A    between atoms: N6_26  and  C11_28 
ROOT
HETATM    1  C4  UNL     1      11.402  47.228  -1.714  1.00  0.00     0.123 C 
HETATM    2  C5  UNL     1      11.997  46.091  -1.945  1.00  0.00     0.043 A 
HETATM    3  C6  UNL     1      11.283  44.917  -1.873  1.00  0.00    -0.004 A 
HETATM    4  C8  UNL     1      11.901  43.697  -2.116  1.00  0.00     0.099 A 
HETATM    5  N4  UNL     1      13.211  43.619  -2.429  1.00  0.00    -0.361 N 
ATOM      6  H4  UNL     1      13.652  42.716  -2.606  1.00  0.00     0.165 HD
HETATM    7  C9  UNL     1      13.918  44.755  -2.503  1.00  0.00     0.100 A 
HETATM    8  C10 UNL     1      15.204  44.746  -2.797  1.00  0.00     0.140 C 
HETATM    9  C12 UNL     1      13.328  46.003  -2.264  1.00  0.00     0.212 A 
HETATM   10  O4  UNL     1      14.005  47.056  -2.337  1.00  0.00    -0.285 OA
ENDROOT
BRANCH   1  11
HETATM   11  N3  UNL     1      12.052  48.490  -1.764  1.00  0.00    -0.308 N 
ATOM     12  H3  UNL     1      12.759  48.672  -2.477  1.00  0.00     0.186 HD
BRANCH  11  13
HETATM   13  N2  UNL     1      11.720  49.482  -0.839  1.00  0.00    -0.269 N 
HETATM   14  C3  UNL     1      12.677  49.939   0.102  1.00  0.00     0.266 C 
HETATM   15  O1  UNL     1      13.835  49.462   0.115  1.00  0.00    -0.269 OA
ATOM     16  H2  UNL     1      10.781  49.881  -0.840  1.00  0.00     0.190 HD
BRANCH  14  17
HETATM   17  C2  UNL     1      12.320  50.981   1.074  1.00  0.00     0.272 C 
HETATM   18  C1  UNL     1      12.650  52.375   0.563  1.00  0.00     0.050 C 
BRANCH  17  19
HETATM   19  N1  UNL     1      10.931  50.860   1.428  1.00  0.00    -0.067 N 
ATOM     20  H13 UNL     1      10.786  50.132   2.127  1.00  0.00     0.275 HD
ATOM     21  H12 UNL     1      10.614  51.664   1.969  1.00  0.00     0.275 HD
ATOM     22  H11 UNL     1      10.345  50.709   0.607  1.00  0.00     0.275 HD
ENDBRANCH  17  19
ENDBRANCH  14  17
ENDBRANCH  11  13
ENDBRANCH   1  11
BRANCH   3  23
HETATM   23  C7  UNL     1       9.840  44.985  -1.528  1.00  0.00     0.205 C 
BRANCH  23  24
HETATM   24  O2  UNL     1       9.692  44.561  -0.189  1.00  0.00    -0.396 OA
ATOM     25  H2  UNL     1      10.546  44.589   0.223  1.00  0.00     0.209 HD
ENDBRANCH  23  24
ENDBRANCH   3  23
BRANCH   8  26
HETATM   26  N5  UNL     1      15.947  43.577  -3.058  1.00  0.00    -0.307 N 
ATOM     27  H5  UNL     1      15.567  42.673  -2.777  1.00  0.00     0.186 HD
BRANCH  26  28
HETATM   28  N6  UNL     1      17.195  43.625  -3.693  1.00  0.00    -0.278 N 
ATOM     29  H6  UNL     1      17.448  42.875  -4.337  1.00  0.00     0.189 HD
BRANCH  28  30
HETATM   30  C11 UNL     1      18.110  44.668  -3.478  1.00  0.00     0.368 C 
HETATM   31  O3  UNL     1      18.550  45.396  -4.384  1.00  0.00    -0.282 OA
ENDBRANCH  28  30
ENDBRANCH  26  28
ENDBRANCH   8  26
TORSDOF 9
ENDMDL
MODEL 5
REMARK VINA RESULT: -8.646309163      3.522      7.845
REMARK  9 active torsions:
REMARK  status: ('A' for Active; 'I' for Inactive)
REMARK    1  A    between atoms: C2_2  and  N1_3 
REMARK    2  A    between atoms: C2_2  and  C3_7 
REMARK       I    between atoms: C3_7  and  N2_9 
REMARK    3  A    between atoms: N2_9  and  N3_11 
REMARK    4  A    between atoms: N3_11  and  C4_13 
REMARK    5  A    between atoms: C6_15  and  C7_16 
REMARK    6  A    between atoms: C7_16  and  O2_17 
REMARK    7  A    between atoms: C10_23  and  N5_24 
REMARK    8  A    between atoms: N5_24  and  N6_26 
REMARK    9  A    between atoms: N6_26  and  C11_28 
ROOT
HETATM    1  C4  UNL     1      12.309  42.310  -3.175  1.00  0.00     0.123 C 
HETATM    2  C5  UNL     1      12.128  43.599  -3.112  1.00  0.00     0.043 A 
HETATM    3  C6  UNL     1      11.039  44.169  -3.728  1.00  0.00    -0.004 A 
HETATM    4  C8  UNL     1      10.831  45.542  -3.672  1.00  0.00     0.099 A 
HETATM    5  N4  UNL     1      11.681  46.358  -3.017  1.00  0.00    -0.361 N 
ATOM      6  H4  UNL     1      11.516  47.365  -2.982  1.00  0.00     0.165 HD
HETATM    7  C9  UNL     1      12.748  45.816  -2.412  1.00  0.00     0.100 A 
HETATM    8  C10 UNL     1      13.621  46.561  -1.761  1.00  0.00     0.140 C 
HETATM    9  C12 UNL     1      12.989  44.437  -2.449  1.00  0.00     0.212 A 
HETATM   10  O4  UNL     1      13.992  43.945  -1.877  1.00  0.00    -0.285 OA
ENDROOT
BRANCH   1  11
HETATM   11  N3  UNL     1      13.401  41.630  -2.573  1.00  0.00    -0.308 N 
ATOM     12  H3  UNL     1      13.902  42.057  -1.793  1.00  0.00     0.186 HD
BRANCH  11  13
HETATM   13  N2  UNL     1      13.788  40.374  -3.048  1.00  0.00    -0.269 N 
HETATM   14  C3  UNL     1      14.855  39.670  -2.438  1.00  0.00     0.266 C 
HETATM   15  O1  UNL     1      15.466  40.162  -1.461  1.00  0.00    -0.269 OA
ATOM     16  H2  UNL     1      13.297  39.961  -3.841  1.00  0.00     0.190 HD
BRANCH  14  17
HETATM   17  C2  UNL     1      15.258  38.351  -2.944  1.00  0.00     0.272 C 
HETATM   18  C1  UNL     1      14.072  37.411  -3.094  1.00  0.00     0.050 C 
BRANCH  17  19
HETATM   19  N1  UNL     1      15.973  38.505  -4.183  1.00  0.00    -0.067 N 
ATOM     20  H13 UNL     1      16.205  39.482  -4.361  1.00  0.00     0.275 HD
ATOM     21  H12 UNL     1      16.919  38.128  -4.116  1.00  0.00     0.275 HD
ATOM     22  H11 UNL     1      15.463  38.095  -4.965  1.00  0.00     0.275 HD
ENDBRANCH  17  19
ENDBRANCH  14  17
ENDBRANCH  11  13
ENDBRANCH   1  11
BRANCH   3  23
HETATM   23  C7  UNL     1      10.092  43.284  -4.456  1.00  0.00     0.205 C 
BRANCH  23  24
HETATM   24  O2  UNL     1      10.700  42.902  -5.671  1.00  0.00    -0.396 OA
ATOM     25  H2  UNL     1      10.742  43.667  -6.231  1.00  0.00     0.209 HD
ENDBRANCH  23  24
ENDBRANCH   3  23
BRANCH   8  26
HETATM   26  N5  UNL     1      13.528  47.961  -1.636  1.00  0.00    -0.307 N 
ATOM     27  H5  UNL     1      13.930  48.553  -2.363  1.00  0.00     0.186 HD
BRANCH  26  28
HETATM   28  N6  UNL     1      12.897  48.562  -0.538  1.00  0.00    -0.278 N 
ATOM     29  H6  UNL     1      13.450  48.770   0.293  1.00  0.00     0.189 HD
BRANCH  28  30
HETATM   30  C11 UNL     1      11.531  48.888  -0.540  1.00  0.00     0.368 C 
HETATM   31  O3  UNL     1      10.807  48.813  -1.548  1.00  0.00    -0.282 OA
ENDBRANCH  28  30
ENDBRANCH  26  28
ENDBRANCH   8  26
TORSDOF 9
ENDMDL
