MODEL 1
REMARK VINA RESULT: -8.763969155      0.000      0.000
REMARK  10 active torsions:
REMARK  status: ('A' for Active; 'I' for Inactive)
REMARK    1  A    between atoms: N1_1  and  C1_5 
REMARK    2  A    between atoms: C1_5  and  O1_6 
REMARK    3  A    between atoms: C1_5  and  C2_8 
REMARK    4  A    between atoms: C2_8  and  C3_9 
REMARK    5  A    between atoms: C3_9  and  C4_10 
REMARK    6  A    between atoms: C3_9  and  N2_12 
REMARK       I    between atoms: N2_12  and  C5_14 
REMARK    7  A    between atoms: C5_14  and  C6_16 
REMARK    8  A    between atoms: C6_16  and  N3_17 
REMARK    9  A    between atoms: C6_16  and  N4_21 
REMARK   10  A    between atoms: N4_21  and  C7_23 
ROOT
HETATM    1  C6  UNL     1      12.485  47.409  -1.172  1.00  0.00     0.376 C 
ENDROOT
BRANCH   1   2
HETATM    2  C5  UNL     1      12.900  48.615  -0.403  1.00  0.00     0.268 C 
HETATM    3  N2  UNL     1      12.089  49.770  -0.321  1.00  0.00    -0.347 N 
ATOM      4  H2  UNL     1      11.191  49.776  -0.806  1.00  0.00     0.163 HD
HETATM    5  O3  UNL     1      14.007  48.591   0.187  1.00  0.00    -0.269 OA
BRANCH   3   6
HETATM    6  C3  UNL     1      12.489  50.954   0.431  1.00  0.00     0.150 C 
BRANCH   6   7
HETATM    7  C2  UNL     1      12.979  52.030  -0.494  1.00  0.00     0.093 C 
BRANCH   7   8
HETATM    8  C1  UNL     1      12.936  53.382   0.128  1.00  0.00     0.318 C 
BRANCH   8   9
HETATM    9  N1  UNL     1      13.352  54.437  -0.760  1.00  0.00    -0.053 N 
ATOM     10  H13 UNL     1      13.983  55.099  -0.307  1.00  0.00     0.277 HD
ATOM     11  H12 UNL     1      13.989  54.106  -1.484  1.00  0.00     0.277 HD
ATOM     12  H11 UNL     1      12.526  54.893  -1.148  1.00  0.00     0.277 HD
ENDBRANCH   8   9
BRANCH   8  13
HETATM   13  O1  UNL     1      13.617  53.501   1.322  1.00  0.00    -0.370 OA
ATOM     14  H1  UNL     1      13.296  54.264   1.789  1.00  0.00     0.212 HD
ENDBRANCH   8  13
ENDBRANCH   7   8
ENDBRANCH   6   7
BRANCH   6  15
HETATM   15  C4  UNL     1      11.349  51.343   1.282  1.00  0.00     0.256 C 
HETATM   16  O2  UNL     1      11.488  51.576   2.488  1.00  0.00    -0.305 OA
ENDBRANCH   6  15
ENDBRANCH   3   6
ENDBRANCH   1   2
BRANCH   1  17
HETATM   17  N3  UNL     1      11.373  47.703  -2.052  1.00  0.00    -0.049 N 
ATOM     18  H33 UNL     1      10.772  46.889  -2.181  1.00  0.00     0.277 HD
ATOM     19  H32 UNL     1      10.699  48.328  -1.608  1.00  0.00     0.277 HD
ATOM     20  H31 UNL     1      11.695  48.076  -2.945  1.00  0.00     0.277 HD
ENDBRANCH   1  17
BRANCH   1  21
HETATM   21  N4  UNL     1      13.611  47.062  -2.003  1.00  0.00    -0.337 N 
ATOM     22  H4  UNL     1      13.889  47.694  -2.754  1.00  0.00     0.163 HD
BRANCH  21  23
HETATM   23  C7  UNL     1      14.260  45.997  -1.823  1.00  0.00     0.175 C 
HETATM   24  N5  UNL     1      15.027  45.910  -0.739  1.00  0.00    -0.305 N 
HETATM   25  C8  UNL     1      16.184  45.227  -0.586  1.00  0.00     0.248 C 
ATOM     26  H5  UNL     1      14.701  46.424   0.079  1.00  0.00     0.170 HD
HETATM   27  O4  UNL     1      16.834  45.514   0.438  1.00  0.00    -0.268 OA
HETATM   28  C9  UNL     1      16.720  44.251  -1.434  1.00  0.00     0.091 C 
HETATM   29  C10 UNL     1      16.124  43.716  -2.561  1.00  0.00     0.097 C 
HETATM   30  N6  UNL     1      14.923  44.029  -3.074  1.00  0.00    -0.330 N 
HETATM   31  C11 UNL     1      14.062  45.045  -2.831  1.00  0.00     0.289 C 
ATOM     32  H6  UNL     1      14.595  43.373  -3.784  1.00  0.00     0.168 HD
HETATM   33  O5  UNL     1      13.036  45.138  -3.542  1.00  0.00    -0.264 OA
ENDBRANCH  21  23
ENDBRANCH   1  21
TORSDOF 10
ENDMDL
MODEL 2
REMARK VINA RESULT: -8.548478452      2.665      3.436
REMARK  10 active torsions:
REMARK  status: ('A' for Active; 'I' for Inactive)
REMARK    1  A    between atoms: N1_1  and  C1_5 
REMARK    2  A    between atoms: C1_5  and  O1_6 
REMARK    3  A    between atoms: C1_5  and  C2_8 
REMARK    4  A    between atoms: C2_8  and  C3_9 
REMARK    5  A    between atoms: C3_9  and  C4_10 
REMARK    6  A    between atoms: C3_9  and  N2_12 
REMARK       I    between atoms: N2_12  and  C5_14 
REMARK    7  A    between atoms: C5_14  and  C6_16 
REMARK    8  A    between atoms: C6_16  and  N3_17 
REMARK    9  A    between atoms: C6_16  and  N4_21 
REMARK   10  A    between atoms: N4_21  and  C7_23 
ROOT
HETATM    1  C6  UNL     1      11.633  47.551  -2.227  1.00  0.00     0.376 C 
ENDROOT
BRANCH   1   2
HETATM    2  C5  UNL     1      12.237  48.263  -1.067  1.00  0.00     0.268 C 
HETATM    3  N2  UNL     1      11.789  49.538  -0.651  1.00  0.00    -0.347 N 
ATOM      4  H2  UNL     1      11.027  49.982  -1.164  1.00  0.00     0.163 HD
HETATM    5  O3  UNL     1      13.173  47.702  -0.448  1.00  0.00    -0.269 OA
BRANCH   3   6
HETATM    6  C3  UNL     1      12.375  50.241   0.484  1.00  0.00     0.150 C 
BRANCH   6   7
HETATM    7  C2  UNL     1      13.456  51.177   0.028  1.00  0.00     0.093 C 
BRANCH   7   8
HETATM    8  C1  UNL     1      12.974  52.578  -0.123  1.00  0.00     0.318 C 
BRANCH   8   9
HETATM    9  N1  UNL     1      13.395  53.202  -1.351  1.00  0.00    -0.053 N 
ATOM     10  H13 UNL     1      12.778  53.965  -1.630  1.00  0.00     0.277 HD
ATOM     11  H12 UNL     1      14.250  53.746  -1.235  1.00  0.00     0.277 HD
ATOM     12  H11 UNL     1      13.483  52.490  -2.075  1.00  0.00     0.277 HD
ENDBRANCH   8   9
BRANCH   8  13
HETATM   13  O1  UNL     1      13.265  53.415   0.934  1.00  0.00    -0.370 OA
ATOM     14  H1  UNL     1      13.430  52.892   1.710  1.00  0.00     0.212 HD
ENDBRANCH   8  13
ENDBRANCH   7   8
ENDBRANCH   6   7
BRANCH   6  15
HETATM   15  C4  UNL     1      11.274  50.884   1.223  1.00  0.00     0.256 C 
HETATM   16  O2  UNL     1      11.452  51.413   2.327  1.00  0.00    -0.305 OA
ENDBRANCH   6  15
ENDBRANCH   3   6
ENDBRANCH   1   2
BRANCH   1  17
HETATM   17  N3  UNL     1      12.652  46.989  -3.088  1.00  0.00    -0.049 N 
ATOM     18  H33 UNL     1      13.474  47.592  -3.139  1.00  0.00     0.277 HD
ATOM     19  H32 UNL     1      13.086  46.167  -2.668  1.00  0.00     0.277 HD
ATOM     20  H31 UNL     1      12.282  46.783  -4.015  1.00  0.00     0.277 HD
ENDBRANCH   1  17
BRANCH   1  21
HETATM   21  N4  UNL     1      10.884  46.451  -1.671  1.00  0.00    -0.337 N 
ATOM     22  H4  UNL     1      10.522  46.526  -0.720  1.00  0.00     0.163 HD
BRANCH  21  23
HETATM   23  C7  UNL     1      10.667  45.400  -2.332  1.00  0.00     0.175 C 
HETATM   24  N5  UNL     1      11.331  44.300  -1.988  1.00  0.00    -0.305 N 
HETATM   25  C8  UNL     1      11.734  43.283  -2.783  1.00  0.00     0.248 C 
ATOM     26  H5  UNL     1      11.566  44.212  -0.999  1.00  0.00     0.170 HD
HETATM   27  O4  UNL     1      12.556  42.502  -2.265  1.00  0.00    -0.268 OA
HETATM   28  C9  UNL     1      11.337  43.017  -4.098  1.00  0.00     0.091 C 
HETATM   29  C10 UNL     1      10.372  43.691  -4.824  1.00  0.00     0.097 C 
HETATM   30  N6  UNL     1       9.632  44.737  -4.421  1.00  0.00    -0.330 N 
HETATM   31  C11 UNL     1       9.729  45.569  -3.357  1.00  0.00     0.289 C 
ATOM     32  H6  UNL     1       8.845  44.946  -5.036  1.00  0.00     0.168 HD
HETATM   33  O5  UNL     1       8.938  46.537  -3.286  1.00  0.00    -0.264 OA
ENDBRANCH  21  23
ENDBRANCH   1  21
TORSDOF 10
ENDMDL
MODEL 3
REMARK VINA RESULT: -8.428102497      3.390      5.169
REMARK  10 active torsions:
REMARK  status: ('A' for Active; 'I' for Inactive)
REMARK    1  A    between atoms: N1_1  and  C1_5 
REMARK    2  A    between atoms: C1_5  and  O1_6 
REMARK    3  A    between atoms: C1_5  and  C2_8 
REMARK    4  A    between atoms: C2_8  and  C3_9 
REMARK    5  A    between atoms: C3_9  and  C4_10 
REMARK    6  A    between atoms: C3_9  and  N2_12 
REMARK       I    between atoms: N2_12  and  C5_14 
REMARK    7  A    between atoms: C5_14  and  C6_16 
REMARK    8  A    between atoms: C6_16  and  N3_17 
REMARK    9  A    between atoms: C6_16  and  N4_21 
REMARK   10  A    between atoms: N4_21  and  C7_23 
ROOT
HETATM    1  C6  UNL     1      14.347  43.848  -2.260  1.00  0.00     0.376 C 
ENDROOT
BRANCH   1   2
HETATM    2  C5  UNL     1      13.501  45.056  -2.464  1.00  0.00     0.268 C 
HETATM    3  N2  UNL     1      12.776  45.654  -1.409  1.00  0.00    -0.347 N 
ATOM      4  H2  UNL     1      12.835  45.242  -0.477  1.00  0.00     0.163 HD
HETATM    5  O3  UNL     1      13.440  45.550  -3.617  1.00  0.00    -0.269 OA
BRANCH   3   6
HETATM    6  C3  UNL     1      11.946  46.838  -1.602  1.00  0.00     0.150 C 
BRANCH   6   7
HETATM    7  C2  UNL     1      10.490  46.477  -1.562  1.00  0.00     0.093 C 
BRANCH   7   8
HETATM    8  C1  UNL     1       9.979  46.014  -2.882  1.00  0.00     0.318 C 
BRANCH   8   9
HETATM    9  N1  UNL     1       9.736  44.595  -2.938  1.00  0.00    -0.053 N 
ATOM     10  H13 UNL     1      10.594  44.060  -3.074  1.00  0.00     0.277 HD
ATOM     11  H12 UNL     1       9.471  44.211  -2.032  1.00  0.00     0.277 HD
ATOM     12  H11 UNL     1       9.041  44.403  -3.660  1.00  0.00     0.277 HD
ENDBRANCH   8   9
BRANCH   8  13
HETATM   13  O1  UNL     1      10.742  46.386  -3.969  1.00  0.00    -0.370 OA
ATOM     14  H1  UNL     1      11.553  46.775  -3.663  1.00  0.00     0.212 HD
ENDBRANCH   8  13
ENDBRANCH   7   8
ENDBRANCH   6   7
BRANCH   6  15
HETATM   15  C4  UNL     1      12.363  47.838  -0.603  1.00  0.00     0.256 C 
HETATM   16  O2  UNL     1      13.505  48.312  -0.594  1.00  0.00    -0.305 OA
ENDBRANCH   6  15
ENDBRANCH   3   6
ENDBRANCH   1   2
BRANCH   1  17
HETATM   17  N3  UNL     1      13.672  42.650  -2.714  1.00  0.00    -0.049 N 
ATOM     18  H33 UNL     1      14.050  41.815  -2.268  1.00  0.00     0.277 HD
ATOM     19  H32 UNL     1      12.717  42.600  -2.357  1.00  0.00     0.277 HD
ATOM     20  H31 UNL     1      13.695  42.574  -3.730  1.00  0.00     0.277 HD
ENDBRANCH   1  17
BRANCH   1  21
HETATM   21  N4  UNL     1      15.509  44.030  -3.094  1.00  0.00    -0.337 N 
ATOM     22  H4  UNL     1      15.413  43.943  -4.106  1.00  0.00     0.163 HD
BRANCH  21  23
HETATM   23  C7  UNL     1      16.639  44.295  -2.603  1.00  0.00     0.175 C 
HETATM   24  N5  UNL     1      16.715  44.501  -1.290  1.00  0.00    -0.305 N 
HETATM   25  C8  UNL     1      17.568  45.309  -0.619  1.00  0.00     0.248 C 
ATOM     26  H5  UNL     1      16.046  43.986  -0.719  1.00  0.00     0.170 HD
HETATM   27  O4  UNL     1      17.266  45.520   0.572  1.00  0.00    -0.268 OA
HETATM   28  C9  UNL     1      18.728  45.921  -1.106  1.00  0.00     0.091 C 
HETATM   29  C10 UNL     1      19.295  45.746  -2.355  1.00  0.00     0.097 C 
HETATM   30  N6  UNL     1      18.844  44.968  -3.353  1.00  0.00    -0.330 N 
HETATM   31  C11 UNL     1      17.666  44.330  -3.553  1.00  0.00     0.289 C 
ATOM     32  H6  UNL     1      19.519  44.831  -4.105  1.00  0.00     0.168 HD
HETATM   33  O5  UNL     1      17.488  43.742  -4.644  1.00  0.00    -0.264 OA
ENDBRANCH  21  23
ENDBRANCH   1  21
TORSDOF 10
ENDMDL
MODEL 4
REMARK VINA RESULT: -8.262513237      1.685      2.889
REMARK  10 active torsions:
REMARK  status: ('A' for Active; 'I' for Inactive)
REMARK    1  A    between atoms: N1_1  and  C1_5 
REMARK    2  A    between atoms: C1_5  and  O1_6 
REMARK    3  A    between atoms: C1_5  and  C2_8 
REMARK    4  A    between atoms: C2_8  and  C3_9 
REMARK    5  A    between atoms: C3_9  and  C4_10 
REMARK    6  A    between atoms: C3_9  and  N2_12 
REMARK       I    between atoms: N2_12  and  C5_14 
REMARK    7  A    between atoms: C5_14  and  C6_16 
REMARK    8  A    between atoms: C6_16  and  N3_17 
REMARK    9  A    between atoms: C6_16  and  N4_21 
REMARK   10  A    between atoms: N4_21  and  C7_23 
ROOT
HETATM    1  C6  UNL     1      11.748  47.567  -1.143  1.00  0.00     0.376 C 
ENDROOT
BRANCH   1   2
HETATM    2  C5  UNL     1      12.461  48.688  -0.469  1.00  0.00     0.268 C 
HETATM    3  N2  UNL     1      11.839  49.933  -0.221  1.00  0.00    -0.347 N 
ATOM      4  H2  UNL     1      10.871  50.066  -0.514  1.00  0.00     0.163 HD
HETATM    5  O3  UNL     1      13.652  48.508  -0.117  1.00  0.00    -0.269 OA
BRANCH   3   6
HETATM    6  C3  UNL     1      12.531  51.035   0.438  1.00  0.00     0.150 C 
BRANCH   6   7
HETATM    7  C2  UNL     1      13.210  51.915  -0.571  1.00  0.00     0.093 C 
BRANCH   7   8
HETATM    8  C1  UNL     1      13.056  53.364  -0.262  1.00  0.00     0.318 C 
BRANCH   8   9
HETATM    9  N1  UNL     1      13.576  54.230  -1.289  1.00  0.00    -0.053 N 
ATOM     10  H13 UNL     1      12.843  54.776  -1.742  1.00  0.00     0.277 HD
ATOM     11  H12 UNL     1      14.115  55.005  -0.905  1.00  0.00     0.277 HD
ATOM     12  H11 UNL     1      14.113  53.674  -1.954  1.00  0.00     0.277 HD
ENDBRANCH   8   9
BRANCH   8  13
HETATM   13  O1  UNL     1      13.559  53.759   0.960  1.00  0.00    -0.370 OA
ATOM     14  H1  UNL     1      13.391  53.078   1.602  1.00  0.00     0.212 HD
ENDBRANCH   8  13
ENDBRANCH   7   8
ENDBRANCH   6   7
BRANCH   6  15
HETATM   15  C4  UNL     1      11.550  51.723   1.297  1.00  0.00     0.256 C 
HETATM   16  O2  UNL     1      11.608  51.659   2.530  1.00  0.00    -0.305 OA
ENDBRANCH   6  15
ENDBRANCH   3   6
ENDBRANCH   1   2
BRANCH   1  17
HETATM   17  N3  UNL     1      10.425  47.968  -1.573  1.00  0.00    -0.049 N 
ATOM     18  H33 UNL     1       9.740  47.228  -1.417  1.00  0.00     0.277 HD
ATOM     19  H32 UNL     1      10.030  48.679  -0.956  1.00  0.00     0.277 HD
ATOM     20  H31 UNL     1      10.428  48.276  -2.544  1.00  0.00     0.277 HD
ENDBRANCH   1  17
BRANCH   1  21
HETATM   21  N4  UNL     1      12.513  47.265  -2.327  1.00  0.00    -0.337 N 
ATOM     22  H4  UNL     1      13.032  48.013  -2.789  1.00  0.00     0.163 HD
BRANCH  21  23
HETATM   23  C7  UNL     1      12.555  46.100  -2.806  1.00  0.00     0.175 C 
HETATM   24  N5  UNL     1      11.512  45.681  -3.518  1.00  0.00    -0.305 N 
HETATM   25  C8  UNL     1      11.035  44.421  -3.641  1.00  0.00     0.248 C 
ATOM     26  H5  UNL     1      11.008  46.401  -4.035  1.00  0.00     0.170 HD
HETATM   27  O4  UNL     1       9.903  44.334  -4.154  1.00  0.00    -0.268 OA
HETATM   28  C9  UNL     1      11.663  43.229  -3.263  1.00  0.00     0.091 C 
HETATM   29  C10 UNL     1      12.947  43.089  -2.770  1.00  0.00     0.097 C 
HETATM   30  N6  UNL     1      13.844  44.063  -2.545  1.00  0.00    -0.330 N 
HETATM   31  C11 UNL     1      13.735  45.413  -2.499  1.00  0.00     0.289 C 
ATOM     32  H6  UNL     1      14.790  43.721  -2.375  1.00  0.00     0.168 HD
HETATM   33  O5  UNL     1      14.742  46.078  -2.166  1.00  0.00    -0.264 OA
ENDBRANCH  21  23
ENDBRANCH   1  21
TORSDOF 10
ENDMDL
MODEL 5
REMARK VINA RESULT: -8.048988060      2.493      3.707
REMARK  10 active torsions:
REMARK  status: ('A' for Active; 'I' for Inactive)
REMARK    1  A    between atoms: N1_1  and  C1_5 
REMARK    2  A    between atoms: C1_5  and  O1_6 
REMARK    3  A    between atoms: C1_5  and  C2_8 
REMARK    4  A    between atoms: C2_8  and  C3_9 
REMARK    5  A    between atoms: C3_9  and  C4_10 
REMARK    6  A    between atoms: C3_9  and  N2_12 
REMARK       I    between atoms: N2_12  and  C5_14 
REMARK    7  A    between atoms: C5_14  and  C6_16 
REMARK    8  A    between atoms: C6_16  and  N3_17 
REMARK    9  A    between atoms: C6_16  and  N4_21 
REMARK   10  A    between atoms: N4_21  and  C7_23 
ROOT
HETATM    1  C6  UNL     1      11.938  47.452  -1.014  1.00  0.00     0.376 C 
ENDROOT
BRANCH   1   2
HETATM    2  C5  UNL     1      11.834  48.874  -0.584  1.00  0.00     0.268 C 
HETATM    3  N2  UNL     1      12.890  49.536   0.082  1.00  0.00    -0.347 N 
ATOM      4  H2  UNL     1      13.750  49.022   0.274  1.00  0.00     0.163 HD
HETATM    5  O3  UNL     1      10.769  49.492  -0.827  1.00  0.00    -0.269 OA
BRANCH   3   6
HETATM    6  C3  UNL     1      12.796  50.929   0.506  1.00  0.00     0.150 C 
BRANCH   6   7
HETATM    7  C2  UNL     1      12.968  51.853  -0.663  1.00  0.00     0.093 C 
BRANCH   7   8
HETATM    8  C1  UNL     1      12.983  53.287  -0.262  1.00  0.00     0.318 C 
BRANCH   8   9
HETATM    9  N1  UNL     1      13.591  54.152  -1.240  1.00  0.00    -0.053 N 
ATOM     10  H13 UNL     1      13.776  53.671  -2.121  1.00  0.00     0.277 HD
ATOM     11  H12 UNL     1      12.941  54.853  -1.594  1.00  0.00     0.277 HD
ATOM     12  H11 UNL     1      14.432  54.568  -0.841  1.00  0.00     0.277 HD
ENDBRANCH   8   9
BRANCH   8  13
HETATM   13  O1  UNL     1      13.537  53.544   0.975  1.00  0.00    -0.370 OA
ATOM     14  H1  UNL     1      13.986  54.381   0.948  1.00  0.00     0.212 HD
ENDBRANCH   8  13
ENDBRANCH   7   8
ENDBRANCH   6   7
BRANCH   6  15
HETATM   15  C4  UNL     1      11.524  51.084   1.235  1.00  0.00     0.256 C 
HETATM   16  O2  UNL     1      11.467  51.651   2.332  1.00  0.00    -0.305 OA
ENDBRANCH   6  15
ENDBRANCH   3   6
ENDBRANCH   1   2
BRANCH   1  17
HETATM   17  N3  UNL     1      10.762  46.699  -0.629  1.00  0.00    -0.049 N 
ATOM     18  H33 UNL     1      10.700  46.592   0.383  1.00  0.00     0.277 HD
ATOM     19  H32 UNL     1       9.908  47.235  -0.784  1.00  0.00     0.277 HD
ATOM     20  H31 UNL     1      10.728  45.797  -1.104  1.00  0.00     0.277 HD
ENDBRANCH   1  17
BRANCH   1  21
HETATM   21  N4  UNL     1      11.982  47.475  -2.455  1.00  0.00    -0.337 N 
ATOM     22  H4  UNL     1      12.369  48.293  -2.928  1.00  0.00     0.163 HD
BRANCH  21  23
HETATM   23  C7  UNL     1      11.556  46.510  -3.144  1.00  0.00     0.175 C 
HETATM   24  N5  UNL     1      10.280  46.533  -3.525  1.00  0.00    -0.305 N 
HETATM   25  C8  UNL     1       9.451  45.485  -3.729  1.00  0.00     0.248 C 
ATOM     26  H5  UNL     1       9.879  47.457  -3.682  1.00  0.00     0.170 HD
HETATM   27  O4  UNL     1       8.244  45.780  -3.831  1.00  0.00    -0.268 OA
HETATM   28  C9  UNL     1       9.792  44.132  -3.839  1.00  0.00     0.091 C 
HETATM   29  C10 UNL     1      11.067  43.598  -3.854  1.00  0.00     0.097 C 
HETATM   30  N6  UNL     1      12.230  44.264  -3.757  1.00  0.00    -0.330 N 
HETATM   31  C11 UNL     1      12.528  45.537  -3.405  1.00  0.00     0.289 C 
ATOM     32  H6  UNL     1      13.047  43.701  -3.994  1.00  0.00     0.168 HD
HETATM   33  O5  UNL     1      13.733  45.861  -3.309  1.00  0.00    -0.264 OA
ENDBRANCH  21  23
ENDBRANCH   1  21
TORSDOF 10
ENDMDL
