MODEL 1
REMARK VINA RESULT: -7.836760927      0.000      0.000
REMARK  12 active torsions:
REMARK  status: ('A' for Active; 'I' for Inactive)
REMARK    1  A    between atoms: N1_2  and  C3_11 
REMARK    2  A    between atoms: C2_3  and  N2_4 
REMARK    3  A    between atoms: N2_4  and  N3_6 
REMARK    4  A    between atoms: N3_6  and  N4_8 
REMARK    5  A    between atoms: C5_17  and  C6_18 
REMARK    6  A    between atoms: C6_18  and  C7_19 
REMARK       I    between atoms: C7_19  and  N7_21 
REMARK    7  A    between atoms: N7_21  and  C8_22 
REMARK    8  A    between atoms: N7_21  and  C10_26 
REMARK    9  A    between atoms: C8_22  and  C9_23 
REMARK   10  A    between atoms: C9_23  and  O2_24 
REMARK   11  A    between atoms: C10_26  and  C11_27 
REMARK   12  A    between atoms: C11_27  and  O3_28 
ROOT
HETATM    1  C3  UNL     1      12.556  52.167   0.484  1.00  0.00     0.203 A 
HETATM    2  N5  UNL     1      11.557  51.998   1.289  1.00  0.00    -0.269 N 
ATOM      3  H5  UNL     1      11.182  52.723   1.900  1.00  0.00     0.190 HD
HETATM    4  N6  UNL     1      11.063  50.716   1.216  1.00  0.00    -0.283 N 
ATOM      5  H6  UNL     1      10.280  50.342   1.752  1.00  0.00     0.188 HD
HETATM    6  C4  UNL     1      11.840  50.003   0.257  1.00  0.00     0.119 A 
HETATM    7  C5  UNL     1      11.684  48.742  -0.102  1.00  0.00     0.032 C 
HETATM    8  N8  UNL     1      12.799  50.945  -0.209  1.00  0.00    -0.312 N 
ATOM      9  H8  UNL     1      13.523  50.777  -0.908  1.00  0.00     0.170 HD
ENDROOT
BRANCH   7  10
HETATM   10  C6  UNL     1      12.560  48.106  -1.117  1.00  0.00     0.134 C 
BRANCH  10  11
HETATM   11  C7  UNL     1      11.736  47.355  -2.084  1.00  0.00     0.223 C 
HETATM   12  O1  UNL     1      10.485  47.606  -2.120  1.00  0.00    -0.273 OA
HETATM   13  N7  UNL     1      12.320  46.388  -2.937  1.00  0.00    -0.348 N 
BRANCH  13  14
HETATM   14  C8  UNL     1      11.418  45.682  -3.857  1.00  0.00     0.151 C 
BRANCH  14  15
HETATM   15  C9  UNL     1      10.879  44.421  -3.190  1.00  0.00     0.183 C 
BRANCH  15  16
HETATM   16  O2  UNL     1       9.651  44.665  -2.603  1.00  0.00    -0.399 OA
ATOM     17  H2  UNL     1       9.560  44.172  -1.796  1.00  0.00     0.209 HD
ENDBRANCH  15  16
ENDBRANCH  14  15
ENDBRANCH  13  14
BRANCH  13  18
HETATM   18  C10 UNL     1      13.721  46.136  -2.891  1.00  0.00     0.151 C 
BRANCH  18  19
HETATM   19  C11 UNL     1      14.132  44.969  -2.031  1.00  0.00     0.183 C 
BRANCH  19  20
HETATM   20  O3  UNL     1      14.525  43.943  -2.891  1.00  0.00    -0.399 OA
ATOM     21  H3  UNL     1      14.622  43.157  -2.365  1.00  0.00     0.209 HD
ENDBRANCH  19  20
ENDBRANCH  18  19
ENDBRANCH  13  18
ENDBRANCH  10  11
ENDBRANCH   7  10
BRANCH   1  22
HETATM   22  N1  UNL     1      13.276  53.384   0.335  1.00  0.00    -0.317 N 
HETATM   23  C1  UNL     1      13.487  53.939  -0.992  1.00  0.00     0.160 C 
HETATM   24  C2  UNL     1      13.756  54.028   1.342  1.00  0.00     0.203 C 
BRANCH  24  25
HETATM   25  N2  UNL     1      14.472  55.231   1.242  1.00  0.00    -0.282 N 
ATOM     26  H2  UNL     1      14.154  55.893   0.533  1.00  0.00     0.189 HD
BRANCH  25  27
HETATM   27  N3  UNL     1      15.553  55.612   1.995  1.00  0.00    -0.248 N 
ATOM     28  H3  UNL     1      15.665  55.324   2.967  1.00  0.00     0.207 HD
BRANCH  27  29
HETATM   29  N4  UNL     1      16.476  56.406   1.359  1.00  0.00    -0.331 N 
ATOM     30  H42 UNL     1      16.290  56.797   0.435  1.00  0.00     0.178 HD
ATOM     31  H41 UNL     1      17.344  56.574   1.867  1.00  0.00     0.178 HD
ENDBRANCH  27  29
ENDBRANCH  25  27
ENDBRANCH  24  25
ENDBRANCH   1  22
TORSDOF 12
ENDMDL
MODEL 2
REMARK VINA RESULT: -7.822129576      2.673      4.364
REMARK  12 active torsions:
REMARK  status: ('A' for Active; 'I' for Inactive)
REMARK    1  A    between atoms: N1_2  and  C3_11 
REMARK    2  A    between atoms: C2_3  and  N2_4 
REMARK    3  A    between atoms: N2_4  and  N3_6 
REMARK    4  A    between atoms: N3_6  and  N4_8 
REMARK    5  A    between atoms: C5_17  and  C6_18 
REMARK    6  A    between atoms: C6_18  and  C7_19 
REMARK       I    between atoms: C7_19  and  N7_21 
REMARK    7  A    between atoms: N7_21  and  C8_22 
REMARK    8  A    between atoms: N7_21  and  C10_26 
REMARK    9  A    between atoms: C8_22  and  C9_23 
REMARK   10  A    between atoms: C9_23  and  O2_24 
REMARK   11  A    between atoms: C10_26  and  C11_27 
REMARK   12  A    between atoms: C11_27  and  O3_28 
ROOT
HETATM    1  C3  UNL     1      11.951  49.469  -0.177  1.00  0.00     0.203 A 
HETATM    2  N5  UNL     1      10.837  48.978  -0.619  1.00  0.00    -0.269 N 
ATOM      3  H5  UNL     1       9.954  49.489  -0.644  1.00  0.00     0.190 HD
HETATM    4  N6  UNL     1      10.994  47.681  -1.049  1.00  0.00    -0.283 N 
ATOM      5  H6  UNL     1      10.263  47.084  -1.437  1.00  0.00     0.188 HD
HETATM    6  C4  UNL     1      12.359  47.319  -0.856  1.00  0.00     0.119 A 
HETATM    7  C5  UNL     1      12.912  46.156  -1.144  1.00  0.00     0.032 C 
HETATM    8  N8  UNL     1      12.968  48.476  -0.295  1.00  0.00    -0.312 N 
ATOM      9  H8  UNL     1      13.947  48.576  -0.027  1.00  0.00     0.170 HD
ENDROOT
BRANCH   7  10
HETATM   10  C6  UNL     1      14.353  45.896  -0.896  1.00  0.00     0.134 C 
BRANCH  10  11
HETATM   11  C7  UNL     1      14.973  45.338  -2.114  1.00  0.00     0.223 C 
HETATM   12  O1  UNL     1      14.380  45.538  -3.228  1.00  0.00    -0.273 OA
HETATM   13  N7  UNL     1      16.182  44.606  -2.042  1.00  0.00    -0.348 N 
BRANCH  13  14
HETATM   14  C8  UNL     1      16.717  44.079  -3.305  1.00  0.00     0.151 C 
BRANCH  14  15
HETATM   15  C9  UNL     1      18.074  44.710  -3.597  1.00  0.00     0.183 C 
BRANCH  15  16
HETATM   16  O2  UNL     1      17.938  46.056  -3.878  1.00  0.00    -0.399 OA
ATOM     17  H2  UNL     1      18.784  46.489  -3.871  1.00  0.00     0.209 HD
ENDBRANCH  15  16
ENDBRANCH  14  15
ENDBRANCH  13  14
BRANCH  13  18
HETATM   18  C10 UNL     1      16.834  44.410  -0.791  1.00  0.00     0.151 C 
BRANCH  18  19
HETATM   19  C11 UNL     1      17.845  45.467  -0.426  1.00  0.00     0.183 C 
BRANCH  19  20
HETATM   20  O3  UNL     1      17.455  46.000   0.803  1.00  0.00    -0.399 OA
ATOM     21  H3  UNL     1      18.228  46.023   1.356  1.00  0.00     0.209 HD
ENDBRANCH  19  20
ENDBRANCH  18  19
ENDBRANCH  13  18
ENDBRANCH  10  11
ENDBRANCH   7  10
BRANCH   1  22
HETATM   22  N1  UNL     1      12.106  50.786   0.334  1.00  0.00    -0.317 N 
HETATM   23  C1  UNL     1      11.490  51.145   1.600  1.00  0.00     0.160 C 
HETATM   24  C2  UNL     1      12.782  51.691  -0.286  1.00  0.00     0.203 C 
BRANCH  24  25
HETATM   25  N2  UNL     1      12.962  53.002   0.181  1.00  0.00    -0.282 N 
ATOM     26  H2  UNL     1      12.780  53.162   1.172  1.00  0.00     0.189 HD
BRANCH  25  27
HETATM   27  N3  UNL     1      13.356  54.092  -0.554  1.00  0.00    -0.248 N 
ATOM     28  H3  UNL     1      13.306  55.041  -0.185  1.00  0.00     0.207 HD
BRANCH  27  29
HETATM   29  N4  UNL     1      13.822  53.824  -1.818  1.00  0.00    -0.331 N 
ATOM     30  H42 UNL     1      14.724  54.181  -2.135  1.00  0.00     0.178 HD
ATOM     31  H41 UNL     1      13.214  53.255  -2.405  1.00  0.00     0.178 HD
ENDBRANCH  27  29
ENDBRANCH  25  27
ENDBRANCH  24  25
ENDBRANCH   1  22
TORSDOF 12
ENDMDL
MODEL 3
REMARK VINA RESULT: -7.495300991      3.440      5.893
REMARK  12 active torsions:
REMARK  status: ('A' for Active; 'I' for Inactive)
REMARK    1  A    between atoms: N1_2  and  C3_11 
REMARK    2  A    between atoms: C2_3  and  N2_4 
REMARK    3  A    between atoms: N2_4  and  N3_6 
REMARK    4  A    between atoms: N3_6  and  N4_8 
REMARK    5  A    between atoms: C5_17  and  C6_18 
REMARK    6  A    between atoms: C6_18  and  C7_19 
REMARK       I    between atoms: C7_19  and  N7_21 
REMARK    7  A    between atoms: N7_21  and  C8_22 
REMARK    8  A    between atoms: N7_21  and  C10_26 
REMARK    9  A    between atoms: C8_22  and  C9_23 
REMARK   10  A    between atoms: C9_23  and  O2_24 
REMARK   11  A    between atoms: C10_26  and  C11_27 
REMARK   12  A    between atoms: C11_27  and  O3_28 
ROOT
HETATM    1  C3  UNL     1      12.721  47.787  -1.532  1.00  0.00     0.203 A 
HETATM    2  N5  UNL     1      12.203  47.760  -2.718  1.00  0.00    -0.269 N 
ATOM      3  H5  UNL     1      11.545  48.452  -3.074  1.00  0.00     0.190 HD
HETATM    4  N6  UNL     1      12.654  46.678  -3.438  1.00  0.00    -0.283 N 
ATOM      5  H6  UNL     1      12.390  46.441  -4.395  1.00  0.00     0.188 HD
HETATM    6  C4  UNL     1      13.555  45.947  -2.611  1.00  0.00     0.119 A 
HETATM    7  C5  UNL     1      14.201  44.842  -2.935  1.00  0.00     0.032 C 
HETATM    8  N8  UNL     1      13.592  46.668  -1.385  1.00  0.00    -0.312 N 
ATOM      9  H8  UNL     1      14.139  46.429  -0.558  1.00  0.00     0.170 HD
ENDROOT
BRANCH   7  10
HETATM   10  C6  UNL     1      15.118  44.167  -1.983  1.00  0.00     0.134 C 
BRANCH  10  11
HETATM   11  C7  UNL     1      16.509  44.293  -2.460  1.00  0.00     0.223 C 
HETATM   12  O1  UNL     1      16.782  43.842  -3.623  1.00  0.00    -0.273 OA
HETATM   13  N7  UNL     1      17.502  44.892  -1.648  1.00  0.00    -0.348 N 
BRANCH  13  14
HETATM   14  C8  UNL     1      18.861  44.962  -2.203  1.00  0.00     0.151 C 
BRANCH  14  15
HETATM   15  C9  UNL     1      18.995  46.190  -3.097  1.00  0.00     0.183 C 
BRANCH  15  16
HETATM   16  O2  UNL     1      18.854  45.844  -4.428  1.00  0.00    -0.399 OA
ATOM     17  H2  UNL     1      19.237  46.507  -4.990  1.00  0.00     0.209 HD
ENDBRANCH  15  16
ENDBRANCH  14  15
ENDBRANCH  13  14
BRANCH  13  18
HETATM   18  C10 UNL     1      17.171  45.404  -0.361  1.00  0.00     0.151 C 
BRANCH  18  19
HETATM   19  C11 UNL     1      18.211  45.171   0.705  1.00  0.00     0.183 C 
BRANCH  19  20
HETATM   20  O3  UNL     1      17.545  45.151   1.931  1.00  0.00    -0.399 OA
ATOM     21  H3  UNL     1      18.026  44.562   2.501  1.00  0.00     0.209 HD
ENDBRANCH  19  20
ENDBRANCH  18  19
ENDBRANCH  13  18
ENDBRANCH  10  11
ENDBRANCH   7  10
BRANCH   1  22
HETATM   22  N1  UNL     1      12.448  48.783  -0.555  1.00  0.00    -0.317 N 
HETATM   23  C1  UNL     1      11.101  48.925  -0.026  1.00  0.00     0.160 C 
HETATM   24  C2  UNL     1      13.358  49.579  -0.110  1.00  0.00     0.203 C 
BRANCH  24  25
HETATM   25  N2  UNL     1      13.134  50.576   0.853  1.00  0.00    -0.282 N 
ATOM     26  H2  UNL     1      12.860  50.258   1.783  1.00  0.00     0.189 HD
BRANCH  25  27
HETATM   27  N3  UNL     1      13.246  51.932   0.677  1.00  0.00    -0.248 N 
ATOM     28  H3  UNL     1      13.461  52.563   1.449  1.00  0.00     0.207 HD
BRANCH  27  29
HETATM   29  N4  UNL     1      13.049  52.387  -0.604  1.00  0.00    -0.331 N 
ATOM     30  H42 UNL     1      13.680  52.123  -1.361  1.00  0.00     0.178 HD
ATOM     31  H41 UNL     1      12.242  52.995  -0.741  1.00  0.00     0.178 HD
ENDBRANCH  27  29
ENDBRANCH  25  27
ENDBRANCH  24  25
ENDBRANCH   1  22
TORSDOF 12
ENDMDL
MODEL 4
REMARK VINA RESULT: -7.486347507      2.438      3.823
REMARK  12 active torsions:
REMARK  status: ('A' for Active; 'I' for Inactive)
REMARK    1  A    between atoms: N1_2  and  C3_11 
REMARK    2  A    between atoms: C2_3  and  N2_4 
REMARK    3  A    between atoms: N2_4  and  N3_6 
REMARK    4  A    between atoms: N3_6  and  N4_8 
REMARK    5  A    between atoms: C5_17  and  C6_18 
REMARK    6  A    between atoms: C6_18  and  C7_19 
REMARK       I    between atoms: C7_19  and  N7_21 
REMARK    7  A    between atoms: N7_21  and  C8_22 
REMARK    8  A    between atoms: N7_21  and  C10_26 
REMARK    9  A    between atoms: C8_22  and  C9_23 
REMARK   10  A    between atoms: C9_23  and  O2_24 
REMARK   11  A    between atoms: C10_26  and  C11_27 
REMARK   12  A    between atoms: C11_27  and  O3_28 
ROOT
HETATM    1  C3  UNL     1      11.883  49.797   0.018  1.00  0.00     0.203 A 
HETATM    2  N5  UNL     1      10.736  49.262  -0.258  1.00  0.00    -0.269 N 
ATOM      3  H5  UNL     1       9.840  49.738  -0.154  1.00  0.00     0.190 HD
HETATM    4  N6  UNL     1      10.879  47.970  -0.709  1.00  0.00    -0.283 N 
ATOM      5  H6  UNL     1      10.123  47.344  -0.987  1.00  0.00     0.188 HD
HETATM    6  C4  UNL     1      12.270  47.662  -0.717  1.00  0.00     0.119 A 
HETATM    7  C5  UNL     1      12.821  46.519  -1.084  1.00  0.00     0.032 C 
HETATM    8  N8  UNL     1      12.909  48.843  -0.248  1.00  0.00    -0.312 N 
ATOM      9  H8  UNL     1      13.912  48.982  -0.126  1.00  0.00     0.170 HD
ENDROOT
BRANCH   7  10
HETATM   10  C6  UNL     1      14.291  46.316  -1.049  1.00  0.00     0.134 C 
BRANCH  10  11
HETATM   11  C7  UNL     1      14.663  45.225  -1.972  1.00  0.00     0.223 C 
HETATM   12  O1  UNL     1      13.875  44.976  -2.945  1.00  0.00    -0.273 OA
HETATM   13  N7  UNL     1      15.853  44.485  -1.776  1.00  0.00    -0.348 N 
BRANCH  13  14
HETATM   14  C8  UNL     1      16.134  43.411  -2.738  1.00  0.00     0.151 C 
BRANCH  14  15
HETATM   15  C9  UNL     1      15.550  42.096  -2.233  1.00  0.00     0.183 C 
BRANCH  15  16
HETATM   16  O2  UNL     1      14.250  41.936  -2.675  1.00  0.00    -0.399 OA
ATOM     17  H2  UNL     1      14.147  41.107  -3.129  1.00  0.00     0.209 HD
ENDBRANCH  15  16
ENDBRANCH  14  15
ENDBRANCH  13  14
BRANCH  13  18
HETATM   18  C10 UNL     1      16.725  44.792  -0.693  1.00  0.00     0.151 C 
BRANCH  18  19
HETATM   19  C11 UNL     1      18.126  45.179  -1.092  1.00  0.00     0.183 C 
BRANCH  19  20
HETATM   20  O3  UNL     1      18.591  46.083  -0.136  1.00  0.00    -0.399 OA
ATOM     21  H3  UNL     1      18.534  45.651   0.709  1.00  0.00     0.209 HD
ENDBRANCH  19  20
ENDBRANCH  18  19
ENDBRANCH  13  18
ENDBRANCH  10  11
ENDBRANCH   7  10
BRANCH   1  22
HETATM   22  N1  UNL     1      12.060  51.121   0.504  1.00  0.00    -0.317 N 
HETATM   23  C1  UNL     1      11.479  51.505   1.779  1.00  0.00     0.160 C 
HETATM   24  C2  UNL     1      12.726  52.010  -0.148  1.00  0.00     0.203 C 
BRANCH  24  25
HETATM   25  N2  UNL     1      12.926  53.328   0.292  1.00  0.00    -0.282 N 
ATOM     26  H2  UNL     1      12.769  53.505   1.285  1.00  0.00     0.189 HD
BRANCH  25  27
HETATM   27  N3  UNL     1      13.310  54.402  -0.469  1.00  0.00    -0.248 N 
ATOM     28  H3  UNL     1      13.203  55.363  -0.145  1.00  0.00     0.207 HD
BRANCH  27  29
HETATM   29  N4  UNL     1      13.848  54.104  -1.697  1.00  0.00    -0.331 N 
ATOM     30  H42 UNL     1      13.295  53.641  -2.419  1.00  0.00     0.178 HD
ATOM     31  H41 UNL     1      14.823  54.372  -1.832  1.00  0.00     0.178 HD
ENDBRANCH  27  29
ENDBRANCH  25  27
ENDBRANCH  24  25
ENDBRANCH   1  22
TORSDOF 12
ENDMDL
MODEL 5
REMARK VINA RESULT: -7.463249184      1.208      2.263
REMARK  12 active torsions:
REMARK  status: ('A' for Active; 'I' for Inactive)
REMARK    1  A    between atoms: N1_2  and  C3_11 
REMARK    2  A    between atoms: C2_3  and  N2_4 
REMARK    3  A    between atoms: N2_4  and  N3_6 
REMARK    4  A    between atoms: N3_6  and  N4_8 
REMARK    5  A    between atoms: C5_17  and  C6_18 
REMARK    6  A    between atoms: C6_18  and  C7_19 
REMARK       I    between atoms: C7_19  and  N7_21 
REMARK    7  A    between atoms: N7_21  and  C8_22 
REMARK    8  A    between atoms: N7_21  and  C10_26 
REMARK    9  A    between atoms: C8_22  and  C9_23 
REMARK   10  A    between atoms: C9_23  and  O2_24 
REMARK   11  A    between atoms: C10_26  and  C11_27 
REMARK   12  A    between atoms: C11_27  and  O3_28 
ROOT
HETATM    1  C3  UNL     1      12.513  52.239   0.602  1.00  0.00     0.203 A 
HETATM    2  N5  UNL     1      11.818  51.962   1.659  1.00  0.00    -0.269 N 
ATOM      3  H5  UNL     1      11.731  52.578   2.467  1.00  0.00     0.190 HD
HETATM    4  N6  UNL     1      11.211  50.732   1.554  1.00  0.00    -0.283 N 
ATOM      5  H6  UNL     1      10.614  50.295   2.256  1.00  0.00     0.188 HD
HETATM    6  C4  UNL     1      11.565  50.177   0.290  1.00  0.00     0.119 A 
HETATM    7  C5  UNL     1      11.185  49.007  -0.190  1.00  0.00     0.032 C 
HETATM    8  N8  UNL     1      12.403  51.153  -0.316  1.00  0.00    -0.312 N 
ATOM      9  H8  UNL     1      12.842  51.089  -1.234  1.00  0.00     0.170 HD
ENDROOT
BRANCH   7  10
HETATM   10  C6  UNL     1      11.621  48.535  -1.527  1.00  0.00     0.134 C 
BRANCH  10  11
HETATM   11  C7  UNL     1      12.570  47.415  -1.373  1.00  0.00     0.223 C 
HETATM   12  O1  UNL     1      13.771  47.695  -1.040  1.00  0.00    -0.273 OA
HETATM   13  N7  UNL     1      12.156  46.079  -1.590  1.00  0.00    -0.348 N 
BRANCH  13  14
HETATM   14  C8  UNL     1      13.174  45.032  -1.425  1.00  0.00     0.151 C 
BRANCH  14  15
HETATM   15  C9  UNL     1      14.008  44.913  -2.696  1.00  0.00     0.183 C 
BRANCH  15  16
HETATM   16  O2  UNL     1      15.228  45.545  -2.542  1.00  0.00    -0.399 OA
ATOM     17  H2  UNL     1      15.180  46.446  -2.841  1.00  0.00     0.209 HD
ENDBRANCH  15  16
ENDBRANCH  14  15
ENDBRANCH  13  14
BRANCH  13  18
HETATM   18  C10 UNL     1      10.808  45.789  -1.944  1.00  0.00     0.151 C 
BRANCH  18  19
HETATM   19  C11 UNL     1      10.608  45.312  -3.360  1.00  0.00     0.183 C 
BRANCH  19  20
HETATM   20  O3  UNL     1      11.007  46.349  -4.203  1.00  0.00    -0.399 OA
ATOM     21  H3  UNL     1      11.494  46.970  -3.672  1.00  0.00     0.209 HD
ENDBRANCH  19  20
ENDBRANCH  18  19
ENDBRANCH  13  18
ENDBRANCH  10  11
ENDBRANCH   7  10
BRANCH   1  22
HETATM   22  N1  UNL     1      13.255  53.437   0.414  1.00  0.00    -0.317 N 
HETATM   23  C1  UNL     1      13.437  53.970  -0.926  1.00  0.00     0.160 C 
HETATM   24  C2  UNL     1      13.780  54.083   1.397  1.00  0.00     0.203 C 
BRANCH  24  25
HETATM   25  N2  UNL     1      14.519  55.268   1.259  1.00  0.00    -0.282 N 
ATOM     26  H2  UNL     1      14.221  55.908   0.522  1.00  0.00     0.189 HD
BRANCH  25  27
HETATM   27  N3  UNL     1      15.600  55.658   2.009  1.00  0.00    -0.248 N 
ATOM     28  H3  UNL     1      15.706  55.390   2.987  1.00  0.00     0.207 HD
BRANCH  27  29
HETATM   29  N4  UNL     1      16.530  56.434   1.360  1.00  0.00    -0.331 N 
ATOM     30  H42 UNL     1      17.439  56.055   1.092  1.00  0.00     0.178 HD
ATOM     31  H41 UNL     1      16.252  57.396   1.170  1.00  0.00     0.178 HD
ENDBRANCH  27  29
ENDBRANCH  25  27
ENDBRANCH  24  25
ENDBRANCH   1  22
TORSDOF 12
ENDMDL
