MODEL 1
REMARK VINA RESULT: -8.907185520      0.000      0.000
REMARK  12 active torsions:
REMARK  status: ('A' for Active; 'I' for Inactive)
REMARK       I    between atoms: C1_4  and  N3_6 
REMARK    1  A    between atoms: N3_6  and  N4_8 
REMARK    2  A    between atoms: N4_8  and  C2_9 
REMARK    3  A    between atoms: C2_9  and  C3_10 
REMARK    4  A    between atoms: C3_10  and  N5_11 
REMARK    5  A    between atoms: N5_11  and  C4_13 
REMARK    6  A    between atoms: C4_13  and  C5_14 
REMARK    7  A    between atoms: C6_16  and  C7_17 
REMARK    8  A    between atoms: C7_17  and  N6_18 
REMARK       I    between atoms: N6_18  and  C8_19 
REMARK    9  A    between atoms: C8_19  and  C9_21 
REMARK   10  A    between atoms: C9_21  and  N7_22 
REMARK   11  A    between atoms: N7_22  and  C10_24 
REMARK   12  A    between atoms: C11_26  and  N8_27 
ROOT
HETATM    1  C5  UNL     1      80.293  26.775  -2.935  1.00  0.00     0.173 C 
HETATM    2  O1  UNL     1      81.621  26.570  -2.733  1.00  0.00    -0.368 OA
HETATM    3  C6  UNL     1      81.273  25.947  -1.514  1.00  0.00     0.207 C 
HETATM    4  C11 UNL     1      80.016  25.475  -2.148  1.00  0.00     0.248 C 
ENDROOT
BRANCH   1   5
HETATM    5  C4  UNL     1      79.582  26.543  -4.283  1.00  0.00     0.147 C 
BRANCH   5   6
HETATM    6  N5  UNL     1      79.537  27.925  -4.809  1.00  0.00    -0.417 N 
ATOM      7  H5  UNL     1      79.658  28.106  -5.806  1.00  0.00     0.153 HD
BRANCH   6   8
HETATM    8  C3  UNL     1      79.323  28.991  -3.903  1.00  0.00     0.131 C 
BRANCH   8   9
HETATM    9  C2  UNL     1      77.993  29.589  -4.387  1.00  0.00     0.154 C 
BRANCH   9  10
HETATM   10  N4  UNL     1      77.104  28.600  -4.940  1.00  0.00    -0.137 NA
BRANCH  10  11
HETATM   11  N3  UNL     1      76.357  28.075  -3.876  1.00  0.00    -0.278 N 
HETATM   12  C1  UNL     1      75.653  26.851  -3.805  1.00  0.00     0.197 C 
HETATM   13  N1  UNL     1      76.183  25.787  -3.403  1.00  0.00    -0.373 N 
HETATM   14  N2  UNL     1      74.217  26.831  -4.059  1.00  0.00    -0.063 NA
ATOM     15  H12 UNL     1      75.675  24.904  -3.352  1.00  0.00     0.158 HD
ATOM     16  H11 UNL     1      77.187  25.801  -3.225  1.00  0.00     0.158 HD
ATOM     17  H3  UNL     1      76.316  28.656  -3.038  1.00  0.00     0.185 HD
ENDBRANCH  10  11
ENDBRANCH   9  10
ENDBRANCH   8   9
ENDBRANCH   6   8
ENDBRANCH   5   6
ENDBRANCH   1   5
BRANCH   4  18
HETATM   18  N8  UNL     1      80.104  24.367  -3.028  1.00  0.00    -0.070 N 
ATOM     19  H83 UNL     1      80.946  24.395  -3.602  1.00  0.00     0.274 HD
ATOM     20  H82 UNL     1      80.295  23.494  -2.534  1.00  0.00     0.274 HD
ATOM     21  H81 UNL     1      79.254  24.315  -3.589  1.00  0.00     0.274 HD
ENDBRANCH   4  18
BRANCH   3  22
HETATM   22  C7  UNL     1      82.188  25.037  -0.826  1.00  0.00     0.193 C 
BRANCH  22  23
HETATM   23  N6  UNL     1      83.296  25.520  -0.281  1.00  0.00    -0.384 NA
HETATM   24  C8  UNL     1      84.462  26.046   0.299  1.00  0.00     0.308 C 
HETATM   25  O2  UNL     1      84.446  27.169   0.824  1.00  0.00    -0.255 OA
BRANCH  24  26
HETATM   26  C9  UNL     1      85.664  25.136   0.285  1.00  0.00     0.241 C 
BRANCH  26  27
HETATM   27  N7  UNL     1      85.836  24.631  -1.110  1.00  0.00    -0.358 N 
ATOM     28  H7  UNL     1      85.032  24.556  -1.734  1.00  0.00     0.162 HD
BRANCH  27  29
HETATM   29  C10 UNL     1      87.068  24.273  -1.541  1.00  0.00     0.348 C 
HETATM   30  O3  UNL     1      87.496  23.719  -2.571  1.00  0.00    -0.284 OA
ENDBRANCH  27  29
ENDBRANCH  26  27
ENDBRANCH  24  26
ENDBRANCH  22  23
ENDBRANCH   3  22
TORSDOF 12
ENDMDL
MODEL 2
REMARK VINA RESULT: -8.590142139      1.420      2.191
REMARK  12 active torsions:
REMARK  status: ('A' for Active; 'I' for Inactive)
REMARK       I    between atoms: C1_4  and  N3_6 
REMARK    1  A    between atoms: N3_6  and  N4_8 
REMARK    2  A    between atoms: N4_8  and  C2_9 
REMARK    3  A    between atoms: C2_9  and  C3_10 
REMARK    4  A    between atoms: C3_10  and  N5_11 
REMARK    5  A    between atoms: N5_11  and  C4_13 
REMARK    6  A    between atoms: C4_13  and  C5_14 
REMARK    7  A    between atoms: C6_16  and  C7_17 
REMARK    8  A    between atoms: C7_17  and  N6_18 
REMARK       I    between atoms: N6_18  and  C8_19 
REMARK    9  A    between atoms: C8_19  and  C9_21 
REMARK   10  A    between atoms: C9_21  and  N7_22 
REMARK   11  A    between atoms: N7_22  and  C10_24 
REMARK   12  A    between atoms: C11_26  and  N8_27 
ROOT
HETATM    1  C5  UNL     1      80.407  27.648  -2.604  1.00  0.00     0.173 C 
HETATM    2  O1  UNL     1      81.726  27.379  -2.425  1.00  0.00    -0.368 OA
HETATM    3  C6  UNL     1      81.336  26.451  -1.435  1.00  0.00     0.207 C 
HETATM    4  C11 UNL     1      80.099  26.186  -2.212  1.00  0.00     0.248 C 
ENDROOT
BRANCH   1   5
HETATM    5  C4  UNL     1      79.739  27.803  -3.984  1.00  0.00     0.147 C 
BRANCH   5   6
HETATM    6  N5  UNL     1      78.398  28.285  -3.587  1.00  0.00    -0.417 N 
ATOM      7  H5  UNL     1      78.297  29.089  -2.966  1.00  0.00     0.153 HD
BRANCH   6   8
HETATM    8  C3  UNL     1      77.258  27.611  -4.085  1.00  0.00     0.131 C 
BRANCH   8   9
HETATM    9  C2  UNL     1      76.617  27.038  -2.811  1.00  0.00     0.154 C 
BRANCH   9  10
HETATM   10  N4  UNL     1      75.928  25.795  -3.042  1.00  0.00    -0.137 NA
BRANCH  10  11
HETATM   11  N3  UNL     1      76.881  24.874  -3.502  1.00  0.00    -0.278 N 
HETATM   12  C1  UNL     1      77.126  23.555  -3.057  1.00  0.00     0.197 C 
HETATM   13  N1  UNL     1      76.545  22.556  -3.547  1.00  0.00    -0.373 N 
HETATM   14  N2  UNL     1      78.198  23.305  -2.100  1.00  0.00    -0.063 NA
ATOM     15  H12 UNL     1      76.721  21.604  -3.226  1.00  0.00     0.158 HD
ATOM     16  H11 UNL     1      75.796  22.731  -4.216  1.00  0.00     0.158 HD
ATOM     17  H3  UNL     1      77.480  25.201  -4.260  1.00  0.00     0.185 HD
ENDBRANCH  10  11
ENDBRANCH   9  10
ENDBRANCH   8   9
ENDBRANCH   6   8
ENDBRANCH   5   6
ENDBRANCH   1   5
BRANCH   4  18
HETATM   18  N8  UNL     1      80.212  25.360  -3.358  1.00  0.00    -0.070 N 
ATOM     19  H83 UNL     1      79.986  24.386  -3.157  1.00  0.00     0.274 HD
ATOM     20  H82 UNL     1      79.474  25.541  -4.040  1.00  0.00     0.274 HD
ATOM     21  H81 UNL     1      81.143  25.466  -3.760  1.00  0.00     0.274 HD
ENDBRANCH   4  18
BRANCH   3  22
HETATM   22  C7  UNL     1      82.225  25.375  -0.995  1.00  0.00     0.193 C 
BRANCH  22  23
HETATM   23  N6  UNL     1      83.359  25.682  -0.380  1.00  0.00    -0.384 NA
HETATM   24  C8  UNL     1      84.554  26.021   0.276  1.00  0.00     0.308 C 
HETATM   25  O2  UNL     1      84.623  27.058   0.950  1.00  0.00    -0.255 OA
BRANCH  24  26
HETATM   26  C9  UNL     1      85.673  25.019   0.148  1.00  0.00     0.241 C 
BRANCH  26  27
HETATM   27  N7  UNL     1      85.921  24.796  -1.308  1.00  0.00    -0.358 N 
ATOM     28  H7  UNL     1      85.227  25.085  -1.998  1.00  0.00     0.162 HD
BRANCH  27  29
HETATM   29  C10 UNL     1      87.073  24.208  -1.705  1.00  0.00     0.348 C 
HETATM   30  O3  UNL     1      87.365  23.400  -2.607  1.00  0.00    -0.284 OA
ENDBRANCH  27  29
ENDBRANCH  26  27
ENDBRANCH  24  26
ENDBRANCH  22  23
ENDBRANCH   3  22
TORSDOF 12
ENDMDL
MODEL 3
REMARK VINA RESULT: -8.390381482      3.316      7.979
REMARK  12 active torsions:
REMARK  status: ('A' for Active; 'I' for Inactive)
REMARK       I    between atoms: C1_4  and  N3_6 
REMARK    1  A    between atoms: N3_6  and  N4_8 
REMARK    2  A    between atoms: N4_8  and  C2_9 
REMARK    3  A    between atoms: C2_9  and  C3_10 
REMARK    4  A    between atoms: C3_10  and  N5_11 
REMARK    5  A    between atoms: N5_11  and  C4_13 
REMARK    6  A    between atoms: C4_13  and  C5_14 
REMARK    7  A    between atoms: C6_16  and  C7_17 
REMARK    8  A    between atoms: C7_17  and  N6_18 
REMARK       I    between atoms: N6_18  and  C8_19 
REMARK    9  A    between atoms: C8_19  and  C9_21 
REMARK   10  A    between atoms: C9_21  and  N7_22 
REMARK   11  A    between atoms: N7_22  and  C10_24 
REMARK   12  A    between atoms: C11_26  and  N8_27 
ROOT
HETATM    1  C5  UNL     1      80.335  26.508  -1.708  1.00  0.00     0.173 C 
HETATM    2  O1  UNL     1      79.707  25.303  -1.714  1.00  0.00    -0.368 OA
HETATM    3  C6  UNL     1      78.640  25.936  -2.390  1.00  0.00     0.207 C 
HETATM    4  C11 UNL     1      79.624  26.837  -3.039  1.00  0.00     0.248 C 
ENDROOT
BRANCH   1   5
HETATM    5  C4  UNL     1      81.828  26.702  -2.034  1.00  0.00     0.147 C 
BRANCH   5   6
HETATM    6  N5  UNL     1      82.309  27.300  -0.769  1.00  0.00    -0.417 N 
ATOM      7  H5  UNL     1      81.800  28.068  -0.331  1.00  0.00     0.153 HD
BRANCH   6   8
HETATM    8  C3  UNL     1      83.489  26.787  -0.179  1.00  0.00     0.131 C 
BRANCH   8   9
HETATM    9  C2  UNL     1      83.364  25.275  -0.428  1.00  0.00     0.154 C 
BRANCH   9  10
HETATM   10  N4  UNL     1      84.552  24.549  -0.058  1.00  0.00    -0.137 NA
BRANCH  10  11
HETATM   11  N3  UNL     1      85.607  25.067  -0.822  1.00  0.00    -0.278 N 
HETATM   12  C1  UNL     1      86.691  24.381  -1.416  1.00  0.00     0.197 C 
HETATM   13  N1  UNL     1      86.640  23.911  -2.578  1.00  0.00    -0.373 N 
HETATM   14  N2  UNL     1      87.978  24.337  -0.731  1.00  0.00    -0.063 NA
ATOM     15  H12 UNL     1      87.422  23.415  -3.007  1.00  0.00     0.158 HD
ATOM     16  H11 UNL     1      85.740  23.941  -3.058  1.00  0.00     0.158 HD
ATOM     17  H3  UNL     1      85.591  26.076  -0.969  1.00  0.00     0.185 HD
ENDBRANCH  10  11
ENDBRANCH   9  10
ENDBRANCH   8   9
ENDBRANCH   6   8
ENDBRANCH   5   6
ENDBRANCH   1   5
BRANCH   4  18
HETATM   18  N8  UNL     1      80.381  26.311  -4.117  1.00  0.00    -0.070 N 
ATOM     19  H83 UNL     1      80.944  27.025  -4.579  1.00  0.00     0.274 HD
ATOM     20  H82 UNL     1      81.143  25.711  -3.798  1.00  0.00     0.274 HD
ATOM     21  H81 UNL     1      79.756  25.831  -4.765  1.00  0.00     0.274 HD
ENDBRANCH   4  18
BRANCH   3  22
HETATM   22  C7  UNL     1      77.656  25.174  -3.159  1.00  0.00     0.193 C 
BRANCH  22  23
HETATM   23  N6  UNL     1      77.591  23.858  -3.007  1.00  0.00    -0.384 NA
HETATM   24  C8  UNL     1      77.528  22.466  -2.831  1.00  0.00     0.308 C 
HETATM   25  O2  UNL     1      77.679  21.973  -1.705  1.00  0.00    -0.255 OA
BRANCH  24  26
HETATM   26  C9  UNL     1      77.206  21.668  -4.068  1.00  0.00     0.241 C 
BRANCH  26  27
HETATM   27  N7  UNL     1      77.661  20.264  -3.836  1.00  0.00    -0.358 N 
ATOM     28  H7  UNL     1      77.186  19.676  -3.150  1.00  0.00     0.162 HD
BRANCH  27  29
HETATM   29  C10 UNL     1      78.707  19.776  -4.543  1.00  0.00     0.348 C 
HETATM   30  O3  UNL     1      79.933  19.712  -4.338  1.00  0.00    -0.284 OA
ENDBRANCH  27  29
ENDBRANCH  26  27
ENDBRANCH  24  26
ENDBRANCH  22  23
ENDBRANCH   3  22
TORSDOF 12
ENDMDL
MODEL 4
REMARK VINA RESULT: -8.332975769      2.649      4.201
REMARK  12 active torsions:
REMARK  status: ('A' for Active; 'I' for Inactive)
REMARK       I    between atoms: C1_4  and  N3_6 
REMARK    1  A    between atoms: N3_6  and  N4_8 
REMARK    2  A    between atoms: N4_8  and  C2_9 
REMARK    3  A    between atoms: C2_9  and  C3_10 
REMARK    4  A    between atoms: C3_10  and  N5_11 
REMARK    5  A    between atoms: N5_11  and  C4_13 
REMARK    6  A    between atoms: C4_13  and  C5_14 
REMARK    7  A    between atoms: C6_16  and  C7_17 
REMARK    8  A    between atoms: C7_17  and  N6_18 
REMARK       I    between atoms: N6_18  and  C8_19 
REMARK    9  A    between atoms: C8_19  and  C9_21 
REMARK   10  A    between atoms: C9_21  and  N7_22 
REMARK   11  A    between atoms: N7_22  and  C10_24 
REMARK   12  A    between atoms: C11_26  and  N8_27 
ROOT
HETATM    1  C5  UNL     1      79.806  25.682  -2.450  1.00  0.00     0.173 C 
HETATM    2  O1  UNL     1      80.288  25.960  -1.210  1.00  0.00    -0.368 OA
HETATM    3  C6  UNL     1      81.518  26.271  -1.829  1.00  0.00     0.207 C 
HETATM    4  C11 UNL     1      80.767  26.750  -3.016  1.00  0.00     0.248 C 
ENDROOT
BRANCH   1   5
HETATM    5  C4  UNL     1      78.422  26.132  -2.957  1.00  0.00     0.147 C 
BRANCH   5   6
HETATM    6  N5  UNL     1      78.032  24.957  -3.766  1.00  0.00    -0.417 N 
ATOM      7  H5  UNL     1      77.480  25.071  -4.616  1.00  0.00     0.153 HD
BRANCH   6   8
HETATM    8  C3  UNL     1      78.440  23.671  -3.338  1.00  0.00     0.131 C 
BRANCH   8   9
HETATM    9  C2  UNL     1      77.141  22.855  -3.422  1.00  0.00     0.154 C 
BRANCH   9  10
HETATM   10  N4  UNL     1      76.814  22.195  -2.184  1.00  0.00    -0.137 NA
BRANCH  10  11
HETATM   11  N3  UNL     1      78.020  21.972  -1.505  1.00  0.00    -0.278 N 
HETATM   12  C1  UNL     1      78.320  20.996  -0.526  1.00  0.00     0.197 C 
HETATM   13  N1  UNL     1      78.762  19.859  -0.816  1.00  0.00    -0.373 N 
HETATM   14  N2  UNL     1      78.263  21.354   0.887  1.00  0.00    -0.063 NA
ATOM     15  H12 UNL     1      78.978  19.155  -0.111  1.00  0.00     0.158 HD
ATOM     16  H11 UNL     1      78.801  19.609  -1.804  1.00  0.00     0.158 HD
ATOM     17  H3  UNL     1      78.787  22.599  -1.750  1.00  0.00     0.185 HD
ENDBRANCH  10  11
ENDBRANCH   9  10
ENDBRANCH   8   9
ENDBRANCH   6   8
ENDBRANCH   5   6
ENDBRANCH   1   5
BRANCH   4  18
HETATM   18  N8  UNL     1      80.153  28.026  -2.930  1.00  0.00    -0.070 N 
ATOM     19  H83 UNL     1      80.465  28.550  -2.113  1.00  0.00     0.274 HD
ATOM     20  H82 UNL     1      80.489  28.667  -3.650  1.00  0.00     0.274 HD
ATOM     21  H81 UNL     1      79.140  27.914  -2.954  1.00  0.00     0.274 HD
ENDBRANCH   4  18
BRANCH   3  22
HETATM   22  C7  UNL     1      82.529  27.093  -1.163  1.00  0.00     0.193 C 
BRANCH  22  23
HETATM   23  N6  UNL     1      83.464  26.503  -0.431  1.00  0.00    -0.384 NA
HETATM   24  C8  UNL     1      84.454  25.890   0.355  1.00  0.00     0.308 C 
HETATM   25  O2  UNL     1      84.756  26.365   1.459  1.00  0.00    -0.255 OA
BRANCH  24  26
HETATM   26  C9  UNL     1      85.041  24.622  -0.210  1.00  0.00     0.241 C 
BRANCH  26  27
HETATM   27  N7  UNL     1      85.981  25.003  -1.306  1.00  0.00    -0.358 N 
ATOM     28  H7  UNL     1      85.810  25.842  -1.862  1.00  0.00     0.162 HD
BRANCH  27  29
HETATM   29  C10 UNL     1      87.061  24.228  -1.558  1.00  0.00     0.348 C 
HETATM   30  O3  UNL     1      87.390  23.483  -2.501  1.00  0.00    -0.284 OA
ENDBRANCH  27  29
ENDBRANCH  26  27
ENDBRANCH  24  26
ENDBRANCH  22  23
ENDBRANCH   3  22
TORSDOF 12
ENDMDL
MODEL 5
REMARK VINA RESULT: -8.254247066      2.935      4.513
REMARK  12 active torsions:
REMARK  status: ('A' for Active; 'I' for Inactive)
REMARK       I    between atoms: C1_4  and  N3_6 
REMARK    1  A    between atoms: N3_6  and  N4_8 
REMARK    2  A    between atoms: N4_8  and  C2_9 
REMARK    3  A    between atoms: C2_9  and  C3_10 
REMARK    4  A    between atoms: C3_10  and  N5_11 
REMARK    5  A    between atoms: N5_11  and  C4_13 
REMARK    6  A    between atoms: C4_13  and  C5_14 
REMARK    7  A    between atoms: C6_16  and  C7_17 
REMARK    8  A    between atoms: C7_17  and  N6_18 
REMARK       I    between atoms: N6_18  and  C8_19 
REMARK    9  A    between atoms: C8_19  and  C9_21 
REMARK   10  A    between atoms: C9_21  and  N7_22 
REMARK   11  A    between atoms: N7_22  and  C10_24 
REMARK   12  A    between atoms: C11_26  and  N8_27 
ROOT
HETATM    1  C5  UNL     1      79.012  25.561  -2.230  1.00  0.00     0.173 C 
HETATM    2  O1  UNL     1      79.540  26.577  -1.500  1.00  0.00    -0.368 OA
HETATM    3  C6  UNL     1      80.814  26.068  -1.832  1.00  0.00     0.207 C 
HETATM    4  C11 UNL     1      80.263  25.618  -3.135  1.00  0.00     0.248 C 
ENDROOT
BRANCH   1   5
HETATM    5  C4  UNL     1      77.841  25.728  -3.217  1.00  0.00     0.147 C 
BRANCH   5   6
HETATM    6  N5  UNL     1      77.533  24.312  -3.519  1.00  0.00    -0.417 N 
ATOM      7  H5  UNL     1      77.224  24.034  -4.450  1.00  0.00     0.153 HD
BRANCH   6   8
HETATM    8  C3  UNL     1      77.675  23.352  -2.489  1.00  0.00     0.131 C 
BRANCH   8   9
HETATM    9  C2  UNL     1      76.860  22.161  -3.017  1.00  0.00     0.154 C 
BRANCH   9  10
HETATM   10  N4  UNL     1      77.260  21.752  -4.339  1.00  0.00    -0.137 NA
BRANCH  10  11
HETATM   11  N3  UNL     1      77.590  20.391  -4.268  1.00  0.00    -0.278 N 
HETATM   12  C1  UNL     1      78.679  19.776  -3.609  1.00  0.00     0.197 C 
HETATM   13  N1  UNL     1      78.619  19.390  -2.417  1.00  0.00    -0.373 N 
HETATM   14  N2  UNL     1      79.876  19.430  -4.367  1.00  0.00    -0.063 NA
ATOM     15  H12 UNL     1      79.405  18.946  -1.941  1.00  0.00     0.158 HD
ATOM     16  H11 UNL     1      77.782  19.632  -1.887  1.00  0.00     0.158 HD
ATOM     17  H3  UNL     1      76.958  19.758  -4.759  1.00  0.00     0.185 HD
ENDBRANCH  10  11
ENDBRANCH   9  10
ENDBRANCH   8   9
ENDBRANCH   6   8
ENDBRANCH   5   6
ENDBRANCH   1   5
BRANCH   4  18
HETATM   18  N8  UNL     1      80.071  26.601  -4.138  1.00  0.00    -0.070 N 
ATOM     19  H83 UNL     1      79.773  27.496  -3.750  1.00  0.00     0.274 HD
ATOM     20  H82 UNL     1      80.951  26.909  -4.552  1.00  0.00     0.274 HD
ATOM     21  H81 UNL     1      79.418  26.246  -4.837  1.00  0.00     0.274 HD
ENDBRANCH   4  18
BRANCH   3  22
HETATM   22  C7  UNL     1      82.021  26.890  -1.740  1.00  0.00     0.193 C 
BRANCH  22  23
HETATM   23  N6  UNL     1      82.968  26.557  -0.874  1.00  0.00    -0.384 NA
HETATM   24  C8  UNL     1      83.972  26.218   0.049  1.00  0.00     0.308 C 
HETATM   25  O2  UNL     1      84.397  27.066   0.846  1.00  0.00    -0.255 OA
BRANCH  24  26
HETATM   26  C9  UNL     1      84.418  24.779   0.026  1.00  0.00     0.241 C 
BRANCH  26  27
HETATM   27  N7  UNL     1      85.417  24.627  -1.074  1.00  0.00    -0.358 N 
ATOM     28  H7  UNL     1      85.106  24.523  -2.041  1.00  0.00     0.162 HD
BRANCH  27  29
HETATM   29  C10 UNL     1      86.738  24.630  -0.780  1.00  0.00     0.348 C 
HETATM   30  O3  UNL     1      87.762  24.279  -1.396  1.00  0.00    -0.284 OA
ENDBRANCH  27  29
ENDBRANCH  26  27
ENDBRANCH  24  26
ENDBRANCH  22  23
ENDBRANCH   3  22
TORSDOF 12
ENDMDL
