MODEL 1
REMARK VINA RESULT: -8.221931023      0.000      0.000
REMARK  13 active torsions:
REMARK  status: ('A' for Active; 'I' for Inactive)
REMARK    1  A    between atoms: C1_4  and  C2_5 
REMARK    2  A    between atoms: C1_4  and  N3_10 
REMARK    3  A    between atoms: C2_5  and  N2_6 
REMARK    4  A    between atoms: N3_10  and  C3_12 
REMARK    5  A    between atoms: C3_12  and  C4_13 
REMARK    6  A    between atoms: C4_13  and  N4_14 
REMARK       I    between atoms: N4_14  and  C5_16 
REMARK    7  A    between atoms: C5_16  and  C6_18 
REMARK    8  A    between atoms: N7_21  and  C7_22 
REMARK    9  A    between atoms: C7_22  and  C8_23 
REMARK       I    between atoms: C8_23  and  N8_25 
REMARK   10  A    between atoms: N8_25  and  C9_27 
REMARK   11  A    between atoms: C9_27  and  C10_28 
REMARK   12  A    between atoms: C10_28  and  C11_29 
REMARK   13  A    between atoms: C11_29  and  N9_30 
ROOT
HETATM    1  N4  UNL     1      81.344  25.664  -1.103  1.00  0.00    -0.357 N 
ATOM      2  H4  UNL     1      80.471  25.389  -0.652  1.00  0.00     0.162 HD
HETATM    3  C5  UNL     1      81.316  26.722  -2.064  1.00  0.00     0.254 C 
HETATM    4  O1  UNL     1      82.425  27.034  -2.601  1.00  0.00    -0.270 OA
ENDROOT
BRANCH   3   5
HETATM    5  C6  UNL     1      80.067  27.423  -2.422  1.00  0.00     0.279 C 
HETATM    6  N5  UNL     1      79.538  28.280  -1.368  1.00  0.00    -0.100 NA
HETATM    7  N6  UNL     1      78.289  27.647  -1.442  1.00  0.00    -0.052 NA
HETATM    8  N7  UNL     1      78.918  26.608  -2.089  1.00  0.00    -0.179 NA
BRANCH   8   9
HETATM    9  C7  UNL     1      78.239  25.995  -3.181  1.00  0.00     0.216 C 
BRANCH   9  10
HETATM   10  C8  UNL     1      78.132  24.535  -2.921  1.00  0.00     0.232 C 
HETATM   11  O2  UNL     1      79.046  23.947  -2.252  1.00  0.00    -0.272 OA
HETATM   12  N8  UNL     1      77.032  23.794  -3.408  1.00  0.00    -0.360 N 
ATOM     13  H8  UNL     1      76.318  24.289  -3.941  1.00  0.00     0.162 HD
BRANCH  12  14
HETATM   14  C9  UNL     1      76.859  22.377  -3.195  1.00  0.00     0.124 C 
BRANCH  14  15
HETATM   15  C10 UNL     1      77.215  21.515  -4.355  1.00  0.00     0.047 C 
BRANCH  15  16
HETATM   16  C11 UNL     1      77.866  20.216  -3.949  1.00  0.00     0.231 C 
BRANCH  16  17
HETATM   17  N9  UNL     1      79.204  20.101  -4.488  1.00  0.00    -0.079 N 
ATOM     18  H93 UNL     1      79.621  21.018  -4.649  1.00  0.00     0.274 HD
ATOM     19  H92 UNL     1      79.859  19.751  -3.789  1.00  0.00     0.274 HD
ATOM     20  H91 UNL     1      79.220  19.532  -5.333  1.00  0.00     0.274 HD
ENDBRANCH  16  17
ENDBRANCH  15  16
ENDBRANCH  14  15
ENDBRANCH  12  14
ENDBRANCH   9  10
ENDBRANCH   8   9
ENDBRANCH   3   5
BRANCH   1  21
HETATM   21  C4  UNL     1      82.556  24.973  -0.746  1.00  0.00     0.142 C 
BRANCH  21  22
HETATM   22  C3  UNL     1      83.542  25.960  -0.181  1.00  0.00     0.140 C 
BRANCH  22  23
HETATM   23  N3  UNL     1      84.820  25.742  -0.825  1.00  0.00    -0.377 N 
ATOM     24  H3  UNL     1      84.916  25.914  -1.825  1.00  0.00     0.160 HD
BRANCH  23  25
HETATM   25  C1  UNL     1      85.935  25.295  -0.082  1.00  0.00     0.096 C 
HETATM   26  N1  UNL     1      85.982  25.475   1.192  1.00  0.00    -0.388 N 
ATOM     27  H12 UNL     1      86.787  25.153   1.728  1.00  0.00     0.157 HD
ATOM     28  H11 UNL     1      85.217  25.944   1.677  1.00  0.00     0.157 HD
BRANCH  25  29
HETATM   29  C2  UNL     1      87.044  24.617  -0.784  1.00  0.00     0.304 C 
BRANCH  29  30
HETATM   30  N2  UNL     1      86.592  24.196  -2.111  1.00  0.00    -0.073 N 
ATOM     31  H23 UNL     1      85.677  23.745  -2.082  1.00  0.00     0.274 HD
ATOM     32  H22 UNL     1      86.344  24.988  -2.705  1.00  0.00     0.274 HD
ATOM     33  H21 UNL     1      87.302  23.601  -2.537  1.00  0.00     0.274 HD
ENDBRANCH  29  30
ENDBRANCH  25  29
ENDBRANCH  23  25
ENDBRANCH  22  23
ENDBRANCH  21  22
ENDBRANCH   1  21
TORSDOF 13
ENDMDL
MODEL 2
REMARK VINA RESULT: -8.067755251      1.341      7.035
REMARK  13 active torsions:
REMARK  status: ('A' for Active; 'I' for Inactive)
REMARK    1  A    between atoms: C1_4  and  C2_5 
REMARK    2  A    between atoms: C1_4  and  N3_10 
REMARK    3  A    between atoms: C2_5  and  N2_6 
REMARK    4  A    between atoms: N3_10  and  C3_12 
REMARK    5  A    between atoms: C3_12  and  C4_13 
REMARK    6  A    between atoms: C4_13  and  N4_14 
REMARK       I    between atoms: N4_14  and  C5_16 
REMARK    7  A    between atoms: C5_16  and  C6_18 
REMARK    8  A    between atoms: N7_21  and  C7_22 
REMARK    9  A    between atoms: C7_22  and  C8_23 
REMARK       I    between atoms: C8_23  and  N8_25 
REMARK   10  A    between atoms: N8_25  and  C9_27 
REMARK   11  A    between atoms: C9_27  and  C10_28 
REMARK   12  A    between atoms: C10_28  and  C11_29 
REMARK   13  A    between atoms: C11_29  and  N9_30 
ROOT
HETATM    1  N4  UNL     1      77.111  23.868  -3.302  1.00  0.00    -0.357 N 
ATOM      2  H4  UNL     1      76.263  24.387  -3.528  1.00  0.00     0.162 HD
HETATM    3  C5  UNL     1      78.342  24.585  -3.179  1.00  0.00     0.254 C 
HETATM    4  O1  UNL     1      79.375  23.901  -2.894  1.00  0.00    -0.270 OA
ENDROOT
BRANCH   3   5
HETATM    5  C6  UNL     1      78.419  26.047  -3.370  1.00  0.00     0.279 C 
HETATM    6  N5  UNL     1      78.614  26.460  -4.755  1.00  0.00    -0.100 NA
HETATM    7  N6  UNL     1      79.730  27.230  -4.398  1.00  0.00    -0.052 NA
HETATM    8  N7  UNL     1      79.786  26.503  -3.231  1.00  0.00    -0.179 NA
BRANCH   8   9
HETATM    9  C7  UNL     1      80.101  27.197  -2.028  1.00  0.00     0.216 C 
BRANCH   9  10
HETATM   10  C8  UNL     1      81.557  27.058  -1.760  1.00  0.00     0.232 C 
HETATM   11  O2  UNL     1      82.396  27.622  -2.540  1.00  0.00    -0.272 OA
HETATM   12  N8  UNL     1      82.020  26.309  -0.655  1.00  0.00    -0.360 N 
ATOM     13  H8  UNL     1      81.328  25.868  -0.050  1.00  0.00     0.162 HD
BRANCH  12  14
HETATM   14  C9  UNL     1      83.415  26.131  -0.332  1.00  0.00     0.124 C 
BRANCH  14  15
HETATM   15  C10 UNL     1      83.869  24.716  -0.248  1.00  0.00     0.047 C 
BRANCH  15  16
HETATM   16  C11 UNL     1      85.361  24.584  -0.068  1.00  0.00     0.231 C 
BRANCH  16  17
HETATM   17  N9  UNL     1      86.051  24.574  -1.340  1.00  0.00    -0.079 N 
ATOM     18  H93 UNL     1      85.481  24.990  -2.076  1.00  0.00     0.274 HD
ATOM     19  H92 UNL     1      86.827  25.236  -1.348  1.00  0.00     0.274 HD
ATOM     20  H91 UNL     1      86.359  23.635  -1.592  1.00  0.00     0.274 HD
ENDBRANCH  16  17
ENDBRANCH  15  16
ENDBRANCH  14  15
ENDBRANCH  12  14
ENDBRANCH   9  10
ENDBRANCH   8   9
ENDBRANCH   3   5
BRANCH   1  21
HETATM   21  C4  UNL     1      77.023  22.442  -3.117  1.00  0.00     0.142 C 
BRANCH  21  22
HETATM   22  C3  UNL     1      77.149  21.760  -4.453  1.00  0.00     0.140 C 
BRANCH  22  23
HETATM   23  N3  UNL     1      77.343  20.345  -4.222  1.00  0.00    -0.377 N 
ATOM     24  H3  UNL     1      76.549  19.709  -4.293  1.00  0.00     0.160 HD
BRANCH  23  25
HETATM   25  C1  UNL     1      78.621  19.834  -3.902  1.00  0.00     0.096 C 
HETATM   26  N1  UNL     1      79.639  20.125  -4.633  1.00  0.00    -0.388 N 
ATOM     27  H12 UNL     1      80.561  19.756  -4.402  1.00  0.00     0.157 HD
ATOM     28  H11 UNL     1      79.534  20.724  -5.452  1.00  0.00     0.157 HD
BRANCH  25  29
HETATM   29  C2  UNL     1      78.773  18.966  -2.716  1.00  0.00     0.304 C 
BRANCH  29  30
HETATM   30  N2  UNL     1      78.776  19.793  -1.508  1.00  0.00    -0.073 N 
ATOM     31  H23 UNL     1      77.862  19.817  -1.054  1.00  0.00     0.274 HD
ATOM     32  H22 UNL     1      79.304  19.365  -0.747  1.00  0.00     0.274 HD
ATOM     33  H21 UNL     1      79.117  20.726  -1.738  1.00  0.00     0.274 HD
ENDBRANCH  29  30
ENDBRANCH  25  29
ENDBRANCH  23  25
ENDBRANCH  22  23
ENDBRANCH  21  22
ENDBRANCH   1  21
TORSDOF 13
ENDMDL
MODEL 3
REMARK VINA RESULT: -7.994326296      2.742      7.464
REMARK  13 active torsions:
REMARK  status: ('A' for Active; 'I' for Inactive)
REMARK    1  A    between atoms: C1_4  and  C2_5 
REMARK    2  A    between atoms: C1_4  and  N3_10 
REMARK    3  A    between atoms: C2_5  and  N2_6 
REMARK    4  A    between atoms: N3_10  and  C3_12 
REMARK    5  A    between atoms: C3_12  and  C4_13 
REMARK    6  A    between atoms: C4_13  and  N4_14 
REMARK       I    between atoms: N4_14  and  C5_16 
REMARK    7  A    between atoms: C5_16  and  C6_18 
REMARK    8  A    between atoms: N7_21  and  C7_22 
REMARK    9  A    between atoms: C7_22  and  C8_23 
REMARK       I    between atoms: C8_23  and  N8_25 
REMARK   10  A    between atoms: N8_25  and  C9_27 
REMARK   11  A    between atoms: C9_27  and  C10_28 
REMARK   12  A    between atoms: C10_28  and  C11_29 
REMARK   13  A    between atoms: C11_29  and  N9_30 
ROOT
HETATM    1  N4  UNL     1      77.363  25.634  -3.122  1.00  0.00    -0.357 N 
ATOM      2  H4  UNL     1      77.461  24.794  -3.691  1.00  0.00     0.162 HD
HETATM    3  C5  UNL     1      78.521  26.161  -2.469  1.00  0.00     0.254 C 
HETATM    4  O1  UNL     1      78.354  27.209  -1.770  1.00  0.00    -0.270 OA
ENDROOT
BRANCH   3   5
HETATM    5  C6  UNL     1      79.847  25.526  -2.594  1.00  0.00     0.279 C 
HETATM    6  N5  UNL     1      79.974  24.259  -1.884  1.00  0.00    -0.100 NA
HETATM    7  N6  UNL     1      81.118  24.716  -1.215  1.00  0.00    -0.052 NA
HETATM    8  N7  UNL     1      80.732  25.994  -1.549  1.00  0.00    -0.179 NA
BRANCH   8   9
HETATM    9  C7  UNL     1      81.745  26.915  -1.943  1.00  0.00     0.216 C 
BRANCH   9  10
HETATM   10  C8  UNL     1      82.852  26.866  -0.951  1.00  0.00     0.232 C 
HETATM   11  O2  UNL     1      82.931  27.769  -0.053  1.00  0.00    -0.272 OA
HETATM   12  N8  UNL     1      83.814  25.832  -0.994  1.00  0.00    -0.360 N 
ATOM     13  H8  UNL     1      83.726  25.125  -1.724  1.00  0.00     0.162 HD
BRANCH  12  14
HETATM   14  C9  UNL     1      84.914  25.718  -0.067  1.00  0.00     0.124 C 
BRANCH  14  15
HETATM   15  C10 UNL     1      85.729  24.481  -0.201  1.00  0.00     0.047 C 
BRANCH  15  16
HETATM   16  C11 UNL     1      86.921  24.654  -1.110  1.00  0.00     0.231 C 
BRANCH  16  17
HETATM   17  N9  UNL     1      86.758  23.920  -2.346  1.00  0.00    -0.079 N 
ATOM     18  H93 UNL     1      86.150  24.417  -2.997  1.00  0.00     0.274 HD
ATOM     19  H92 UNL     1      87.615  23.923  -2.897  1.00  0.00     0.274 HD
ATOM     20  H91 UNL     1      86.426  22.971  -2.177  1.00  0.00     0.274 HD
ENDBRANCH  16  17
ENDBRANCH  15  16
ENDBRANCH  14  15
ENDBRANCH  12  14
ENDBRANCH   9  10
ENDBRANCH   8   9
ENDBRANCH   3   5
BRANCH   1  21
HETATM   21  C4  UNL     1      76.063  26.245  -3.007  1.00  0.00     0.142 C 
BRANCH  21  22
HETATM   22  C3  UNL     1      75.842  27.166  -4.176  1.00  0.00     0.140 C 
BRANCH  22  23
HETATM   23  N3  UNL     1      76.529  28.411  -3.908  1.00  0.00    -0.377 N 
ATOM     24  H3  UNL     1      76.274  28.962  -3.089  1.00  0.00     0.160 HD
BRANCH  23  25
HETATM   25  C1  UNL     1      77.551  28.872  -4.769  1.00  0.00     0.096 C 
HETATM   26  N1  UNL     1      77.615  28.452  -5.984  1.00  0.00    -0.388 N 
ATOM     27  H12 UNL     1      78.352  28.785  -6.605  1.00  0.00     0.157 HD
ATOM     28  H11 UNL     1      76.931  27.783  -6.337  1.00  0.00     0.157 HD
BRANCH  25  29
HETATM   29  C2  UNL     1      78.542  29.841  -4.258  1.00  0.00     0.304 C 
BRANCH  29  30
HETATM   30  N2  UNL     1      79.814  29.156  -4.024  1.00  0.00    -0.073 N 
ATOM     31  H23 UNL     1      79.688  28.255  -3.563  1.00  0.00     0.274 HD
ATOM     32  H22 UNL     1      80.236  28.819  -4.890  1.00  0.00     0.274 HD
ATOM     33  H21 UNL     1      80.438  29.773  -3.504  1.00  0.00     0.274 HD
ENDBRANCH  29  30
ENDBRANCH  25  29
ENDBRANCH  23  25
ENDBRANCH  22  23
ENDBRANCH  21  22
ENDBRANCH   1  21
TORSDOF 13
ENDMDL
MODEL 4
REMARK VINA RESULT: -7.973914010      1.298      1.633
REMARK  13 active torsions:
REMARK  status: ('A' for Active; 'I' for Inactive)
REMARK    1  A    between atoms: C1_4  and  C2_5 
REMARK    2  A    between atoms: C1_4  and  N3_10 
REMARK    3  A    between atoms: C2_5  and  N2_6 
REMARK    4  A    between atoms: N3_10  and  C3_12 
REMARK    5  A    between atoms: C3_12  and  C4_13 
REMARK    6  A    between atoms: C4_13  and  N4_14 
REMARK       I    between atoms: N4_14  and  C5_16 
REMARK    7  A    between atoms: C5_16  and  C6_18 
REMARK    8  A    between atoms: N7_21  and  C7_22 
REMARK    9  A    between atoms: C7_22  and  C8_23 
REMARK       I    between atoms: C8_23  and  N8_25 
REMARK   10  A    between atoms: N8_25  and  C9_27 
REMARK   11  A    between atoms: C9_27  and  C10_28 
REMARK   12  A    between atoms: C10_28  and  C11_29 
REMARK   13  A    between atoms: C11_29  and  N9_30 
ROOT
HETATM    1  N4  UNL     1      82.638  25.900  -1.030  1.00  0.00    -0.357 N 
ATOM      2  H4  UNL     1      83.067  26.818  -1.142  1.00  0.00     0.162 HD
HETATM    3  C5  UNL     1      81.337  25.678  -1.581  1.00  0.00     0.254 C 
HETATM    4  O1  UNL     1      80.839  24.519  -1.420  1.00  0.00    -0.270 OA
ENDROOT
BRANCH   3   5
HETATM    5  C6  UNL     1      80.601  26.734  -2.302  1.00  0.00     0.279 C 
HETATM    6  N5  UNL     1      80.200  27.861  -1.468  1.00  0.00    -0.100 NA
HETATM    7  N6  UNL     1      78.867  27.731  -1.884  1.00  0.00    -0.052 NA
HETATM    8  N7  UNL     1      79.181  26.456  -2.295  1.00  0.00    -0.179 NA
BRANCH   8   9
HETATM    9  C7  UNL     1      78.621  25.994  -3.521  1.00  0.00     0.216 C 
BRANCH   9  10
HETATM   10  C8  UNL     1      77.750  24.821  -3.241  1.00  0.00     0.232 C 
HETATM   11  O2  UNL     1      76.507  25.001  -3.020  1.00  0.00    -0.272 OA
HETATM   12  N8  UNL     1      78.286  23.514  -3.216  1.00  0.00    -0.360 N 
ATOM     13  H8  UNL     1      79.284  23.401  -3.395  1.00  0.00     0.162 HD
BRANCH  12  14
HETATM   14  C9  UNL     1      77.505  22.330  -2.953  1.00  0.00     0.124 C 
BRANCH  14  15
HETATM   15  C10 UNL     1      77.273  21.450  -4.130  1.00  0.00     0.047 C 
BRANCH  15  16
HETATM   16  C11 UNL     1      77.914  20.092  -3.989  1.00  0.00     0.231 C 
BRANCH  16  17
HETATM   17  N9  UNL     1      79.277  20.095  -4.472  1.00  0.00    -0.079 N 
ATOM     18  H93 UNL     1      79.415  20.800  -5.195  1.00  0.00     0.274 HD
ATOM     19  H92 UNL     1      79.921  20.460  -3.771  1.00  0.00     0.274 HD
ATOM     20  H91 UNL     1      79.562  19.170  -4.795  1.00  0.00     0.274 HD
ENDBRANCH  16  17
ENDBRANCH  15  16
ENDBRANCH  14  15
ENDBRANCH  12  14
ENDBRANCH   9  10
ENDBRANCH   8   9
ENDBRANCH   3   5
BRANCH   1  21
HETATM   21  C4  UNL     1      83.365  24.876  -0.325  1.00  0.00     0.142 C 
BRANCH  21  22
HETATM   22  C3  UNL     1      84.717  25.409   0.068  1.00  0.00     0.140 C 
BRANCH  22  23
HETATM   23  N3  UNL     1      85.627  25.194  -1.037  1.00  0.00    -0.377 N 
ATOM     24  H3  UNL     1      85.434  25.627  -1.940  1.00  0.00     0.160 HD
BRANCH  23  25
HETATM   25  C1  UNL     1      86.779  24.392  -0.878  1.00  0.00     0.096 C 
HETATM   26  N1  UNL     1      87.442  23.997  -1.907  1.00  0.00    -0.388 N 
ATOM     27  H12 UNL     1      88.274  23.418  -1.792  1.00  0.00     0.157 HD
ATOM     28  H11 UNL     1      87.143  24.257  -2.847  1.00  0.00     0.157 HD
BRANCH  25  29
HETATM   29  C2  UNL     1      87.212  24.016   0.483  1.00  0.00     0.304 C 
BRANCH  29  30
HETATM   30  N2  UNL     1      88.433  23.211   0.397  1.00  0.00    -0.073 N 
ATOM     31  H23 UNL     1      88.888  23.103   1.303  1.00  0.00     0.274 HD
ATOM     32  H22 UNL     1      88.235  22.227   0.216  1.00  0.00     0.274 HD
ATOM     33  H21 UNL     1      89.055  23.616  -0.302  1.00  0.00     0.274 HD
ENDBRANCH  29  30
ENDBRANCH  25  29
ENDBRANCH  23  25
ENDBRANCH  22  23
ENDBRANCH  21  22
ENDBRANCH   1  21
TORSDOF 13
ENDMDL
MODEL 5
REMARK VINA RESULT: -7.932331520      1.087      1.213
REMARK  13 active torsions:
REMARK  status: ('A' for Active; 'I' for Inactive)
REMARK    1  A    between atoms: C1_4  and  C2_5 
REMARK    2  A    between atoms: C1_4  and  N3_10 
REMARK    3  A    between atoms: C2_5  and  N2_6 
REMARK    4  A    between atoms: N3_10  and  C3_12 
REMARK    5  A    between atoms: C3_12  and  C4_13 
REMARK    6  A    between atoms: C4_13  and  N4_14 
REMARK       I    between atoms: N4_14  and  C5_16 
REMARK    7  A    between atoms: C5_16  and  C6_18 
REMARK    8  A    between atoms: N7_21  and  C7_22 
REMARK    9  A    between atoms: C7_22  and  C8_23 
REMARK       I    between atoms: C8_23  and  N8_25 
REMARK   10  A    between atoms: N8_25  and  C9_27 
REMARK   11  A    between atoms: C9_27  and  C10_28 
REMARK   12  A    between atoms: C10_28  and  C11_29 
REMARK   13  A    between atoms: C11_29  and  N9_30 
ROOT
HETATM    1  N4  UNL     1      82.385  25.956  -1.070  1.00  0.00    -0.357 N 
ATOM      2  H4  UNL     1      82.801  26.885  -1.146  1.00  0.00     0.162 HD
HETATM    3  C5  UNL     1      81.096  25.732  -1.645  1.00  0.00     0.254 C 
HETATM    4  O1  UNL     1      80.615  24.561  -1.528  1.00  0.00    -0.270 OA
ENDROOT
BRANCH   3   5
HETATM    5  C6  UNL     1      80.352  26.800  -2.341  1.00  0.00     0.279 C 
HETATM    6  N5  UNL     1      79.980  27.923  -1.489  1.00  0.00    -0.100 NA
HETATM    7  N6  UNL     1      78.637  27.807  -1.875  1.00  0.00    -0.052 NA
HETATM    8  N7  UNL     1      78.930  26.533  -2.303  1.00  0.00    -0.179 NA
BRANCH   8   9
HETATM    9  C7  UNL     1      78.338  26.085  -3.518  1.00  0.00     0.216 C 
BRANCH   9  10
HETATM   10  C8  UNL     1      77.536  24.864  -3.241  1.00  0.00     0.232 C 
HETATM   11  O2  UNL     1      76.281  24.970  -3.032  1.00  0.00    -0.272 OA
HETATM   12  N8  UNL     1      78.147  23.590  -3.206  1.00  0.00    -0.360 N 
ATOM     13  H8  UNL     1      79.151  23.536  -3.375  1.00  0.00     0.162 HD
BRANCH  12  14
HETATM   14  C9  UNL     1      77.435  22.363  -2.945  1.00  0.00     0.124 C 
BRANCH  14  15
HETATM   15  C10 UNL     1      77.209  21.497  -4.134  1.00  0.00     0.047 C 
BRANCH  15  16
HETATM   16  C11 UNL     1      77.866  20.144  -4.014  1.00  0.00     0.231 C 
BRANCH  16  17
HETATM   17  N9  UNL     1      79.256  20.191  -4.413  1.00  0.00    -0.079 N 
ATOM     18  H93 UNL     1      79.507  19.385  -4.985  1.00  0.00     0.274 HD
ATOM     19  H92 UNL     1      79.422  20.929  -5.098  1.00  0.00     0.274 HD
ATOM     20  H91 UNL     1      79.874  20.283  -3.608  1.00  0.00     0.274 HD
ENDBRANCH  16  17
ENDBRANCH  15  16
ENDBRANCH  14  15
ENDBRANCH  12  14
ENDBRANCH   9  10
ENDBRANCH   8   9
ENDBRANCH   3   5
BRANCH   1  21
HETATM   21  C4  UNL     1      83.120  24.922  -0.388  1.00  0.00     0.142 C 
BRANCH  21  22
HETATM   22  C3  UNL     1      84.348  25.521   0.246  1.00  0.00     0.140 C 
BRANCH  22  23
HETATM   23  N3  UNL     1      85.462  25.333  -0.659  1.00  0.00    -0.377 N 
ATOM     24  H3  UNL     1      85.430  25.744  -1.591  1.00  0.00     0.160 HD
BRANCH  23  25
HETATM   25  C1  UNL     1      86.594  24.586  -0.264  1.00  0.00     0.096 C 
HETATM   26  N1  UNL     1      86.722  24.197   0.957  1.00  0.00    -0.388 N 
ATOM     27  H12 UNL     1      87.540  23.658   1.241  1.00  0.00     0.157 HD
ATOM     28  H11 UNL     1      86.010  24.425   1.650  1.00  0.00     0.157 HD
BRANCH  25  29
HETATM   29  C2  UNL     1      87.626  24.255  -1.268  1.00  0.00     0.304 C 
BRANCH  29  30
HETATM   30  N2  UNL     1      86.976  23.827  -2.508  1.00  0.00    -0.073 N 
ATOM     31  H23 UNL     1      85.959  23.820  -2.428  1.00  0.00     0.274 HD
ATOM     32  H22 UNL     1      87.059  24.524  -3.248  1.00  0.00     0.274 HD
ATOM     33  H21 UNL     1      87.348  22.919  -2.787  1.00  0.00     0.274 HD
ENDBRANCH  29  30
ENDBRANCH  25  29
ENDBRANCH  23  25
ENDBRANCH  22  23
ENDBRANCH  21  22
ENDBRANCH   1  21
TORSDOF 13
ENDMDL
