MODEL 1
REMARK VINA RESULT: -7.406914668      0.000      0.000
REMARK  14 active torsions:
REMARK  status: ('A' for Active; 'I' for Inactive)
REMARK    1  A    between atoms: N1_2  and  C2_3 
REMARK       I    between atoms: N1_2  and  C7_24 
REMARK    2  A    between atoms: C2_3  and  C3_4 
REMARK    3  A    between atoms: C3_4  and  C4_5 
REMARK    4  A    between atoms: C4_5  and  N2_6 
REMARK    5  A    between atoms: N2_6  and  S1_8 
REMARK    6  A    between atoms: S1_8  and  N3_11 
REMARK    7  A    between atoms: N3_11  and  C5_13 
REMARK    8  A    between atoms: C5_13  and  C6_14 
REMARK    9  A    between atoms: C6_14  and  N4_15 
REMARK   10  A    between atoms: C6_14  and  N5_19 
REMARK   11  A    between atoms: N5_19  and  N6_20 
REMARK   12  A    between atoms: N6_20  and  N7_21 
REMARK   13  A    between atoms: C7_24  and  C8_26 
REMARK   14  A    between atoms: C8_26  and  N8_27 
ROOT
HETATM    1  S1  UNL     1      81.493  26.733  -2.132  1.00  0.00     0.315 S 
HETATM    2  O1  UNL     1      80.690  27.617  -1.187  1.00  0.00    -0.183 OA
HETATM    3  O2  UNL     1      82.707  27.571  -2.501  1.00  0.00    -0.183 OA
ENDROOT
BRANCH   1   4
HETATM    4  N2  UNL     1      81.987  25.353  -1.227  1.00  0.00    -0.303 N 
ATOM      5  H2  UNL     1      81.630  24.404  -1.339  1.00  0.00     0.173 HD
BRANCH   4   6
HETATM    6  C4  UNL     1      82.996  25.776  -0.281  1.00  0.00     0.135 C 
BRANCH   6   7
HETATM    7  C3  UNL     1      84.129  24.781  -0.176  1.00  0.00     0.040 C 
BRANCH   7   8
HETATM    8  C2  UNL     1      85.423  25.441   0.236  1.00  0.00     0.127 C 
BRANCH   8   9
HETATM    9  N1  UNL     1      86.552  24.550  -0.133  1.00  0.00    -0.355 N 
HETATM   10  C1  UNL     1      86.890  24.365  -1.518  1.00  0.00     0.152 C 
HETATM   11  C7  UNL     1      87.212  23.948   0.954  1.00  0.00     0.244 C 
HETATM   12  O3  UNL     1      86.811  24.195   2.161  1.00  0.00    -0.272 OA
BRANCH  11  13
HETATM   13  C8  UNL     1      88.345  23.039   0.832  1.00  0.00     0.332 C 
BRANCH  13  14
HETATM   14  N8  UNL     1      88.330  21.860   1.642  1.00  0.00    -0.071 N 
ATOM     15  H83 UNL     1      87.508  21.875   2.247  1.00  0.00     0.274 HD
ATOM     16  H82 UNL     1      88.121  21.050   1.058  1.00  0.00     0.274 HD
ATOM     17  H81 UNL     1      89.160  21.668   2.203  1.00  0.00     0.274 HD
ENDBRANCH  13  14
ENDBRANCH  11  13
ENDBRANCH   8   9
ENDBRANCH   7   8
ENDBRANCH   6   7
ENDBRANCH   4   6
ENDBRANCH   1   4
BRANCH   1  18
HETATM   18  N3  UNL     1      80.621  26.307  -3.471  1.00  0.00    -0.300 N 
ATOM     19  H3  UNL     1      81.113  25.988  -4.305  1.00  0.00     0.173 HD
BRANCH  18  20
HETATM   20  C5  UNL     1      79.226  26.374  -3.487  1.00  0.00     0.185 C 
BRANCH  20  21
HETATM   21  C6  UNL     1      78.665  24.965  -3.726  1.00  0.00     0.311 C 
BRANCH  21  22
HETATM   22  N4  UNL     1      77.260  24.959  -3.402  1.00  0.00    -0.058 N 
ATOM     23  H43 UNL     1      76.974  25.797  -2.896  1.00  0.00     0.276 HD
ATOM     24  H42 UNL     1      76.671  25.081  -4.225  1.00  0.00     0.276 HD
ATOM     25  H41 UNL     1      77.042  24.103  -2.892  1.00  0.00     0.276 HD
ENDBRANCH  21  22
BRANCH  21  26
HETATM   26  N5  UNL     1      79.429  24.073  -2.882  1.00  0.00    -0.092 NA
BRANCH  26  27
HETATM   27  N6  UNL     1      79.075  24.155  -1.549  1.00  0.00    -0.037 NA
BRANCH  27  28
HETATM   28  N7  UNL     1      78.701  22.928  -1.004  1.00  0.00    -0.332 N 
ATOM     29  H72 UNL     1      78.744  22.056  -1.532  1.00  0.00     0.173 HD
ATOM     30  H71 UNL     1      78.385  22.998  -0.036  1.00  0.00     0.173 HD
ENDBRANCH  27  28
ENDBRANCH  26  27
ENDBRANCH  21  26
ENDBRANCH  20  21
ENDBRANCH  18  20
ENDBRANCH   1  18
TORSDOF 14
ENDMDL
MODEL 2
REMARK VINA RESULT: -7.295990486      1.349      2.098
REMARK  14 active torsions:
REMARK  status: ('A' for Active; 'I' for Inactive)
REMARK    1  A    between atoms: N1_2  and  C2_3 
REMARK       I    between atoms: N1_2  and  C7_24 
REMARK    2  A    between atoms: C2_3  and  C3_4 
REMARK    3  A    between atoms: C3_4  and  C4_5 
REMARK    4  A    between atoms: C4_5  and  N2_6 
REMARK    5  A    between atoms: N2_6  and  S1_8 
REMARK    6  A    between atoms: S1_8  and  N3_11 
REMARK    7  A    between atoms: N3_11  and  C5_13 
REMARK    8  A    between atoms: C5_13  and  C6_14 
REMARK    9  A    between atoms: C6_14  and  N4_15 
REMARK   10  A    between atoms: C6_14  and  N5_19 
REMARK   11  A    between atoms: N5_19  and  N6_20 
REMARK   12  A    between atoms: N6_20  and  N7_21 
REMARK   13  A    between atoms: C7_24  and  C8_26 
REMARK   14  A    between atoms: C8_26  and  N8_27 
ROOT
HETATM    1  S1  UNL     1      81.364  26.638  -2.282  1.00  0.00     0.315 S 
HETATM    2  O1  UNL     1      80.449  27.284  -1.252  1.00  0.00    -0.183 OA
HETATM    3  O2  UNL     1      82.461  27.665  -2.519  1.00  0.00    -0.183 OA
ENDROOT
BRANCH   1   4
HETATM    4  N2  UNL     1      82.029  25.229  -1.547  1.00  0.00    -0.303 N 
ATOM      5  H2  UNL     1      81.858  24.266  -1.834  1.00  0.00     0.173 HD
BRANCH   4   6
HETATM    6  C4  UNL     1      82.874  25.653  -0.451  1.00  0.00     0.135 C 
BRANCH   6   7
HETATM    7  C3  UNL     1      83.988  24.668  -0.179  1.00  0.00     0.040 C 
BRANCH   7   8
HETATM    8  C2  UNL     1      85.237  25.352   0.321  1.00  0.00     0.127 C 
BRANCH   8   9
HETATM    9  N1  UNL     1      86.418  24.547  -0.083  1.00  0.00    -0.355 N 
HETATM   10  C1  UNL     1      86.772  24.448  -1.473  1.00  0.00     0.152 C 
HETATM   11  C7  UNL     1      87.105  23.931   0.980  1.00  0.00     0.244 C 
HETATM   12  O3  UNL     1      86.686  24.097   2.194  1.00  0.00    -0.272 OA
BRANCH  11  13
HETATM   13  C8  UNL     1      88.290  23.096   0.822  1.00  0.00     0.332 C 
BRANCH  13  14
HETATM   14  N8  UNL     1      88.389  21.936   1.653  1.00  0.00    -0.071 N 
ATOM     15  H83 UNL     1      87.457  21.665   1.970  1.00  0.00     0.274 HD
ATOM     16  H82 UNL     1      88.637  21.129   1.081  1.00  0.00     0.274 HD
ATOM     17  H81 UNL     1      89.016  21.989   2.456  1.00  0.00     0.274 HD
ENDBRANCH  13  14
ENDBRANCH  11  13
ENDBRANCH   8   9
ENDBRANCH   7   8
ENDBRANCH   6   7
ENDBRANCH   4   6
ENDBRANCH   1   4
BRANCH   1  18
HETATM   18  N3  UNL     1      80.561  26.276  -3.682  1.00  0.00    -0.300 N 
ATOM     19  H3  UNL     1      80.947  26.589  -4.573  1.00  0.00     0.173 HD
BRANCH  18  20
HETATM   20  C5  UNL     1      79.367  25.552  -3.674  1.00  0.00     0.185 C 
BRANCH  20  21
HETATM   21  C6  UNL     1      78.198  26.528  -3.481  1.00  0.00     0.311 C 
BRANCH  21  22
HETATM   22  N4  UNL     1      76.959  25.792  -3.539  1.00  0.00    -0.058 N 
ATOM     23  H43 UNL     1      76.282  26.221  -4.169  1.00  0.00     0.276 HD
ATOM     24  H42 UNL     1      77.059  24.900  -4.023  1.00  0.00     0.276 HD
ATOM     25  H41 UNL     1      76.595  25.681  -2.593  1.00  0.00     0.276 HD
ENDBRANCH  21  22
BRANCH  21  26
HETATM   26  N5  UNL     1      78.306  27.508  -4.538  1.00  0.00    -0.092 NA
BRANCH  26  27
HETATM   27  N6  UNL     1      78.734  28.743  -4.090  1.00  0.00    -0.037 NA
BRANCH  27  28
HETATM   28  N7  UNL     1      78.436  28.973  -2.748  1.00  0.00    -0.332 N 
ATOM     29  H72 UNL     1      77.529  29.322  -2.439  1.00  0.00     0.173 HD
ATOM     30  H71 UNL     1      79.212  28.757  -2.122  1.00  0.00     0.173 HD
ENDBRANCH  27  28
ENDBRANCH  26  27
ENDBRANCH  21  26
ENDBRANCH  20  21
ENDBRANCH  18  20
ENDBRANCH   1  18
TORSDOF 14
ENDMDL
MODEL 3
REMARK VINA RESULT: -7.248583557      2.603      8.115
REMARK  14 active torsions:
REMARK  status: ('A' for Active; 'I' for Inactive)
REMARK    1  A    between atoms: N1_2  and  C2_3 
REMARK       I    between atoms: N1_2  and  C7_24 
REMARK    2  A    between atoms: C2_3  and  C3_4 
REMARK    3  A    between atoms: C3_4  and  C4_5 
REMARK    4  A    between atoms: C4_5  and  N2_6 
REMARK    5  A    between atoms: N2_6  and  S1_8 
REMARK    6  A    between atoms: S1_8  and  N3_11 
REMARK    7  A    between atoms: N3_11  and  C5_13 
REMARK    8  A    between atoms: C5_13  and  C6_14 
REMARK    9  A    between atoms: C6_14  and  N4_15 
REMARK   10  A    between atoms: C6_14  and  N5_19 
REMARK   11  A    between atoms: N5_19  and  N6_20 
REMARK   12  A    between atoms: N6_20  and  N7_21 
REMARK   13  A    between atoms: C7_24  and  C8_26 
REMARK   14  A    between atoms: C8_26  and  N8_27 
ROOT
HETATM    1  S1  UNL     1      82.083  26.657  -1.590  1.00  0.00     0.315 S 
HETATM    2  O1  UNL     1      82.826  27.645  -2.478  1.00  0.00    -0.183 OA
HETATM    3  O2  UNL     1      81.219  27.526  -0.690  1.00  0.00    -0.183 OA
ENDROOT
BRANCH   1   4
HETATM    4  N2  UNL     1      81.084  25.709  -2.624  1.00  0.00    -0.303 N 
ATOM      5  H2  UNL     1      81.125  25.688  -3.642  1.00  0.00     0.173 HD
BRANCH   4   6
HETATM    6  C4  UNL     1      80.178  24.946  -1.794  1.00  0.00     0.135 C 
BRANCH   6   7
HETATM    7  C3  UNL     1      78.731  25.272  -2.084  1.00  0.00     0.040 C 
BRANCH   7   8
HETATM    8  C2  UNL     1      78.494  25.529  -3.552  1.00  0.00     0.127 C 
BRANCH   8   9
HETATM    9  N1  UNL     1      77.770  26.818  -3.701  1.00  0.00    -0.355 N 
HETATM   10  C1  UNL     1      76.378  26.898  -3.350  1.00  0.00     0.152 C 
HETATM   11  C7  UNL     1      78.549  27.881  -4.193  1.00  0.00     0.244 C 
HETATM   12  O3  UNL     1      79.798  27.682  -4.474  1.00  0.00    -0.272 OA
BRANCH  11  13
HETATM   13  C8  UNL     1      78.052  29.233  -4.420  1.00  0.00     0.332 C 
BRANCH  13  14
HETATM   14  N8  UNL     1      78.863  30.316  -3.954  1.00  0.00    -0.071 N 
ATOM     15  H83 UNL     1      78.331  31.185  -4.008  1.00  0.00     0.274 HD
ATOM     16  H82 UNL     1      78.990  30.233  -2.945  1.00  0.00     0.274 HD
ATOM     17  H81 UNL     1      79.770  30.445  -4.401  1.00  0.00     0.274 HD
ENDBRANCH  13  14
ENDBRANCH  11  13
ENDBRANCH   8   9
ENDBRANCH   7   8
ENDBRANCH   6   7
ENDBRANCH   4   6
ENDBRANCH   1   4
BRANCH   1  18
HETATM   18  N3  UNL     1      83.120  25.717  -0.709  1.00  0.00    -0.300 N 
ATOM     19  H3  UNL     1      83.062  24.701  -0.790  1.00  0.00     0.173 HD
BRANCH  18  20
HETATM   20  C5  UNL     1      84.073  26.280   0.143  1.00  0.00     0.185 C 
BRANCH  20  21
HETATM   21  C6  UNL     1      85.215  25.273   0.342  1.00  0.00     0.311 C 
BRANCH  21  22
HETATM   22  N4  UNL     1      85.935  25.614   1.544  1.00  0.00    -0.058 N 
ATOM     23  H43 UNL     1      85.462  26.334   2.090  1.00  0.00     0.276 HD
ATOM     24  H42 UNL     1      85.908  24.867   2.238  1.00  0.00     0.276 HD
ATOM     25  H41 UNL     1      86.889  25.878   1.295  1.00  0.00     0.276 HD
ENDBRANCH  21  22
BRANCH  21  26
HETATM   26  N5  UNL     1      86.044  25.358  -0.839  1.00  0.00    -0.092 NA
BRANCH  26  27
HETATM   27  N6  UNL     1      86.868  24.261  -1.002  1.00  0.00    -0.037 NA
BRANCH  27  28
HETATM   28  N7  UNL     1      87.050  23.905  -2.337  1.00  0.00    -0.332 N 
ATOM     29  H72 UNL     1      87.835  23.333  -2.651  1.00  0.00     0.173 HD
ATOM     30  H71 UNL     1      86.325  24.271  -2.953  1.00  0.00     0.173 HD
ENDBRANCH  27  28
ENDBRANCH  26  27
ENDBRANCH  21  26
ENDBRANCH  20  21
ENDBRANCH  18  20
ENDBRANCH   1  18
TORSDOF 14
ENDMDL
MODEL 4
REMARK VINA RESULT: -7.230523921      2.474      7.686
REMARK  14 active torsions:
REMARK  status: ('A' for Active; 'I' for Inactive)
REMARK    1  A    between atoms: N1_2  and  C2_3 
REMARK       I    between atoms: N1_2  and  C7_24 
REMARK    2  A    between atoms: C2_3  and  C3_4 
REMARK    3  A    between atoms: C3_4  and  C4_5 
REMARK    4  A    between atoms: C4_5  and  N2_6 
REMARK    5  A    between atoms: N2_6  and  S1_8 
REMARK    6  A    between atoms: S1_8  and  N3_11 
REMARK    7  A    between atoms: N3_11  and  C5_13 
REMARK    8  A    between atoms: C5_13  and  C6_14 
REMARK    9  A    between atoms: C6_14  and  N4_15 
REMARK   10  A    between atoms: C6_14  and  N5_19 
REMARK   11  A    between atoms: N5_19  and  N6_20 
REMARK   12  A    between atoms: N6_20  and  N7_21 
REMARK   13  A    between atoms: C7_24  and  C8_26 
REMARK   14  A    between atoms: C8_26  and  N8_27 
ROOT
HETATM    1  S1  UNL     1      82.883  26.656  -0.989  1.00  0.00     0.315 S 
HETATM    2  O1  UNL     1      82.814  27.491  -2.261  1.00  0.00    -0.183 OA
HETATM    3  O2  UNL     1      83.190  27.659   0.111  1.00  0.00    -0.183 OA
ENDROOT
BRANCH   1   4
HETATM    4  N2  UNL     1      81.315  25.983  -0.748  1.00  0.00    -0.303 N 
ATOM      5  H2  UNL     1      80.692  26.182   0.034  1.00  0.00     0.173 HD
BRANCH   4   6
HETATM    6  C4  UNL     1      81.038  25.087  -1.849  1.00  0.00     0.135 C 
BRANCH   6   7
HETATM    7  C3  UNL     1      79.556  24.878  -2.053  1.00  0.00     0.040 C 
BRANCH   7   8
HETATM    8  C2  UNL     1      78.771  26.148  -1.831  1.00  0.00     0.127 C 
BRANCH   8   9
HETATM    9  N1  UNL     1      78.923  27.020  -3.023  1.00  0.00    -0.355 N 
HETATM   10  C1  UNL     1      78.546  26.525  -4.320  1.00  0.00     0.152 C 
HETATM   11  C7  UNL     1      79.444  28.300  -2.759  1.00  0.00     0.244 C 
HETATM   12  O3  UNL     1      79.746  28.628  -1.543  1.00  0.00    -0.272 OA
BRANCH  11  13
HETATM   13  C8  UNL     1      79.679  29.321  -3.773  1.00  0.00     0.332 C 
BRANCH  13  14
HETATM   14  N8  UNL     1      78.642  30.283  -3.986  1.00  0.00    -0.071 N 
ATOM     15  H83 UNL     1      78.605  30.526  -4.977  1.00  0.00     0.274 HD
ATOM     16  H82 UNL     1      77.734  29.834  -3.866  1.00  0.00     0.274 HD
ATOM     17  H81 UNL     1      78.676  31.137  -3.429  1.00  0.00     0.274 HD
ENDBRANCH  13  14
ENDBRANCH  11  13
ENDBRANCH   8   9
ENDBRANCH   7   8
ENDBRANCH   6   7
ENDBRANCH   4   6
ENDBRANCH   1   4
BRANCH   1  18
HETATM   18  N3  UNL     1      84.045  25.483  -1.082  1.00  0.00    -0.300 N 
ATOM     19  H3  UNL     1      84.574  25.373  -1.947  1.00  0.00     0.173 HD
BRANCH  18  20
HETATM   20  C5  UNL     1      84.319  24.639  -0.003  1.00  0.00     0.185 C 
BRANCH  20  21
HETATM   21  C6  UNL     1      85.750  24.910   0.484  1.00  0.00     0.311 C 
BRANCH  21  22
HETATM   22  N4  UNL     1      85.724  25.991   1.437  1.00  0.00    -0.058 N 
ATOM     23  H43 UNL     1      85.685  26.905   0.987  1.00  0.00     0.276 HD
ATOM     24  H42 UNL     1      84.839  26.043   1.942  1.00  0.00     0.276 HD
ATOM     25  H41 UNL     1      86.524  25.900   2.064  1.00  0.00     0.276 HD
ENDBRANCH  21  22
BRANCH  21  26
HETATM   26  N5  UNL     1      86.528  25.231  -0.691  1.00  0.00    -0.092 NA
BRANCH  26  27
HETATM   27  N6  UNL     1      87.307  24.178  -1.130  1.00  0.00    -0.037 NA
BRANCH  27  28
HETATM   28  N7  UNL     1      87.069  23.835  -2.459  1.00  0.00    -0.332 N 
ATOM     29  H72 UNL     1      86.155  23.528  -2.792  1.00  0.00     0.173 HD
ATOM     30  H71 UNL     1      87.895  23.924  -3.051  1.00  0.00     0.173 HD
ENDBRANCH  27  28
ENDBRANCH  26  27
ENDBRANCH  21  26
ENDBRANCH  20  21
ENDBRANCH  18  20
ENDBRANCH   1  18
TORSDOF 14
ENDMDL
MODEL 5
REMARK VINA RESULT: -7.216854440      2.611      8.349
REMARK  14 active torsions:
REMARK  status: ('A' for Active; 'I' for Inactive)
REMARK    1  A    between atoms: N1_2  and  C2_3 
REMARK       I    between atoms: N1_2  and  C7_24 
REMARK    2  A    between atoms: C2_3  and  C3_4 
REMARK    3  A    between atoms: C3_4  and  C4_5 
REMARK    4  A    between atoms: C4_5  and  N2_6 
REMARK    5  A    between atoms: N2_6  and  S1_8 
REMARK    6  A    between atoms: S1_8  and  N3_11 
REMARK    7  A    between atoms: N3_11  and  C5_13 
REMARK    8  A    between atoms: C5_13  and  C6_14 
REMARK    9  A    between atoms: C6_14  and  N4_15 
REMARK   10  A    between atoms: C6_14  and  N5_19 
REMARK   11  A    between atoms: N5_19  and  N6_20 
REMARK   12  A    between atoms: N6_20  and  N7_21 
REMARK   13  A    between atoms: C7_24  and  C8_26 
REMARK   14  A    between atoms: C8_26  and  N8_27 
ROOT
HETATM    1  S1  UNL     1      82.847  26.672  -1.021  1.00  0.00     0.315 S 
HETATM    2  O1  UNL     1      82.677  27.343  -2.378  1.00  0.00    -0.183 OA
HETATM    3  O2  UNL     1      82.806  27.816  -0.020  1.00  0.00    -0.183 OA
ENDROOT
BRANCH   1   4
HETATM    4  N2  UNL     1      81.482  25.646  -0.796  1.00  0.00    -0.303 N 
ATOM      5  H2  UNL     1      81.206  25.199   0.078  1.00  0.00     0.173 HD
BRANCH   4   6
HETATM    6  C4  UNL     1      80.794  25.532  -2.063  1.00  0.00     0.135 C 
BRANCH   6   7
HETATM    7  C3  UNL     1      79.312  25.799  -1.931  1.00  0.00     0.040 C 
BRANCH   7   8
HETATM    8  C2  UNL     1      79.003  27.276  -1.931  1.00  0.00     0.127 C 
BRANCH   8   9
HETATM    9  N1  UNL     1      77.892  27.533  -2.883  1.00  0.00    -0.355 N 
HETATM   10  C1  UNL     1      76.653  26.817  -2.741  1.00  0.00     0.152 C 
HETATM   11  C7  UNL     1      78.171  28.491  -3.874  1.00  0.00     0.244 C 
HETATM   12  O3  UNL     1      79.330  29.069  -3.897  1.00  0.00    -0.272 OA
BRANCH  11  13
HETATM   13  C8  UNL     1      77.233  28.903  -4.912  1.00  0.00     0.332 C 
BRANCH  13  14
HETATM   14  N8  UNL     1      76.971  27.972  -5.966  1.00  0.00    -0.071 N 
ATOM     15  H83 UNL     1      77.449  27.092  -5.767  1.00  0.00     0.274 HD
ATOM     16  H82 UNL     1      75.997  27.673  -5.920  1.00  0.00     0.274 HD
ATOM     17  H81 UNL     1      77.190  28.268  -6.916  1.00  0.00     0.274 HD
ENDBRANCH  13  14
ENDBRANCH  11  13
ENDBRANCH   8   9
ENDBRANCH   7   8
ENDBRANCH   6   7
ENDBRANCH   4   6
ENDBRANCH   1   4
BRANCH   1  18
HETATM   18  N3  UNL     1      84.268  25.831  -0.922  1.00  0.00    -0.300 N 
ATOM     19  H3  UNL     1      85.059  26.120  -1.497  1.00  0.00     0.173 HD
BRANCH  18  20
HETATM   20  C5  UNL     1      84.410  24.734  -0.068  1.00  0.00     0.185 C 
BRANCH  20  21
HETATM   21  C6  UNL     1      85.870  24.655   0.397  1.00  0.00     0.311 C 
BRANCH  21  22
HETATM   22  N4  UNL     1      86.021  25.434   1.601  1.00  0.00    -0.058 N 
ATOM     23  H43 UNL     1      85.142  25.545   2.105  1.00  0.00     0.276 HD
ATOM     24  H42 UNL     1      86.539  24.936   2.324  1.00  0.00     0.276 HD
ATOM     25  H41 UNL     1      86.449  26.330   1.364  1.00  0.00     0.276 HD
ENDBRANCH  21  22
BRANCH  21  26
HETATM   26  N5  UNL     1      86.674  25.164  -0.692  1.00  0.00    -0.092 NA
BRANCH  26  27
HETATM   27  N6  UNL     1      87.475  24.198  -1.271  1.00  0.00    -0.037 NA
BRANCH  27  28
HETATM   28  N7  UNL     1      87.001  23.759  -2.506  1.00  0.00    -0.332 N 
ATOM     29  H72 UNL     1      86.355  24.309  -3.073  1.00  0.00     0.173 HD
ATOM     30  H71 UNL     1      87.365  22.845  -2.774  1.00  0.00     0.173 HD
ENDBRANCH  27  28
ENDBRANCH  26  27
ENDBRANCH  21  26
ENDBRANCH  20  21
ENDBRANCH  18  20
ENDBRANCH   1  18
TORSDOF 14
ENDMDL
