MODEL 1
REMARK VINA RESULT: -7.070978053      0.000      0.000
REMARK  15 active torsions:
REMARK  status: ('A' for Active; 'I' for Inactive)
REMARK    1  A    between atoms: C1_4  and  N2_5 
REMARK    2  A    between atoms: N2_5  and  C2_7 
REMARK    3  A    between atoms: C2_7  and  N3_8 
REMARK    4  A    between atoms: N3_8  and  C3_9 
REMARK    5  A    between atoms: N3_8  and  C5_13 
REMARK    6  A    between atoms: C3_9  and  C4_10 
REMARK    7  A    between atoms: C4_10  and  O1_11 
REMARK    8  A    between atoms: C5_13  and  C6_14 
REMARK    9  A    between atoms: C5_13  and  N5_19 
REMARK   10  A    between atoms: C6_14  and  N4_15 
REMARK   11  A    between atoms: C8_21  and  N6_22 
REMARK   12  A    between atoms: C9_26  and  C10_27 
REMARK       I    between atoms: C10_27  and  N7_29 
REMARK   13  A    between atoms: N7_29  and  C11_31 
REMARK   14  A    between atoms: C11_31  and  C12_32 
REMARK   15  A    between atoms: C12_32  and  O3_33 
ROOT
HETATM    1  C5  UNL     1      79.200  27.828  -2.786  1.00  0.00     0.351 C 
ENDROOT
BRANCH   1   2
HETATM    2  N3  UNL     1      78.649  28.152  -4.033  1.00  0.00    -0.344 N 
BRANCH   2   3
HETATM    3  C2  UNL     1      77.771  27.282  -4.689  1.00  0.00     0.181 C 
BRANCH   3   4
HETATM    4  N2  UNL     1      76.385  27.611  -4.728  1.00  0.00    -0.349 N 
ATOM      5  H2  UNL     1      76.029  28.283  -5.407  1.00  0.00     0.167 HD
BRANCH   4   6
HETATM    6  C1  UNL     1      75.512  26.983  -3.801  1.00  0.00     0.174 C 
HETATM    7  N1  UNL     1      75.682  25.788  -3.360  1.00  0.00    -0.395 N 
ATOM      8  H12 UNL     1      76.495  25.277  -3.703  1.00  0.00     0.156 HD
ATOM      9  H11 UNL     1      75.055  25.338  -2.694  1.00  0.00     0.156 HD
ENDBRANCH   4   6
ENDBRANCH   3   4
ENDBRANCH   2   3
BRANCH   2  10
HETATM   10  C3  UNL     1      78.437  29.547  -4.281  1.00  0.00     0.151 C 
BRANCH  10  11
HETATM   11  C4  UNL     1      79.657  30.337  -3.919  1.00  0.00     0.183 C 
BRANCH  11  12
HETATM   12  O1  UNL     1      80.736  30.157  -4.759  1.00  0.00    -0.399 OA
ATOM     13  H1  UNL     1      81.138  29.298  -4.713  1.00  0.00     0.209 HD
ENDBRANCH  11  12
ENDBRANCH  10  11
ENDBRANCH   2  10
ENDBRANCH   1   2
BRANCH   1  14
HETATM   14  C6  UNL     1      78.288  27.796  -1.594  1.00  0.00     0.286 C 
BRANCH  14  15
HETATM   15  N4  UNL     1      78.334  28.927  -0.736  1.00  0.00    -0.076 N 
ATOM     16  H43 UNL     1      79.028  28.776  -0.004  1.00  0.00     0.274 HD
ATOM     17  H42 UNL     1      78.754  29.716  -1.228  1.00  0.00     0.274 HD
ATOM     18  H41 UNL     1      77.449  29.213  -0.317  1.00  0.00     0.274 HD
ENDBRANCH  14  15
ENDBRANCH   1  14
BRANCH   1  19
HETATM   19  N5  UNL     1      79.902  26.544  -2.913  1.00  0.00     0.131 N 
HETATM   20  C7  UNL     1      81.264  26.707  -2.461  1.00  0.00     0.311 C 
HETATM   21  C8  UNL     1      81.187  25.254  -2.002  1.00  0.00     0.254 C 
HETATM   22  C9  UNL     1      79.716  25.620  -1.841  1.00  0.00     0.348 C 
BRANCH  21  23
HETATM   23  N6  UNL     1      81.871  24.957  -0.773  1.00  0.00    -0.071 N 
ATOM     24  H63 UNL     1      82.541  24.202  -0.920  1.00  0.00     0.274 HD
ATOM     25  H62 UNL     1      82.506  25.719  -0.534  1.00  0.00     0.274 HD
ATOM     26  H61 UNL     1      81.269  24.741   0.022  1.00  0.00     0.274 HD
ENDBRANCH  21  23
BRANCH  22  27
HETATM   27  C10 UNL     1      78.874  24.427  -2.138  1.00  0.00     0.253 C 
HETATM   28  O2  UNL     1      78.264  24.330  -3.231  1.00  0.00    -0.271 OA
HETATM   29  N7  UNL     1      78.733  23.369  -1.204  1.00  0.00    -0.357 N 
ATOM     30  H7  UNL     1      79.233  23.453  -0.319  1.00  0.00     0.162 HD
BRANCH  29  31
HETATM   31  C11 UNL     1      77.938  22.185  -1.412  1.00  0.00     0.148 C 
BRANCH  31  32
HETATM   32  C12 UNL     1      78.084  21.138  -0.358  1.00  0.00     0.183 C 
BRANCH  32  33
HETATM   33  O3  UNL     1      78.763  20.016  -0.840  1.00  0.00    -0.399 OA
ATOM     34  H3  UNL     1      78.305  19.212  -0.623  1.00  0.00     0.209 HD
ENDBRANCH  32  33
ENDBRANCH  31  32
ENDBRANCH  29  31
ENDBRANCH  22  27
ENDBRANCH   1  19
TORSDOF 15
ENDMDL
MODEL 2
REMARK VINA RESULT: -6.976706773      1.144      1.245
REMARK  15 active torsions:
REMARK  status: ('A' for Active; 'I' for Inactive)
REMARK    1  A    between atoms: C1_4  and  N2_5 
REMARK    2  A    between atoms: N2_5  and  C2_7 
REMARK    3  A    between atoms: C2_7  and  N3_8 
REMARK    4  A    between atoms: N3_8  and  C3_9 
REMARK    5  A    between atoms: N3_8  and  C5_13 
REMARK    6  A    between atoms: C3_9  and  C4_10 
REMARK    7  A    between atoms: C4_10  and  O1_11 
REMARK    8  A    between atoms: C5_13  and  C6_14 
REMARK    9  A    between atoms: C5_13  and  N5_19 
REMARK   10  A    between atoms: C6_14  and  N4_15 
REMARK   11  A    between atoms: C8_21  and  N6_22 
REMARK   12  A    between atoms: C9_26  and  C10_27 
REMARK       I    between atoms: C10_27  and  N7_29 
REMARK   13  A    between atoms: N7_29  and  C11_31 
REMARK   14  A    between atoms: C11_31  and  C12_32 
REMARK   15  A    between atoms: C12_32  and  O3_33 
ROOT
HETATM    1  C5  UNL     1      79.241  27.975  -2.792  1.00  0.00     0.351 C 
ENDROOT
BRANCH   1   2
HETATM    2  N3  UNL     1      78.659  28.233  -4.041  1.00  0.00    -0.344 N 
BRANCH   2   3
HETATM    3  C2  UNL     1      77.787  27.319  -4.641  1.00  0.00     0.181 C 
BRANCH   3   4
HETATM    4  N2  UNL     1      76.401  27.641  -4.708  1.00  0.00    -0.349 N 
ATOM      5  H2  UNL     1      76.058  28.331  -5.377  1.00  0.00     0.167 HD
BRANCH   4   6
HETATM    6  C1  UNL     1      75.506  26.983  -3.825  1.00  0.00     0.174 C 
HETATM    7  N1  UNL     1      75.692  25.790  -3.382  1.00  0.00    -0.395 N 
ATOM      8  H12 UNL     1      76.534  25.305  -3.692  1.00  0.00     0.156 HD
ATOM      9  H11 UNL     1      75.049  25.317  -2.747  1.00  0.00     0.156 HD
ENDBRANCH   4   6
ENDBRANCH   3   4
ENDBRANCH   2   3
BRANCH   2  10
HETATM   10  C3  UNL     1      78.415  29.613  -4.345  1.00  0.00     0.151 C 
BRANCH  10  11
HETATM   11  C4  UNL     1      79.613  30.446  -4.008  1.00  0.00     0.183 C 
BRANCH  11  12
HETATM   12  O1  UNL     1      80.743  30.162  -4.747  1.00  0.00    -0.399 OA
ATOM     13  H1  UNL     1      81.473  30.752  -4.603  1.00  0.00     0.209 HD
ENDBRANCH  11  12
ENDBRANCH  10  11
ENDBRANCH   2  10
ENDBRANCH   1   2
BRANCH   1  14
HETATM   14  C6  UNL     1      78.335  27.823  -1.605  1.00  0.00     0.286 C 
BRANCH  14  15
HETATM   15  N4  UNL     1      78.320  28.904  -0.683  1.00  0.00    -0.076 N 
ATOM     16  H43 UNL     1      79.261  29.285  -0.583  1.00  0.00     0.274 HD
ATOM     17  H42 UNL     1      77.840  29.703  -1.097  1.00  0.00     0.274 HD
ATOM     18  H41 UNL     1      77.928  28.707   0.238  1.00  0.00     0.274 HD
ENDBRANCH  14  15
ENDBRANCH   1  14
BRANCH   1  19
HETATM   19  N5  UNL     1      80.100  26.790  -2.921  1.00  0.00     0.131 N 
HETATM   20  C7  UNL     1      81.363  27.053  -2.272  1.00  0.00     0.311 C 
HETATM   21  C8  UNL     1      81.397  25.563  -1.944  1.00  0.00     0.254 C 
HETATM   22  C9  UNL     1      79.885  25.755  -1.961  1.00  0.00     0.348 C 
BRANCH  21  23
HETATM   23  N6  UNL     1      81.946  25.226  -0.660  1.00  0.00    -0.071 N 
ATOM     24  H63 UNL     1      82.844  25.693  -0.530  1.00  0.00     0.274 HD
ATOM     25  H62 UNL     1      81.402  25.670   0.080  1.00  0.00     0.274 HD
ATOM     26  H61 UNL     1      82.042  24.228  -0.473  1.00  0.00     0.274 HD
ENDBRANCH  21  23
BRANCH  22  27
HETATM   27  C10 UNL     1      79.235  24.513  -2.465  1.00  0.00     0.253 C 
HETATM   28  O2  UNL     1      79.253  24.232  -3.690  1.00  0.00    -0.271 OA
HETATM   29  N7  UNL     1      78.577  23.614  -1.589  1.00  0.00    -0.357 N 
ATOM     30  H7  UNL     1      78.566  23.846  -0.597  1.00  0.00     0.162 HD
BRANCH  29  31
HETATM   31  C11 UNL     1      77.921  22.396  -1.996  1.00  0.00     0.148 C 
BRANCH  31  32
HETATM   32  C12 UNL     1      76.600  22.586  -2.664  1.00  0.00     0.183 C 
BRANCH  32  33
HETATM   33  O3  UNL     1      76.742  22.745  -4.045  1.00  0.00    -0.399 OA
ATOM     34  H3  UNL     1      75.905  22.901  -4.466  1.00  0.00     0.209 HD
ENDBRANCH  32  33
ENDBRANCH  31  32
ENDBRANCH  29  31
ENDBRANCH  22  27
ENDBRANCH   1  19
TORSDOF 15
ENDMDL
MODEL 3
REMARK VINA RESULT: -6.851551324      1.478      1.722
REMARK  15 active torsions:
REMARK  status: ('A' for Active; 'I' for Inactive)
REMARK    1  A    between atoms: C1_4  and  N2_5 
REMARK    2  A    between atoms: N2_5  and  C2_7 
REMARK    3  A    between atoms: C2_7  and  N3_8 
REMARK    4  A    between atoms: N3_8  and  C3_9 
REMARK    5  A    between atoms: N3_8  and  C5_13 
REMARK    6  A    between atoms: C3_9  and  C4_10 
REMARK    7  A    between atoms: C4_10  and  O1_11 
REMARK    8  A    between atoms: C5_13  and  C6_14 
REMARK    9  A    between atoms: C5_13  and  N5_19 
REMARK   10  A    between atoms: C6_14  and  N4_15 
REMARK   11  A    between atoms: C8_21  and  N6_22 
REMARK   12  A    between atoms: C9_26  and  C10_27 
REMARK       I    between atoms: C10_27  and  N7_29 
REMARK   13  A    between atoms: N7_29  and  C11_31 
REMARK   14  A    between atoms: C11_31  and  C12_32 
REMARK   15  A    between atoms: C12_32  and  O3_33 
ROOT
HETATM    1  C5  UNL     1      78.865  27.647  -2.525  1.00  0.00     0.351 C 
ENDROOT
BRANCH   1   2
HETATM    2  N3  UNL     1      77.727  27.591  -3.341  1.00  0.00    -0.344 N 
BRANCH   2   3
HETATM    3  C2  UNL     1      76.549  26.974  -2.908  1.00  0.00     0.181 C 
BRANCH   3   4
HETATM    4  N2  UNL     1      76.101  25.805  -3.588  1.00  0.00    -0.349 N 
ATOM      5  H2  UNL     1      76.391  25.617  -4.547  1.00  0.00     0.167 HD
BRANCH   4   6
HETATM    6  C1  UNL     1      75.242  24.906  -2.902  1.00  0.00     0.174 C 
HETATM    7  N1  UNL     1      75.380  23.628  -2.930  1.00  0.00    -0.395 N 
ATOM      8  H12 UNL     1      76.155  23.256  -3.480  1.00  0.00     0.156 HD
ATOM      9  H11 UNL     1      74.764  22.983  -2.437  1.00  0.00     0.156 HD
ENDBRANCH   4   6
ENDBRANCH   3   4
ENDBRANCH   2   3
BRANCH   2  10
HETATM   10  C3  UNL     1      77.553  28.687  -4.249  1.00  0.00     0.151 C 
BRANCH  10  11
HETATM   11  C4  UNL     1      77.428  28.190  -5.656  1.00  0.00     0.183 C 
BRANCH  11  12
HETATM   12  O1  UNL     1      76.167  27.753  -6.006  1.00  0.00    -0.399 OA
ATOM     13  H1  UNL     1      76.138  26.887  -6.393  1.00  0.00     0.209 HD
ENDBRANCH  11  12
ENDBRANCH  10  11
ENDBRANCH   2  10
ENDBRANCH   1   2
BRANCH   1  14
HETATM   14  C6  UNL     1      78.670  27.813  -1.046  1.00  0.00     0.286 C 
BRANCH  14  15
HETATM   15  N4  UNL     1      78.320  29.116  -0.600  1.00  0.00    -0.076 N 
ATOM     16  H43 UNL     1      78.915  29.383   0.185  1.00  0.00     0.274 HD
ATOM     17  H42 UNL     1      78.609  29.807  -1.293  1.00  0.00     0.274 HD
ATOM     18  H41 UNL     1      77.341  29.263  -0.356  1.00  0.00     0.274 HD
ENDBRANCH  14  15
ENDBRANCH   1  14
BRANCH   1  19
HETATM   19  N5  UNL     1      79.679  26.453  -2.790  1.00  0.00     0.131 N 
HETATM   20  C7  UNL     1      81.056  26.742  -2.459  1.00  0.00     0.311 C 
HETATM   21  C8  UNL     1      81.174  25.269  -2.079  1.00  0.00     0.254 C 
HETATM   22  C9  UNL     1      79.696  25.466  -1.760  1.00  0.00     0.348 C 
BRANCH  21  23
HETATM   23  N6  UNL     1      82.004  24.991  -0.939  1.00  0.00    -0.071 N 
ATOM     24  H63 UNL     1      82.987  25.019  -1.208  1.00  0.00     0.274 HD
ATOM     25  H62 UNL     1      81.973  25.773  -0.285  1.00  0.00     0.274 HD
ATOM     26  H61 UNL     1      81.799  24.118  -0.451  1.00  0.00     0.274 HD
ENDBRANCH  21  23
BRANCH  22  27
HETATM   27  C10 UNL     1      78.957  24.204  -2.044  1.00  0.00     0.253 C 
HETATM   28  O2  UNL     1      78.509  23.969  -3.194  1.00  0.00    -0.271 OA
HETATM   29  N7  UNL     1      78.734  23.234  -1.035  1.00  0.00    -0.357 N 
ATOM     30  H7  UNL     1      79.101  23.429  -0.104  1.00  0.00     0.162 HD
BRANCH  29  31
HETATM   31  C11 UNL     1      78.027  21.992  -1.225  1.00  0.00     0.148 C 
BRANCH  31  32
HETATM   32  C12 UNL     1      78.119  21.035  -0.083  1.00  0.00     0.183 C 
BRANCH  32  33
HETATM   33  O3  UNL     1      79.058  20.031  -0.330  1.00  0.00    -0.399 OA
ATOM     34  H3  UNL     1      79.236  19.520   0.452  1.00  0.00     0.209 HD
ENDBRANCH  32  33
ENDBRANCH  31  32
ENDBRANCH  29  31
ENDBRANCH  22  27
ENDBRANCH   1  19
TORSDOF 15
ENDMDL
MODEL 4
REMARK VINA RESULT: -6.740610141      2.299      3.259
REMARK  15 active torsions:
REMARK  status: ('A' for Active; 'I' for Inactive)
REMARK    1  A    between atoms: C1_4  and  N2_5 
REMARK    2  A    between atoms: N2_5  and  C2_7 
REMARK    3  A    between atoms: C2_7  and  N3_8 
REMARK    4  A    between atoms: N3_8  and  C3_9 
REMARK    5  A    between atoms: N3_8  and  C5_13 
REMARK    6  A    between atoms: C3_9  and  C4_10 
REMARK    7  A    between atoms: C4_10  and  O1_11 
REMARK    8  A    between atoms: C5_13  and  C6_14 
REMARK    9  A    between atoms: C5_13  and  N5_19 
REMARK   10  A    between atoms: C6_14  and  N4_15 
REMARK   11  A    between atoms: C8_21  and  N6_22 
REMARK   12  A    between atoms: C9_26  and  C10_27 
REMARK       I    between atoms: C10_27  and  N7_29 
REMARK   13  A    between atoms: N7_29  and  C11_31 
REMARK   14  A    between atoms: C11_31  and  C12_32 
REMARK   15  A    between atoms: C12_32  and  O3_33 
ROOT
HETATM    1  C5  UNL     1      78.368  27.499  -2.680  1.00  0.00     0.351 C 
ENDROOT
BRANCH   1   2
HETATM    2  N3  UNL     1      77.265  27.570  -3.540  1.00  0.00    -0.344 N 
BRANCH   2   3
HETATM    3  C2  UNL     1      77.418  27.869  -4.898  1.00  0.00     0.181 C 
BRANCH   3   4
HETATM    4  N2  UNL     1      78.297  28.927  -5.270  1.00  0.00    -0.349 N 
ATOM      5  H2  UNL     1      78.810  28.892  -6.151  1.00  0.00     0.167 HD
BRANCH   4   6
HETATM    6  C1  UNL     1      78.445  30.030  -4.388  1.00  0.00     0.174 C 
HETATM    7  N1  UNL     1      79.582  30.539  -4.071  1.00  0.00    -0.395 N 
ATOM      8  H12 UNL     1      80.413  30.116  -4.485  1.00  0.00     0.156 HD
ATOM      9  H11 UNL     1      79.689  31.331  -3.438  1.00  0.00     0.156 HD
ENDBRANCH   4   6
ENDBRANCH   3   4
ENDBRANCH   2   3
BRANCH   2  10
HETATM   10  C3  UNL     1      76.161  26.715  -3.215  1.00  0.00     0.151 C 
BRANCH  10  11
HETATM   11  C4  UNL     1      74.975  27.039  -4.070  1.00  0.00     0.183 C 
BRANCH  11  12
HETATM   12  O1  UNL     1      73.918  26.161  -3.952  1.00  0.00    -0.399 OA
ATOM     13  H1  UNL     1      73.833  25.751  -3.100  1.00  0.00     0.209 HD
ENDBRANCH  11  12
ENDBRANCH  10  11
ENDBRANCH   2  10
ENDBRANCH   1   2
BRANCH   1  14
HETATM   14  C6  UNL     1      78.123  27.576  -1.201  1.00  0.00     0.286 C 
BRANCH  14  15
HETATM   15  N4  UNL     1      78.202  28.869  -0.617  1.00  0.00    -0.076 N 
ATOM     16  H43 UNL     1      78.826  29.458  -1.169  1.00  0.00     0.274 HD
ATOM     17  H42 UNL     1      77.318  29.362  -0.750  1.00  0.00     0.274 HD
ATOM     18  H41 UNL     1      78.473  28.906   0.365  1.00  0.00     0.274 HD
ENDBRANCH  14  15
ENDBRANCH   1  14
BRANCH   1  19
HETATM   19  N5  UNL     1      79.120  26.276  -2.998  1.00  0.00     0.131 N 
HETATM   20  C7  UNL     1      80.533  26.577  -2.982  1.00  0.00     0.311 C 
HETATM   21  C8  UNL     1      80.737  25.143  -2.503  1.00  0.00     0.254 C 
HETATM   22  C9  UNL     1      79.354  25.384  -1.908  1.00  0.00     0.348 C 
BRANCH  21  23
HETATM   23  N6  UNL     1      81.783  24.958  -1.536  1.00  0.00    -0.071 N 
ATOM     24  H63 UNL     1      82.691  25.136  -1.965  1.00  0.00     0.274 HD
ATOM     25  H62 UNL     1      81.759  25.709  -0.846  1.00  0.00     0.274 HD
ATOM     26  H61 UNL     1      81.791  24.052  -1.066  1.00  0.00     0.274 HD
ENDBRANCH  21  23
BRANCH  22  27
HETATM   27  C10 UNL     1      78.581  24.112  -1.921  1.00  0.00     0.253 C 
HETATM   28  O2  UNL     1      78.744  23.253  -1.018  1.00  0.00    -0.271 OA
HETATM   29  N7  UNL     1      77.642  23.826  -2.944  1.00  0.00    -0.357 N 
ATOM     30  H7  UNL     1      77.512  24.526  -3.673  1.00  0.00     0.162 HD
BRANCH  29  31
HETATM   31  C11 UNL     1      76.857  22.619  -3.032  1.00  0.00     0.148 C 
BRANCH  31  32
HETATM   32  C12 UNL     1      77.383  21.596  -3.985  1.00  0.00     0.183 C 
BRANCH  32  33
HETATM   33  O3  UNL     1      76.632  21.560  -5.162  1.00  0.00    -0.399 OA
ATOM     34  H3  UNL     1      76.729  22.362  -5.662  1.00  0.00     0.209 HD
ENDBRANCH  32  33
ENDBRANCH  31  32
ENDBRANCH  29  31
ENDBRANCH  22  27
ENDBRANCH   1  19
TORSDOF 15
ENDMDL
MODEL 5
REMARK VINA RESULT: -6.601069772      1.796      2.822
REMARK  15 active torsions:
REMARK  status: ('A' for Active; 'I' for Inactive)
REMARK    1  A    between atoms: C1_4  and  N2_5 
REMARK    2  A    between atoms: N2_5  and  C2_7 
REMARK    3  A    between atoms: C2_7  and  N3_8 
REMARK    4  A    between atoms: N3_8  and  C3_9 
REMARK    5  A    between atoms: N3_8  and  C5_13 
REMARK    6  A    between atoms: C3_9  and  C4_10 
REMARK    7  A    between atoms: C4_10  and  O1_11 
REMARK    8  A    between atoms: C5_13  and  C6_14 
REMARK    9  A    between atoms: C5_13  and  N5_19 
REMARK   10  A    between atoms: C6_14  and  N4_15 
REMARK   11  A    between atoms: C8_21  and  N6_22 
REMARK   12  A    between atoms: C9_26  and  C10_27 
REMARK       I    between atoms: C10_27  and  N7_29 
REMARK   13  A    between atoms: N7_29  and  C11_31 
REMARK   14  A    between atoms: C11_31  and  C12_32 
REMARK   15  A    between atoms: C12_32  and  O3_33 
ROOT
HETATM    1  C5  UNL     1      78.677  27.484  -2.477  1.00  0.00     0.351 C 
ENDROOT
BRANCH   1   2
HETATM    2  N3  UNL     1      77.618  27.490  -3.394  1.00  0.00    -0.344 N 
BRANCH   2   3
HETATM    3  C2  UNL     1      77.842  27.651  -4.766  1.00  0.00     0.181 C 
BRANCH   3   4
HETATM    4  N2  UNL     1      78.511  28.826  -5.214  1.00  0.00    -0.349 N 
ATOM      5  H2  UNL     1      79.041  28.823  -6.086  1.00  0.00     0.167 HD
BRANCH   4   6
HETATM    6  C1  UNL     1      78.425  30.002  -4.423  1.00  0.00     0.174 C 
HETATM    7  N1  UNL     1      79.450  30.662  -4.016  1.00  0.00    -0.395 N 
ATOM      8  H12 UNL     1      80.368  30.308  -4.286  1.00  0.00     0.156 HD
ATOM      9  H11 UNL     1      79.389  31.507  -3.448  1.00  0.00     0.156 HD
ENDBRANCH   4   6
ENDBRANCH   3   4
ENDBRANCH   2   3
BRANCH   2  10
HETATM   10  C3  UNL     1      76.482  26.689  -3.043  1.00  0.00     0.151 C 
BRANCH  10  11
HETATM   11  C4  UNL     1      75.300  27.053  -3.888  1.00  0.00     0.183 C 
BRANCH  11  12
HETATM   12  O1  UNL     1      74.249  26.161  -3.830  1.00  0.00    -0.399 OA
ATOM     13  H1  UNL     1      74.246  25.597  -3.067  1.00  0.00     0.209 HD
ENDBRANCH  11  12
ENDBRANCH  10  11
ENDBRANCH   2  10
ENDBRANCH   1   2
BRANCH   1  14
HETATM   14  C6  UNL     1      78.350  27.544  -1.013  1.00  0.00     0.286 C 
BRANCH  14  15
HETATM   15  N4  UNL     1      78.032  28.826  -0.492  1.00  0.00    -0.076 N 
ATOM     16  H43 UNL     1      78.800  29.472  -0.672  1.00  0.00     0.274 HD
ATOM     17  H42 UNL     1      77.296  29.254  -1.054  1.00  0.00     0.274 HD
ATOM     18  H41 UNL     1      77.776  28.862   0.495  1.00  0.00     0.274 HD
ENDBRANCH  14  15
ENDBRANCH   1  14
BRANCH   1  19
HETATM   19  N5  UNL     1      79.519  26.312  -2.754  1.00  0.00     0.131 N 
HETATM   20  C7  UNL     1      80.891  26.634  -2.436  1.00  0.00     0.311 C 
HETATM   21  C8  UNL     1      81.050  25.164  -2.061  1.00  0.00     0.254 C 
HETATM   22  C9  UNL     1      79.571  25.323  -1.726  1.00  0.00     0.348 C 
BRANCH  21  23
HETATM   23  N6  UNL     1      81.898  24.904  -0.930  1.00  0.00    -0.071 N 
ATOM     24  H63 UNL     1      81.508  24.148  -0.368  1.00  0.00     0.274 HD
ATOM     25  H62 UNL     1      82.768  24.470  -1.238  1.00  0.00     0.274 HD
ATOM     26  H61 UNL     1      82.100  25.711  -0.339  1.00  0.00     0.274 HD
ENDBRANCH  21  23
BRANCH  22  27
HETATM   27  C10 UNL     1      78.861  24.044  -2.005  1.00  0.00     0.253 C 
HETATM   28  O2  UNL     1      78.461  23.774  -3.165  1.00  0.00    -0.271 OA
HETATM   29  N7  UNL     1      78.612  23.096  -0.981  1.00  0.00    -0.357 N 
ATOM     30  H7  UNL     1      78.941  23.320  -0.042  1.00  0.00     0.162 HD
BRANCH  29  31
HETATM   31  C11 UNL     1      77.930  21.839  -1.166  1.00  0.00     0.148 C 
BRANCH  31  32
HETATM   32  C12 UNL     1      78.295  20.776  -0.184  1.00  0.00     0.183 C 
BRANCH  32  33
HETATM   33  O3  UNL     1      78.140  21.219   1.132  1.00  0.00    -0.399 OA
ATOM     34  H3  UNL     1      78.483  20.587   1.755  1.00  0.00     0.209 HD
ENDBRANCH  32  33
ENDBRANCH  31  32
ENDBRANCH  29  31
ENDBRANCH  22  27
ENDBRANCH   1  19
TORSDOF 15
ENDMDL
