MODEL 1
REMARK VINA RESULT: -7.277969826      0.000      0.000
REMARK  13 active torsions:
REMARK  status: ('A' for Active; 'I' for Inactive)
REMARK    1  A    between atoms: N1_1  and  C1_5 
REMARK    2  A    between atoms: C1_5  and  C2_6 
REMARK    3  A    between atoms: C3_10  and  C4_11 
REMARK    4  A    between atoms: C4_11  and  N3_12 
REMARK    5  A    between atoms: C6_17  and  N6_18 
REMARK       I    between atoms: N6_18  and  C7_20 
REMARK    6  A    between atoms: C7_20  and  C8_22 
REMARK    7  A    between atoms: C8_22  and  N7_23 
REMARK    8  A    between atoms: N7_23  and  C9_25 
REMARK    9  A    between atoms: C9_25  and  C10_26 
REMARK   10  A    between atoms: C10_26  and  N8_27 
REMARK   11  A    between atoms: N8_27  and  C11_30 
REMARK   12  A    between atoms: C11_30  and  C12_31 
REMARK   13  A    between atoms: C12_31  and  O2_32 
ROOT
HETATM    1  C2  UNL     1      40.673 -65.335  33.376  1.00  0.00     0.236 C 
HETATM    2  N2  UNL     1      40.757 -66.731  33.651  1.00  0.00    -0.059 N 
ATOM      3  H21 UNL     1      39.906 -67.293  33.683  1.00  0.00     0.278 HD
ATOM      4  H22 UNL     1      41.007 -67.048  34.588  1.00  0.00     0.278 HD
HETATM    5  C3  UNL     1      41.681 -66.902  32.571  1.00  0.00     0.228 C 
HETATM    6  C6  UNL     1      41.832 -65.393  32.490  1.00  0.00     0.149 C 
ENDROOT
BRANCH   6   7
HETATM    7  N6  UNL     1      43.141 -65.014  32.933  1.00  0.00    -0.351 N 
HETATM    8  C7  UNL     1      43.540 -63.634  32.816  1.00  0.00     0.235 C 
HETATM    9  O1  UNL     1      42.718 -62.785  32.319  1.00  0.00    -0.272 OA
ATOM     10  H6  UNL     1      43.778 -65.708  33.324  1.00  0.00     0.163 HD
BRANCH   8  11
HETATM   11  C8  UNL     1      44.877 -63.167  33.249  1.00  0.00     0.217 C 
BRANCH  11  12
HETATM   12  N7  UNL     1      45.067 -63.113  34.647  1.00  0.00    -0.412 N 
ATOM     13  H7  UNL     1      44.892 -63.914  35.254  1.00  0.00     0.153 HD
BRANCH  12  14
HETATM   14  C9  UNL     1      45.520 -61.867  35.146  1.00  0.00     0.142 C 
BRANCH  14  15
HETATM   15  C10 UNL     1      46.463 -61.193  34.132  1.00  0.00     0.251 C 
BRANCH  15  16
HETATM   16  N8  UNL     1      46.904 -59.927  34.688  1.00  0.00    -0.072 N 
ATOM     17  H82 UNL     1      46.455 -59.735  35.583  1.00  0.00     0.277 HD
ATOM     18  H81 UNL     1      47.873 -59.975  35.004  1.00  0.00     0.277 HD
BRANCH  16  19
HETATM   19  C11 UNL     1      46.703 -58.835  33.745  1.00  0.00     0.258 C 
BRANCH  19  20
HETATM   20  C12 UNL     1      45.987 -57.738  34.461  1.00  0.00     0.191 C 
BRANCH  20  21
HETATM   21  O2  UNL     1      45.355 -58.174  35.625  1.00  0.00    -0.399 OA
ATOM     22  H2  UNL     1      44.930 -57.469  36.100  1.00  0.00     0.209 HD
ENDBRANCH  20  21
ENDBRANCH  19  20
ENDBRANCH  16  19
ENDBRANCH  15  16
ENDBRANCH  14  15
ENDBRANCH  12  14
ENDBRANCH  11  12
ENDBRANCH   8  11
ENDBRANCH   6   7
BRANCH   1  23
HETATM   23  C1  UNL     1      40.649 -64.424  34.568  1.00  0.00     0.264 C 
BRANCH  23  24
HETATM   24  N1  UNL     1      40.227 -63.084  34.317  1.00  0.00    -0.077 N 
ATOM     25  H13 UNL     1      39.888 -63.000  33.359  1.00  0.00     0.274 HD
ATOM     26  H12 UNL     1      39.368 -62.888  34.833  1.00  0.00     0.274 HD
ATOM     27  H11 UNL     1      40.918 -62.358  34.506  1.00  0.00     0.274 HD
ENDBRANCH  23  24
ENDBRANCH   1  23
BRANCH   5  28
HETATM   28  C4  UNL     1      41.120 -67.512  31.303  1.00  0.00     0.157 C 
BRANCH  28  29
HETATM   29  N3  UNL     1      41.874 -68.700  30.978  1.00  0.00    -0.365 N 
HETATM   30  C5  UNL     1      41.370 -69.893  31.158  1.00  0.00     0.197 C 
HETATM   31  N4  UNL     1      40.076 -70.120  31.671  1.00  0.00    -0.067 NA
HETATM   32  N5  UNL     1      42.204 -70.999  30.801  1.00  0.00    -0.067 NA
ATOM     33  H3  UNL     1      42.817 -68.606  30.601  1.00  0.00     0.161 HD
ENDBRANCH  28  29
ENDBRANCH   5  28
TORSDOF 13
ENDMDL
MODEL 2
REMARK VINA RESULT: -7.154181133      1.165      1.263
REMARK  13 active torsions:
REMARK  status: ('A' for Active; 'I' for Inactive)
REMARK    1  A    between atoms: N1_1  and  C1_5 
REMARK    2  A    between atoms: C1_5  and  C2_6 
REMARK    3  A    between atoms: C3_10  and  C4_11 
REMARK    4  A    between atoms: C4_11  and  N3_12 
REMARK    5  A    between atoms: C6_17  and  N6_18 
REMARK       I    between atoms: N6_18  and  C7_20 
REMARK    6  A    between atoms: C7_20  and  C8_22 
REMARK    7  A    between atoms: C8_22  and  N7_23 
REMARK    8  A    between atoms: N7_23  and  C9_25 
REMARK    9  A    between atoms: C9_25  and  C10_26 
REMARK   10  A    between atoms: C10_26  and  N8_27 
REMARK   11  A    between atoms: N8_27  and  C11_30 
REMARK   12  A    between atoms: C11_30  and  C12_31 
REMARK   13  A    between atoms: C12_31  and  O2_32 
ROOT
HETATM    1  C2  UNL     1      40.642 -65.223  33.222  1.00  0.00     0.236 C 
HETATM    2  N2  UNL     1      40.550 -66.621  33.483  1.00  0.00    -0.059 N 
ATOM      3  H21 UNL     1      39.651 -67.095  33.394  1.00  0.00     0.278 HD
ATOM      4  H22 UNL     1      40.643 -66.966  34.439  1.00  0.00     0.278 HD
HETATM    5  C3  UNL     1      41.587 -66.881  32.530  1.00  0.00     0.228 C 
HETATM    6  C6  UNL     1      41.897 -65.394  32.495  1.00  0.00     0.149 C 
ENDROOT
BRANCH   6   7
HETATM    7  N6  UNL     1      43.167 -65.150  33.111  1.00  0.00    -0.351 N 
HETATM    8  C7  UNL     1      43.705 -63.814  33.085  1.00  0.00     0.235 C 
HETATM    9  O1  UNL     1      43.037 -62.881  32.514  1.00  0.00    -0.272 OA
ATOM     10  H6  UNL     1      43.681 -65.910  33.559  1.00  0.00     0.163 HD
BRANCH   8  11
HETATM   11  C8  UNL     1      45.012 -63.485  33.699  1.00  0.00     0.217 C 
BRANCH  11  12
HETATM   12  N7  UNL     1      45.725 -62.443  33.066  1.00  0.00    -0.412 N 
ATOM     13  H7  UNL     1      45.829 -62.389  32.053  1.00  0.00     0.153 HD
BRANCH  12  14
HETATM   14  C9  UNL     1      46.284 -61.479  33.940  1.00  0.00     0.142 C 
BRANCH  14  15
HETATM   15  C10 UNL     1      46.121 -61.922  35.405  1.00  0.00     0.251 C 
BRANCH  15  16
HETATM   16  N8  UNL     1      46.578 -60.845  36.263  1.00  0.00    -0.072 N 
ATOM     17  H82 UNL     1      46.639 -61.143  37.237  1.00  0.00     0.277 HD
ATOM     18  H81 UNL     1      47.563 -60.631  36.102  1.00  0.00     0.277 HD
BRANCH  16  19
HETATM   19  C11 UNL     1      45.743 -59.661  36.118  1.00  0.00     0.258 C 
BRANCH  19  20
HETATM   20  C12 UNL     1      45.324 -59.225  37.483  1.00  0.00     0.191 C 
BRANCH  20  21
HETATM   21  O2  UNL     1      44.897 -57.898  37.521  1.00  0.00    -0.399 OA
ATOM     22  H2  UNL     1      44.051 -57.794  37.940  1.00  0.00     0.209 HD
ENDBRANCH  20  21
ENDBRANCH  19  20
ENDBRANCH  16  19
ENDBRANCH  15  16
ENDBRANCH  14  15
ENDBRANCH  12  14
ENDBRANCH  11  12
ENDBRANCH   8  11
ENDBRANCH   6   7
BRANCH   1  23
HETATM   23  C1  UNL     1      40.553 -64.318  34.416  1.00  0.00     0.264 C 
BRANCH  23  24
HETATM   24  N1  UNL     1      40.249 -62.952  34.139  1.00  0.00    -0.077 N 
ATOM     25  H13 UNL     1      39.701 -62.885  33.281  1.00  0.00     0.274 HD
ATOM     26  H12 UNL     1      39.571 -62.603  34.817  1.00  0.00     0.274 HD
ATOM     27  H11 UNL     1      41.049 -62.320  34.090  1.00  0.00     0.274 HD
ENDBRANCH  23  24
ENDBRANCH   1  23
BRANCH   5  28
HETATM   28  C4  UNL     1      41.140 -67.426  31.189  1.00  0.00     0.157 C 
BRANCH  28  29
HETATM   29  N3  UNL     1      41.883 -68.630  30.899  1.00  0.00    -0.365 N 
HETATM   30  C5  UNL     1      41.365 -69.813  31.105  1.00  0.00     0.197 C 
HETATM   31  N4  UNL     1      40.065 -70.013  31.614  1.00  0.00    -0.067 NA
HETATM   32  N5  UNL     1      42.189 -70.936  30.781  1.00  0.00    -0.067 NA
ATOM     33  H3  UNL     1      42.830 -68.556  30.527  1.00  0.00     0.161 HD
ENDBRANCH  28  29
ENDBRANCH   5  28
TORSDOF 13
ENDMDL
MODEL 3
REMARK VINA RESULT: -6.798291122      1.261      1.467
REMARK  13 active torsions:
REMARK  status: ('A' for Active; 'I' for Inactive)
REMARK    1  A    between atoms: N1_1  and  C1_5 
REMARK    2  A    between atoms: C1_5  and  C2_6 
REMARK    3  A    between atoms: C3_10  and  C4_11 
REMARK    4  A    between atoms: C4_11  and  N3_12 
REMARK    5  A    between atoms: C6_17  and  N6_18 
REMARK       I    between atoms: N6_18  and  C7_20 
REMARK    6  A    between atoms: C7_20  and  C8_22 
REMARK    7  A    between atoms: C8_22  and  N7_23 
REMARK    8  A    between atoms: N7_23  and  C9_25 
REMARK    9  A    between atoms: C9_25  and  C10_26 
REMARK   10  A    between atoms: C10_26  and  N8_27 
REMARK   11  A    between atoms: N8_27  and  C11_30 
REMARK   12  A    between atoms: C11_30  and  C12_31 
REMARK   13  A    between atoms: C12_31  and  O2_32 
ROOT
HETATM    1  C2  UNL     1      40.767 -65.071  33.375  1.00  0.00     0.236 C 
HETATM    2  N2  UNL     1      40.635 -66.443  33.735  1.00  0.00    -0.059 N 
ATOM      3  H21 UNL     1      39.710 -66.873  33.763  1.00  0.00     0.278 HD
ATOM      4  H22 UNL     1      40.804 -66.733  34.698  1.00  0.00     0.278 HD
HETATM    5  C3  UNL     1      41.560 -66.816  32.707  1.00  0.00     0.228 C 
HETATM    6  C6  UNL     1      41.935 -65.352  32.545  1.00  0.00     0.149 C 
ENDROOT
BRANCH   6   7
HETATM    7  N6  UNL     1      43.269 -65.141  33.020  1.00  0.00    -0.351 N 
HETATM    8  C7  UNL     1      43.876 -63.847  32.829  1.00  0.00     0.235 C 
HETATM    9  O1  UNL     1      43.210 -62.924  32.240  1.00  0.00    -0.272 OA
ATOM     10  H6  UNL     1      43.780 -65.891  33.485  1.00  0.00     0.163 HD
BRANCH   8  11
HETATM   11  C8  UNL     1      45.252 -63.553  33.291  1.00  0.00     0.217 C 
BRANCH  11  12
HETATM   12  N7  UNL     1      45.660 -62.210  33.137  1.00  0.00    -0.412 N 
ATOM     13  H7  UNL     1      45.439 -61.663  32.305  1.00  0.00     0.153 HD
BRANCH  12  14
HETATM   14  C9  UNL     1      46.398 -61.677  34.223  1.00  0.00     0.142 C 
BRANCH  14  15
HETATM   15  C10 UNL     1      46.628 -60.167  34.027  1.00  0.00     0.251 C 
BRANCH  15  16
HETATM   16  N8  UNL     1      46.010 -59.463  35.135  1.00  0.00    -0.072 N 
ATOM     17  H82 UNL     1      46.631 -58.751  35.519  1.00  0.00     0.277 HD
ATOM     18  H81 UNL     1      45.254 -58.857  34.817  1.00  0.00     0.277 HD
BRANCH  16  19
HETATM   19  C11 UNL     1      45.557 -60.389  36.164  1.00  0.00     0.258 C 
BRANCH  19  20
HETATM   20  C12 UNL     1      46.165 -59.965  37.460  1.00  0.00     0.191 C 
BRANCH  20  21
HETATM   21  O2  UNL     1      47.275 -60.732  37.813  1.00  0.00    -0.399 OA
ATOM     22  H2  UNL     1      47.881 -60.266  38.377  1.00  0.00     0.209 HD
ENDBRANCH  20  21
ENDBRANCH  19  20
ENDBRANCH  16  19
ENDBRANCH  15  16
ENDBRANCH  14  15
ENDBRANCH  12  14
ENDBRANCH  11  12
ENDBRANCH   8  11
ENDBRANCH   6   7
BRANCH   1  23
HETATM   23  C1  UNL     1      40.839 -64.091  34.510  1.00  0.00     0.264 C 
BRANCH  23  24
HETATM   24  N1  UNL     1      40.053 -62.909  34.361  1.00  0.00    -0.077 N 
ATOM     25  H13 UNL     1      40.433 -62.164  34.945  1.00  0.00     0.274 HD
ATOM     26  H12 UNL     1      40.202 -62.508  33.434  1.00  0.00     0.274 HD
ATOM     27  H11 UNL     1      39.054 -63.015  34.538  1.00  0.00     0.274 HD
ENDBRANCH  23  24
ENDBRANCH   1  23
BRANCH   5  28
HETATM   28  C4  UNL     1      40.958 -67.417  31.454  1.00  0.00     0.157 C 
BRANCH  28  29
HETATM   29  N3  UNL     1      41.761 -68.543  31.039  1.00  0.00    -0.365 N 
HETATM   30  C5  UNL     1      41.325 -69.769  31.160  1.00  0.00     0.197 C 
HETATM   31  N4  UNL     1      40.059 -70.094  31.692  1.00  0.00    -0.067 NA
HETATM   32  N5  UNL     1      42.203 -70.807  30.715  1.00  0.00    -0.067 NA
ATOM     33  H3  UNL     1      42.687 -68.378  30.644  1.00  0.00     0.161 HD
ENDBRANCH  28  29
ENDBRANCH   5  28
TORSDOF 13
ENDMDL
MODEL 4
REMARK VINA RESULT: -6.514847202      2.584      8.888
REMARK  13 active torsions:
REMARK  status: ('A' for Active; 'I' for Inactive)
REMARK    1  A    between atoms: N1_1  and  C1_5 
REMARK    2  A    between atoms: C1_5  and  C2_6 
REMARK    3  A    between atoms: C3_10  and  C4_11 
REMARK    4  A    between atoms: C4_11  and  N3_12 
REMARK    5  A    between atoms: C6_17  and  N6_18 
REMARK       I    between atoms: N6_18  and  C7_20 
REMARK    6  A    between atoms: C7_20  and  C8_22 
REMARK    7  A    between atoms: C8_22  and  N7_23 
REMARK    8  A    between atoms: N7_23  and  C9_25 
REMARK    9  A    between atoms: C9_25  and  C10_26 
REMARK   10  A    between atoms: C10_26  and  N8_27 
REMARK   11  A    between atoms: N8_27  and  C11_30 
REMARK   12  A    between atoms: C11_30  and  C12_31 
REMARK   13  A    between atoms: C12_31  and  O2_32 
ROOT
HETATM    1  C2  UNL     1      45.407 -62.308  33.442  1.00  0.00     0.236 C 
HETATM    2  N2  UNL     1      46.624 -62.112  34.158  1.00  0.00    -0.059 N 
ATOM      3  H21 UNL     1      47.348 -61.507  33.770  1.00  0.00     0.278 HD
ATOM      4  H22 UNL     1      47.295 -62.876  34.233  1.00  0.00     0.278 HD
HETATM    5  C3  UNL     1      45.891 -61.692  35.314  1.00  0.00     0.228 C 
HETATM    6  C6  UNL     1      44.616 -62.201  34.665  1.00  0.00     0.149 C 
ENDROOT
BRANCH   6   7
HETATM    7  N6  UNL     1      44.147 -63.359  35.365  1.00  0.00    -0.351 N 
HETATM    8  C7  UNL     1      42.783 -63.782  35.170  1.00  0.00     0.235 C 
HETATM    9  O1  UNL     1      42.028 -63.114  34.380  1.00  0.00    -0.272 OA
ATOM     10  H6  UNL     1      44.767 -63.875  35.990  1.00  0.00     0.163 HD
BRANCH   8  11
HETATM   11  C8  UNL     1      42.225 -64.968  35.861  1.00  0.00     0.217 C 
BRANCH  11  12
HETATM   12  N7  UNL     1      42.048 -66.106  35.045  1.00  0.00    -0.412 N 
ATOM     13  H7  UNL     1      42.768 -66.821  34.939  1.00  0.00     0.153 HD
BRANCH  12  14
HETATM   14  C9  UNL     1      40.796 -66.185  34.386  1.00  0.00     0.142 C 
BRANCH  14  15
HETATM   15  C10 UNL     1      40.991 -66.154  32.858  1.00  0.00     0.251 C 
BRANCH  15  16
HETATM   16  N8  UNL     1      41.627 -67.393  32.452  1.00  0.00    -0.072 N 
ATOM     17  H82 UNL     1      42.644 -67.318  32.480  1.00  0.00     0.277 HD
ATOM     18  H81 UNL     1      41.504 -68.124  33.153  1.00  0.00     0.277 HD
BRANCH  16  19
HETATM   19  C11 UNL     1      41.159 -67.825  31.142  1.00  0.00     0.258 C 
BRANCH  19  20
HETATM   20  C12 UNL     1      41.110 -69.317  31.142  1.00  0.00     0.191 C 
BRANCH  20  21
HETATM   21  O2  UNL     1      40.168 -69.827  32.035  1.00  0.00    -0.399 OA
ATOM     22  H2  UNL     1      40.542 -70.440  32.656  1.00  0.00     0.209 HD
ENDBRANCH  20  21
ENDBRANCH  19  20
ENDBRANCH  16  19
ENDBRANCH  15  16
ENDBRANCH  14  15
ENDBRANCH  12  14
ENDBRANCH  11  12
ENDBRANCH   8  11
ENDBRANCH   6   7
BRANCH   1  23
HETATM   23  C1  UNL     1      45.336 -63.531  32.575  1.00  0.00     0.264 C 
BRANCH  23  24
HETATM   24  N1  UNL     1      44.044 -63.856  32.064  1.00  0.00    -0.077 N 
ATOM     25  H13 UNL     1      43.777 -63.187  31.342  1.00  0.00     0.274 HD
ATOM     26  H12 UNL     1      44.095 -64.712  31.511  1.00  0.00     0.274 HD
ATOM     27  H11 UNL     1      43.299 -63.935  32.758  1.00  0.00     0.274 HD
ENDBRANCH  23  24
ENDBRANCH   1  23
BRANCH   5  28
HETATM   28  C4  UNL     1      45.867 -60.201  35.583  1.00  0.00     0.157 C 
BRANCH  28  29
HETATM   29  N3  UNL     1      45.418 -59.974  36.937  1.00  0.00    -0.365 N 
HETATM   30  C5  UNL     1      45.136 -58.771  37.366  1.00  0.00     0.197 C 
HETATM   31  N4  UNL     1      45.241 -57.616  36.563  1.00  0.00    -0.067 NA
HETATM   32  N5  UNL     1      44.699 -58.663  38.723  1.00  0.00    -0.067 NA
ATOM     33  H3  UNL     1      45.319 -60.767  37.571  1.00  0.00     0.161 HD
ENDBRANCH  28  29
ENDBRANCH   5  28
TORSDOF 13
ENDMDL
MODEL 5
REMARK VINA RESULT: -6.501287732      2.888      8.265
REMARK  13 active torsions:
REMARK  status: ('A' for Active; 'I' for Inactive)
REMARK    1  A    between atoms: N1_1  and  C1_5 
REMARK    2  A    between atoms: C1_5  and  C2_6 
REMARK    3  A    between atoms: C3_10  and  C4_11 
REMARK    4  A    between atoms: C4_11  and  N3_12 
REMARK    5  A    between atoms: C6_17  and  N6_18 
REMARK       I    between atoms: N6_18  and  C7_20 
REMARK    6  A    between atoms: C7_20  and  C8_22 
REMARK    7  A    between atoms: C8_22  and  N7_23 
REMARK    8  A    between atoms: N7_23  and  C9_25 
REMARK    9  A    between atoms: C9_25  and  C10_26 
REMARK   10  A    between atoms: C10_26  and  N8_27 
REMARK   11  A    between atoms: N8_27  and  C11_30 
REMARK   12  A    between atoms: C11_30  and  C12_31 
REMARK   13  A    between atoms: C12_31  and  O2_32 
ROOT
HETATM    1  C2  UNL     1      42.327 -64.201  34.276  1.00  0.00     0.236 C 
HETATM    2  N2  UNL     1      42.773 -62.957  33.743  1.00  0.00    -0.059 N 
ATOM      3  H21 UNL     1      43.148 -62.243  34.368  1.00  0.00     0.278 HD
ATOM      4  H22 UNL     1      42.093 -62.289  33.380  1.00  0.00     0.278 HD
HETATM    5  C3  UNL     1      43.649 -63.642  32.840  1.00  0.00     0.228 C 
HETATM    6  C6  UNL     1      42.946 -64.945  33.182  1.00  0.00     0.149 C 
ENDROOT
BRANCH   6   7
HETATM    7  N6  UNL     1      42.190 -65.397  32.052  1.00  0.00    -0.351 N 
HETATM    8  C7  UNL     1      41.577 -66.700  32.105  1.00  0.00     0.235 C 
HETATM    9  O1  UNL     1      41.724 -67.419  33.155  1.00  0.00    -0.272 OA
ATOM     10  H6  UNL     1      42.087 -64.806  31.227  1.00  0.00     0.163 HD
BRANCH   8  11
HETATM   11  C8  UNL     1      40.782 -67.237  30.976  1.00  0.00     0.217 C 
BRANCH  11  12
HETATM   12  N7  UNL     1      41.460 -68.161  30.153  1.00  0.00    -0.412 N 
ATOM     13  H7  UNL     1      42.148 -67.872  29.458  1.00  0.00     0.153 HD
BRANCH  12  14
HETATM   14  C9  UNL     1      41.116 -69.520  30.363  1.00  0.00     0.142 C 
BRANCH  14  15
HETATM   15  C10 UNL     1      42.265 -70.262  31.071  1.00  0.00     0.251 C 
BRANCH  15  16
HETATM   16  N8  UNL     1      43.477 -70.078  30.294  1.00  0.00    -0.072 N 
ATOM     17  H82 UNL     1      43.293 -70.144  29.293  1.00  0.00     0.277 HD
ATOM     18  H81 UNL     1      43.801 -69.111  30.331  1.00  0.00     0.277 HD
BRANCH  16  19
HETATM   19  C11 UNL     1      44.519 -71.007  30.710  1.00  0.00     0.258 C 
BRANCH  19  20
HETATM   20  C12 UNL     1      45.694 -70.809  29.810  1.00  0.00     0.191 C 
BRANCH  20  21
HETATM   21  O2  UNL     1      45.520 -69.752  28.917  1.00  0.00    -0.399 OA
ATOM     22  H2  UNL     1      45.652 -68.902  29.321  1.00  0.00     0.209 HD
ENDBRANCH  20  21
ENDBRANCH  19  20
ENDBRANCH  16  19
ENDBRANCH  15  16
ENDBRANCH  14  15
ENDBRANCH  12  14
ENDBRANCH  11  12
ENDBRANCH   8  11
ENDBRANCH   6   7
BRANCH   1  23
HETATM   23  C1  UNL     1      40.858 -64.314  34.559  1.00  0.00     0.264 C 
BRANCH  23  24
HETATM   24  N1  UNL     1      40.080 -63.151  34.274  1.00  0.00    -0.077 N 
ATOM     25  H13 UNL     1      39.134 -63.268  34.640  1.00  0.00     0.274 HD
ATOM     26  H12 UNL     1      40.401 -62.370  34.846  1.00  0.00     0.274 HD
ATOM     27  H11 UNL     1      40.041 -62.872  33.294  1.00  0.00     0.274 HD
ENDBRANCH  23  24
ENDBRANCH   1  23
BRANCH   5  28
HETATM   28  C4  UNL     1      45.118 -63.646  33.209  1.00  0.00     0.157 C 
BRANCH  28  29
HETATM   29  N3  UNL     1      45.645 -62.310  33.054  1.00  0.00    -0.365 N 
HETATM   30  C5  UNL     1      46.105 -61.640  34.078  1.00  0.00     0.197 C 
HETATM   31  N4  UNL     1      46.128 -62.150  35.394  1.00  0.00    -0.067 NA
HETATM   32  N5  UNL     1      46.605 -60.327  33.810  1.00  0.00    -0.067 NA
ATOM     33  H3  UNL     1      45.659 -61.882  32.129  1.00  0.00     0.161 HD
ENDBRANCH  28  29
ENDBRANCH   5  28
TORSDOF 13
ENDMDL
