MODEL 1
REMARK VINA RESULT: -9.534450939      0.000      0.000
REMARK  14 active torsions:
REMARK  status: ('A' for Active; 'I' for Inactive)
REMARK    1  A    between atoms: C2_2  and  O2_4 
REMARK    2  A    between atoms: O2_4  and  C3_5 
REMARK    3  A    between atoms: C3_5  and  C4_6 
REMARK    4  A    between atoms: C3_5  and  C29_38 
REMARK    5  A    between atoms: C4_6  and  C5_7 
REMARK    6  A    between atoms: C6_8  and  C7_9 
REMARK    7  A    between atoms: C7_9  and  C8_10 
REMARK    8  A    between atoms: C10_12  and  C11_13 
REMARK    9  A    between atoms: C11_13  and  C12_14 
REMARK   10  A    between atoms: C12_14  and  C13_15 
REMARK   11  A    between atoms: C26_32  and  C27_33 
REMARK   12  A    between atoms: C27_33  and  O7_34 
REMARK   13  A    between atoms: C29_38  and  C30_39 
REMARK   14  A    between atoms: C30_39  and  C31_40 
ROOT
HETATM    1  C13 UNL     1      -1.822 -35.863   3.447  1.00  0.00     0.068 C 
HETATM    2  C14 UNL     1      -2.586 -35.315   2.261  1.00  0.00     0.031 C 
HETATM    3  C15 UNL     1      -0.688 -34.894   3.703  1.00  0.00     0.142 C 
HETATM    4  O3  UNL     1      -0.463 -33.977   2.961  1.00  0.00    -0.297 OA
HETATM    5  C16 UNL     1       0.161 -35.078   4.894  1.00  0.00     0.086 C 
HETATM    6  C17 UNL     1      -0.476 -35.899   5.960  1.00  0.00     0.074 C 
HETATM    7  C18 UNL     1      -1.978 -35.926   5.843  1.00  0.00     0.077 C 
HETATM    8  C19 UNL     1      -2.614 -35.909   4.688  1.00  0.00     0.092 C 
HETATM    9  O4  UNL     1      -4.025 -35.937   4.653  1.00  0.00    -0.336 OA
HETATM   10  C20 UNL     1      -4.696 -35.557   5.842  1.00  0.00     0.120 C 
HETATM   11  C21 UNL     1      -4.321 -34.133   6.209  1.00  0.00     0.052 C 
HETATM   12  C22 UNL     1      -4.060 -36.445   6.927  1.00  0.00     0.177 C 
HETATM   13  O5  UNL     1      -2.735 -35.970   7.036  1.00  0.00    -0.344 OA
HETATM   14  C23 UNL     1      -4.801 -36.409   8.220  1.00  0.00     0.087 C 
HETATM   15  C24 UNL     1      -3.837 -36.103   9.348  1.00  0.00     0.021 C 
HETATM   16  C25 UNL     1      -5.896 -35.424   8.147  1.00  0.00     0.172 C 
HETATM   17  O6  UNL     1      -6.003 -34.528   8.956  1.00  0.00    -0.294 OA
HETATM   18  C26 UNL     1      -6.857 -35.608   7.003  1.00  0.00     0.172 A 
HETATM   19  O8  UNL     1      -6.987 -34.564   6.100  1.00  0.00    -0.355 OA
HETATM   20  C28 UNL     1      -6.173 -35.785   5.759  1.00  0.00     0.205 A 
ENDROOT
BRANCH   1  21
HETATM   21  C12 UNL     1      -1.315 -37.233   3.099  1.00  0.00     0.028 C 
BRANCH  21  22
HETATM   22  C11 UNL     1      -1.670 -37.646   1.698  1.00  0.00     0.029 C 
BRANCH  22  23
HETATM   23  C10 UNL     1      -0.832 -38.754   1.231  1.00  0.00    -0.024 C 
HETATM   24  C8  UNL     1       0.337 -38.632   0.660  1.00  0.00    -0.084 C 
HETATM   25  C9  UNL     1       1.018 -37.354   0.411  1.00  0.00     0.043 C 
BRANCH  24  26
HETATM   26  C7  UNL     1       1.092 -39.882   0.219  1.00  0.00     0.061 C 
BRANCH  26  27
HETATM   27  C6  UNL     1       1.927 -40.335   1.345  1.00  0.00    -0.014 C 
HETATM   28  C5  UNL     1       3.251 -40.591   1.219  1.00  0.00     0.050 C 
BRANCH  28  29
HETATM   29  C4  UNL     1       3.993 -41.016   2.344  1.00  0.00    -0.124 C 
BRANCH  29  30
HETATM   30  C3  UNL     1       4.642 -41.399   3.327  1.00  0.00     0.202 C 
BRANCH  30  31
HETATM   31  O2  UNL     1       6.111 -41.378   3.042  1.00  0.00    -0.304 OA
BRANCH  31  32
HETATM   32  C2  UNL     1       6.755 -42.574   2.884  1.00  0.00     0.256 C 
HETATM   33  C1  UNL     1       6.239 -43.613   1.919  1.00  0.00     0.126 C 
HETATM   34  O1  UNL     1       7.786 -42.856   3.525  1.00  0.00    -0.266 OA
ENDBRANCH  31  32
ENDBRANCH  30  31
BRANCH  30  35
HETATM   35  C29 UNL     1       4.357 -41.851   4.670  1.00  0.00     0.049 C 
BRANCH  35  36
HETATM   36  C30 UNL     1       3.513 -40.915   5.478  1.00  0.00     0.031 C 
BRANCH  36  37
HETATM   37  C31 UNL     1       2.063 -41.162   5.217  1.00  0.00    -0.025 C 
HETATM   38  C32 UNL     1       1.266 -40.211   4.818  1.00  0.00    -0.091 C 
HETATM   39  C33 UNL     1      -0.175 -40.565   4.585  1.00  0.00     0.042 C 
HETATM   40  C34 UNL     1       1.696 -38.834   4.604  1.00  0.00     0.042 C 
ENDBRANCH  36  37
ENDBRANCH  35  36
ENDBRANCH  30  35
ENDBRANCH  29  30
ENDBRANCH  28  29
ENDBRANCH  26  27
ENDBRANCH  24  26
ENDBRANCH  22  23
ENDBRANCH  21  22
ENDBRANCH   1  21
BRANCH  18  41
HETATM   41  C27 UNL     1      -8.122 -36.293   7.405  1.00  0.00     0.213 C 
BRANCH  41  42
HETATM   42  O7  UNL     1      -8.460 -36.032   8.740  1.00  0.00    -0.397 OA
ATOM     43  H7  UNL     1      -9.217 -36.534   9.021  1.00  0.00     0.209 HD
ENDBRANCH  41  42
ENDBRANCH  18  41
TORSDOF 14
ENDMDL
MODEL 2
REMARK VINA RESULT: -9.478709024      2.486      3.485
REMARK  14 active torsions:
REMARK  status: ('A' for Active; 'I' for Inactive)
REMARK    1  A    between atoms: C2_2  and  O2_4 
REMARK    2  A    between atoms: O2_4  and  C3_5 
REMARK    3  A    between atoms: C3_5  and  C4_6 
REMARK    4  A    between atoms: C3_5  and  C29_38 
REMARK    5  A    between atoms: C4_6  and  C5_7 
REMARK    6  A    between atoms: C6_8  and  C7_9 
REMARK    7  A    between atoms: C7_9  and  C8_10 
REMARK    8  A    between atoms: C10_12  and  C11_13 
REMARK    9  A    between atoms: C11_13  and  C12_14 
REMARK   10  A    between atoms: C12_14  and  C13_15 
REMARK   11  A    between atoms: C26_32  and  C27_33 
REMARK   12  A    between atoms: C27_33  and  O7_34 
REMARK   13  A    between atoms: C29_38  and  C30_39 
REMARK   14  A    between atoms: C30_39  and  C31_40 
ROOT
HETATM    1  C13 UNL     1      -1.099 -36.139   4.309  1.00  0.00     0.068 C 
HETATM    2  C14 UNL     1      -2.174 -37.072   3.796  1.00  0.00     0.031 C 
HETATM    3  C15 UNL     1      -1.596 -34.734   4.042  1.00  0.00     0.142 C 
HETATM    4  O3  UNL     1      -2.603 -34.531   3.418  1.00  0.00    -0.297 OA
HETATM    5  C16 UNL     1      -0.829 -33.588   4.560  1.00  0.00     0.086 C 
HETATM    6  C17 UNL     1       0.079 -33.938   5.687  1.00  0.00     0.074 C 
HETATM    7  C18 UNL     1      -0.338 -35.205   6.387  1.00  0.00     0.077 C 
HETATM    8  C19 UNL     1      -0.885 -36.229   5.764  1.00  0.00     0.092 C 
HETATM    9  O4  UNL     1      -1.251 -37.387   6.485  1.00  0.00    -0.336 OA
HETATM   10  C20 UNL     1      -1.408 -37.238   7.885  1.00  0.00     0.120 C 
HETATM   11  C21 UNL     1      -2.490 -36.214   8.173  1.00  0.00     0.052 C 
HETATM   12  C22 UNL     1      -0.090 -36.585   8.339  1.00  0.00     0.177 C 
HETATM   13  O5  UNL     1      -0.132 -35.289   7.783  1.00  0.00    -0.344 OA
HETATM   14  C23 UNL     1       0.080 -36.581   9.820  1.00  0.00     0.087 C 
HETATM   15  C24 UNL     1       0.412 -35.178  10.288  1.00  0.00     0.021 C 
HETATM   16  C25 UNL     1      -1.136 -37.105  10.469  1.00  0.00     0.172 C 
HETATM   17  O6  UNL     1      -1.729 -36.473  11.317  1.00  0.00    -0.294 OA
HETATM   18  C26 UNL     1      -1.583 -38.464  10.003  1.00  0.00     0.172 A 
HETATM   19  O8  UNL     1      -2.851 -38.568   9.451  1.00  0.00    -0.355 OA
HETATM   20  C28 UNL     1      -1.625 -38.548   8.576  1.00  0.00     0.205 A 
ENDROOT
BRANCH   1  21
HETATM   21  C12 UNL     1       0.177 -36.426   3.573  1.00  0.00     0.028 C 
BRANCH  21  22
HETATM   22  C11 UNL     1      -0.039 -36.667   2.106  1.00  0.00     0.029 C 
BRANCH  22  23
HETATM   23  C10 UNL     1       0.960 -37.586   1.554  1.00  0.00    -0.024 C 
HETATM   24  C8  UNL     1       0.765 -38.852   1.293  1.00  0.00    -0.084 C 
HETATM   25  C9  UNL     1      -0.506 -39.560   1.491  1.00  0.00     0.043 C 
BRANCH  24  26
HETATM   26  C7  UNL     1       1.909 -39.686   0.724  1.00  0.00     0.061 C 
BRANCH  26  27
HETATM   27  C6  UNL     1       2.476 -40.495   1.817  1.00  0.00    -0.014 C 
HETATM   28  C5  UNL     1       3.718 -40.286   2.314  1.00  0.00     0.050 C 
BRANCH  28  29
HETATM   29  C4  UNL     1       4.196 -41.096   3.370  1.00  0.00    -0.124 C 
BRANCH  29  30
HETATM   30  C3  UNL     1       4.614 -41.814   4.288  1.00  0.00     0.202 C 
BRANCH  30  31
HETATM   31  O2  UNL     1       6.043 -42.197   4.060  1.00  0.00    -0.304 OA
BRANCH  31  32
HETATM   32  C2  UNL     1       6.472 -42.353   2.771  1.00  0.00     0.256 C 
HETATM   33  C1  UNL     1       6.265 -43.654   2.035  1.00  0.00     0.126 C 
HETATM   34  O1  UNL     1       7.048 -41.436   2.154  1.00  0.00    -0.266 OA
ENDBRANCH  31  32
ENDBRANCH  30  31
BRANCH  30  35
HETATM   35  C29 UNL     1       4.093 -42.370   5.515  1.00  0.00     0.049 C 
BRANCH  35  36
HETATM   36  C30 UNL     1       3.233 -41.436   6.308  1.00  0.00     0.031 C 
BRANCH  36  37
HETATM   37  C31 UNL     1       1.794 -41.626   5.956  1.00  0.00    -0.025 C 
HETATM   38  C32 UNL     1       1.078 -40.662   5.450  1.00  0.00    -0.091 C 
HETATM   39  C33 UNL     1      -0.360 -40.958   5.132  1.00  0.00     0.042 C 
HETATM   40  C34 UNL     1       1.595 -39.321   5.193  1.00  0.00     0.042 C 
ENDBRANCH  36  37
ENDBRANCH  35  36
ENDBRANCH  30  35
ENDBRANCH  29  30
ENDBRANCH  28  29
ENDBRANCH  26  27
ENDBRANCH  24  26
ENDBRANCH  22  23
ENDBRANCH  21  22
ENDBRANCH   1  21
BRANCH  18  41
HETATM   41  C27 UNL     1      -1.176 -39.564  10.927  1.00  0.00     0.213 C 
BRANCH  41  42
HETATM   42  O7  UNL     1      -1.170 -39.151  12.267  1.00  0.00    -0.397 OA
ATOM     43  H7  UNL     1      -1.758 -39.670  12.803  1.00  0.00     0.209 HD
ENDBRANCH  41  42
ENDBRANCH  18  41
TORSDOF 14
ENDMDL
MODEL 3
REMARK VINA RESULT: -9.448355634      3.082      9.037
REMARK  14 active torsions:
REMARK  status: ('A' for Active; 'I' for Inactive)
REMARK    1  A    between atoms: C2_2  and  O2_4 
REMARK    2  A    between atoms: O2_4  and  C3_5 
REMARK    3  A    between atoms: C3_5  and  C4_6 
REMARK    4  A    between atoms: C3_5  and  C29_38 
REMARK    5  A    between atoms: C4_6  and  C5_7 
REMARK    6  A    between atoms: C6_8  and  C7_9 
REMARK    7  A    between atoms: C7_9  and  C8_10 
REMARK    8  A    between atoms: C10_12  and  C11_13 
REMARK    9  A    between atoms: C11_13  and  C12_14 
REMARK   10  A    between atoms: C12_14  and  C13_15 
REMARK   11  A    between atoms: C26_32  and  C27_33 
REMARK   12  A    between atoms: C27_33  and  O7_34 
REMARK   13  A    between atoms: C29_38  and  C30_39 
REMARK   14  A    between atoms: C30_39  and  C31_40 
ROOT
HETATM    1  C13 UNL     1      -0.541 -40.650   6.936  1.00  0.00     0.068 C 
HETATM    2  C14 UNL     1      -2.040 -40.491   6.799  1.00  0.00     0.031 C 
HETATM    3  C15 UNL     1      -0.287 -42.132   7.111  1.00  0.00     0.142 C 
HETATM    4  O3  UNL     1      -1.190 -42.915   7.235  1.00  0.00    -0.297 OA
HETATM    5  C16 UNL     1       1.100 -42.628   7.130  1.00  0.00     0.086 C 
HETATM    6  C17 UNL     1       2.076 -41.695   6.501  1.00  0.00     0.074 C 
HETATM    7  C18 UNL     1       1.416 -40.734   5.546  1.00  0.00     0.077 C 
HETATM    8  C19 UNL     1       0.208 -40.244   5.734  1.00  0.00     0.092 C 
HETATM    9  O4  UNL     1      -0.348 -39.345   4.797  1.00  0.00    -0.336 OA
HETATM   10  C20 UNL     1       0.230 -39.340   3.504  1.00  0.00     0.120 C 
HETATM   11  C21 UNL     1       0.101 -40.718   2.880  1.00  0.00     0.052 C 
HETATM   12  C22 UNL     1       1.734 -39.146   3.771  1.00  0.00     0.177 C 
HETATM   13  O5  UNL     1       2.137 -40.346   4.394  1.00  0.00    -0.344 OA
HETATM   14  C23 UNL     1       2.511 -38.839   2.536  1.00  0.00     0.087 C 
HETATM   15  C24 UNL     1       3.692 -39.782   2.433  1.00  0.00     0.021 C 
HETATM   16  C25 UNL     1       1.634 -38.923   1.353  1.00  0.00     0.172 C 
HETATM   17  O6  UNL     1       1.904 -39.633   0.409  1.00  0.00    -0.294 OA
HETATM   18  C26 UNL     1       0.392 -38.075   1.407  1.00  0.00     0.172 A 
HETATM   19  O8  UNL     1      -0.831 -38.722   1.315  1.00  0.00    -0.355 OA
HETATM   20  C28 UNL     1      -0.310 -38.241   2.643  1.00  0.00     0.205 A 
ENDROOT
BRANCH   1  21
HETATM   21  C12 UNL     1      -0.082 -39.863   8.129  1.00  0.00     0.028 C 
BRANCH  21  22
HETATM   22  C11 UNL     1      -1.024 -38.747   8.487  1.00  0.00     0.029 C 
BRANCH  22  23
HETATM   23  C10 UNL     1      -0.536 -37.451   8.007  1.00  0.00    -0.024 C 
HETATM   24  C8  UNL     1       0.047 -36.541   8.741  1.00  0.00    -0.084 C 
HETATM   25  C9  UNL     1       0.331 -36.679  10.175  1.00  0.00     0.043 C 
BRANCH  24  26
HETATM   26  C7  UNL     1       0.496 -35.232   8.098  1.00  0.00     0.061 C 
BRANCH  26  27
HETATM   27  C6  UNL     1      -0.587 -34.755   7.222  1.00  0.00    -0.014 C 
HETATM   28  C5  UNL     1      -0.355 -34.155   6.030  1.00  0.00     0.050 C 
BRANCH  28  29
HETATM   29  C4  UNL     1      -1.444 -33.727   5.237  1.00  0.00    -0.124 C 
BRANCH  29  30
HETATM   30  C3  UNL     1      -2.393 -33.355   4.533  1.00  0.00     0.202 C 
BRANCH  30  31
HETATM   31  O2  UNL     1      -1.916 -32.896   3.190  1.00  0.00    -0.304 OA
BRANCH  31  32
HETATM   32  C2  UNL     1      -1.499 -33.843   2.296  1.00  0.00     0.256 C 
HETATM   33  C1  UNL     1      -2.287 -35.111   2.083  1.00  0.00     0.126 C 
HETATM   34  O1  UNL     1      -0.458 -33.701   1.625  1.00  0.00    -0.266 OA
ENDBRANCH  31  32
ENDBRANCH  30  31
BRANCH  30  35
HETATM   35  C29 UNL     1      -3.828 -33.252   4.662  1.00  0.00     0.049 C 
BRANCH  35  36
HETATM   36  C30 UNL     1      -4.540 -34.565   4.775  1.00  0.00     0.031 C 
BRANCH  36  37
HETATM   37  C31 UNL     1      -4.549 -35.032   6.194  1.00  0.00    -0.025 C 
HETATM   38  C32 UNL     1      -3.971 -36.143   6.554  1.00  0.00    -0.091 C 
HETATM   39  C33 UNL     1      -4.040 -36.523   8.006  1.00  0.00     0.042 C 
HETATM   40  C34 UNL     1      -3.282 -37.033   5.626  1.00  0.00     0.042 C 
ENDBRANCH  36  37
ENDBRANCH  35  36
ENDBRANCH  30  35
ENDBRANCH  29  30
ENDBRANCH  28  29
ENDBRANCH  26  27
ENDBRANCH  24  26
ENDBRANCH  22  23
ENDBRANCH  21  22
ENDBRANCH   1  21
BRANCH  18  41
HETATM   41  C27 UNL     1       0.521 -36.797   0.646  1.00  0.00     0.213 C 
BRANCH  41  42
HETATM   42  O7  UNL     1       1.549 -36.852  -0.305  1.00  0.00    -0.397 OA
ATOM     43  H7  UNL     1       2.200 -36.172  -0.167  1.00  0.00     0.209 HD
ENDBRANCH  41  42
ENDBRANCH  18  41
TORSDOF 14
ENDMDL
MODEL 4
REMARK VINA RESULT: -9.345184557      2.335      5.239
REMARK  14 active torsions:
REMARK  status: ('A' for Active; 'I' for Inactive)
REMARK    1  A    between atoms: C2_2  and  O2_4 
REMARK    2  A    between atoms: O2_4  and  C3_5 
REMARK    3  A    between atoms: C3_5  and  C4_6 
REMARK    4  A    between atoms: C3_5  and  C29_38 
REMARK    5  A    between atoms: C4_6  and  C5_7 
REMARK    6  A    between atoms: C6_8  and  C7_9 
REMARK    7  A    between atoms: C7_9  and  C8_10 
REMARK    8  A    between atoms: C10_12  and  C11_13 
REMARK    9  A    between atoms: C11_13  and  C12_14 
REMARK   10  A    between atoms: C12_14  and  C13_15 
REMARK   11  A    between atoms: C26_32  and  C27_33 
REMARK   12  A    between atoms: C27_33  and  O7_34 
REMARK   13  A    between atoms: C29_38  and  C30_39 
REMARK   14  A    between atoms: C30_39  and  C31_40 
ROOT
HETATM    1  C13 UNL     1      -1.449 -38.340   8.278  1.00  0.00     0.068 C 
HETATM    2  C14 UNL     1      -0.168 -37.734   8.810  1.00  0.00     0.031 C 
HETATM    3  C15 UNL     1      -2.432 -38.328   9.428  1.00  0.00     0.142 C 
HETATM    4  O3  UNL     1      -2.102 -37.999  10.536  1.00  0.00    -0.297 OA
HETATM    5  C16 UNL     1      -3.829 -38.727   9.186  1.00  0.00     0.086 C 
HETATM    6  C17 UNL     1      -4.236 -38.639   7.756  1.00  0.00     0.074 C 
HETATM    7  C18 UNL     1      -3.358 -37.702   6.967  1.00  0.00     0.077 C 
HETATM    8  C19 UNL     1      -2.070 -37.553   7.198  1.00  0.00     0.092 C 
HETATM    9  O4  UNL     1      -1.307 -36.656   6.417  1.00  0.00    -0.336 OA
HETATM   10  C20 UNL     1      -2.027 -35.657   5.716  1.00  0.00     0.120 C 
HETATM   11  C21 UNL     1      -2.796 -34.795   6.700  1.00  0.00     0.052 C 
HETATM   12  C22 UNL     1      -3.093 -36.447   4.935  1.00  0.00     0.177 C 
HETATM   13  O5  UNL     1      -3.957 -36.948   5.932  1.00  0.00    -0.344 OA
HETATM   14  C23 UNL     1      -3.797 -35.622   3.913  1.00  0.00     0.087 C 
HETATM   15  C24 UNL     1      -5.295 -35.761   4.094  1.00  0.00     0.021 C 
HETATM   16  C25 UNL     1      -3.359 -34.217   4.007  1.00  0.00     0.172 C 
HETATM   17  O6  UNL     1      -4.150 -33.310   4.151  1.00  0.00    -0.294 OA
HETATM   18  C26 UNL     1      -1.873 -33.996   3.917  1.00  0.00     0.172 A 
HETATM   19  O8  UNL     1      -1.249 -33.383   4.993  1.00  0.00    -0.355 OA
HETATM   20  C28 UNL     1      -1.152 -34.872   4.789  1.00  0.00     0.205 A 
ENDROOT
BRANCH   1  21
HETATM   21  C12 UNL     1      -1.161 -39.736   7.808  1.00  0.00     0.028 C 
BRANCH  21  22
HETATM   22  C11 UNL     1      -0.475 -40.571   8.853  1.00  0.00     0.029 C 
BRANCH  22  23
HETATM   23  C10 UNL     1       0.813 -41.083   8.379  1.00  0.00    -0.024 C 
HETATM   24  C8  UNL     1       0.998 -42.226   7.772  1.00  0.00    -0.084 C 
HETATM   25  C9  UNL     1      -0.069 -43.181   7.443  1.00  0.00     0.043 C 
BRANCH  24  26
HETATM   26  C7  UNL     1       2.405 -42.628   7.340  1.00  0.00     0.061 C 
BRANCH  26  27
HETATM   27  C6  UNL     1       2.643 -42.090   5.990  1.00  0.00    -0.014 C 
HETATM   28  C5  UNL     1       3.885 -41.933   5.472  1.00  0.00     0.050 C 
BRANCH  28  29
HETATM   29  C4  UNL     1       4.039 -41.416   4.165  1.00  0.00    -0.124 C 
BRANCH  29  30
HETATM   30  C3  UNL     1       4.171 -40.973   3.016  1.00  0.00     0.202 C 
BRANCH  30  31
HETATM   31  O2  UNL     1       5.594 -41.073   2.563  1.00  0.00    -0.304 OA
BRANCH  31  32
HETATM   32  C2  UNL     1       6.085 -42.309   2.247  1.00  0.00     0.256 C 
HETATM   33  C1  UNL     1       7.365 -42.818   2.863  1.00  0.00     0.126 C 
HETATM   34  O1  UNL     1       5.503 -43.062   1.442  1.00  0.00    -0.266 OA
ENDBRANCH  31  32
ENDBRANCH  30  31
BRANCH  30  35
HETATM   35  C29 UNL     1       3.320 -40.395   2.003  1.00  0.00     0.049 C 
BRANCH  35  36
HETATM   36  C30 UNL     1       2.277 -39.455   2.524  1.00  0.00     0.031 C 
BRANCH  36  37
HETATM   37  C31 UNL     1       1.046 -40.206   2.915  1.00  0.00    -0.025 C 
HETATM   38  C32 UNL     1       0.464 -40.019   4.066  1.00  0.00    -0.091 C 
HETATM   39  C33 UNL     1      -0.768 -40.826   4.360  1.00  0.00     0.042 C 
HETATM   40  C34 UNL     1       0.953 -39.086   5.076  1.00  0.00     0.042 C 
ENDBRANCH  36  37
ENDBRANCH  35  36
ENDBRANCH  30  35
ENDBRANCH  29  30
ENDBRANCH  28  29
ENDBRANCH  26  27
ENDBRANCH  24  26
ENDBRANCH  22  23
ENDBRANCH  21  22
ENDBRANCH   1  21
BRANCH  18  41
HETATM   41  C27 UNL     1      -1.427 -33.559   2.561  1.00  0.00     0.213 C 
BRANCH  41  42
HETATM   42  O7  UNL     1      -2.272 -32.583   2.017  1.00  0.00    -0.397 OA
ATOM     43  H7  UNL     1      -3.012 -32.965   1.559  1.00  0.00     0.209 HD
ENDBRANCH  41  42
ENDBRANCH  18  41
TORSDOF 14
ENDMDL
MODEL 5
REMARK VINA RESULT: -9.290962770      2.268      3.273
REMARK  14 active torsions:
REMARK  status: ('A' for Active; 'I' for Inactive)
REMARK    1  A    between atoms: C2_2  and  O2_4 
REMARK    2  A    between atoms: O2_4  and  C3_5 
REMARK    3  A    between atoms: C3_5  and  C4_6 
REMARK    4  A    between atoms: C3_5  and  C29_38 
REMARK    5  A    between atoms: C4_6  and  C5_7 
REMARK    6  A    between atoms: C6_8  and  C7_9 
REMARK    7  A    between atoms: C7_9  and  C8_10 
REMARK    8  A    between atoms: C10_12  and  C11_13 
REMARK    9  A    between atoms: C11_13  and  C12_14 
REMARK   10  A    between atoms: C12_14  and  C13_15 
REMARK   11  A    between atoms: C26_32  and  C27_33 
REMARK   12  A    between atoms: C27_33  and  O7_34 
REMARK   13  A    between atoms: C29_38  and  C30_39 
REMARK   14  A    between atoms: C30_39  and  C31_40 
ROOT
HETATM    1  C13 UNL     1      -1.861 -35.226   4.185  1.00  0.00     0.068 C 
HETATM    2  C14 UNL     1      -3.116 -35.839   3.601  1.00  0.00     0.031 C 
HETATM    3  C15 UNL     1      -2.158 -33.754   4.374  1.00  0.00     0.142 C 
HETATM    4  O3  UNL     1      -3.179 -33.262   3.977  1.00  0.00    -0.297 OA
HETATM    5  C16 UNL     1      -1.171 -32.903   5.062  1.00  0.00     0.086 C 
HETATM    6  C17 UNL     1      -0.216 -33.665   5.913  1.00  0.00     0.074 C 
HETATM    7  C18 UNL     1      -0.751 -35.018   6.305  1.00  0.00     0.077 C 
HETATM    8  C19 UNL     1      -1.513 -35.750   5.517  1.00  0.00     0.092 C 
HETATM    9  O4  UNL     1      -1.978 -37.011   5.950  1.00  0.00    -0.336 OA
HETATM   10  C20 UNL     1      -1.963 -37.247   7.347  1.00  0.00     0.120 C 
HETATM   11  C21 UNL     1      -2.836 -36.223   8.048  1.00  0.00     0.052 C 
HETATM   12  C22 UNL     1      -0.519 -36.914   7.764  1.00  0.00     0.177 C 
HETATM   13  O5  UNL     1      -0.416 -35.518   7.584  1.00  0.00    -0.344 OA
HETATM   14  C23 UNL     1      -0.197 -37.349   9.153  1.00  0.00     0.087 C 
HETATM   15  C24 UNL     1       0.396 -36.188   9.923  1.00  0.00     0.021 C 
HETATM   16  C25 UNL     1      -1.406 -37.884   9.807  1.00  0.00     0.172 C 
HETATM   17  O6  UNL     1      -1.802 -37.452  10.868  1.00  0.00    -0.294 OA
HETATM   18  C26 UNL     1      -2.106 -38.992   9.066  1.00  0.00     0.172 A 
HETATM   19  O8  UNL     1      -3.425 -38.781   8.693  1.00  0.00    -0.355 OA
HETATM   20  C28 UNL     1      -2.309 -38.663   7.689  1.00  0.00     0.205 A 
ENDROOT
BRANCH   1  21
HETATM   21  C12 UNL     1      -0.728 -35.446   3.224  1.00  0.00     0.028 C 
BRANCH  21  22
HETATM   22  C11 UNL     1      -1.162 -36.138   1.962  1.00  0.00     0.029 C 
BRANCH  22  23
HETATM   23  C10 UNL     1      -0.033 -36.770   1.275  1.00  0.00    -0.024 C 
HETATM   24  C8  UNL     1       0.150 -38.057   1.141  1.00  0.00    -0.084 C 
HETATM   25  C9  UNL     1      -0.767 -39.089   1.642  1.00  0.00     0.043 C 
BRANCH  24  26
HETATM   26  C7  UNL     1       1.383 -38.568   0.401  1.00  0.00     0.061 C 
BRANCH  26  27
HETATM   27  C6  UNL     1       2.314 -39.130   1.394  1.00  0.00    -0.014 C 
HETATM   28  C5  UNL     1       2.842 -40.373   1.282  1.00  0.00     0.050 C 
BRANCH  28  29
HETATM   29  C4  UNL     1       3.736 -40.846   2.269  1.00  0.00    -0.124 C 
BRANCH  29  30
HETATM   30  C3  UNL     1       4.511 -41.264   3.141  1.00  0.00     0.202 C 
BRANCH  30  31
HETATM   31  O2  UNL     1       5.923 -41.271   2.644  1.00  0.00    -0.304 OA
BRANCH  31  32
HETATM   32  C2  UNL     1       6.615 -42.449   2.684  1.00  0.00     0.256 C 
HETATM   33  C1  UNL     1       6.133 -43.660   1.925  1.00  0.00     0.126 C 
HETATM   34  O1  UNL     1       7.664 -42.573   3.345  1.00  0.00    -0.266 OA
ENDBRANCH  31  32
ENDBRANCH  30  31
BRANCH  30  35
HETATM   35  C29 UNL     1       4.414 -41.735   4.502  1.00  0.00     0.049 C 
BRANCH  35  36
HETATM   36  C30 UNL     1       3.069 -41.546   5.135  1.00  0.00     0.031 C 
BRANCH  36  37
HETATM   37  C31 UNL     1       2.666 -40.109   5.083  1.00  0.00    -0.025 C 
HETATM   38  C32 UNL     1       1.426 -39.750   4.904  1.00  0.00    -0.091 C 
HETATM   39  C33 UNL     1       1.128 -38.278   4.867  1.00  0.00     0.042 C 
HETATM   40  C34 UNL     1       0.329 -40.696   4.726  1.00  0.00     0.042 C 
ENDBRANCH  36  37
ENDBRANCH  35  36
ENDBRANCH  30  35
ENDBRANCH  29  30
ENDBRANCH  28  29
ENDBRANCH  26  27
ENDBRANCH  24  26
ENDBRANCH  22  23
ENDBRANCH  21  22
ENDBRANCH   1  21
BRANCH  18  41
HETATM   41  C27 UNL     1      -1.781 -40.349   9.597  1.00  0.00     0.213 C 
BRANCH  41  42
HETATM   42  O7  UNL     1      -1.935 -40.421  10.988  1.00  0.00    -0.397 OA
ATOM     43  H7  UNL     1      -1.318 -41.026  11.385  1.00  0.00     0.209 HD
ENDBRANCH  41  42
ENDBRANCH  18  41
TORSDOF 14
ENDMDL
