MODEL 1
REMARK VINA RESULT: -9.143423474      0.000      0.000
REMARK  11 active torsions:
REMARK  status: ('A' for Active; 'I' for Inactive)
REMARK    1  A    between atoms: C3_3  and  C4_4 
REMARK    2  A    between atoms: C6_6  and  C7_7 
REMARK    3  A    between atoms: C8_11  and  C9_12 
REMARK    4  A    between atoms: C9_12  and  C11_14 
REMARK    5  A    between atoms: C11_14  and  C12_15 
REMARK    6  A    between atoms: C13_16  and  C14_17 
REMARK    7  A    between atoms: C15_18  and  C16_19 
REMARK    8  A    between atoms: C15_18  and  C25_28 
REMARK    9  A    between atoms: C17_20  and  C19_22 
REMARK   10  A    between atoms: C19_22  and  C20_23 
REMARK   11  A    between atoms: C20_23  and  C21_24 
ROOT
HETATM    1  C12 UNL     1      -2.577 -37.352  10.099  1.00  0.00     0.033 C 
HETATM    2  C13 UNL     1      -1.059 -37.896  10.194  1.00  0.00     0.160 C 
HETATM    3  O4  UNL     1      -0.469 -36.545  10.255  1.00  0.00    -0.311 OA
HETATM    4  C28 UNL     1      -1.268 -35.859  11.186  1.00  0.00     0.263 C 
HETATM    5  O5  UNL     1      -1.094 -34.763  11.739  1.00  0.00    -0.265 OA
HETATM    6  C29 UNL     1      -2.480 -36.724  11.442  1.00  0.00     0.088 C 
HETATM    7  C30 UNL     1      -3.600 -36.142  12.134  1.00  0.00     0.021 C 
ENDROOT
BRANCH   1   8
HETATM    8  C11 UNL     1      -2.632 -36.503   8.925  1.00  0.00     0.017 C 
BRANCH   8   9
HETATM    9  C9  UNL     1      -3.168 -36.739   7.618  1.00  0.00     0.037 C 
HETATM   10  C10 UNL     1      -3.996 -38.072   7.705  1.00  0.00     0.015 C 
BRANCH   9  11
HETATM   11  C8  UNL     1      -2.386 -36.875   6.372  1.00  0.00     0.264 C 
HETATM   12  O3  UNL     1      -1.108 -36.264   6.573  1.00  0.00    -0.345 OA
HETATM   13  C6  UNL     1      -0.693 -35.468   5.545  1.00  0.00     0.228 C 
HETATM   14  C5  UNL     1       0.109 -36.207   4.506  1.00  0.00     0.089 C 
HETATM   15  C4  UNL     1      -0.545 -36.439   3.206  1.00  0.00     0.122 C 
HETATM   16  C32 UNL     1      -2.016 -36.046   3.183  1.00  0.00     0.197 C 
HETATM   17  O9  UNL     1      -0.090 -35.634   2.133  1.00  0.00    -0.280 OA
HETATM   18  C31 UNL     1      -2.843 -36.879   4.083  1.00  0.00     0.207 C 
HETATM   19  O7  UNL     1      -2.260 -36.299   1.783  1.00  0.00    -0.287 OA
HETATM   20  O6  UNL     1      -3.028 -36.268   5.308  1.00  0.00    -0.358 OA
HETATM   21  C33 UNL     1      -1.116 -35.760   1.172  1.00  0.00     0.408 C 
HETATM   22  O8  UNL     1      -1.020 -35.439  -0.039  1.00  0.00    -0.229 OA
BRANCH  13  23
HETATM   23  C7  UNL     1       0.256 -34.446   6.112  1.00  0.00     0.203 C 
HETATM   24  O1  UNL     1       0.774 -34.631   7.227  1.00  0.00    -0.646 OA
HETATM   25  O2  UNL     1       0.561 -33.298   5.406  1.00  0.00    -0.646 OA
ENDBRANCH  13  23
BRANCH  15  26
HETATM   26  C3  UNL     1      -0.464 -37.852   2.752  1.00  0.00     0.010 C 
HETATM   27  C2  UNL     1       0.710 -38.389   2.509  1.00  0.00    -0.032 C 
HETATM   28  C1  UNL     1       2.024 -37.723   2.641  1.00  0.00     0.036 C 
ENDBRANCH  15  26
ENDBRANCH   9  11
ENDBRANCH   8   9
ENDBRANCH   1   8
BRANCH   2  29
HETATM   29  C14 UNL     1      -0.634 -38.598   9.058  1.00  0.00     0.013 C 
HETATM   30  C15 UNL     1      -0.611 -39.878   8.734  1.00  0.00    -0.056 C 
BRANCH  30  31
HETATM   31  C16 UNL     1      -0.053 -40.173   7.377  1.00  0.00     0.009 C 
HETATM   32  C17 UNL     1      -0.487 -40.435   6.214  1.00  0.00    -0.083 C 
HETATM   33  C18 UNL     1      -1.840 -40.573   5.648  1.00  0.00     0.043 C 
BRANCH  32  34
HETATM   34  C19 UNL     1       0.594 -40.716   5.113  1.00  0.00     0.037 C 
BRANCH  34  35
HETATM   35  C20 UNL     1       1.955 -40.754   5.695  1.00  0.00     0.031 C 
BRANCH  35  36
HETATM   36  C21 UNL     1       2.923 -40.770   4.553  1.00  0.00    -0.024 C 
HETATM   37  C22 UNL     1       3.987 -41.558   4.519  1.00  0.00    -0.091 C 
HETATM   38  C23 UNL     1       4.221 -42.469   5.680  1.00  0.00     0.042 C 
HETATM   39  C24 UNL     1       4.933 -41.557   3.374  1.00  0.00     0.042 C 
ENDBRANCH  35  36
ENDBRANCH  34  35
ENDBRANCH  32  34
ENDBRANCH  30  31
BRANCH  30  40
HETATM   40  C25 UNL     1      -1.098 -40.959   9.549  1.00  0.00     0.010 C 
HETATM   41  C26 UNL     1      -0.423 -42.264   9.492  1.00  0.00     0.015 C 
HETATM   42  C27 UNL     1      -2.614 -41.159   9.480  1.00  0.00     0.015 C 
ENDBRANCH  30  40
ENDBRANCH   2  29
TORSDOF 11
ENDMDL
MODEL 2
REMARK VINA RESULT: -8.973333439      2.468      5.055
REMARK  11 active torsions:
REMARK  status: ('A' for Active; 'I' for Inactive)
REMARK    1  A    between atoms: C3_3  and  C4_4 
REMARK    2  A    between atoms: C6_6  and  C7_7 
REMARK    3  A    between atoms: C8_11  and  C9_12 
REMARK    4  A    between atoms: C9_12  and  C11_14 
REMARK    5  A    between atoms: C11_14  and  C12_15 
REMARK    6  A    between atoms: C13_16  and  C14_17 
REMARK    7  A    between atoms: C15_18  and  C16_19 
REMARK    8  A    between atoms: C15_18  and  C25_28 
REMARK    9  A    between atoms: C17_20  and  C19_22 
REMARK   10  A    between atoms: C19_22  and  C20_23 
REMARK   11  A    between atoms: C20_23  and  C21_24 
ROOT
HETATM    1  C12 UNL     1      -1.039 -42.277   7.052  1.00  0.00     0.033 C 
HETATM    2  C13 UNL     1       0.366 -42.711   7.720  1.00  0.00     0.160 C 
HETATM    3  O4  UNL     1       0.273 -41.721   8.810  1.00  0.00    -0.311 OA
HETATM    4  C28 UNL     1      -1.050 -41.838   9.273  1.00  0.00     0.263 C 
HETATM    5  O5  UNL     1      -1.587 -41.374  10.289  1.00  0.00    -0.265 OA
HETATM    6  C29 UNL     1      -1.790 -42.687   8.266  1.00  0.00     0.088 C 
HETATM    7  C30 UNL     1      -3.227 -42.734   8.339  1.00  0.00     0.021 C 
ENDROOT
BRANCH   1   8
HETATM    8  C11 UNL     1      -0.922 -40.866   6.738  1.00  0.00     0.017 C 
BRANCH   8   9
HETATM    9  C9  UNL     1      -1.472 -40.093   5.665  1.00  0.00     0.037 C 
HETATM   10  C10 UNL     1      -0.816 -40.628   4.342  1.00  0.00     0.015 C 
BRANCH   9  11
HETATM   11  C8  UNL     1      -1.409 -38.622   5.536  1.00  0.00     0.264 C 
HETATM   12  O3  UNL     1      -1.079 -38.303   4.180  1.00  0.00    -0.345 OA
HETATM   13  C6  UNL     1      -0.123 -37.339   4.043  1.00  0.00     0.228 C 
HETATM   14  C5  UNL     1      -0.691 -35.945   3.963  1.00  0.00     0.089 C 
HETATM   15  C4  UNL     1      -0.478 -35.076   5.134  1.00  0.00     0.122 C 
HETATM   16  C32 UNL     1       0.135 -35.796   6.327  1.00  0.00     0.197 C 
HETATM   17  O9  UNL     1       0.491 -34.055   4.977  1.00  0.00    -0.280 OA
HETATM   18  C31 UNL     1      -0.758 -36.834   6.888  1.00  0.00     0.207 C 
HETATM   19  O7  UNL     1       0.289 -34.647   7.187  1.00  0.00    -0.287 OA
HETATM   20  O6  UNL     1      -0.457 -38.085   6.383  1.00  0.00    -0.358 OA
HETATM   21  C33 UNL     1       0.778 -33.670   6.305  1.00  0.00     0.408 C 
HETATM   22  O8  UNL     1       1.377 -32.618   6.643  1.00  0.00    -0.229 OA
BRANCH  13  23
HETATM   23  C7  UNL     1       0.558 -37.555   2.717  1.00  0.00     0.203 C 
HETATM   24  O1  UNL     1      -0.104 -37.930   1.733  1.00  0.00    -0.646 OA
HETATM   25  O2  UNL     1       1.916 -37.342   2.579  1.00  0.00    -0.646 OA
ENDBRANCH  13  23
BRANCH  15  26
HETATM   26  C3  UNL     1      -1.724 -34.421   5.613  1.00  0.00     0.010 C 
HETATM   27  C2  UNL     1      -2.437 -33.696   4.781  1.00  0.00    -0.032 C 
HETATM   28  C1  UNL     1      -2.133 -33.443   3.356  1.00  0.00     0.036 C 
ENDBRANCH  15  26
ENDBRANCH   9  11
ENDBRANCH   8   9
ENDBRANCH   1   8
BRANCH   2  29
HETATM   29  C14 UNL     1       1.481 -42.480   6.902  1.00  0.00     0.013 C 
HETATM   30  C15 UNL     1       2.780 -42.649   7.065  1.00  0.00    -0.056 C 
BRANCH  30  31
HETATM   31  C16 UNL     1       3.618 -42.255   5.888  1.00  0.00     0.009 C 
HETATM   32  C17 UNL     1       3.613 -41.370   4.979  1.00  0.00    -0.083 C 
HETATM   33  C18 UNL     1       2.706 -40.253   4.662  1.00  0.00     0.043 C 
BRANCH  32  34
HETATM   34  C19 UNL     1       4.767 -41.451   3.921  1.00  0.00     0.037 C 
BRANCH  34  35
HETATM   35  C20 UNL     1       4.460 -40.630   2.729  1.00  0.00     0.031 C 
BRANCH  35  36
HETATM   36  C21 UNL     1       4.389 -41.559   1.558  1.00  0.00    -0.024 C 
HETATM   37  C22 UNL     1       3.344 -41.621   0.746  1.00  0.00    -0.091 C 
HETATM   38  C23 UNL     1       2.190 -40.714   1.023  1.00  0.00     0.042 C 
HETATM   39  C24 UNL     1       3.297 -42.551  -0.411  1.00  0.00     0.042 C 
ENDBRANCH  35  36
ENDBRANCH  34  35
ENDBRANCH  32  34
ENDBRANCH  30  31
BRANCH  30  40
HETATM   40  C25 UNL     1       3.416 -43.197   8.233  1.00  0.00     0.010 C 
HETATM   41  C26 UNL     1       3.974 -42.285   9.243  1.00  0.00     0.015 C 
HETATM   42  C27 UNL     1       4.420 -44.312   7.934  1.00  0.00     0.015 C 
ENDBRANCH  30  40
ENDBRANCH   2  29
TORSDOF 11
ENDMDL
MODEL 3
REMARK VINA RESULT: -8.920694748      1.599      1.959
REMARK  11 active torsions:
REMARK  status: ('A' for Active; 'I' for Inactive)
REMARK    1  A    between atoms: C3_3  and  C4_4 
REMARK    2  A    between atoms: C6_6  and  C7_7 
REMARK    3  A    between atoms: C8_11  and  C9_12 
REMARK    4  A    between atoms: C9_12  and  C11_14 
REMARK    5  A    between atoms: C11_14  and  C12_15 
REMARK    6  A    between atoms: C13_16  and  C14_17 
REMARK    7  A    between atoms: C15_18  and  C16_19 
REMARK    8  A    between atoms: C15_18  and  C25_28 
REMARK    9  A    between atoms: C17_20  and  C19_22 
REMARK   10  A    between atoms: C19_22  and  C20_23 
REMARK   11  A    between atoms: C20_23  and  C21_24 
ROOT
HETATM    1  C12 UNL     1      -2.964 -37.022  10.612  1.00  0.00     0.033 C 
HETATM    2  C13 UNL     1      -1.373 -37.298  10.653  1.00  0.00     0.160 C 
HETATM    3  O4  UNL     1      -1.028 -35.878  10.858  1.00  0.00    -0.311 OA
HETATM    4  C28 UNL     1      -1.920 -35.445  11.854  1.00  0.00     0.263 C 
HETATM    5  O5  UNL     1      -1.931 -34.399  12.520  1.00  0.00    -0.265 OA
HETATM    6  C29 UNL     1      -2.957 -36.531  12.014  1.00  0.00     0.088 C 
HETATM    7  C30 UNL     1      -4.150 -36.231  12.761  1.00  0.00     0.021 C 
ENDROOT
BRANCH   1   8
HETATM    8  C11 UNL     1      -3.186 -36.078   9.535  1.00  0.00     0.017 C 
BRANCH   8   9
HETATM    9  C9  UNL     1      -4.011 -36.161   8.366  1.00  0.00     0.037 C 
HETATM   10  C10 UNL     1      -4.626 -37.607   8.352  1.00  0.00     0.015 C 
BRANCH   9  11
HETATM   11  C8  UNL     1      -3.567 -35.940   6.974  1.00  0.00     0.264 C 
HETATM   12  O3  UNL     1      -2.163 -36.211   6.901  1.00  0.00    -0.345 OA
HETATM   13  C6  UNL     1      -1.444 -35.286   6.203  1.00  0.00     0.228 C 
HETATM   14  C5  UNL     1      -1.323 -35.608   4.735  1.00  0.00     0.089 C 
HETATM   15  C4  UNL     1      -2.092 -34.762   3.806  1.00  0.00     0.122 C 
HETATM   16  C32 UNL     1      -3.040 -33.794   4.501  1.00  0.00     0.197 C 
HETATM   17  O9  UNL     1      -1.338 -33.824   3.059  1.00  0.00    -0.280 OA
HETATM   18  C31 UNL     1      -4.123 -34.486   5.235  1.00  0.00     0.207 C 
HETATM   19  O7  UNL     1      -3.500 -33.097   3.324  1.00  0.00    -0.287 OA
HETATM   20  O6  UNL     1      -3.809 -34.639   6.572  1.00  0.00    -0.358 OA
HETATM   21  C33 UNL     1      -2.314 -32.915   2.595  1.00  0.00     0.408 C 
HETATM   22  O8  UNL     1      -2.147 -32.076   1.675  1.00  0.00    -0.229 OA
BRANCH  13  23
HETATM   23  C7  UNL     1      -0.031 -35.316   6.723  1.00  0.00     0.203 C 
HETATM   24  O1  UNL     1       0.213 -34.933   7.880  1.00  0.00    -0.646 OA
HETATM   25  O2  UNL     1       1.004 -35.768   5.927  1.00  0.00    -0.646 OA
ENDBRANCH  13  23
BRANCH  15  26
HETATM   26  C3  UNL     1      -2.900 -35.542   2.833  1.00  0.00     0.010 C 
HETATM   27  C2  UNL     1      -2.363 -36.574   2.223  1.00  0.00    -0.032 C 
HETATM   28  C1  UNL     1      -0.983 -37.077   2.399  1.00  0.00     0.036 C 
ENDBRANCH  15  26
ENDBRANCH   9  11
ENDBRANCH   8   9
ENDBRANCH   1   8
BRANCH   2  29
HETATM   29  C14 UNL     1      -0.850 -37.792   9.450  1.00  0.00     0.013 C 
HETATM   30  C15 UNL     1      -0.733 -39.003   8.937  1.00  0.00    -0.056 C 
BRANCH  30  31
HETATM   31  C16 UNL     1      -0.091 -39.054   7.585  1.00  0.00     0.009 C 
HETATM   32  C17 UNL     1      -0.447 -39.181   6.375  1.00  0.00    -0.083 C 
HETATM   33  C18 UNL     1      -1.757 -39.345   5.720  1.00  0.00     0.043 C 
BRANCH  32  34
HETATM   34  C19 UNL     1       0.702 -39.212   5.309  1.00  0.00     0.037 C 
BRANCH  34  35
HETATM   35  C20 UNL     1       0.922 -40.583   4.798  1.00  0.00     0.031 C 
BRANCH  35  36
HETATM   36  C21 UNL     1       2.390 -40.861   4.895  1.00  0.00    -0.024 C 
HETATM   37  C22 UNL     1       2.913 -41.675   5.800  1.00  0.00    -0.091 C 
HETATM   38  C23 UNL     1       1.984 -42.339   6.763  1.00  0.00     0.042 C 
HETATM   39  C24 UNL     1       4.373 -41.936   5.876  1.00  0.00     0.042 C 
ENDBRANCH  35  36
ENDBRANCH  34  35
ENDBRANCH  32  34
ENDBRANCH  30  31
BRANCH  30  40
HETATM   40  C25 UNL     1      -1.193 -40.221   9.547  1.00  0.00     0.010 C 
HETATM   41  C26 UNL     1      -0.388 -41.444   9.411  1.00  0.00     0.015 C 
HETATM   42  C27 UNL     1      -2.665 -40.540   9.275  1.00  0.00     0.015 C 
ENDBRANCH  30  40
ENDBRANCH   2  29
TORSDOF 11
ENDMDL
MODEL 4
REMARK VINA RESULT: -8.902819224      2.867      6.784
REMARK  11 active torsions:
REMARK  status: ('A' for Active; 'I' for Inactive)
REMARK    1  A    between atoms: C3_3  and  C4_4 
REMARK    2  A    between atoms: C6_6  and  C7_7 
REMARK    3  A    between atoms: C8_11  and  C9_12 
REMARK    4  A    between atoms: C9_12  and  C11_14 
REMARK    5  A    between atoms: C11_14  and  C12_15 
REMARK    6  A    between atoms: C13_16  and  C14_17 
REMARK    7  A    between atoms: C15_18  and  C16_19 
REMARK    8  A    between atoms: C15_18  and  C25_28 
REMARK    9  A    between atoms: C17_20  and  C19_22 
REMARK   10  A    between atoms: C19_22  and  C20_23 
REMARK   11  A    between atoms: C20_23  and  C21_24 
ROOT
HETATM    1  C12 UNL     1       2.342 -38.552   2.342  1.00  0.00     0.033 C 
HETATM    2  C13 UNL     1       2.865 -40.061   2.096  1.00  0.00     0.160 C 
HETATM    3  O4  UNL     1       1.545 -40.558   1.665  1.00  0.00    -0.311 OA
HETATM    4  C28 UNL     1       1.081 -39.580   0.768  1.00  0.00     0.263 C 
HETATM    5  O5  UNL     1       0.119 -39.601  -0.014  1.00  0.00    -0.265 OA
HETATM    6  C29 UNL     1       2.003 -38.391   0.904  1.00  0.00     0.088 C 
HETATM    7  C30 UNL     1       1.599 -37.142   0.314  1.00  0.00     0.021 C 
ENDROOT
BRANCH   1   8
HETATM    8  C11 UNL     1       1.270 -38.646   3.313  1.00  0.00     0.017 C 
BRANCH   8   9
HETATM    9  C9  UNL     1       0.923 -37.799   4.416  1.00  0.00     0.037 C 
HETATM   10  C10 UNL     1       0.607 -38.747   5.629  1.00  0.00     0.015 C 
BRANCH   9  11
HETATM   11  C8  UNL     1      -0.170 -36.805   4.434  1.00  0.00     0.264 C 
HETATM   12  O3  UNL     1       0.337 -35.588   4.990  1.00  0.00    -0.345 OA
HETATM   13  C6  UNL     1      -0.482 -35.001   5.910  1.00  0.00     0.228 C 
HETATM   14  C5  UNL     1      -1.452 -34.020   5.304  1.00  0.00     0.089 C 
HETATM   15  C4  UNL     1      -2.867 -34.430   5.260  1.00  0.00     0.122 C 
HETATM   16  C32 UNL     1      -3.099 -35.875   5.680  1.00  0.00     0.197 C 
HETATM   17  O9  UNL     1      -3.722 -33.795   6.195  1.00  0.00    -0.280 OA
HETATM   18  C31 UNL     1      -2.483 -36.845   4.747  1.00  0.00     0.207 C 
HETATM   19  O7  UNL     1      -4.542 -35.862   5.622  1.00  0.00    -0.287 OA
HETATM   20  O6  UNL     1      -1.239 -37.250   5.191  1.00  0.00    -0.358 OA
HETATM   21  C33 UNL     1      -4.859 -34.631   6.218  1.00  0.00     0.408 C 
HETATM   22  O8  UNL     1      -5.979 -34.322   6.698  1.00  0.00    -0.229 OA
BRANCH  13  23
HETATM   23  C7  UNL     1       0.379 -34.176   6.829  1.00  0.00     0.203 C 
HETATM   24  O1  UNL     1       0.721 -34.631   7.934  1.00  0.00    -0.646 OA
HETATM   25  O2  UNL     1       0.796 -32.912   6.458  1.00  0.00    -0.646 OA
ENDBRANCH  13  23
BRANCH  15  26
HETATM   26  C3  UNL     1      -3.487 -34.259   3.920  1.00  0.00     0.010 C 
HETATM   27  C2  UNL     1      -2.739 -33.911   2.898  1.00  0.00    -0.032 C 
HETATM   28  C1  UNL     1      -1.281 -33.659   2.924  1.00  0.00     0.036 C 
ENDBRANCH  15  26
ENDBRANCH   9  11
ENDBRANCH   8   9
ENDBRANCH   1   8
BRANCH   2  29
HETATM   29  C14 UNL     1       3.309 -40.706   3.258  1.00  0.00     0.013 C 
HETATM   30  C15 UNL     1       4.350 -41.470   3.534  1.00  0.00    -0.056 C 
BRANCH  30  31
HETATM   31  C16 UNL     1       4.421 -41.949   4.951  1.00  0.00     0.009 C 
HETATM   32  C17 UNL     1       3.638 -42.099   5.937  1.00  0.00    -0.083 C 
HETATM   33  C18 UNL     1       2.199 -41.848   6.132  1.00  0.00     0.043 C 
BRANCH  32  34
HETATM   34  C19 UNL     1       4.283 -42.624   7.267  1.00  0.00     0.037 C 
BRANCH  34  35
HETATM   35  C20 UNL     1       3.341 -42.508   8.402  1.00  0.00     0.031 C 
BRANCH  35  36
HETATM   36  C21 UNL     1       2.878 -43.891   8.735  1.00  0.00    -0.024 C 
HETATM   37  C22 UNL     1       1.618 -44.182   9.025  1.00  0.00    -0.091 C 
HETATM   38  C23 UNL     1       0.624 -43.067   9.015  1.00  0.00     0.042 C 
HETATM   39  C24 UNL     1       1.181 -45.563   9.351  1.00  0.00     0.042 C 
ENDBRANCH  35  36
ENDBRANCH  34  35
ENDBRANCH  32  34
ENDBRANCH  30  31
BRANCH  30  40
HETATM   40  C25 UNL     1       5.395 -41.830   2.614  1.00  0.00     0.010 C 
HETATM   41  C26 UNL     1       5.995 -43.170   2.694  1.00  0.00     0.015 C 
HETATM   42  C27 UNL     1       6.498 -40.778   2.478  1.00  0.00     0.015 C 
ENDBRANCH  30  40
ENDBRANCH   2  29
TORSDOF 11
ENDMDL
MODEL 5
REMARK VINA RESULT: -8.883271816      1.887      3.115
REMARK  11 active torsions:
REMARK  status: ('A' for Active; 'I' for Inactive)
REMARK    1  A    between atoms: C3_3  and  C4_4 
REMARK    2  A    between atoms: C6_6  and  C7_7 
REMARK    3  A    between atoms: C8_11  and  C9_12 
REMARK    4  A    between atoms: C9_12  and  C11_14 
REMARK    5  A    between atoms: C11_14  and  C12_15 
REMARK    6  A    between atoms: C13_16  and  C14_17 
REMARK    7  A    between atoms: C15_18  and  C16_19 
REMARK    8  A    between atoms: C15_18  and  C25_28 
REMARK    9  A    between atoms: C17_20  and  C19_22 
REMARK   10  A    between atoms: C19_22  and  C20_23 
REMARK   11  A    between atoms: C20_23  and  C21_24 
ROOT
HETATM    1  C12 UNL     1      -1.623 -38.252   9.374  1.00  0.00     0.033 C 
HETATM    2  C13 UNL     1      -1.122 -39.710   9.858  1.00  0.00     0.160 C 
HETATM    3  O4  UNL     1      -0.538 -39.206  11.115  1.00  0.00    -0.311 OA
HETATM    4  C28 UNL     1      -1.521 -38.344  11.633  1.00  0.00     0.263 C 
HETATM    5  O5  UNL     1      -1.615 -37.814  12.750  1.00  0.00    -0.265 OA
HETATM    6  C29 UNL     1      -2.539 -38.135  10.537  1.00  0.00     0.088 C 
HETATM    7  C30 UNL     1      -3.502 -37.076  10.692  1.00  0.00     0.021 C 
ENDROOT
BRANCH   1   8
HETATM    8  C11 UNL     1      -0.442 -37.414   9.318  1.00  0.00     0.017 C 
BRANCH   8   9
HETATM    9  C9  UNL     1       0.061 -36.565   8.280  1.00  0.00     0.037 C 
HETATM   10  C10 UNL     1       0.330 -35.162   8.937  1.00  0.00     0.015 C 
BRANCH   9  11
HETATM   11  C8  UNL     1      -0.625 -36.248   7.010  1.00  0.00     0.264 C 
HETATM   12  O3  UNL     1      -0.140 -37.141   6.002  1.00  0.00    -0.345 OA
HETATM   13  C6  UNL     1       0.157 -36.543   4.812  1.00  0.00     0.228 C 
HETATM   14  C5  UNL     1      -1.008 -36.505   3.857  1.00  0.00     0.089 C 
HETATM   15  C4  UNL     1      -1.630 -35.189   3.624  1.00  0.00     0.122 C 
HETATM   16  C32 UNL     1      -1.101 -34.092   4.537  1.00  0.00     0.197 C 
HETATM   17  O9  UNL     1      -1.346 -34.585   2.374  1.00  0.00    -0.280 OA
HETATM   18  C31 UNL     1      -1.431 -34.326   5.960  1.00  0.00     0.207 C 
HETATM   19  O7  UNL     1      -1.829 -32.990   3.953  1.00  0.00    -0.287 OA
HETATM   20  O6  UNL     1      -0.387 -34.941   6.625  1.00  0.00    -0.358 OA
HETATM   21  C33 UNL     1      -1.699 -33.233   2.577  1.00  0.00     0.408 C 
HETATM   22  O8  UNL     1      -1.869 -32.383   1.668  1.00  0.00    -0.229 OA
BRANCH  13  23
HETATM   23  C7  UNL     1       1.195 -37.387   4.122  1.00  0.00     0.203 C 
HETATM   24  O1  UNL     1       1.786 -38.282   4.752  1.00  0.00    -0.646 OA
HETATM   25  O2  UNL     1       1.501 -37.181   2.791  1.00  0.00    -0.646 OA
ENDBRANCH  13  23
BRANCH  15  26
HETATM   26  C3  UNL     1      -3.109 -35.204   3.771  1.00  0.00     0.010 C 
HETATM   27  C2  UNL     1      -3.842 -35.860   2.899  1.00  0.00    -0.032 C 
HETATM   28  C1  UNL     1      -3.345 -36.622   1.733  1.00  0.00     0.036 C 
ENDBRANCH  15  26
ENDBRANCH   9  11
ENDBRANCH   8   9
ENDBRANCH   1   8
BRANCH   2  29
HETATM   29  C14 UNL     1      -0.150 -40.283   9.026  1.00  0.00     0.013 C 
HETATM   30  C15 UNL     1      -0.169 -40.753   7.792  1.00  0.00    -0.056 C 
BRANCH  30  31
HETATM   31  C16 UNL     1       1.142 -41.283   7.301  1.00  0.00     0.009 C 
HETATM   32  C17 UNL     1       1.795 -42.369   7.340  1.00  0.00    -0.083 C 
HETATM   33  C18 UNL     1       1.524 -43.690   7.934  1.00  0.00     0.043 C 
BRANCH  32  34
HETATM   34  C19 UNL     1       3.210 -42.357   6.663  1.00  0.00     0.037 C 
BRANCH  34  35
HETATM   35  C20 UNL     1       3.202 -41.555   5.420  1.00  0.00     0.031 C 
BRANCH  35  36
HETATM   36  C21 UNL     1       4.442 -41.908   4.659  1.00  0.00    -0.024 C 
HETATM   37  C22 UNL     1       4.700 -41.448   3.444  1.00  0.00    -0.091 C 
HETATM   38  C23 UNL     1       3.698 -40.536   2.814  1.00  0.00     0.042 C 
HETATM   39  C24 UNL     1       5.939 -41.811   2.709  1.00  0.00     0.042 C 
ENDBRANCH  35  36
ENDBRANCH  34  35
ENDBRANCH  32  34
ENDBRANCH  30  31
BRANCH  30  40
HETATM   40  C25 UNL     1      -1.307 -40.756   6.913  1.00  0.00     0.010 C 
HETATM   41  C26 UNL     1      -2.286 -41.850   7.006  1.00  0.00     0.015 C 
HETATM   42  C27 UNL     1      -0.964 -40.494   5.445  1.00  0.00     0.015 C 
ENDBRANCH  30  40
ENDBRANCH   2  29
TORSDOF 11
ENDMDL
