MODEL 1
REMARK VINA RESULT: -5.986781715      0.000      0.000
REMARK  6 active torsions:
REMARK  status: ('A' for Active; 'I' for Inactive)
REMARK    1  A    between atoms: C2_2  and  C3_4 
REMARK    2  A    between atoms: C3_4  and  C4_5 
REMARK    3  A    between atoms: C4_5  and  C5_6 
REMARK    4  A    between atoms: C5_6  and  O3_8 
REMARK    5  A    between atoms: O3_8  and  C6_9 
REMARK    6  A    between atoms: C6_9  and  C7_10 
ROOT
HETATM    1  C4  UNL     1       8.344  25.777  -8.521  1.00  0.00     0.061 C 
HETATM    2  C8  UNL     1       7.376  24.727  -8.158  1.00  0.00     0.021 C 
HETATM    3  C9  UNL     1       6.270  24.471  -9.140  1.00  0.00     0.001 C 
HETATM    4  C10 UNL     1       5.687  25.654  -9.801  1.00  0.00     0.001 C 
HETATM    5  C11 UNL     1       6.314  26.965  -9.423  1.00  0.00     0.010 C 
HETATM    6  C12 UNL     1       7.809  26.775  -9.537  1.00  0.00    -0.030 C 
HETATM    7  C13 UNL     1       8.448  28.132  -9.318  1.00  0.00     0.016 C 
HETATM    8  C14 UNL     1       8.089  26.329 -10.956  1.00  0.00     0.016 C 
ENDROOT
BRANCH   1   9
HETATM    9  C3  UNL     1       9.672  25.301  -8.998  1.00  0.00     0.098 C 
BRANCH   9  10
HETATM   10  C2  UNL     1       9.916  23.863  -8.984  1.00  0.00     0.124 C 
HETATM   11  C1  UNL     1       9.623  23.018 -10.172  1.00  0.00     0.091 C 
HETATM   12  O1  UNL     1      10.364  23.321  -7.997  1.00  0.00    -0.298 OA
ENDBRANCH   9  10
ENDBRANCH   1   9
BRANCH   1  13
HETATM   13  C5  UNL     1       8.602  26.629  -7.301  1.00  0.00     0.269 C 
HETATM   14  O2  UNL     1       7.719  26.981  -6.502  1.00  0.00    -0.264 OA
BRANCH  13  15
HETATM   15  O3  UNL     1       9.894  27.039  -7.056  1.00  0.00    -0.312 OA
BRANCH  15  16
HETATM   16  C6  UNL     1      10.451  27.111  -5.779  1.00  0.00     0.278 C 
BRANCH  16  17
HETATM   17  C7  UNL     1      10.585  28.473  -5.229  1.00  0.00     0.255 C 
HETATM   18  N1  UNL     1      11.123  28.576  -3.915  1.00  0.00    -0.060 NA
HETATM   19  O4  UNL     1      10.254  29.503  -5.852  1.00  0.00    -0.274 OA
ENDBRANCH  16  17
ENDBRANCH  15  16
ENDBRANCH  13  15
ENDBRANCH   1  13
TORSDOF 6
ENDMDL
MODEL 2
REMARK VINA RESULT: -5.792064256      3.840      6.131
REMARK  6 active torsions:
REMARK  status: ('A' for Active; 'I' for Inactive)
REMARK    1  A    between atoms: C2_2  and  C3_4 
REMARK    2  A    between atoms: C3_4  and  C4_5 
REMARK    3  A    between atoms: C4_5  and  C5_6 
REMARK    4  A    between atoms: C5_6  and  O3_8 
REMARK    5  A    between atoms: O3_8  and  C6_9 
REMARK    6  A    between atoms: C6_9  and  C7_10 
ROOT
HETATM    1  C4  UNL     1       7.917  24.291  -9.092  1.00  0.00     0.061 C 
HETATM    2  C8  UNL     1       8.472  25.111  -8.002  1.00  0.00     0.021 C 
HETATM    3  C9  UNL     1       9.968  25.165  -7.903  1.00  0.00     0.001 C 
HETATM    4  C10 UNL     1      10.693  23.908  -8.167  1.00  0.00     0.001 C 
HETATM    5  C11 UNL     1       9.824  22.741  -8.538  1.00  0.00     0.010 C 
HETATM    6  C12 UNL     1       8.881  23.234  -9.611  1.00  0.00    -0.030 C 
HETATM    7  C13 UNL     1       8.108  22.029 -10.112  1.00  0.00     0.016 C 
HETATM    8  C14 UNL     1       9.736  23.767 -10.740  1.00  0.00     0.016 C 
ENDROOT
BRANCH   1   9
HETATM    9  C3  UNL     1       7.380  25.038 -10.262  1.00  0.00     0.098 C 
BRANCH   9  10
HETATM   10  C2  UNL     1       7.008  26.434 -10.054  1.00  0.00     0.124 C 
HETATM   11  C1  UNL     1       7.846  27.544 -10.581  1.00  0.00     0.091 C 
HETATM   12  O1  UNL     1       6.002  26.722  -9.443  1.00  0.00    -0.298 OA
ENDBRANCH   9  10
ENDBRANCH   1   9
BRANCH   1  13
HETATM   13  C5  UNL     1       6.773  23.474  -8.538  1.00  0.00     0.269 C 
HETATM   14  O2  UNL     1       6.852  22.773  -7.517  1.00  0.00    -0.264 OA
BRANCH  13  15
HETATM   15  O3  UNL     1       5.567  23.511  -9.203  1.00  0.00    -0.312 OA
BRANCH  15  16
HETATM   16  C6  UNL     1       4.334  23.605  -8.558  1.00  0.00     0.278 C 
BRANCH  16  17
HETATM   17  C7  UNL     1       3.303  22.661  -9.033  1.00  0.00     0.255 C 
HETATM   18  N1  UNL     1       3.241  22.447 -10.438  1.00  0.00    -0.060 NA
HETATM   19  O4  UNL     1       2.512  22.067  -8.272  1.00  0.00    -0.274 OA
ENDBRANCH  16  17
ENDBRANCH  15  16
ENDBRANCH  13  15
ENDBRANCH   1  13
TORSDOF 6
ENDMDL
MODEL 3
REMARK VINA RESULT: -5.708273774      2.657      5.657
REMARK  6 active torsions:
REMARK  status: ('A' for Active; 'I' for Inactive)
REMARK    1  A    between atoms: C2_2  and  C3_4 
REMARK    2  A    between atoms: C3_4  and  C4_5 
REMARK    3  A    between atoms: C4_5  and  C5_6 
REMARK    4  A    between atoms: C5_6  and  O3_8 
REMARK    5  A    between atoms: O3_8  and  C6_9 
REMARK    6  A    between atoms: C6_9  and  C7_10 
ROOT
HETATM    1  C4  UNL     1      10.562  27.414  -6.404  1.00  0.00     0.061 C 
HETATM    2  C8  UNL     1       9.592  27.416  -5.297  1.00  0.00     0.021 C 
HETATM    3  C9  UNL     1       9.636  28.598  -4.372  1.00  0.00     0.001 C 
HETATM    4  C10 UNL     1      10.974  29.117  -4.029  1.00  0.00     0.001 C 
HETATM    5  C11 UNL     1      12.119  28.405  -4.690  1.00  0.00     0.010 C 
HETATM    6  C12 UNL     1      11.771  28.304  -6.157  1.00  0.00    -0.030 C 
HETATM    7  C13 UNL     1      12.987  27.735  -6.864  1.00  0.00     0.016 C 
HETATM    8  C14 UNL     1      11.537  29.714  -6.653  1.00  0.00     0.016 C 
ENDROOT
BRANCH   1   9
HETATM    9  C3  UNL     1      10.016  27.744  -7.750  1.00  0.00     0.098 C 
BRANCH   9  10
HETATM   10  C2  UNL     1       8.564  27.811  -7.888  1.00  0.00     0.124 C 
HETATM   11  C1  UNL     1       7.752  26.584  -8.102  1.00  0.00     0.091 C 
HETATM   12  O1  UNL     1       7.986  28.874  -7.833  1.00  0.00    -0.298 OA
ENDBRANCH   9  10
ENDBRANCH   1   9
BRANCH   1  13
HETATM   13  C5  UNL     1      11.163  26.032  -6.508  1.00  0.00     0.269 C 
HETATM   14  O2  UNL     1      11.743  25.457  -5.574  1.00  0.00    -0.264 OA
BRANCH  13  15
HETATM   15  O3  UNL     1      11.060  25.368  -7.711  1.00  0.00    -0.312 OA
BRANCH  15  16
HETATM   16  C6  UNL     1      11.846  24.267  -8.052  1.00  0.00     0.278 C 
BRANCH  16  17
HETATM   17  C7  UNL     1      11.301  23.417  -9.129  1.00  0.00     0.255 C 
HETATM   18  N1  UNL     1      10.040  23.803  -9.664  1.00  0.00    -0.060 NA
HETATM   19  O4  UNL     1      11.885  22.406  -9.570  1.00  0.00    -0.274 OA
ENDBRANCH  16  17
ENDBRANCH  15  16
ENDBRANCH  13  15
ENDBRANCH   1  13
TORSDOF 6
ENDMDL
MODEL 4
REMARK VINA RESULT: -5.700222677      3.383      6.204
REMARK  6 active torsions:
REMARK  status: ('A' for Active; 'I' for Inactive)
REMARK    1  A    between atoms: C2_2  and  C3_4 
REMARK    2  A    between atoms: C3_4  and  C4_5 
REMARK    3  A    between atoms: C4_5  and  C5_6 
REMARK    4  A    between atoms: C5_6  and  O3_8 
REMARK    5  A    between atoms: O3_8  and  C6_9 
REMARK    6  A    between atoms: C6_9  and  C7_10 
ROOT
HETATM    1  C4  UNL     1      11.769  27.997  -5.677  1.00  0.00     0.061 C 
HETATM    2  C8  UNL     1      11.059  28.500  -4.489  1.00  0.00     0.021 C 
HETATM    3  C9  UNL     1      11.086  29.985  -4.274  1.00  0.00     0.001 C 
HETATM    4  C10 UNL     1      12.356  30.672  -4.578  1.00  0.00     0.001 C 
HETATM    5  C11 UNL     1      13.448  29.784  -5.102  1.00  0.00     0.010 C 
HETATM    6  C12 UNL     1      12.832  28.951  -6.202  1.00  0.00    -0.030 C 
HETATM    7  C13 UNL     1      13.957  28.168  -6.850  1.00  0.00     0.016 C 
HETATM    8  C14 UNL     1      12.262  29.915  -7.219  1.00  0.00     0.016 C 
ENDROOT
BRANCH   1   9
HETATM    9  C3  UNL     1      10.912  27.587  -6.824  1.00  0.00     0.098 C 
BRANCH   9  10
HETATM   10  C2  UNL     1       9.469  27.738  -6.672  1.00  0.00     0.124 C 
HETATM   11  C1  UNL     1       8.715  28.769  -7.433  1.00  0.00     0.091 C 
HETATM   12  O1  UNL     1       8.848  27.022  -5.917  1.00  0.00    -0.298 OA
ENDBRANCH   9  10
ENDBRANCH   1   9
BRANCH   1  13
HETATM   13  C5  UNL     1      12.565  26.778  -5.275  1.00  0.00     0.269 C 
HETATM   14  O2  UNL     1      13.208  26.688  -4.217  1.00  0.00    -0.264 OA
BRANCH  13  15
HETATM   15  O3  UNL     1      12.578  25.699  -6.132  1.00  0.00    -0.312 OA
BRANCH  15  16
HETATM   16  C6  UNL     1      12.308  24.391  -5.728  1.00  0.00     0.278 C 
BRANCH  16  17
HETATM   17  C7  UNL     1      11.863  23.482  -6.801  1.00  0.00     0.255 C 
HETATM   18  N1  UNL     1      11.844  24.019  -8.119  1.00  0.00    -0.060 NA
HETATM   19  O4  UNL     1      11.515  22.300  -6.602  1.00  0.00    -0.274 OA
ENDBRANCH  16  17
ENDBRANCH  15  16
ENDBRANCH  13  15
ENDBRANCH   1  13
TORSDOF 6
ENDMDL
MODEL 5
REMARK VINA RESULT: -5.668877296      4.559      6.739
REMARK  6 active torsions:
REMARK  status: ('A' for Active; 'I' for Inactive)
REMARK    1  A    between atoms: C2_2  and  C3_4 
REMARK    2  A    between atoms: C3_4  and  C4_5 
REMARK    3  A    between atoms: C4_5  and  C5_6 
REMARK    4  A    between atoms: C5_6  and  O3_8 
REMARK    5  A    between atoms: O3_8  and  C6_9 
REMARK    6  A    between atoms: C6_9  and  C7_10 
ROOT
HETATM    1  C4  UNL     1      13.921  27.926  -5.180  1.00  0.00     0.061 C 
HETATM    2  C8  UNL     1      14.006  26.770  -4.272  1.00  0.00     0.021 C 
HETATM    3  C9  UNL     1      14.160  25.424  -4.918  1.00  0.00     0.001 C 
HETATM    4  C10 UNL     1      13.384  25.191  -6.151  1.00  0.00     0.001 C 
HETATM    5  C11 UNL     1      12.566  26.361  -6.616  1.00  0.00     0.010 C 
HETATM    6  C12 UNL     1      13.483  27.562  -6.591  1.00  0.00    -0.030 C 
HETATM    7  C13 UNL     1      12.720  28.717  -7.211  1.00  0.00     0.016 C 
HETATM    8  C14 UNL     1      14.667  27.232  -7.474  1.00  0.00     0.016 C 
ENDROOT
BRANCH   1   9
HETATM    9  C3  UNL     1      15.145  28.767  -5.280  1.00  0.00     0.098 C 
BRANCH   9  10
HETATM   10  C2  UNL     1      16.287  28.395  -4.451  1.00  0.00     0.124 C 
HETATM   11  C1  UNL     1      17.309  27.429  -4.933  1.00  0.00     0.091 C 
HETATM   12  O1  UNL     1      16.427  28.866  -3.344  1.00  0.00    -0.298 OA
ENDBRANCH   9  10
ENDBRANCH   1   9
BRANCH   1  13
HETATM   13  C5  UNL     1      12.813  28.831  -4.695  1.00  0.00     0.269 C 
HETATM   14  O2  UNL     1      12.836  30.069  -4.792  1.00  0.00    -0.264 OA
BRANCH  13  15
HETATM   15  O3  UNL     1      11.708  28.251  -4.112  1.00  0.00    -0.312 OA
BRANCH  15  16
HETATM   16  C6  UNL     1      10.472  28.888  -4.001  1.00  0.00     0.278 C 
BRANCH  16  17
HETATM   17  C7  UNL     1       9.495  28.551  -5.054  1.00  0.00     0.255 C 
HETATM   18  N1  UNL     1       8.506  27.585  -4.716  1.00  0.00    -0.060 NA
HETATM   19  O4  UNL     1       9.505  29.065  -6.192  1.00  0.00    -0.274 OA
ENDBRANCH  16  17
ENDBRANCH  15  16
ENDBRANCH  13  15
ENDBRANCH   1  13
TORSDOF 6
ENDMDL
