MODEL 1
REMARK VINA RESULT: -8.333902733      0.000      0.000
REMARK  7 active torsions:
REMARK  status: ('A' for Active; 'I' for Inactive)
REMARK    1  A    between atoms: C2_2  and  C4_4 
REMARK    2  A    between atoms: C4_4  and  C5_6 
REMARK    3  A    between atoms: C5_6  and  O2_7 
REMARK    4  A    between atoms: C5_6  and  C6_9 
REMARK    5  A    between atoms: C7_10  and  C8_11 
REMARK    6  A    between atoms: C9_12  and  C10_13 
REMARK    7  A    between atoms: C11_14  and  C12_15 
ROOT
HETATM    1  C6  UNL     1       8.099  28.174 -10.851  1.00  0.00     0.012 C 
HETATM    2  C7  UNL     1       7.525  27.006 -10.730  1.00  0.00    -0.001 C 
ENDROOT
BRANCH   2   3
HETATM    3  C8  UNL     1       6.195  26.912 -10.138  1.00  0.00    -0.000 C 
HETATM    4  C9  UNL     1       5.924  26.098  -9.141  1.00  0.00    -0.000 C 
BRANCH   4   5
HETATM    5  C10 UNL     1       6.879  25.212  -8.516  1.00  0.00    -0.001 C 
HETATM    6  C11 UNL     1       6.539  23.991  -8.148  1.00  0.00     0.006 C 
BRANCH   6   7
HETATM    7  C12 UNL     1       5.153  23.475  -8.364  1.00  0.00     0.168 C 
HETATM    8  O3  UNL     1       4.899  22.313  -7.603  1.00  0.00    -0.311 OA
HETATM    9  C13 UNL     1       5.633  21.603  -8.560  1.00  0.00     0.266 C 
HETATM   10  O4  UNL     1       6.385  20.621  -8.615  1.00  0.00    -0.265 OA
HETATM   11  C14 UNL     1       5.111  22.575  -9.574  1.00  0.00     0.114 C 
HETATM   12  C15 UNL     1       3.734  22.202 -10.051  1.00  0.00     0.023 C 
ENDBRANCH   6   7
ENDBRANCH   4   5
ENDBRANCH   2   3
BRANCH   1  13
HETATM   13  C5  UNL     1       7.419  29.402 -10.395  1.00  0.00     0.210 C 
BRANCH  13  14
HETATM   14  C4  UNL     1       7.561  30.482 -11.439  1.00  0.00     0.162 C 
HETATM   15  O1  UNL     1       8.581  30.415 -12.104  1.00  0.00    -0.294 OA
BRANCH  14  16
HETATM   16  C2  UNL     1       6.557  31.541 -11.651  1.00  0.00     0.050 C 
HETATM   17  C1  UNL     1       5.175  30.959 -11.441  1.00  0.00     0.017 C 
HETATM   18  C3  UNL     1       6.704  32.308 -12.914  1.00  0.00     0.017 C 
ENDBRANCH  14  16
ENDBRANCH  13  14
BRANCH  13  19
HETATM   19  O2  UNL     1       8.009  29.788  -9.200  1.00  0.00    -0.384 OA
ATOM     20  H2  UNL     1       8.952  29.853  -9.293  1.00  0.00     0.211 HD
ENDBRANCH  13  19
ENDBRANCH   1  13
TORSDOF 7
ENDMDL
MODEL 2
REMARK VINA RESULT: -7.869474156      2.136      3.557
REMARK  7 active torsions:
REMARK  status: ('A' for Active; 'I' for Inactive)
REMARK    1  A    between atoms: C2_2  and  C4_4 
REMARK    2  A    between atoms: C4_4  and  C5_6 
REMARK    3  A    between atoms: C5_6  and  O2_7 
REMARK    4  A    between atoms: C5_6  and  C6_9 
REMARK    5  A    between atoms: C7_10  and  C8_11 
REMARK    6  A    between atoms: C9_12  and  C10_13 
REMARK    7  A    between atoms: C11_14  and  C12_15 
ROOT
HETATM    1  C6  UNL     1       7.628  25.238  -8.337  1.00  0.00     0.012 C 
HETATM    2  C7  UNL     1       8.319  24.137  -8.469  1.00  0.00    -0.001 C 
ENDROOT
BRANCH   2   3
HETATM    3  C8  UNL     1       8.235  23.375  -9.710  1.00  0.00    -0.000 C 
HETATM    4  C9  UNL     1       7.572  22.242  -9.797  1.00  0.00    -0.000 C 
BRANCH   4   5
HETATM    5  C10 UNL     1       6.860  21.616  -8.706  1.00  0.00    -0.001 C 
HETATM    6  C11 UNL     1       5.559  21.778  -8.558  1.00  0.00     0.006 C 
BRANCH   6   7
HETATM    7  C12 UNL     1       4.768  22.613  -9.513  1.00  0.00     0.168 C 
HETATM    8  O3  UNL     1       3.845  23.447  -8.844  1.00  0.00    -0.311 OA
HETATM    9  C13 UNL     1       3.032  22.317  -8.695  1.00  0.00     0.266 C 
HETATM   10  O4  UNL     1       2.221  21.856  -7.881  1.00  0.00    -0.265 OA
HETATM   11  C14 UNL     1       3.569  21.847 -10.013  1.00  0.00     0.114 C 
HETATM   12  C15 UNL     1       2.841  22.475 -11.170  1.00  0.00     0.023 C 
ENDBRANCH   6   7
ENDBRANCH   4   5
ENDBRANCH   2   3
BRANCH   1  13
HETATM   13  C5  UNL     1       6.761  25.722  -9.428  1.00  0.00     0.210 C 
BRANCH  13  14
HETATM   14  C4  UNL     1       7.365  26.957 -10.052  1.00  0.00     0.162 C 
HETATM   15  O1  UNL     1       8.105  26.738 -10.996  1.00  0.00    -0.294 OA
BRANCH  14  16
HETATM   16  C2  UNL     1       7.093  28.324  -9.570  1.00  0.00     0.050 C 
HETATM   17  C1  UNL     1       6.930  29.243 -10.763  1.00  0.00     0.017 C 
HETATM   18  C3  UNL     1       8.035  28.831  -8.542  1.00  0.00     0.017 C 
ENDBRANCH  14  16
ENDBRANCH  13  14
BRANCH  13  19
HETATM   19  O2  UNL     1       5.516  26.003  -8.881  1.00  0.00    -0.384 OA
ATOM     20  H2  UNL     1       5.318  25.407  -8.169  1.00  0.00     0.211 HD
ENDBRANCH  13  19
ENDBRANCH   1  13
TORSDOF 7
ENDMDL
MODEL 3
REMARK VINA RESULT: -7.723719725      1.894      2.853
REMARK  7 active torsions:
REMARK  status: ('A' for Active; 'I' for Inactive)
REMARK    1  A    between atoms: C2_2  and  C4_4 
REMARK    2  A    between atoms: C4_4  and  C5_6 
REMARK    3  A    between atoms: C5_6  and  O2_7 
REMARK    4  A    between atoms: C5_6  and  C6_9 
REMARK    5  A    between atoms: C7_10  and  C8_11 
REMARK    6  A    between atoms: C9_12  and  C10_13 
REMARK    7  A    between atoms: C11_14  and  C12_15 
ROOT
HETATM    1  C6  UNL     1       7.966  26.526  -8.350  1.00  0.00     0.012 C 
HETATM    2  C7  UNL     1       8.464  25.317  -8.332  1.00  0.00    -0.001 C 
ENDROOT
BRANCH   2   3
HETATM    3  C8  UNL     1       8.228  24.421  -9.458  1.00  0.00    -0.000 C 
HETATM    4  C9  UNL     1       7.484  23.342  -9.355  1.00  0.00    -0.000 C 
BRANCH   4   5
HETATM    5  C10 UNL     1       6.819  22.909  -8.147  1.00  0.00    -0.001 C 
HETATM    6  C11 UNL     1       5.503  22.837  -8.079  1.00  0.00     0.006 C 
BRANCH   6   7
HETATM    7  C12 UNL     1       4.647  23.199  -9.249  1.00  0.00     0.168 C 
HETATM    8  O3  UNL     1       3.394  23.713  -8.846  1.00  0.00    -0.311 OA
HETATM    9  C13 UNL     1       3.007  22.392  -8.592  1.00  0.00     0.266 C 
HETATM   10  O4  UNL     1       2.280  21.771  -7.806  1.00  0.00    -0.265 OA
HETATM   11  C14 UNL     1       3.887  21.992  -9.738  1.00  0.00     0.114 C 
HETATM   12  C15 UNL     1       3.193  22.160 -11.062  1.00  0.00     0.023 C 
ENDBRANCH   6   7
ENDBRANCH   4   5
ENDBRANCH   2   3
BRANCH   1  13
HETATM   13  C5  UNL     1       7.166  26.997  -9.496  1.00  0.00     0.210 C 
BRANCH  13  14
HETATM   14  C4  UNL     1       7.375  28.479  -9.691  1.00  0.00     0.162 C 
HETATM   15  O1  UNL     1       7.626  29.094  -8.669  1.00  0.00    -0.294 OA
BRANCH  14  16
HETATM   16  C2  UNL     1       7.286  29.145 -11.004  1.00  0.00     0.050 C 
HETATM   17  C1  UNL     1       8.670  29.591 -11.424  1.00  0.00     0.017 C 
HETATM   18  C3  UNL     1       6.251  30.204 -11.107  1.00  0.00     0.017 C 
ENDBRANCH  14  16
ENDBRANCH  13  14
BRANCH  13  19
HETATM   19  O2  UNL     1       5.835  26.717  -9.222  1.00  0.00    -0.384 OA
ATOM     20  H2  UNL     1       5.429  27.431  -8.746  1.00  0.00     0.211 HD
ENDBRANCH  13  19
ENDBRANCH   1  13
TORSDOF 7
ENDMDL
MODEL 4
REMARK VINA RESULT: -7.664081298      2.872      4.231
REMARK  7 active torsions:
REMARK  status: ('A' for Active; 'I' for Inactive)
REMARK    1  A    between atoms: C2_2  and  C4_4 
REMARK    2  A    between atoms: C4_4  and  C5_6 
REMARK    3  A    between atoms: C5_6  and  O2_7 
REMARK    4  A    between atoms: C5_6  and  C6_9 
REMARK    5  A    between atoms: C7_10  and  C8_11 
REMARK    6  A    between atoms: C9_12  and  C10_13 
REMARK    7  A    between atoms: C11_14  and  C12_15 
ROOT
HETATM    1  C6  UNL     1       8.922  24.040  -8.154  1.00  0.00     0.012 C 
HETATM    2  C7  UNL     1       9.243  22.892  -8.690  1.00  0.00    -0.001 C 
ENDROOT
BRANCH   2   3
HETATM    3  C8  UNL     1       8.678  22.512  -9.980  1.00  0.00    -0.000 C 
HETATM    4  C9  UNL     1       7.619  21.739 -10.084  1.00  0.00    -0.000 C 
BRANCH   4   5
HETATM    5  C10 UNL     1       6.894  21.176  -8.967  1.00  0.00    -0.001 C 
HETATM    6  C11 UNL     1       5.627  21.476  -8.756  1.00  0.00     0.006 C 
BRANCH   6   7
HETATM    7  C12 UNL     1       4.889  22.408  -9.661  1.00  0.00     0.168 C 
HETATM    8  O3  UNL     1       4.108  23.336  -8.939  1.00  0.00    -0.311 OA
HETATM    9  C13 UNL     1       3.177  22.308  -8.749  1.00  0.00     0.266 C 
HETATM   10  O4  UNL     1       2.364  21.936  -7.893  1.00  0.00    -0.265 OA
HETATM   11  C14 UNL     1       3.582  21.792 -10.097  1.00  0.00     0.114 C 
HETATM   12  C15 UNL     1       2.871  22.513 -11.209  1.00  0.00     0.023 C 
ENDBRANCH   6   7
ENDBRANCH   4   5
ENDBRANCH   2   3
BRANCH   1  13
HETATM   13  C5  UNL     1       7.993  24.960  -8.838  1.00  0.00     0.210 C 
BRANCH  13  14
HETATM   14  C4  UNL     1       8.518  26.372  -8.757  1.00  0.00     0.162 C 
HETATM   15  O1  UNL     1       9.264  26.583  -7.815  1.00  0.00    -0.294 OA
BRANCH  14  16
HETATM   16  C2  UNL     1       8.169  27.424  -9.730  1.00  0.00     0.050 C 
HETATM   17  C1  UNL     1       7.795  28.685  -8.979  1.00  0.00     0.017 C 
HETATM   18  C3  UNL     1       7.185  27.025 -10.767  1.00  0.00     0.017 C 
ENDBRANCH  14  16
ENDBRANCH  13  14
BRANCH  13  19
HETATM   19  O2  UNL     1       6.760  24.854  -8.209  1.00  0.00    -0.384 OA
ATOM     20  H2  UNL     1       6.399  23.982  -8.317  1.00  0.00     0.211 HD
ENDBRANCH  13  19
ENDBRANCH   1  13
TORSDOF 7
ENDMDL
MODEL 5
REMARK VINA RESULT: -7.583543549      3.575      6.586
REMARK  7 active torsions:
REMARK  status: ('A' for Active; 'I' for Inactive)
REMARK    1  A    between atoms: C2_2  and  C4_4 
REMARK    2  A    between atoms: C4_4  and  C5_6 
REMARK    3  A    between atoms: C5_6  and  O2_7 
REMARK    4  A    between atoms: C5_6  and  C6_9 
REMARK    5  A    between atoms: C7_10  and  C8_11 
REMARK    6  A    between atoms: C9_12  and  C10_13 
REMARK    7  A    between atoms: C11_14  and  C12_15 
ROOT
HETATM    1  C6  UNL     1       5.643  25.530  -9.616  1.00  0.00     0.012 C 
HETATM    2  C7  UNL     1       6.596  26.286 -10.094  1.00  0.00    -0.001 C 
ENDROOT
BRANCH   2   3
HETATM    3  C8  UNL     1       7.781  26.553  -9.286  1.00  0.00    -0.000 C 
HETATM    4  C9  UNL     1       8.839  25.772  -9.309  1.00  0.00    -0.000 C 
BRANCH   4   5
HETATM    5  C10 UNL     1       8.967  24.578 -10.114  1.00  0.00    -0.001 C 
HETATM    6  C11 UNL     1       9.835  23.634  -9.802  1.00  0.00     0.006 C 
BRANCH   6   7
HETATM    7  C12 UNL     1      10.719  23.760  -8.603  1.00  0.00     0.168 C 
HETATM    8  O3  UNL     1      12.086  23.657  -8.944  1.00  0.00    -0.311 OA
HETATM    9  C13 UNL     1      11.894  22.273  -9.027  1.00  0.00     0.266 C 
HETATM   10  O4  UNL     1      12.324  21.312  -9.679  1.00  0.00    -0.265 OA
HETATM   11  C14 UNL     1      10.884  22.421  -7.930  1.00  0.00     0.114 C 
HETATM   12  C15 UNL     1      11.533  22.459  -6.573  1.00  0.00     0.023 C 
ENDBRANCH   6   7
ENDBRANCH   4   5
ENDBRANCH   2   3
BRANCH   1  13
HETATM   13  C5  UNL     1       5.749  24.942  -8.267  1.00  0.00     0.210 C 
BRANCH  13  14
HETATM   14  C4  UNL     1       5.480  23.458  -8.334  1.00  0.00     0.162 C 
HETATM   15  O1  UNL     1       5.139  22.957  -7.276  1.00  0.00    -0.294 OA
BRANCH  14  16
HETATM   16  C2  UNL     1       5.614  22.665  -9.570  1.00  0.00     0.050 C 
HETATM   17  C1  UNL     1       4.267  22.070  -9.921  1.00  0.00     0.017 C 
HETATM   18  C3  UNL     1       6.728  21.683  -9.573  1.00  0.00     0.017 C 
ENDBRANCH  14  16
ENDBRANCH  13  14
BRANCH  13  19
HETATM   19  O2  UNL     1       4.817  25.578  -7.458  1.00  0.00    -0.384 OA
ATOM     20  H2  UNL     1       4.899  25.290  -6.557  1.00  0.00     0.211 HD
ENDBRANCH  13  19
ENDBRANCH   1  13
TORSDOF 7
ENDMDL
