MODEL 1
REMARK VINA RESULT: -7.808377997      0.000      0.000
REMARK  5 active torsions:
REMARK  status: ('A' for Active; 'I' for Inactive)
REMARK    1  A    between atoms: N1_2  and  N2_3 
REMARK    2  A    between atoms: C3_7  and  O1_8 
REMARK    3  A    between atoms: C3_7  and  N5_10 
REMARK    4  A    between atoms: C6_16  and  C7_17 
REMARK    5  A    between atoms: C9_19  and  N7_20 
ROOT
HETATM    1  C7  UNL     1      19.821 -30.132  23.212  1.00  0.00     0.034 A 
HETATM    2  C8  UNL     1      18.608 -30.548  22.703  1.00  0.00     0.056 A 
HETATM    3  C9  UNL     1      18.632 -31.198  21.525  1.00  0.00     0.131 A 
HETATM    4  C10 UNL     1      19.850 -31.390  20.941  1.00  0.00     0.118 A 
HETATM    5  C11 UNL     1      20.117 -32.036  19.662  1.00  0.00     0.109 C 
HETATM    6  N8  UNL     1      20.332 -32.529  18.628  1.00  0.00    -0.191 NA
HETATM    7  S1  UNL     1      20.936 -30.667  22.036  1.00  0.00    -0.078 SA
ENDROOT
BRANCH   3   8
HETATM    8  N7  UNL     1      17.424 -31.673  20.870  1.00  0.00    -0.114 N 
HETATM    9  O2  UNL     1      16.834 -30.986  20.024  1.00  0.00    -0.532 OA
HETATM   10  O3  UNL     1      16.889 -32.893  21.154  1.00  0.00    -0.532 OA
ENDBRANCH   3   8
BRANCH   1  11
HETATM   11  C6  UNL     1      20.035 -29.347  24.476  1.00  0.00     0.332 C 
HETATM   12  N6  UNL     1      19.819 -27.942  24.214  1.00  0.00    -0.050 N 
HETATM   13  C5  UNL     1      20.428 -27.283  25.387  1.00  0.00     0.250 C 
ATOM     14  H62 UNL     1      18.847 -27.686  24.040  1.00  0.00     0.279 HD
ATOM     15  H61 UNL     1      20.174 -27.619  23.314  1.00  0.00     0.279 HD
HETATM   16  C4  UNL     1      20.604 -28.248  26.504  1.00  0.00     0.142 C 
HETATM   17  N5  UNL     1      19.603 -29.236  26.697  1.00  0.00    -0.180 NA
HETATM   18  N9  UNL     1      19.069 -29.738  25.487  1.00  0.00    -0.122 NA
BRANCH  17  19
HETATM   19  C3  UNL     1      18.614 -28.930  27.652  1.00  0.00     0.235 C 
HETATM   20  N2  UNL     1      18.547 -29.907  28.717  1.00  0.00    -0.078 NA
HETATM   21  N3  UNL     1      17.370 -29.632  29.362  1.00  0.00    -0.036 NA
HETATM   22  N4  UNL     1      16.497 -29.006  28.504  1.00  0.00    -0.124 NA
HETATM   23  C2  UNL     1      17.192 -28.853  27.204  1.00  0.00     0.208 C 
BRANCH  20  24
HETATM   24  N1  UNL     1      18.669 -31.161  28.159  1.00  0.00    -0.148 NA
HETATM   25  C1  UNL     1      19.581 -32.018  28.878  1.00  0.00     0.154 C 
ENDBRANCH  20  24
BRANCH  19  26
HETATM   26  O1  UNL     1      18.902 -27.703  28.293  1.00  0.00    -0.358 OA
ATOM     27  H1  UNL     1      18.579 -27.032  27.702  1.00  0.00     0.213 HD
ENDBRANCH  19  26
ENDBRANCH  17  19
ENDBRANCH   1  11
TORSDOF 5
ENDMDL
MODEL 2
REMARK VINA RESULT: -7.752765960      2.061      7.313
REMARK  5 active torsions:
REMARK  status: ('A' for Active; 'I' for Inactive)
REMARK    1  A    between atoms: N1_2  and  N2_3 
REMARK    2  A    between atoms: C3_7  and  O1_8 
REMARK    3  A    between atoms: C3_7  and  N5_10 
REMARK    4  A    between atoms: C6_16  and  C7_17 
REMARK    5  A    between atoms: C9_19  and  N7_20 
ROOT
HETATM    1  C7  UNL     1      19.206 -30.048  25.015  1.00  0.00     0.034 A 
HETATM    2  C8  UNL     1      18.378 -29.558  26.004  1.00  0.00     0.056 A 
HETATM    3  C9  UNL     1      18.529 -30.073  27.237  1.00  0.00     0.131 A 
HETATM    4  C10 UNL     1      19.489 -31.028  27.402  1.00  0.00     0.118 A 
HETATM    5  C11 UNL     1      19.813 -31.744  28.630  1.00  0.00     0.109 C 
HETATM    6  N8  UNL     1      20.057 -32.336  29.604  1.00  0.00    -0.191 NA
HETATM    7  S1  UNL     1      20.160 -31.193  25.845  1.00  0.00    -0.078 SA
ENDROOT
BRANCH   3   8
HETATM    8  N7  UNL     1      17.709 -29.659  28.364  1.00  0.00    -0.114 N 
HETATM    9  O2  UNL     1      16.502 -29.933  28.420  1.00  0.00    -0.532 OA
HETATM   10  O3  UNL     1      18.231 -28.955  29.407  1.00  0.00    -0.532 OA
ENDBRANCH   3   8
BRANCH   1  11
HETATM   11  C6  UNL     1      19.182 -29.665  23.562  1.00  0.00     0.332 C 
HETATM   12  N6  UNL     1      20.349 -28.869  23.254  1.00  0.00    -0.050 N 
HETATM   13  C5  UNL     1      20.004 -28.255  21.955  1.00  0.00     0.250 C 
ATOM     14  H62 UNL     1      21.229 -29.385  23.259  1.00  0.00     0.279 HD
ATOM     15  H61 UNL     1      20.613 -28.204  23.980  1.00  0.00     0.279 HD
HETATM   16  C4  UNL     1      18.885 -28.985  21.305  1.00  0.00     0.142 C 
HETATM   17  N5  UNL     1      18.837 -30.397  21.446  1.00  0.00    -0.180 NA
HETATM   18  N9  UNL     1      19.247 -30.847  22.723  1.00  0.00    -0.122 NA
BRANCH  17  19
HETATM   19  C3  UNL     1      19.401 -31.141  20.391  1.00  0.00     0.235 C 
HETATM   20  N2  UNL     1      18.431 -31.974  19.715  1.00  0.00    -0.078 NA
HETATM   21  N3  UNL     1      19.182 -32.827  18.952  1.00  0.00    -0.036 NA
HETATM   22  N4  UNL     1      20.435 -32.970  19.499  1.00  0.00    -0.124 NA
HETATM   23  C2  UNL     1      20.487 -32.113  20.707  1.00  0.00     0.208 C 
BRANCH  20  24
HETATM   24  N1  UNL     1      17.618 -32.549  20.669  1.00  0.00    -0.148 NA
HETATM   25  C1  UNL     1      16.222 -32.548  20.303  1.00  0.00     0.154 C 
ENDBRANCH  20  24
BRANCH  19  26
HETATM   26  O1  UNL     1      19.910 -30.279  19.391  1.00  0.00    -0.358 OA
ATOM     27  H1  UNL     1      20.821 -30.141  19.622  1.00  0.00     0.213 HD
ENDBRANCH  19  26
ENDBRANCH  17  19
ENDBRANCH   1  11
TORSDOF 5
ENDMDL
MODEL 3
REMARK VINA RESULT: -7.530442765      2.788      7.447
REMARK  5 active torsions:
REMARK  status: ('A' for Active; 'I' for Inactive)
REMARK    1  A    between atoms: N1_2  and  N2_3 
REMARK    2  A    between atoms: C3_7  and  O1_8 
REMARK    3  A    between atoms: C3_7  and  N5_10 
REMARK    4  A    between atoms: C6_16  and  C7_17 
REMARK    5  A    between atoms: C9_19  and  N7_20 
ROOT
HETATM    1  C7  UNL     1      17.588 -27.433  24.407  1.00  0.00     0.034 A 
HETATM    2  C8  UNL     1      17.743 -28.283  25.482  1.00  0.00     0.056 A 
HETATM    3  C9  UNL     1      17.264 -27.861  26.667  1.00  0.00     0.131 A 
HETATM    4  C10 UNL     1      16.666 -26.635  26.699  1.00  0.00     0.118 A 
HETATM    5  C11 UNL     1      16.104 -25.963  27.864  1.00  0.00     0.109 C 
HETATM    6  N8  UNL     1      15.677 -25.413  28.798  1.00  0.00    -0.191 NA
HETATM    7  S1  UNL     1      16.779 -26.093  25.088  1.00  0.00    -0.078 SA
ENDROOT
BRANCH   3   8
HETATM    8  N7  UNL     1      17.379 -28.650  27.882  1.00  0.00    -0.114 N 
HETATM    9  O2  UNL     1      18.412 -28.635  28.567  1.00  0.00    -0.532 OA
HETATM   10  O3  UNL     1      16.358 -29.436  28.323  1.00  0.00    -0.532 OA
ENDBRANCH   3   8
BRANCH   1  11
HETATM   11  C6  UNL     1      18.087 -27.666  23.008  1.00  0.00     0.332 C 
HETATM   12  N6  UNL     1      19.478 -27.284  22.922  1.00  0.00    -0.050 N 
HETATM   13  C5  UNL     1      19.712 -27.190  21.467  1.00  0.00     0.250 C 
ATOM     14  H62 UNL     1      20.120 -27.904  23.416  1.00  0.00     0.279 HD
ATOM     15  H61 UNL     1      19.721 -26.444  23.446  1.00  0.00     0.279 HD
HETATM   16  C4  UNL     1      18.651 -27.905  20.712  1.00  0.00     0.142 C 
HETATM   17  N5  UNL     1      18.136 -29.108  21.262  1.00  0.00    -0.180 NA
HETATM   18  N9  UNL     1      18.017 -29.076  22.671  1.00  0.00    -0.122 NA
BRANCH  17  19
HETATM   19  C3  UNL     1      18.715 -30.300  20.783  1.00  0.00     0.235 C 
HETATM   20  N2  UNL     1      17.742 -31.198  20.200  1.00  0.00    -0.078 NA
HETATM   21  N3  UNL     1      18.405 -32.390  20.076  1.00  0.00    -0.036 NA
HETATM   22  N4  UNL     1      19.426 -32.459  20.994  1.00  0.00    -0.124 NA
HETATM   23  C2  UNL     1      19.421 -31.187  21.753  1.00  0.00     0.208 C 
BRANCH  20  24
HETATM   24  N1  UNL     1      16.619 -31.194  20.999  1.00  0.00    -0.148 NA
HETATM   25  C1  UNL     1      15.900 -32.445  20.977  1.00  0.00     0.154 C 
ENDBRANCH  20  24
BRANCH  19  26
HETATM   26  O1  UNL     1      19.635 -30.025  19.745  1.00  0.00    -0.358 OA
ATOM     27  H1  UNL     1      20.324 -30.671  19.846  1.00  0.00     0.213 HD
ENDBRANCH  19  26
ENDBRANCH  17  19
ENDBRANCH   1  11
TORSDOF 5
ENDMDL
MODEL 4
REMARK VINA RESULT: -7.495924590      3.908      7.941
REMARK  5 active torsions:
REMARK  status: ('A' for Active; 'I' for Inactive)
REMARK    1  A    between atoms: N1_2  and  N2_3 
REMARK    2  A    between atoms: C3_7  and  O1_8 
REMARK    3  A    between atoms: C3_7  and  N5_10 
REMARK    4  A    between atoms: C6_16  and  C7_17 
REMARK    5  A    between atoms: C9_19  and  N7_20 
ROOT
HETATM    1  C7  UNL     1      17.004 -26.520  23.838  1.00  0.00     0.034 A 
HETATM    2  C8  UNL     1      16.847 -25.183  24.138  1.00  0.00     0.056 A 
HETATM    3  C9  UNL     1      16.645 -24.868  25.430  1.00  0.00     0.131 A 
HETATM    4  C10 UNL     1      16.616 -25.895  26.328  1.00  0.00     0.118 A 
HETATM    5  C11 UNL     1      16.385 -25.800  27.764  1.00  0.00     0.109 C 
HETATM    6  N8  UNL     1      16.175 -25.729  28.908  1.00  0.00    -0.191 NA
HETATM    7  S1  UNL     1      16.870 -27.276  25.362  1.00  0.00    -0.078 SA
ENDROOT
BRANCH   3   8
HETATM    8  N7  UNL     1      16.447 -23.500  25.880  1.00  0.00    -0.114 N 
HETATM    9  O2  UNL     1      15.338 -23.100  26.265  1.00  0.00    -0.532 OA
HETATM   10  O3  UNL     1      17.468 -22.599  25.900  1.00  0.00    -0.532 OA
ENDBRANCH   3   8
BRANCH   1  11
HETATM   11  C6  UNL     1      17.186 -27.110  22.468  1.00  0.00     0.332 C 
HETATM   12  N6  UNL     1      18.239 -26.404  21.774  1.00  0.00    -0.050 N 
HETATM   13  C5  UNL     1      18.043 -26.805  20.366  1.00  0.00     0.250 C 
ATOM     14  H62 UNL     1      19.176 -26.575  22.137  1.00  0.00     0.279 HD
ATOM     15  H61 UNL     1      18.249 -25.396  21.930  1.00  0.00     0.279 HD
HETATM   16  C4  UNL     1      17.203 -28.027  20.276  1.00  0.00     0.142 C 
HETATM   17  N5  UNL     1      17.367 -29.025  21.271  1.00  0.00    -0.180 NA
HETATM   18  N9  UNL     1      17.603 -28.497  22.562  1.00  0.00    -0.122 NA
BRANCH  17  19
HETATM   19  C3  UNL     1      18.234 -30.086  20.942  1.00  0.00     0.235 C 
HETATM   20  N2  UNL     1      17.543 -31.203  20.335  1.00  0.00    -0.078 NA
HETATM   21  N3  UNL     1      18.452 -32.227  20.365  1.00  0.00    -0.036 NA
HETATM   22  N4  UNL     1      19.356 -32.025  21.380  1.00  0.00    -0.124 NA
HETATM   23  C2  UNL     1      18.999 -30.747  22.040  1.00  0.00     0.208 C 
BRANCH  20  24
HETATM   24  N1  UNL     1      16.362 -31.402  21.017  1.00  0.00    -0.148 NA
HETATM   25  C1  UNL     1      15.737 -32.667  20.717  1.00  0.00     0.154 C 
ENDBRANCH  20  24
BRANCH  19  26
HETATM   26  O1  UNL     1      19.185 -29.672  19.981  1.00  0.00    -0.358 OA
ATOM     27  H1  UNL     1      18.714 -29.653  19.156  1.00  0.00     0.213 HD
ENDBRANCH  19  26
ENDBRANCH  17  19
ENDBRANCH   1  11
TORSDOF 5
ENDMDL
MODEL 5
REMARK VINA RESULT: -7.473345097      2.490      2.876
REMARK  5 active torsions:
REMARK  status: ('A' for Active; 'I' for Inactive)
REMARK    1  A    between atoms: N1_2  and  N2_3 
REMARK    2  A    between atoms: C3_7  and  O1_8 
REMARK    3  A    between atoms: C3_7  and  N5_10 
REMARK    4  A    between atoms: C6_16  and  C7_17 
REMARK    5  A    between atoms: C9_19  and  N7_20 
ROOT
HETATM    1  C7  UNL     1      20.498 -30.392  22.777  1.00  0.00     0.034 A 
HETATM    2  C8  UNL     1      20.914 -31.678  22.502  1.00  0.00     0.056 A 
HETATM    3  C9  UNL     1      21.101 -31.995  21.208  1.00  0.00     0.131 A 
HETATM    4  C10 UNL     1      20.867 -31.018  20.284  1.00  0.00     0.118 A 
HETATM    5  C11 UNL     1      20.974 -31.136  18.835  1.00  0.00     0.109 C 
HETATM    6  N8  UNL     1      21.034 -31.235  17.676  1.00  0.00    -0.191 NA
HETATM    7  S1  UNL     1      20.393 -29.681  21.228  1.00  0.00    -0.078 SA
ENDROOT
BRANCH   3   8
HETATM    8  N7  UNL     1      21.520 -33.319  20.780  1.00  0.00    -0.114 N 
HETATM    9  O2  UNL     1      20.716 -34.261  20.712  1.00  0.00    -0.532 OA
HETATM   10  O3  UNL     1      22.810 -33.583  20.431  1.00  0.00    -0.532 OA
ENDBRANCH   3   8
BRANCH   1  11
HETATM   11  C6  UNL     1      20.174 -29.831  24.133  1.00  0.00     0.332 C 
HETATM   12  N6  UNL     1      18.861 -29.227  24.105  1.00  0.00    -0.050 N 
HETATM   13  C5  UNL     1      18.844 -28.402  25.331  1.00  0.00     0.250 C 
ATOM     14  H62 UNL     1      18.090 -29.890  24.029  1.00  0.00     0.279 HD
ATOM     15  H61 UNL     1      18.646 -28.718  23.249  1.00  0.00     0.279 HD
HETATM   16  C4  UNL     1      19.911 -28.830  26.272  1.00  0.00     0.142 C 
HETATM   17  N5  UNL     1      20.204 -30.215  26.365  1.00  0.00    -0.180 NA
HETATM   18  N9  UNL     1      20.128 -30.890  25.124  1.00  0.00    -0.122 NA
BRANCH  17  19
HETATM   19  C3  UNL     1      19.564 -30.910  27.411  1.00  0.00     0.235 C 
HETATM   20  N2  UNL     1      20.387 -31.016  28.595  1.00  0.00    -0.078 NA
HETATM   21  N3  UNL     1      19.757 -31.954  29.370  1.00  0.00    -0.036 NA
HETATM   22  N4  UNL     1      19.005 -32.790  28.579  1.00  0.00    -0.124 NA
HETATM   23  C2  UNL     1      19.158 -32.328  27.180  1.00  0.00     0.208 C 
BRANCH  20  24
HETATM   24  N1  UNL     1      21.676 -31.305  28.200  1.00  0.00    -0.148 NA
HETATM   25  C1  UNL     1      22.542 -31.663  29.297  1.00  0.00     0.154 C 
ENDBRANCH  20  24
BRANCH  19  26
HETATM   26  O1  UNL     1      18.401 -30.221  27.828  1.00  0.00    -0.358 OA
ATOM     27  H1  UNL     1      18.242 -29.571  27.154  1.00  0.00     0.213 HD
ENDBRANCH  19  26
ENDBRANCH  17  19
ENDBRANCH   1  11
TORSDOF 5
ENDMDL
