MODEL 1
REMARK VINA RESULT: -7.570453756      0.000      0.000
REMARK  9 active torsions:
REMARK  status: ('A' for Active; 'I' for Inactive)
REMARK    1  A    between atoms: O1_2  and  C2_3 
REMARK    2  A    between atoms: C2_3  and  S1_31 
REMARK    3  A    between atoms: N1_4  and  N2_6 
REMARK    4  A    between atoms: N2_6  and  N3_8 
REMARK    5  A    between atoms: N3_8  and  N4_10 
REMARK       I    between atoms: N4_10  and  C3_12 
REMARK       I    between atoms: C3_12  and  N5_14 
REMARK    6  A    between atoms: C5_16  and  O3_17 
REMARK    7  A    between atoms: C6_19  and  C7_20 
REMARK    8  A    between atoms: N7_22  and  N8_24 
REMARK       I    between atoms: N8_24  and  C8_26 
REMARK    9  A    between atoms: S1_31  and  N11_32 
ROOT
HETATM    1  N4  UNL     1      20.059 -29.113  24.457  1.00  0.00    -0.234 N 
ATOM      2  H4  UNL     1      19.998 -28.370  23.760  1.00  0.00     0.193 HD
HETATM    3  C3  UNL     1      19.370 -30.327  24.248  1.00  0.00     0.361 C 
HETATM    4  O2  UNL     1      19.454 -31.232  25.112  1.00  0.00    -0.243 OA
HETATM    5  N5  UNL     1      18.583 -30.519  23.053  1.00  0.00    -0.212 N 
HETATM    6  C4  UNL     1      18.433 -29.612  22.074  1.00  0.00     0.160 A 
HETATM    7  C5  UNL     1      17.611 -30.212  21.145  1.00  0.00     0.115 A 
HETATM    8  C6  UNL     1      17.282 -31.473  21.589  1.00  0.00     0.126 A 
HETATM    9  N10 UNL     1      17.902 -31.617  22.765  1.00  0.00    -0.284 N 
ATOM     10  H10 UNL     1      17.858 -32.449  23.353  1.00  0.00     0.188 HD
ENDROOT
BRANCH   1  11
HETATM   11  N3  UNL     1      20.815 -28.924  25.597  1.00  0.00    -0.224 N 
ATOM     12  H3  UNL     1      21.832 -28.931  25.529  1.00  0.00     0.210 HD
BRANCH  11  13
HETATM   13  N2  UNL     1      20.261 -28.738  26.743  1.00  0.00    -0.226 N 
ATOM     14  H2  UNL     1      20.058 -27.800  27.085  1.00  0.00     0.210 HD
BRANCH  13  15
HETATM   15  N1  UNL     1      19.949 -29.859  27.495  1.00  0.00    -0.257 N 
HETATM   16  C2  UNL     1      18.883 -29.959  28.217  1.00  0.00     0.218 C 
ATOM     17  H1  UNL     1      20.596 -30.647  27.478  1.00  0.00     0.191 HD
BRANCH  16  18
HETATM   18  O1  UNL     1      18.685 -31.119  28.916  1.00  0.00    -0.333 OA
HETATM   19  C1  UNL     1      19.420 -32.304  28.572  1.00  0.00     0.212 C 
ENDBRANCH  16  18
BRANCH  16  20
HETATM   20  S1  UNL     1      17.773 -28.567  28.229  1.00  0.00     0.024 SA
BRANCH  20  21
HETATM   21  N11 UNL     1      18.241 -27.334  29.356  1.00  0.00    -0.367 N 
ATOM     22 2H11 UNL     1      18.055 -27.405  30.357  1.00  0.00     0.164 HD
ATOM     23 1H11 UNL     1      18.713 -26.546  28.914  1.00  0.00     0.164 HD
ENDBRANCH  20  21
ENDBRANCH  16  20
ENDBRANCH  13  15
ENDBRANCH  11  13
ENDBRANCH   1  11
BRANCH   7  24
HETATM   24  O3  UNL     1      17.174 -29.666  19.962  1.00  0.00    -0.357 OA
ATOM     25  H3  UNL     1      16.832 -30.138  19.212  1.00  0.00     0.218 HD
ENDBRANCH   7  24
BRANCH   8  26
HETATM   26  C7  UNL     1      16.424 -32.432  20.886  1.00  0.00     0.162 C 
HETATM   27  N6  UNL     1      15.808 -33.444  21.654  1.00  0.00    -0.079 NA
HETATM   28  N7  UNL     1      16.222 -32.376  19.624  1.00  0.00    -0.282 N 
ATOM     29  H7  UNL     1      16.665 -31.645  19.067  1.00  0.00     0.188 HD
BRANCH  28  30
HETATM   30  N8  UNL     1      15.398 -33.315  19.017  1.00  0.00    -0.253 N 
HETATM   31  C8  UNL     1      15.402 -33.516  17.616  1.00  0.00     0.347 C 
HETATM   32  N9  UNL     1      14.549 -34.479  17.033  1.00  0.00    -0.038 NA
HETATM   33  O4  UNL     1      16.182 -32.811  16.919  1.00  0.00    -0.249 OA
ATOM     34  H8  UNL     1      14.772 -33.875  19.597  1.00  0.00     0.191 HD
ENDBRANCH  28  30
ENDBRANCH   8  26
TORSDOF 9
ENDMDL
MODEL 2
REMARK VINA RESULT: -7.563869731      1.513      1.907
REMARK  9 active torsions:
REMARK  status: ('A' for Active; 'I' for Inactive)
REMARK    1  A    between atoms: O1_2  and  C2_3 
REMARK    2  A    between atoms: C2_3  and  S1_31 
REMARK    3  A    between atoms: N1_4  and  N2_6 
REMARK    4  A    between atoms: N2_6  and  N3_8 
REMARK    5  A    between atoms: N3_8  and  N4_10 
REMARK       I    between atoms: N4_10  and  C3_12 
REMARK       I    between atoms: C3_12  and  N5_14 
REMARK    6  A    between atoms: C5_16  and  O3_17 
REMARK    7  A    between atoms: C6_19  and  C7_20 
REMARK    8  A    between atoms: N7_22  and  N8_24 
REMARK       I    between atoms: N8_24  and  C8_26 
REMARK    9  A    between atoms: S1_31  and  N11_32 
ROOT
HETATM    1  N4  UNL     1      19.928 -29.141  24.626  1.00  0.00    -0.234 N 
ATOM      2  H4  UNL     1      19.916 -28.416  23.909  1.00  0.00     0.193 HD
HETATM    3  C3  UNL     1      19.216 -30.343  24.420  1.00  0.00     0.361 C 
HETATM    4  O2  UNL     1      19.240 -31.226  25.311  1.00  0.00    -0.243 OA
HETATM    5  N5  UNL     1      18.473 -30.547  23.200  1.00  0.00    -0.212 N 
HETATM    6  C4  UNL     1      18.388 -29.663  22.192  1.00  0.00     0.160 A 
HETATM    7  C5  UNL     1      17.589 -30.267  21.246  1.00  0.00     0.115 A 
HETATM    8  C6  UNL     1      17.208 -31.507  21.708  1.00  0.00     0.126 A 
HETATM    9  N10 UNL     1      17.776 -31.634  22.912  1.00  0.00    -0.284 N 
ATOM     10  H10 UNL     1      17.685 -32.449  23.519  1.00  0.00     0.188 HD
ENDROOT
BRANCH   1  11
HETATM   11  N3  UNL     1      20.641 -28.941  25.792  1.00  0.00    -0.224 N 
ATOM     12  H3  UNL     1      21.645 -28.770  25.740  1.00  0.00     0.210 HD
BRANCH  11  13
HETATM   13  N2  UNL     1      20.064 -28.966  26.941  1.00  0.00    -0.226 N 
ATOM     14  H2  UNL     1      20.316 -29.661  27.643  1.00  0.00     0.210 HD
BRANCH  13  15
HETATM   15  N1  UNL     1      19.089 -28.014  27.191  1.00  0.00    -0.257 N 
HETATM   16  C2  UNL     1      17.982 -28.273  27.802  1.00  0.00     0.218 C 
ATOM     17  H1  UNL     1      19.255 -27.059  26.876  1.00  0.00     0.191 HD
BRANCH  16  18
HETATM   18  O1  UNL     1      17.095 -27.247  27.991  1.00  0.00    -0.333 OA
HETATM   19  C1  UNL     1      15.740 -27.371  27.535  1.00  0.00     0.212 C 
ENDBRANCH  16  18
BRANCH  16  20
HETATM   20  S1  UNL     1      17.719 -29.949  28.340  1.00  0.00     0.024 SA
BRANCH  20  21
HETATM   21  N11 UNL     1      16.796 -30.889  27.210  1.00  0.00    -0.367 N 
ATOM     22 2H11 UNL     1      15.926 -30.554  26.798  1.00  0.00     0.164 HD
ATOM     23 1H11 UNL     1      17.215 -31.797  27.009  1.00  0.00     0.164 HD
ENDBRANCH  20  21
ENDBRANCH  16  20
ENDBRANCH  13  15
ENDBRANCH  11  13
ENDBRANCH   1  11
BRANCH   7  24
HETATM   24  O3  UNL     1      17.215 -29.742  20.032  1.00  0.00    -0.357 OA
ATOM     25  H3  UNL     1      16.449 -29.979  19.524  1.00  0.00     0.218 HD
ENDBRANCH   7  24
BRANCH   8  26
HETATM   26  C7  UNL     1      16.355 -32.462  20.995  1.00  0.00     0.162 C 
HETATM   27  N6  UNL     1      15.734 -33.477  21.754  1.00  0.00    -0.079 NA
HETATM   28  N7  UNL     1      16.161 -32.399  19.733  1.00  0.00    -0.282 N 
ATOM     29  H7  UNL     1      16.607 -31.667  19.181  1.00  0.00     0.188 HD
BRANCH  28  30
HETATM   30  N8  UNL     1      15.340 -33.335  19.116  1.00  0.00    -0.253 N 
HETATM   31  C8  UNL     1      15.365 -33.542  17.716  1.00  0.00     0.347 C 
HETATM   32  N9  UNL     1      14.516 -34.503  17.122  1.00  0.00    -0.038 NA
HETATM   33  O4  UNL     1      16.161 -32.846  17.028  1.00  0.00    -0.249 OA
ATOM     34  H8  UNL     1      14.701 -33.889  19.687  1.00  0.00     0.191 HD
ENDBRANCH  28  30
ENDBRANCH   8  26
TORSDOF 9
ENDMDL
MODEL 3
REMARK VINA RESULT: -7.484953469      1.161      1.161
REMARK  9 active torsions:
REMARK  status: ('A' for Active; 'I' for Inactive)
REMARK    1  A    between atoms: O1_2  and  C2_3 
REMARK    2  A    between atoms: C2_3  and  S1_31 
REMARK    3  A    between atoms: N1_4  and  N2_6 
REMARK    4  A    between atoms: N2_6  and  N3_8 
REMARK    5  A    between atoms: N3_8  and  N4_10 
REMARK       I    between atoms: N4_10  and  C3_12 
REMARK       I    between atoms: C3_12  and  N5_14 
REMARK    6  A    between atoms: C5_16  and  O3_17 
REMARK    7  A    between atoms: C6_19  and  C7_20 
REMARK    8  A    between atoms: N7_22  and  N8_24 
REMARK       I    between atoms: N8_24  and  C8_26 
REMARK    9  A    between atoms: S1_31  and  N11_32 
ROOT
HETATM    1  N4  UNL     1      20.114 -29.009  24.604  1.00  0.00    -0.234 N 
ATOM      2  H4  UNL     1      20.139 -28.319  23.853  1.00  0.00     0.193 HD
HETATM    3  C3  UNL     1      19.365 -30.194  24.442  1.00  0.00     0.361 C 
HETATM    4  O2  UNL     1      19.344 -31.034  25.373  1.00  0.00    -0.243 OA
HETATM    5  N5  UNL     1      18.636 -30.432  23.219  1.00  0.00    -0.212 N 
HETATM    6  C4  UNL     1      18.599 -29.595  22.168  1.00  0.00     0.160 A 
HETATM    7  C5  UNL     1      17.796 -30.216  21.237  1.00  0.00     0.115 A 
HETATM    8  C6  UNL     1      17.365 -31.419  21.751  1.00  0.00     0.126 A 
HETATM    9  N10 UNL     1      17.907 -31.508  22.970  1.00  0.00    -0.284 N 
ATOM     10  H10 UNL     1      17.779 -32.289  23.612  1.00  0.00     0.188 HD
ENDROOT
BRANCH   1  11
HETATM   11  N3  UNL     1      20.814 -28.777  25.772  1.00  0.00    -0.224 N 
ATOM     12  H3  UNL     1      21.804 -29.018  25.817  1.00  0.00     0.210 HD
BRANCH  11  13
HETATM   13  N2  UNL     1      20.242 -28.264  26.803  1.00  0.00    -0.226 N 
ATOM     14  H2  UNL     1      20.528 -27.355  27.167  1.00  0.00     0.210 HD
BRANCH  13  15
HETATM   15  N1  UNL     1      19.224 -28.989  27.401  1.00  0.00    -0.257 N 
HETATM   16  C2  UNL     1      18.193 -28.445  27.955  1.00  0.00     0.218 C 
ATOM     17  H1  UNL     1      19.294 -30.006  27.404  1.00  0.00     0.191 HD
BRANCH  16  18
HETATM   18  O1  UNL     1      17.253 -29.268  28.514  1.00  0.00    -0.333 OA
HETATM   19  C1  UNL     1      16.579 -30.247  27.707  1.00  0.00     0.212 C 
ENDBRANCH  16  18
BRANCH  16  20
HETATM   20  S1  UNL     1      18.098 -26.667  27.936  1.00  0.00     0.024 SA
BRANCH  20  21
HETATM   21  N11 UNL     1      16.667 -26.054  28.703  1.00  0.00    -0.367 N 
ATOM     22 2H11 UNL     1      15.782 -26.561  28.698  1.00  0.00     0.164 HD
ATOM     23 1H11 UNL     1      16.809 -25.148  29.148  1.00  0.00     0.164 HD
ENDBRANCH  20  21
ENDBRANCH  16  20
ENDBRANCH  13  15
ENDBRANCH  11  13
ENDBRANCH   1  11
BRANCH   7  24
HETATM   24  O3  UNL     1      17.461 -29.737  19.993  1.00  0.00    -0.357 OA
ATOM     25  H3  UNL     1      17.323 -30.251  19.206  1.00  0.00     0.218 HD
ENDBRANCH   7  24
BRANCH   8  26
HETATM   26  C7  UNL     1      16.491 -32.377  21.068  1.00  0.00     0.162 C 
HETATM   27  N6  UNL     1      15.928 -33.415  21.841  1.00  0.00    -0.079 NA
HETATM   28  N7  UNL     1      16.231 -32.300  19.818  1.00  0.00    -0.282 N 
ATOM     29  H7  UNL     1      16.636 -31.551  19.256  1.00  0.00     0.188 HD
BRANCH  28  30
HETATM   30  N8  UNL     1      15.395 -33.240  19.229  1.00  0.00    -0.253 N 
HETATM   31  C8  UNL     1      15.471 -33.547  17.850  1.00  0.00     0.347 C 
HETATM   32  N9  UNL     1      14.605 -34.509  17.285  1.00  0.00    -0.038 NA
HETATM   33  O4  UNL     1      16.329 -32.937  17.154  1.00  0.00    -0.249 OA
ATOM     34  H8  UNL     1      14.707 -33.723  19.807  1.00  0.00     0.191 HD
ENDBRANCH  28  30
ENDBRANCH   8  26
TORSDOF 9
ENDMDL
MODEL 4
REMARK VINA RESULT: -7.196153549      3.106      4.428
REMARK  9 active torsions:
REMARK  status: ('A' for Active; 'I' for Inactive)
REMARK    1  A    between atoms: O1_2  and  C2_3 
REMARK    2  A    between atoms: C2_3  and  S1_31 
REMARK    3  A    between atoms: N1_4  and  N2_6 
REMARK    4  A    between atoms: N2_6  and  N3_8 
REMARK    5  A    between atoms: N3_8  and  N4_10 
REMARK       I    between atoms: N4_10  and  C3_12 
REMARK       I    between atoms: C3_12  and  N5_14 
REMARK    6  A    between atoms: C5_16  and  O3_17 
REMARK    7  A    between atoms: C6_19  and  C7_20 
REMARK    8  A    between atoms: N7_22  and  N8_24 
REMARK       I    between atoms: N8_24  and  C8_26 
REMARK    9  A    between atoms: S1_31  and  N11_32 
ROOT
HETATM    1  N4  UNL     1      18.788 -28.626  27.878  1.00  0.00    -0.234 N 
ATOM      2  H4  UNL     1      19.777 -28.873  27.913  1.00  0.00     0.193 HD
HETATM    3  C3  UNL     1      18.028 -28.941  26.731  1.00  0.00     0.361 C 
HETATM    4  O2  UNL     1      16.813 -28.632  26.701  1.00  0.00    -0.243 OA
HETATM    5  N5  UNL     1      18.645 -29.611  25.611  1.00  0.00    -0.212 N 
HETATM    6  C4  UNL     1      19.935 -29.982  25.550  1.00  0.00     0.160 A 
HETATM    7  C5  UNL     1      20.084 -30.579  24.317  1.00  0.00     0.115 A 
HETATM    8  C6  UNL     1      18.874 -30.553  23.660  1.00  0.00     0.126 A 
HETATM    9  N10 UNL     1      18.021 -29.949  24.495  1.00  0.00    -0.284 N 
ATOM     10  H10 UNL     1      17.035 -29.775  24.300  1.00  0.00     0.188 HD
ENDROOT
BRANCH   1  11
HETATM   11  N3  UNL     1      18.202 -27.986  28.952  1.00  0.00    -0.224 N 
ATOM     12  H3  UNL     1      17.973 -28.522  29.788  1.00  0.00     0.210 HD
BRANCH  11  13
HETATM   13  N2  UNL     1      17.941 -26.727  28.919  1.00  0.00    -0.226 N 
ATOM     14  H2  UNL     1      18.687 -26.032  28.939  1.00  0.00     0.210 HD
BRANCH  13  15
HETATM   15  N1  UNL     1      16.610 -26.348  28.854  1.00  0.00    -0.257 N 
HETATM   16  C2  UNL     1      16.126 -25.601  27.920  1.00  0.00     0.218 C 
ATOM     17  H1  UNL     1      15.979 -26.677  29.585  1.00  0.00     0.191 HD
BRANCH  16  18
HETATM   18  O1  UNL     1      14.793 -25.295  27.965  1.00  0.00    -0.333 OA
HETATM   19  C1  UNL     1      14.297 -24.127  27.293  1.00  0.00     0.212 C 
ENDBRANCH  16  18
BRANCH  16  20
HETATM   20  S1  UNL     1      17.251 -25.039  26.659  1.00  0.00     0.024 SA
BRANCH  20  21
HETATM   21  N11 UNL     1      17.068 -25.889  25.157  1.00  0.00    -0.367 N 
ATOM     22 2H11 UNL     1      16.156 -26.134  24.773  1.00  0.00     0.164 HD
ATOM     23 1H11 UNL     1      17.959 -26.111  24.712  1.00  0.00     0.164 HD
ENDBRANCH  20  21
ENDBRANCH  16  20
ENDBRANCH  13  15
ENDBRANCH  11  13
ENDBRANCH   1  11
BRANCH   7  24
HETATM   24  O3  UNL     1      21.237 -31.118  23.801  1.00  0.00    -0.357 OA
ATOM     25  H3  UNL     1      21.299 -31.785  23.127  1.00  0.00     0.218 HD
ENDBRANCH   7  24
BRANCH   8  26
HETATM   26  C7  UNL     1      18.615 -31.089  22.321  1.00  0.00     0.162 C 
HETATM   27  N6  UNL     1      19.593 -30.867  21.328  1.00  0.00    -0.079 NA
HETATM   28  N7  UNL     1      17.551 -31.740  22.036  1.00  0.00    -0.282 N 
ATOM     29  H7  UNL     1      16.843 -31.903  22.751  1.00  0.00     0.188 HD
BRANCH  28  30
HETATM   30  N8  UNL     1      17.366 -32.223  20.746  1.00  0.00    -0.253 N 
HETATM   31  C8  UNL     1      16.075 -32.473  20.222  1.00  0.00     0.347 C 
HETATM   32  N9  UNL     1      15.924 -32.964  18.906  1.00  0.00    -0.038 NA
HETATM   33  O4  UNL     1      15.080 -32.245  20.963  1.00  0.00    -0.249 OA
ATOM     34  H8  UNL     1      18.182 -32.403  20.161  1.00  0.00     0.191 HD
ENDBRANCH  28  30
ENDBRANCH   8  26
TORSDOF 9
ENDMDL
MODEL 5
REMARK VINA RESULT: -7.019737035      3.751      4.735
REMARK  9 active torsions:
REMARK  status: ('A' for Active; 'I' for Inactive)
REMARK    1  A    between atoms: O1_2  and  C2_3 
REMARK    2  A    between atoms: C2_3  and  S1_31 
REMARK    3  A    between atoms: N1_4  and  N2_6 
REMARK    4  A    between atoms: N2_6  and  N3_8 
REMARK    5  A    between atoms: N3_8  and  N4_10 
REMARK       I    between atoms: N4_10  and  C3_12 
REMARK       I    between atoms: C3_12  and  N5_14 
REMARK    6  A    between atoms: C5_16  and  O3_17 
REMARK    7  A    between atoms: C6_19  and  C7_20 
REMARK    8  A    between atoms: N7_22  and  N8_24 
REMARK       I    between atoms: N8_24  and  C8_26 
REMARK    9  A    between atoms: S1_31  and  N11_32 
ROOT
HETATM    1  N4  UNL     1      17.762 -29.976  27.329  1.00  0.00    -0.234 N 
ATOM      2  H4  UNL     1      16.931 -30.049  26.742  1.00  0.00     0.193 HD
HETATM    3  C3  UNL     1      19.033 -30.259  26.785  1.00  0.00     0.361 C 
HETATM    4  O2  UNL     1      20.046 -30.164  27.519  1.00  0.00    -0.243 OA
HETATM    5  N5  UNL     1      19.160 -30.651  25.401  1.00  0.00    -0.212 N 
HETATM    6  C4  UNL     1      18.138 -30.779  24.539  1.00  0.00     0.160 A 
HETATM    7  C5  UNL     1      18.713 -31.165  23.348  1.00  0.00     0.115 A 
HETATM    8  C6  UNL     1      20.075 -31.262  23.521  1.00  0.00     0.126 A 
HETATM    9  N10 UNL     1      20.303 -30.936  24.798  1.00  0.00    -0.284 N 
ATOM     10  H10 UNL     1      21.221 -30.911  25.242  1.00  0.00     0.188 HD
ENDROOT
BRANCH   1  11
HETATM   11  N3  UNL     1      17.635 -29.599  28.652  1.00  0.00    -0.224 N 
ATOM     12  H3  UNL     1      17.179 -30.231  29.309  1.00  0.00     0.210 HD
BRANCH  11  13
HETATM   13  N2  UNL     1      18.081 -28.468  29.071  1.00  0.00    -0.226 N 
ATOM     14  H2  UNL     1      18.979 -28.399  29.548  1.00  0.00     0.210 HD
BRANCH  13  15
HETATM   15  N1  UNL     1      17.297 -27.347  28.851  1.00  0.00    -0.257 N 
HETATM   16  C2  UNL     1      17.645 -26.374  28.077  1.00  0.00     0.218 C 
ATOM     17  H1  UNL     1      16.397 -27.287  29.327  1.00  0.00     0.191 HD
BRANCH  16  18
HETATM   18  O1  UNL     1      16.784 -25.319  27.941  1.00  0.00    -0.333 OA
HETATM   19  C1  UNL     1      15.469 -25.382  28.514  1.00  0.00     0.212 C 
ENDBRANCH  16  18
BRANCH  16  20
HETATM   20  S1  UNL     1      19.223 -26.506  27.261  1.00  0.00     0.024 SA
BRANCH  20  21
HETATM   21  N11 UNL     1      20.550 -26.017  28.266  1.00  0.00    -0.367 N 
ATOM     22 2H11 UNL     1      20.878 -25.052  28.313  1.00  0.00     0.164 HD
ATOM     23 1H11 UNL     1      20.958 -26.789  28.793  1.00  0.00     0.164 HD
ENDBRANCH  20  21
ENDBRANCH  16  20
ENDBRANCH  13  15
ENDBRANCH  11  13
ENDBRANCH   1  11
BRANCH   7  24
HETATM   24  O3  UNL     1      18.059 -31.420  22.167  1.00  0.00    -0.357 OA
ATOM     25  H3  UNL     1      17.434 -32.116  22.003  1.00  0.00     0.218 HD
ENDBRANCH   7  24
BRANCH   8  26
HETATM   26  C7  UNL     1      21.044 -31.645  22.491  1.00  0.00     0.162 C 
HETATM   27  N6  UNL     1      22.004 -30.684  22.105  1.00  0.00    -0.079 NA
HETATM   28  N7  UNL     1      21.044 -32.802  21.945  1.00  0.00    -0.282 N 
ATOM     29  H7  UNL     1      20.353 -33.499  22.221  1.00  0.00     0.188 HD
BRANCH  28  30
HETATM   30  N8  UNL     1      21.990 -33.104  20.973  1.00  0.00    -0.253 N 
HETATM   31  C8  UNL     1      21.626 -33.342  19.626  1.00  0.00     0.347 C 
HETATM   32  N9  UNL     1      22.615 -33.647  18.664  1.00  0.00    -0.038 NA
HETATM   33  O4  UNL     1      20.404 -33.274  19.322  1.00  0.00    -0.249 OA
ATOM     34  H8  UNL     1      22.974 -33.156  21.237  1.00  0.00     0.191 HD
ENDBRANCH  28  30
ENDBRANCH   8  26
TORSDOF 9
ENDMDL
