MODEL 1
REMARK VINA RESULT: -7.319303212      0.000      0.000
REMARK  6 active torsions:
REMARK  status: ('A' for Active; 'I' for Inactive)
REMARK    1  A    between atoms: C2_3  and  N3_7 
REMARK    2  A    between atoms: N3_7  and  C3_9 
REMARK    3  A    between atoms: C4_10  and  N4_11 
REMARK    4  A    between atoms: C9_21  and  C10_22 
REMARK    5  A    between atoms: C11_28  and  N9_29 
REMARK    6  A    between atoms: N10_32  and  N11_33 
ROOT
HETATM    1  N1  UNL     1      17.755 -32.436  20.386  1.00  0.00    -0.188 NA
HETATM    2  C1  UNL     1      17.965 -31.332  20.679  1.00  0.00     0.136 C 
HETATM    3  C2  UNL     1      18.208 -29.961  21.030  1.00  0.00     0.182 C 
HETATM    4  N2  UNL     1      17.308 -29.104  20.676  1.00  0.00    -0.377 N 
ATOM      5  H21 UNL     1      17.481 -28.129  20.926  1.00  0.00     0.158 HD
ATOM      6  H22 UNL     1      16.465 -29.380  20.174  1.00  0.00     0.158 HD
ENDROOT
BRANCH   3   7
HETATM    7  N3  UNL     1      19.385 -29.575  21.731  1.00  0.00    -0.326 N 
ATOM      8  H3  UNL     1      20.064 -28.959  21.283  1.00  0.00     0.168 HD
BRANCH   7   9
HETATM    9  C3  UNL     1      19.616 -30.037  23.034  1.00  0.00     0.149 A 
HETATM   10  C4  UNL     1      20.549 -31.027  23.270  1.00  0.00     0.138 A 
HETATM   11  N6  UNL     1      20.716 -31.417  24.543  1.00  0.00    -0.323 N 
HETATM   12  C9  UNL     1      20.015 -30.880  25.569  1.00  0.00     0.164 A 
ATOM     13  H6  UNL     1      21.399 -32.148  24.746  1.00  0.00     0.169 HD
HETATM   14  N10 UNL     1      19.107 -29.918  25.360  1.00  0.00    -0.206 N 
HETATM   15  C12 UNL     1      18.898 -29.489  24.100  1.00  0.00     0.298 A 
HETATM   16  O2  UNL     1      18.047 -28.590  23.921  1.00  0.00    -0.263 OA
BRANCH  10  17
HETATM   17  N4  UNL     1      21.288 -31.593  22.181  1.00  0.00    -0.362 N 
HETATM   18  C5  UNL     1      21.265 -33.027  21.957  1.00  0.00     0.152 C 
HETATM   19  C6  UNL     1      21.255 -33.394  20.508  1.00  0.00     0.252 C 
HETATM   20  N5  UNL     1      21.039 -32.277  19.625  1.00  0.00    -0.072 N 
HETATM   21  C7  UNL     1      21.961 -31.194  19.848  1.00  0.00     0.252 C 
ATOM     22  H52 UNL     1      21.058 -32.575  18.650  1.00  0.00     0.277 HD
ATOM     23  H51 UNL     1      20.075 -31.950  19.681  1.00  0.00     0.277 HD
HETATM   24  C8  UNL     1      22.072 -30.781  21.277  1.00  0.00     0.152 C 
ENDBRANCH  10  17
BRANCH  12  25
HETATM   25  C10 UNL     1      20.228 -31.331  26.932  1.00  0.00     0.147 A 
HETATM   26  N7  UNL     1      21.269 -30.968  27.697  1.00  0.00    -0.234 N 
HETATM   27  O1  UNL     1      21.155 -31.544  28.848  1.00  0.00    -0.155 OA
ATOM     28  H7  UNL     1      22.024 -30.342  27.417  1.00  0.00     0.197 HD
HETATM   29  N8  UNL     1      20.084 -32.275  28.886  1.00  0.00    -0.224 N 
HETATM   30  C11 UNL     1      19.457 -32.179  27.702  1.00  0.00     0.154 A 
ATOM     31  H8  UNL     1      19.770 -32.830  29.682  1.00  0.00     0.198 HD
BRANCH  30  32
HETATM   32  N9  UNL     1      18.374 -32.717  27.279  1.00  0.00    -0.382 N 
ATOM     33  H92 UNL     1      17.432 -32.338  27.183  1.00  0.00     0.157 HD
ATOM     34  H91 UNL     1      18.322 -33.684  26.957  1.00  0.00     0.157 HD
ENDBRANCH  30  32
ENDBRANCH  12  25
BRANCH  14  35
HETATM   35  N11 UNL     1      18.366 -29.346  26.418  1.00  0.00    -0.334 N 
ATOM     36 2H11 UNL     1      17.667 -29.911  26.901  1.00  0.00     0.177 HD
ATOM     37 1H11 UNL     1      18.509 -28.381  26.717  1.00  0.00     0.177 HD
ENDBRANCH  14  35
ENDBRANCH   7   9
ENDBRANCH   3   7
TORSDOF 6
ENDMDL
MODEL 2
REMARK VINA RESULT: -7.169469921      3.421      5.460
REMARK  6 active torsions:
REMARK  status: ('A' for Active; 'I' for Inactive)
REMARK    1  A    between atoms: C2_3  and  N3_7 
REMARK    2  A    between atoms: N3_7  and  C3_9 
REMARK    3  A    between atoms: C4_10  and  N4_11 
REMARK    4  A    between atoms: C9_21  and  C10_22 
REMARK    5  A    between atoms: C11_28  and  N9_29 
REMARK    6  A    between atoms: N10_32  and  N11_33 
ROOT
HETATM    1  N1  UNL     1      17.501 -31.517  21.919  1.00  0.00    -0.188 NA
HETATM    2  C1  UNL     1      18.131 -30.940  22.705  1.00  0.00     0.136 C 
HETATM    3  C2  UNL     1      18.901 -30.209  23.672  1.00  0.00     0.182 C 
HETATM    4  N2  UNL     1      18.553 -28.982  23.882  1.00  0.00    -0.377 N 
ATOM      5  H21 UNL     1      19.099 -28.462  24.569  1.00  0.00     0.158 HD
ATOM      6  H22 UNL     1      17.771 -28.549  23.390  1.00  0.00     0.158 HD
ENDROOT
BRANCH   3   7
HETATM    7  N3  UNL     1      19.992 -30.812  24.358  1.00  0.00    -0.326 N 
ATOM      8  H3  UNL     1      20.102 -31.827  24.343  1.00  0.00     0.168 HD
BRANCH   7   9
HETATM    9  C3  UNL     1      20.915 -30.021  25.055  1.00  0.00     0.149 A 
HETATM   10  C4  UNL     1      20.808 -29.862  26.422  1.00  0.00     0.138 A 
HETATM   11  N6  UNL     1      21.729 -29.091  27.021  1.00  0.00    -0.323 N 
HETATM   12  C9  UNL     1      22.729 -28.484  26.338  1.00  0.00     0.164 A 
ATOM     13  H6  UNL     1      21.673 -28.956  28.030  1.00  0.00     0.169 HD
HETATM   14  N10 UNL     1      22.849 -28.628  25.011  1.00  0.00    -0.206 N 
HETATM   15  C12 UNL     1      21.950 -29.391  24.359  1.00  0.00     0.298 A 
HETATM   16  O2  UNL     1      22.076 -29.515  23.122  1.00  0.00    -0.263 OA
BRANCH  10  17
HETATM   17  N4  UNL     1      19.748 -30.505  27.141  1.00  0.00    -0.362 N 
HETATM   18  C5  UNL     1      18.484 -29.819  27.336  1.00  0.00     0.152 C 
HETATM   19  C6  UNL     1      17.303 -30.731  27.252  1.00  0.00     0.252 C 
HETATM   20  N5  UNL     1      17.619 -32.052  26.771  1.00  0.00    -0.072 N 
HETATM   21  C7  UNL     1      18.674 -32.687  27.516  1.00  0.00     0.252 C 
ATOM     22  H52 UNL     1      16.785 -32.639  26.748  1.00  0.00     0.277 HD
ATOM     23  H51 UNL     1      17.838 -32.034  25.775  1.00  0.00     0.277 HD
HETATM   24  C8  UNL     1      19.886 -31.835  27.690  1.00  0.00     0.152 C 
ENDBRANCH  10  17
BRANCH  12  25
HETATM   25  C10 UNL     1      23.704 -27.659  27.024  1.00  0.00     0.147 A 
HETATM   26  N7  UNL     1      23.636 -26.321  27.115  1.00  0.00    -0.234 N 
HETATM   27  O1  UNL     1      24.655 -25.901  27.789  1.00  0.00    -0.155 OA
ATOM     28  H7  UNL     1      22.903 -25.734  26.718  1.00  0.00     0.197 HD
HETATM   29  N8  UNL     1      25.401 -26.899  28.153  1.00  0.00    -0.224 N 
HETATM   30  C11 UNL     1      24.849 -28.036  27.698  1.00  0.00     0.154 A 
ATOM     31  H8  UNL     1      26.263 -26.831  28.694  1.00  0.00     0.198 HD
BRANCH  30  32
HETATM   32  N9  UNL     1      25.225 -29.255  27.810  1.00  0.00    -0.382 N 
ATOM     33  H92 UNL     1      26.010 -29.754  27.391  1.00  0.00     0.157 HD
ATOM     34  H91 UNL     1      24.735 -29.938  28.388  1.00  0.00     0.157 HD
ENDBRANCH  30  32
ENDBRANCH  12  25
BRANCH  14  35
HETATM   35  N11 UNL     1      23.884 -28.003  24.283  1.00  0.00    -0.334 N 
ATOM     36 2H11 UNL     1      24.249 -27.105  24.602  1.00  0.00     0.177 HD
ATOM     37 1H11 UNL     1      24.284 -28.423  23.443  1.00  0.00     0.177 HD
ENDBRANCH  14  35
ENDBRANCH   7   9
ENDBRANCH   3   7
TORSDOF 6
ENDMDL
MODEL 3
REMARK VINA RESULT: -7.013089667      2.195      2.597
REMARK  6 active torsions:
REMARK  status: ('A' for Active; 'I' for Inactive)
REMARK    1  A    between atoms: C2_3  and  N3_7 
REMARK    2  A    between atoms: N3_7  and  C3_9 
REMARK    3  A    between atoms: C4_10  and  N4_11 
REMARK    4  A    between atoms: C9_21  and  C10_22 
REMARK    5  A    between atoms: C11_28  and  N9_29 
REMARK    6  A    between atoms: N10_32  and  N11_33 
ROOT
HETATM    1  N1  UNL     1      17.941 -32.097  20.832  1.00  0.00    -0.188 NA
HETATM    2  C1  UNL     1      17.954 -30.938  20.904  1.00  0.00     0.136 C 
HETATM    3  C2  UNL     1      17.954 -29.504  20.979  1.00  0.00     0.182 C 
HETATM    4  N2  UNL     1      17.008 -28.890  20.349  1.00  0.00    -0.377 N 
ATOM      5  H21 UNL     1      17.008 -27.871  20.402  1.00  0.00     0.158 HD
ATOM      6  H22 UNL     1      16.293 -29.393  19.823  1.00  0.00     0.158 HD
ENDROOT
BRANCH   3   7
HETATM    7  N3  UNL     1      18.952 -28.803  21.713  1.00  0.00    -0.326 N 
ATOM      8  H3  UNL     1      19.746 -28.391  21.223  1.00  0.00     0.168 HD
BRANCH   7   9
HETATM    9  C3  UNL     1      18.849 -28.675  23.105  1.00  0.00     0.149 A 
HETATM   10  C4  UNL     1      19.761 -29.297  23.934  1.00  0.00     0.138 A 
HETATM   11  N6  UNL     1      19.599 -29.129  25.255  1.00  0.00    -0.323 N 
HETATM   12  C9  UNL     1      18.594 -28.386  25.778  1.00  0.00     0.164 A 
ATOM     13  H6  UNL     1      20.258 -29.578  25.891  1.00  0.00     0.169 HD
HETATM   14  N10 UNL     1      17.701 -27.775  24.989  1.00  0.00    -0.206 N 
HETATM   15  C12 UNL     1      17.816 -27.911  23.654  1.00  0.00     0.298 A 
HETATM   16  O2  UNL     1      16.974 -27.334  22.932  1.00  0.00    -0.263 OA
BRANCH  10  17
HETATM   17  N4  UNL     1      20.822 -30.082  23.375  1.00  0.00    -0.362 N 
HETATM   18  C5  UNL     1      20.713 -31.529  23.344  1.00  0.00     0.152 C 
HETATM   19  C6  UNL     1      21.290 -32.133  22.104  1.00  0.00     0.252 C 
HETATM   20  N5  UNL     1      21.629 -31.169  21.088  1.00  0.00    -0.072 N 
HETATM   21  C7  UNL     1      22.492 -30.122  21.569  1.00  0.00     0.252 C 
ATOM     22  H52 UNL     1      22.034 -31.628  20.272  1.00  0.00     0.277 HD
ATOM     23  H51 UNL     1      20.789 -30.779  20.662  1.00  0.00     0.277 HD
HETATM   24  C8  UNL     1      22.020 -29.483  22.831  1.00  0.00     0.152 C 
ENDBRANCH  10  17
BRANCH  12  25
HETATM   25  C10 UNL     1      18.455 -28.229  27.214  1.00  0.00     0.147 A 
HETATM   26  N7  UNL     1      19.003 -27.231  27.924  1.00  0.00    -0.234 N 
HETATM   27  O1  UNL     1      18.687 -27.387  29.167  1.00  0.00    -0.155 OA
ATOM     28  H7  UNL     1      19.574 -26.475  27.546  1.00  0.00     0.197 HD
HETATM   29  N8  UNL     1      17.951 -28.446  29.319  1.00  0.00    -0.224 N 
HETATM   30  C11 UNL     1      17.772 -29.019  28.117  1.00  0.00     0.154 A 
ATOM     31  H8  UNL     1      17.573 -28.786  30.203  1.00  0.00     0.198 HD
BRANCH  30  32
HETATM   32  N9  UNL     1      17.125 -30.071  27.777  1.00  0.00    -0.382 N 
ATOM     33  H92 UNL     1      17.407 -30.878  27.221  1.00  0.00     0.157 HD
ATOM     34  H91 UNL     1      16.157 -30.242  28.049  1.00  0.00     0.157 HD
ENDBRANCH  30  32
ENDBRANCH  12  25
BRANCH  14  35
HETATM   35  N11 UNL     1      16.647 -26.997  25.518  1.00  0.00    -0.334 N 
ATOM     36 2H11 UNL     1      16.847 -26.313  26.248  1.00  0.00     0.177 HD
ATOM     37 1H11 UNL     1      15.685 -27.097  25.190  1.00  0.00     0.177 HD
ENDBRANCH  14  35
ENDBRANCH   7   9
ENDBRANCH   3   7
TORSDOF 6
ENDMDL
MODEL 4
REMARK VINA RESULT: -6.962447003      1.313      1.837
REMARK  6 active torsions:
REMARK  status: ('A' for Active; 'I' for Inactive)
REMARK    1  A    between atoms: C2_3  and  N3_7 
REMARK    2  A    between atoms: N3_7  and  C3_9 
REMARK    3  A    between atoms: C4_10  and  N4_11 
REMARK    4  A    between atoms: C9_21  and  C10_22 
REMARK    5  A    between atoms: C11_28  and  N9_29 
REMARK    6  A    between atoms: N10_32  and  N11_33 
ROOT
HETATM    1  N1  UNL     1      17.143 -29.258  20.062  1.00  0.00    -0.188 NA
HETATM    2  C1  UNL     1      17.461 -28.629  20.985  1.00  0.00     0.136 C 
HETATM    3  C2  UNL     1      17.836 -27.841  22.125  1.00  0.00     0.182 C 
HETATM    4  N2  UNL     1      16.933 -27.052  22.606  1.00  0.00    -0.377 N 
ATOM      5  H21 UNL     1      17.200 -26.492  23.417  1.00  0.00     0.158 HD
ATOM      6  H22 UNL     1      15.998 -26.988  22.203  1.00  0.00     0.158 HD
ENDROOT
BRANCH   3   7
HETATM    7  N3  UNL     1      19.140 -27.930  22.688  1.00  0.00    -0.326 N 
ATOM      8  H3  UNL     1      19.906 -27.392  22.282  1.00  0.00     0.168 HD
BRANCH   7   9
HETATM    9  C3  UNL     1      19.378 -28.753  23.797  1.00  0.00     0.149 A 
HETATM   10  C4  UNL     1      20.001 -29.975  23.640  1.00  0.00     0.138 A 
HETATM   11  N6  UNL     1      20.195 -30.708  24.748  1.00  0.00    -0.323 N 
HETATM   12  C9  UNL     1      19.807 -30.291  25.976  1.00  0.00     0.164 A 
ATOM     13  H6  UNL     1      20.654 -31.615  24.661  1.00  0.00     0.169 HD
HETATM   14  N10 UNL     1      19.201 -29.108  26.147  1.00  0.00    -0.206 N 
HETATM   15  C12 UNL     1      18.981 -28.332  25.069  1.00  0.00     0.298 A 
HETATM   16  O2  UNL     1      18.414 -27.232  25.246  1.00  0.00    -0.263 OA
BRANCH  10  17
HETATM   17  N4  UNL     1      20.411 -30.412  22.339  1.00  0.00    -0.362 N 
HETATM   18  C5  UNL     1      21.633 -29.893  21.752  1.00  0.00     0.152 C 
HETATM   19  C6  UNL     1      22.387 -30.918  20.967  1.00  0.00     0.252 C 
HETATM   20  N5  UNL     1      21.890 -32.261  21.131  1.00  0.00    -0.072 N 
HETATM   21  C7  UNL     1      20.481 -32.378  20.860  1.00  0.00     0.252 C 
ATOM     22  H52 UNL     1      22.425 -32.918  20.563  1.00  0.00     0.277 HD
ATOM     23  H51 UNL     1      22.112 -32.620  22.058  1.00  0.00     0.277 HD
HETATM   24  C8  UNL     1      19.644 -31.366  21.569  1.00  0.00     0.152 C 
ENDBRANCH  10  17
BRANCH  12  25
HETATM   25  C10 UNL     1      20.037 -31.115  27.148  1.00  0.00     0.147 A 
HETATM   26  N7  UNL     1      21.115 -31.021  27.941  1.00  0.00    -0.234 N 
HETATM   27  O1  UNL     1      21.007 -31.893  28.889  1.00  0.00    -0.155 OA
ATOM     28  H7  UNL     1      21.891 -30.371  27.817  1.00  0.00     0.197 HD
HETATM   29  N8  UNL     1      19.904 -32.565  28.764  1.00  0.00    -0.224 N 
HETATM   30  C11 UNL     1      19.249 -32.115  27.680  1.00  0.00     0.154 A 
ATOM     31  H8  UNL     1      19.587 -33.309  29.385  1.00  0.00     0.198 HD
BRANCH  30  32
HETATM   32  N9  UNL     1      18.130 -32.473  27.168  1.00  0.00    -0.382 N 
ATOM     33  H92 UNL     1      17.185 -32.460  27.552  1.00  0.00     0.157 HD
ATOM     34  H91 UNL     1      18.045 -32.849  26.224  1.00  0.00     0.157 HD
ENDBRANCH  30  32
ENDBRANCH  12  25
BRANCH  14  35
HETATM   35  N11 UNL     1      18.788 -28.658  27.421  1.00  0.00    -0.334 N 
ATOM     36 2H11 UNL     1      19.489 -28.486  28.142  1.00  0.00     0.177 HD
ATOM     37 1H11 UNL     1      17.806 -28.497  27.644  1.00  0.00     0.177 HD
ENDBRANCH  14  35
ENDBRANCH   7   9
ENDBRANCH   3   7
TORSDOF 6
ENDMDL
MODEL 5
REMARK VINA RESULT: -6.868843601      2.803      6.722
REMARK  6 active torsions:
REMARK  status: ('A' for Active; 'I' for Inactive)
REMARK    1  A    between atoms: C2_3  and  N3_7 
REMARK    2  A    between atoms: N3_7  and  C3_9 
REMARK    3  A    between atoms: C4_10  and  N4_11 
REMARK    4  A    between atoms: C9_21  and  C10_22 
REMARK    5  A    between atoms: C11_28  and  N9_29 
REMARK    6  A    between atoms: N10_32  and  N11_33 
ROOT
HETATM    1  N1  UNL     1      23.770 -30.197  28.691  1.00  0.00    -0.188 NA
HETATM    2  C1  UNL     1      23.623 -29.486  27.784  1.00  0.00     0.136 C 
HETATM    3  C2  UNL     1      23.461 -28.600  26.666  1.00  0.00     0.182 C 
HETATM    4  N2  UNL     1      24.513 -27.956  26.280  1.00  0.00    -0.377 N 
ATOM      5  H21 UNL     1      24.398 -27.326  25.485  1.00  0.00     0.158 HD
ATOM      6  H22 UNL     1      25.416 -28.067  26.741  1.00  0.00     0.158 HD
ENDROOT
BRANCH   3   7
HETATM    7  N3  UNL     1      22.201 -28.445  26.022  1.00  0.00    -0.326 N 
ATOM      8  H3  UNL     1      21.582 -27.682  26.297  1.00  0.00     0.168 HD
BRANCH   7   9
HETATM    9  C3  UNL     1      21.807 -29.335  25.014  1.00  0.00     0.149 A 
HETATM   10  C4  UNL     1      20.803 -30.254  25.246  1.00  0.00     0.138 A 
HETATM   11  N6  UNL     1      20.479 -31.072  24.233  1.00  0.00    -0.323 N 
HETATM   12  C9  UNL     1      21.093 -31.020  23.027  1.00  0.00     0.164 A 
ATOM     13  H6  UNL     1      19.740 -31.761  24.377  1.00  0.00     0.169 HD
HETATM   14  N10 UNL     1      22.069 -30.135  22.784  1.00  0.00    -0.206 N 
HETATM   15  C12 UNL     1      22.435 -29.289  23.767  1.00  0.00     0.298 A 
HETATM   16  O2  UNL     1      23.347 -28.469  23.524  1.00  0.00    -0.263 OA
BRANCH  10  17
HETATM   17  N4  UNL     1      20.155 -30.305  26.523  1.00  0.00    -0.362 N 
HETATM   18  C5  UNL     1      19.137 -29.326  26.859  1.00  0.00     0.152 C 
HETATM   19  C6  UNL     1      18.012 -29.901  27.657  1.00  0.00     0.252 C 
HETATM   20  N5  UNL     1      18.032 -31.339  27.742  1.00  0.00    -0.072 N 
HETATM   21  C7  UNL     1      19.286 -31.859  28.222  1.00  0.00     0.252 C 
ATOM     22  H52 UNL     1      17.257 -31.680  28.310  1.00  0.00     0.277 HD
ATOM     23  H51 UNL     1      17.783 -31.760  26.848  1.00  0.00     0.277 HD
HETATM   24  C8  UNL     1      20.478 -31.310  27.511  1.00  0.00     0.152 C 
ENDBRANCH  10  17
BRANCH  12  25
HETATM   25  C10 UNL     1      20.712 -31.924  21.958  1.00  0.00     0.147 A 
HETATM   26  N7  UNL     1      21.166 -33.180  21.829  1.00  0.00    -0.234 N 
HETATM   27  O1  UNL     1      20.632 -33.706  20.777  1.00  0.00    -0.155 OA
ATOM     28  H7  UNL     1      21.825 -33.642  22.455  1.00  0.00     0.197 HD
HETATM   29  N8  UNL     1      19.839 -32.857  20.198  1.00  0.00    -0.224 N 
HETATM   30  C11 UNL     1      19.850 -31.712  20.901  1.00  0.00     0.154 A 
ATOM     31  H8  UNL     1      19.298 -33.030  19.351  1.00  0.00     0.198 HD
BRANCH  30  32
HETATM   32  N9  UNL     1      19.230 -30.607  20.714  1.00  0.00    -0.382 N 
ATOM     33  H92 UNL     1      19.211 -29.750  21.267  1.00  0.00     0.157 HD
ATOM     34  H91 UNL     1      18.623 -30.437  19.913  1.00  0.00     0.157 HD
ENDBRANCH  30  32
ENDBRANCH  12  25
BRANCH  14  35
HETATM   35  N11 UNL     1      22.721 -30.067  21.533  1.00  0.00    -0.334 N 
ATOM     36 2H11 UNL     1      22.164 -30.019  20.680  1.00  0.00     0.177 HD
ATOM     37 1H11 UNL     1      23.739 -30.063  21.455  1.00  0.00     0.177 HD
ENDBRANCH  14  35
ENDBRANCH   7   9
ENDBRANCH   3   7
TORSDOF 6
ENDMDL
