MODEL 1
REMARK VINA RESULT: -7.952566118      0.000      0.000
REMARK  8 active torsions:
REMARK  status: ('A' for Active; 'I' for Inactive)
REMARK    1  A    between atoms: C3_8  and  N4_9 
REMARK    2  A    between atoms: N4_9  and  N5_11 
REMARK    3  A    between atoms: N5_11  and  C4_13 
REMARK    4  A    between atoms: C7_16  and  N6_17 
REMARK    5  A    between atoms: C10_22  and  N7_23 
REMARK    6  A    between atoms: N7_23  and  N8_25 
REMARK    7  A    between atoms: C11_30  and  C12_31 
REMARK       I    between atoms: C12_31  and  N10_33 
REMARK    8  A    between atoms: N10_33  and  N11_35 
ROOT
HETATM    1  N1  UNL     1      19.472 -27.778  22.285  1.00  0.00    -0.190 NA
HETATM    2  C1  UNL     1      19.461 -28.424  23.256  1.00  0.00     0.121 C 
HETATM    3  C2  UNL     1      19.433 -29.194  24.463  1.00  0.00     0.161 C 
HETATM    4  N2  UNL     1      19.987 -28.683  25.589  1.00  0.00    -0.287 N 
ATOM      5  H2  UNL     1      20.670 -27.939  25.444  1.00  0.00     0.188 HD
HETATM    6  N3  UNL     1      19.762 -29.022  26.871  1.00  0.00    -0.280 N 
ATOM      7  H3  UNL     1      20.424 -28.682  27.568  1.00  0.00     0.188 HD
HETATM    8  C3  UNL     1      18.713 -29.788  27.320  1.00  0.00     0.181 C 
HETATM    9  C10 UNL     1      18.201 -30.869  26.641  1.00  0.00     0.168 C 
HETATM   10  N9  UNL     1      18.035 -31.025  25.292  1.00  0.00    -0.331 N 
ATOM     11  H9  UNL     1      17.280 -31.630  24.971  1.00  0.00     0.168 HD
HETATM   12  C11 UNL     1      18.815 -30.423  24.347  1.00  0.00     0.143 C 
ENDROOT
BRANCH  12  13
HETATM   13  C12 UNL     1      19.010 -31.141  23.123  1.00  0.00     0.289 C 
HETATM   14  O3  UNL     1      20.120 -31.648  22.861  1.00  0.00    -0.264 OA
HETATM   15  N10 UNL     1      17.953 -31.290  22.190  1.00  0.00    -0.271 N 
ATOM     16  H10 UNL     1      17.038 -30.883  22.386  1.00  0.00     0.189 HD
BRANCH  15  17
HETATM   17  N11 UNL     1      18.170 -32.006  20.978  1.00  0.00    -0.342 N 
ATOM     18 2H11 UNL     1      18.365 -31.486  20.123  1.00  0.00     0.176 HD
ATOM     19 1H11 UNL     1      18.128 -33.025  20.975  1.00  0.00     0.176 HD
ENDBRANCH  15  17
ENDBRANCH  12  13
BRANCH   8  20
HETATM   20  N4  UNL     1      18.214 -29.446  28.439  1.00  0.00    -0.281 N 
ATOM     21  H4  UNL     1      17.786 -30.160  29.028  1.00  0.00     0.188 HD
BRANCH  20  22
HETATM   22  N5  UNL     1      18.235 -28.138  28.878  1.00  0.00    -0.299 N 
ATOM     23  H5  UNL     1      18.828 -27.878  29.666  1.00  0.00     0.187 HD
BRANCH  22  24
HETATM   24  C4  UNL     1      17.433 -27.142  28.238  1.00  0.00     0.048 A 
HETATM   25  C5  UNL     1      18.047 -26.010  27.739  1.00  0.00     0.033 A 
HETATM   26  C6  UNL     1      17.338 -25.010  27.111  1.00  0.00     0.038 A 
HETATM   27  C7  UNL     1      15.989 -25.132  26.973  1.00  0.00     0.103 A 
HETATM   28  C8  UNL     1      15.373 -26.250  27.465  1.00  0.00     0.038 A 
HETATM   29  C9  UNL     1      16.080 -27.236  28.085  1.00  0.00     0.033 A 
BRANCH  27  30
HETATM   30  N6  UNL     1      15.264 -24.091  26.321  1.00  0.00    -0.116 N 
HETATM   31  O1  UNL     1      14.157 -23.783  26.776  1.00  0.00    -0.532 OA
HETATM   32  O2  UNL     1      15.743 -23.435  25.227  1.00  0.00    -0.532 OA
ENDBRANCH  27  30
ENDBRANCH  22  24
ENDBRANCH  20  22
ENDBRANCH   8  20
BRANCH   9  33
HETATM   33  N7  UNL     1      17.844 -31.837  27.379  1.00  0.00    -0.289 N 
ATOM     34  H7  UNL     1      16.886 -31.811  27.725  1.00  0.00     0.188 HD
BRANCH  33  35
HETATM   35  N8  UNL     1      18.601 -32.919  27.764  1.00  0.00    -0.344 N 
ATOM     36  H82 UNL     1      19.588 -32.721  27.926  1.00  0.00     0.176 HD
ATOM     37  H81 UNL     1      18.287 -33.879  27.902  1.00  0.00     0.176 HD
ENDBRANCH  33  35
ENDBRANCH   9  33
TORSDOF 8
ENDMDL
MODEL 2
REMARK VINA RESULT: -7.879332566      3.688      8.661
REMARK  8 active torsions:
REMARK  status: ('A' for Active; 'I' for Inactive)
REMARK    1  A    between atoms: C3_8  and  N4_9 
REMARK    2  A    between atoms: N4_9  and  N5_11 
REMARK    3  A    between atoms: N5_11  and  C4_13 
REMARK    4  A    between atoms: C7_16  and  N6_17 
REMARK    5  A    between atoms: C10_22  and  N7_23 
REMARK    6  A    between atoms: N7_23  and  N8_25 
REMARK    7  A    between atoms: C11_30  and  C12_31 
REMARK       I    between atoms: C12_31  and  N10_33 
REMARK    8  A    between atoms: N10_33  and  N11_35 
ROOT
HETATM    1  N1  UNL     1      19.261 -32.117  29.393  1.00  0.00    -0.190 NA
HETATM    2  C1  UNL     1      19.367 -31.587  28.359  1.00  0.00     0.121 C 
HETATM    3  C2  UNL     1      19.498 -30.964  27.077  1.00  0.00     0.161 C 
HETATM    4  N2  UNL     1      20.556 -31.278  26.292  1.00  0.00    -0.287 N 
ATOM      5  H2  UNL     1      21.359 -31.681  26.775  1.00  0.00     0.188 HD
HETATM    6  N3  UNL     1      20.694 -31.133  24.961  1.00  0.00    -0.280 N 
ATOM      7  H3  UNL     1      21.635 -31.223  24.576  1.00  0.00     0.188 HD
HETATM    8  C3  UNL     1      19.674 -30.874  24.078  1.00  0.00     0.181 C 
HETATM    9  C10 UNL     1      18.610 -30.046  24.349  1.00  0.00     0.168 C 
HETATM   10  N9  UNL     1      17.934 -29.890  25.529  1.00  0.00    -0.331 N 
ATOM     11  H9  UNL     1      16.953 -29.616  25.485  1.00  0.00     0.168 HD
HETATM   12  C11 UNL     1      18.489 -30.076  26.763  1.00  0.00     0.143 C 
ENDROOT
BRANCH  12  13
HETATM   13  C12 UNL     1      17.972 -29.269  27.828  1.00  0.00     0.289 C 
HETATM   14  O3  UNL     1      16.852 -29.520  28.321  1.00  0.00    -0.264 OA
HETATM   15  N10 UNL     1      18.715 -28.176  28.339  1.00  0.00    -0.271 N 
ATOM     16  H10 UNL     1      19.632 -27.956  27.950  1.00  0.00     0.189 HD
BRANCH  15  17
HETATM   17  N11 UNL     1      18.181 -27.385  29.396  1.00  0.00    -0.342 N 
ATOM     18 2H11 UNL     1      18.818 -26.967  30.074  1.00  0.00     0.176 HD
ATOM     19 1H11 UNL     1      17.173 -27.244  29.467  1.00  0.00     0.176 HD
ENDBRANCH  15  17
ENDBRANCH  12  13
BRANCH   8  20
HETATM   20  N4  UNL     1      19.757 -31.451  22.947  1.00  0.00    -0.281 N 
ATOM     21  H4  UNL     1      19.077 -31.221  22.223  1.00  0.00     0.188 HD
BRANCH  20  22
HETATM   22  N5  UNL     1      20.741 -32.379  22.673  1.00  0.00    -0.299 N 
ATOM     23  H5  UNL     1      20.998 -33.068  23.381  1.00  0.00     0.187 HD
BRANCH  22  24
HETATM   24  C4  UNL     1      21.403 -32.387  21.406  1.00  0.00     0.048 A 
HETATM   25  C5  UNL     1      22.000 -31.223  20.959  1.00  0.00     0.033 A 
HETATM   26  C6  UNL     1      22.655 -31.157  19.749  1.00  0.00     0.038 A 
HETATM   27  C7  UNL     1      22.722 -32.266  18.962  1.00  0.00     0.103 A 
HETATM   28  C8  UNL     1      22.133 -33.421  19.398  1.00  0.00     0.038 A 
HETATM   29  C9  UNL     1      21.486 -33.481  20.595  1.00  0.00     0.033 A 
BRANCH  27  30
HETATM   30  N6  UNL     1      23.402 -32.186  17.711  1.00  0.00    -0.116 N 
HETATM   31  O1  UNL     1      24.616 -31.957  17.724  1.00  0.00    -0.532 OA
HETATM   32  O2  UNL     1      22.765 -32.349  16.517  1.00  0.00    -0.532 OA
ENDBRANCH  27  30
ENDBRANCH  22  24
ENDBRANCH  20  22
ENDBRANCH   8  20
BRANCH   9  33
HETATM   33  N7  UNL     1      18.220 -29.344  23.368  1.00  0.00    -0.289 N 
ATOM     34  H7  UNL     1      18.164 -29.820  22.468  1.00  0.00     0.188 HD
BRANCH  33  35
HETATM   35  N8  UNL     1      17.864 -28.016  23.378  1.00  0.00    -0.344 N 
ATOM     36  H82 UNL     1      18.306 -27.455  24.106  1.00  0.00     0.176 HD
ATOM     37  H81 UNL     1      17.218 -27.542  22.747  1.00  0.00     0.176 HD
ENDBRANCH  33  35
ENDBRANCH   9  33
TORSDOF 8
ENDMDL
MODEL 3
REMARK VINA RESULT: -7.778008658      0.999      1.427
REMARK  8 active torsions:
REMARK  status: ('A' for Active; 'I' for Inactive)
REMARK    1  A    between atoms: C3_8  and  N4_9 
REMARK    2  A    between atoms: N4_9  and  N5_11 
REMARK    3  A    between atoms: N5_11  and  C4_13 
REMARK    4  A    between atoms: C7_16  and  N6_17 
REMARK    5  A    between atoms: C10_22  and  N7_23 
REMARK    6  A    between atoms: N7_23  and  N8_25 
REMARK    7  A    between atoms: C11_30  and  C12_31 
REMARK       I    between atoms: C12_31  and  N10_33 
REMARK    8  A    between atoms: N10_33  and  N11_35 
ROOT
HETATM    1  N1  UNL     1      21.584 -28.196  23.362  1.00  0.00    -0.190 NA
HETATM    2  C1  UNL     1      21.039 -28.870  24.144  1.00  0.00     0.121 C 
HETATM    3  C2  UNL     1      20.358 -29.671  25.116  1.00  0.00     0.161 C 
HETATM    4  N2  UNL     1      20.567 -29.436  26.433  1.00  0.00    -0.287 N 
ATOM      5  H2  UNL     1      21.427 -28.935  26.660  1.00  0.00     0.188 HD
HETATM    6  N3  UNL     1      19.798 -29.771  27.484  1.00  0.00    -0.280 N 
ATOM      7  H3  UNL     1      20.218 -29.703  28.412  1.00  0.00     0.188 HD
HETATM    8  C3  UNL     1      18.494 -30.197  27.414  1.00  0.00     0.181 C 
HETATM    9  C10 UNL     1      18.002 -31.015  26.424  1.00  0.00     0.168 C 
HETATM   10  N9  UNL     1      18.316 -31.021  25.092  1.00  0.00    -0.331 N 
ATOM     11  H9  UNL     1      17.602 -31.336  24.435  1.00  0.00     0.168 HD
HETATM   12  C11 UNL     1      19.523 -30.632  24.584  1.00  0.00     0.143 C 
ENDROOT
BRANCH  12  13
HETATM   13  C12 UNL     1      19.959 -31.292  23.390  1.00  0.00     0.289 C 
HETATM   14  O3  UNL     1      21.096 -31.807  23.336  1.00  0.00    -0.264 OA
HETATM   15  N10 UNL     1      19.116 -31.374  22.254  1.00  0.00    -0.271 N 
ATOM     16  H10 UNL     1      18.184 -30.961  22.279  1.00  0.00     0.189 HD
BRANCH  15  17
HETATM   17  N11 UNL     1      19.572 -32.033  21.077  1.00  0.00    -0.342 N 
ATOM     18 2H11 UNL     1      20.477 -32.503  21.090  1.00  0.00     0.176 HD
ATOM     19 1H11 UNL     1      18.994 -32.031  20.236  1.00  0.00     0.176 HD
ENDBRANCH  15  17
ENDBRANCH  12  13
BRANCH   8  20
HETATM   20  N4  UNL     1      17.725 -29.791  28.342  1.00  0.00    -0.281 N 
ATOM     21  H4  UNL     1      16.998 -30.416  28.691  1.00  0.00     0.188 HD
BRANCH  20  22
HETATM   22  N5  UNL     1      17.846 -28.531  28.891  1.00  0.00    -0.299 N 
ATOM     23  H5  UNL     1      18.357 -28.407  29.766  1.00  0.00     0.187 HD
BRANCH  22  24
HETATM   24  C4  UNL     1      17.263 -27.396  28.245  1.00  0.00     0.048 A 
HETATM   25  C5  UNL     1      15.912 -27.415  27.955  1.00  0.00     0.033 A 
HETATM   26  C6  UNL     1      15.284 -26.358  27.335  1.00  0.00     0.038 A 
HETATM   27  C7  UNL     1      16.006 -25.256  26.993  1.00  0.00     0.103 A 
HETATM   28  C8  UNL     1      17.344 -25.231  27.277  1.00  0.00     0.038 A 
HETATM   29  C9  UNL     1      17.961 -26.279  27.890  1.00  0.00     0.033 A 
BRANCH  27  30
HETATM   30  N6  UNL     1      15.346 -24.168  26.350  1.00  0.00    -0.116 N 
HETATM   31  O1  UNL     1      14.263 -23.792  26.813  1.00  0.00    -0.532 OA
HETATM   32  O2  UNL     1      15.860 -23.538  25.257  1.00  0.00    -0.532 OA
ENDBRANCH  27  30
ENDBRANCH  22  24
ENDBRANCH  20  22
ENDBRANCH   8  20
BRANCH   9  33
HETATM   33  N7  UNL     1      17.151 -31.870  26.816  1.00  0.00    -0.289 N 
ATOM     34  H7  UNL     1      17.254 -32.201  27.774  1.00  0.00     0.188 HD
BRANCH  33  35
HETATM   35  N8  UNL     1      16.104 -32.400  26.098  1.00  0.00    -0.344 N 
ATOM     36  H82 UNL     1      16.375 -32.992  25.313  1.00  0.00     0.176 HD
ATOM     37  H81 UNL     1      15.107 -32.266  26.263  1.00  0.00     0.176 HD
ENDBRANCH  33  35
ENDBRANCH   9  33
TORSDOF 8
ENDMDL
MODEL 4
REMARK VINA RESULT: -7.588965379      3.466      5.182
REMARK  8 active torsions:
REMARK  status: ('A' for Active; 'I' for Inactive)
REMARK    1  A    between atoms: C3_8  and  N4_9 
REMARK    2  A    between atoms: N4_9  and  N5_11 
REMARK    3  A    between atoms: N5_11  and  C4_13 
REMARK    4  A    between atoms: C7_16  and  N6_17 
REMARK    5  A    between atoms: C10_22  and  N7_23 
REMARK    6  A    between atoms: N7_23  and  N8_25 
REMARK    7  A    between atoms: C11_30  and  C12_31 
REMARK       I    between atoms: C12_31  and  N10_33 
REMARK    8  A    between atoms: N10_33  and  N11_35 
ROOT
HETATM    1  N1  UNL     1      16.260 -28.274  20.770  1.00  0.00    -0.190 NA
HETATM    2  C1  UNL     1      17.239 -28.904  20.853  1.00  0.00     0.121 C 
HETATM    3  C2  UNL     1      18.451 -29.656  20.976  1.00  0.00     0.161 C 
HETATM    4  N2  UNL     1      19.633 -29.060  20.689  1.00  0.00    -0.287 N 
ATOM      5  H2  UNL     1      19.575 -28.230  20.099  1.00  0.00     0.188 HD
HETATM    6  N3  UNL     1      20.873 -29.411  21.076  1.00  0.00    -0.280 N 
ATOM      7  H3  UNL     1      21.655 -28.973  20.590  1.00  0.00     0.188 HD
HETATM    8  C3  UNL     1      21.172 -30.309  22.071  1.00  0.00     0.181 C 
HETATM    9  C10 UNL     1      20.458 -31.459  22.314  1.00  0.00     0.168 C 
HETATM   10  N9  UNL     1      19.105 -31.653  22.232  1.00  0.00    -0.331 N 
ATOM     11  H9  UNL     1      18.687 -32.361  22.835  1.00  0.00     0.168 HD
HETATM   12  C11 UNL     1      18.279 -30.959  21.395  1.00  0.00     0.143 C 
ENDROOT
BRANCH  12  13
HETATM   13  C12 UNL     1      17.128 -31.659  20.906  1.00  0.00     0.289 C 
HETATM   14  O3  UNL     1      16.802 -31.568  19.704  1.00  0.00    -0.264 OA
HETATM   15  N10 UNL     1      16.342 -32.461  21.770  1.00  0.00    -0.271 N 
ATOM     16  H10 UNL     1      16.593 -32.548  22.755  1.00  0.00     0.189 HD
BRANCH  15  17
HETATM   17  N11 UNL     1      15.201 -33.146  21.262  1.00  0.00    -0.342 N 
ATOM     18 2H11 UNL     1      14.583 -32.663  20.609  1.00  0.00     0.176 HD
ATOM     19 1H11 UNL     1      15.012 -34.105  21.553  1.00  0.00     0.176 HD
ENDBRANCH  15  17
ENDBRANCH  12  13
BRANCH   8  20
HETATM   20  N4  UNL     1      22.183 -30.027  22.790  1.00  0.00    -0.281 N 
ATOM     21  H4  UNL     1      23.070 -30.494  22.603  1.00  0.00     0.188 HD
BRANCH  20  22
HETATM   22  N5  UNL     1      22.114 -29.106  23.816  1.00  0.00    -0.299 N 
ATOM     23  H5  UNL     1      22.816 -28.369  23.882  1.00  0.00     0.187 HD
BRANCH  22  24
HETATM   24  C4  UNL     1      21.067 -29.175  24.788  1.00  0.00     0.048 A 
HETATM   25  C5  UNL     1      21.131 -30.147  25.769  1.00  0.00     0.033 A 
HETATM   26  C6  UNL     1      20.158 -30.272  26.736  1.00  0.00     0.038 A 
HETATM   27  C7  UNL     1      19.097 -29.418  26.734  1.00  0.00     0.103 A 
HETATM   28  C8  UNL     1      19.028 -28.455  25.766  1.00  0.00     0.038 A 
HETATM   29  C9  UNL     1      19.992 -28.335  24.811  1.00  0.00     0.033 A 
BRANCH  27  30
HETATM   30  N6  UNL     1      18.096 -29.558  27.740  1.00  0.00    -0.116 N 
HETATM   31  O1  UNL     1      16.937 -29.783  27.377  1.00  0.00    -0.532 OA
HETATM   32  O2  UNL     1      18.371 -29.450  29.071  1.00  0.00    -0.532 OA
ENDBRANCH  27  30
ENDBRANCH  22  24
ENDBRANCH  20  22
ENDBRANCH   8  20
BRANCH   9  33
HETATM   33  N7  UNL     1      21.161 -32.459  22.654  1.00  0.00    -0.289 N 
ATOM     34  H7  UNL     1      21.600 -32.409  23.572  1.00  0.00     0.188 HD
BRANCH  33  35
HETATM   35  N8  UNL     1      21.398 -33.601  21.926  1.00  0.00    -0.344 N 
ATOM     36  H82 UNL     1      22.338 -33.986  22.021  1.00  0.00     0.176 HD
ATOM     37  H81 UNL     1      20.749 -34.094  21.313  1.00  0.00     0.176 HD
ENDBRANCH  33  35
ENDBRANCH   9  33
TORSDOF 8
ENDMDL
MODEL 5
REMARK VINA RESULT: -7.411449899      3.373      7.963
REMARK  8 active torsions:
REMARK  status: ('A' for Active; 'I' for Inactive)
REMARK    1  A    between atoms: C3_8  and  N4_9 
REMARK    2  A    between atoms: N4_9  and  N5_11 
REMARK    3  A    between atoms: N5_11  and  C4_13 
REMARK    4  A    between atoms: C7_16  and  N6_17 
REMARK    5  A    between atoms: C10_22  and  N7_23 
REMARK    6  A    between atoms: N7_23  and  N8_25 
REMARK    7  A    between atoms: C11_30  and  C12_31 
REMARK       I    between atoms: C12_31  and  N10_33 
REMARK    8  A    between atoms: N10_33  and  N11_35 
ROOT
HETATM    1  N1  UNL     1      19.814 -25.300  26.096  1.00  0.00    -0.190 NA
HETATM    2  C1  UNL     1      19.327 -26.331  25.847  1.00  0.00     0.121 C 
HETATM    3  C2  UNL     1      18.755 -27.603  25.524  1.00  0.00     0.161 C 
HETATM    4  N2  UNL     1      18.637 -27.967  24.225  1.00  0.00    -0.287 N 
ATOM      5  H2  UNL     1      18.655 -27.202  23.550  1.00  0.00     0.188 HD
HETATM    6  N3  UNL     1      18.499 -29.198  23.701  1.00  0.00    -0.280 N 
ATOM      7  H3  UNL     1      18.210 -29.261  22.725  1.00  0.00     0.188 HD
HETATM    8  C3  UNL     1      18.716 -30.378  24.371  1.00  0.00     0.181 C 
HETATM    9  C10 UNL     1      18.389 -30.587  25.691  1.00  0.00     0.168 C 
HETATM   10  N9  UNL     1      18.479 -29.711  26.738  1.00  0.00    -0.331 N 
ATOM     11  H9  UNL     1      18.634 -30.095  27.669  1.00  0.00     0.168 HD
HETATM   12  C11 UNL     1      18.374 -28.355  26.617  1.00  0.00     0.143 C 
ENDROOT
BRANCH  12  13
HETATM   13  C12 UNL     1      17.810 -27.653  27.731  1.00  0.00     0.289 C 
HETATM   14  O3  UNL     1      18.443 -27.563  28.803  1.00  0.00    -0.264 OA
HETATM   15  N10 UNL     1      16.530 -27.051  27.640  1.00  0.00    -0.271 N 
ATOM     16  H10 UNL     1      15.998 -27.113  26.772  1.00  0.00     0.189 HD
BRANCH  15  17
HETATM   17  N11 UNL     1      15.988 -26.360  28.761  1.00  0.00    -0.342 N 
ATOM     18 2H11 UNL     1      16.497 -26.372  29.644  1.00  0.00     0.176 HD
ATOM     19 1H11 UNL     1      15.102 -25.863  28.673  1.00  0.00     0.176 HD
ENDBRANCH  15  17
ENDBRANCH  12  13
BRANCH   8  20
HETATM   20  N4  UNL     1      19.251 -31.313  23.694  1.00  0.00    -0.281 N 
ATOM     21  H4  UNL     1      18.652 -31.943  23.161  1.00  0.00     0.188 HD
BRANCH  20  22
HETATM   22  N5  UNL     1      20.618 -31.498  23.659  1.00  0.00    -0.299 N 
ATOM     23  H5  UNL     1      21.161 -31.417  24.520  1.00  0.00     0.187 HD
BRANCH  22  24
HETATM   24  C4  UNL     1      21.282 -31.801  22.430  1.00  0.00     0.048 A 
HETATM   25  C5  UNL     1      21.876 -30.774  21.721  1.00  0.00     0.033 A 
HETATM   26  C6  UNL     1      22.531 -30.993  20.530  1.00  0.00     0.038 A 
HETATM   27  C7  UNL     1      22.602 -32.256  20.026  1.00  0.00     0.103 A 
HETATM   28  C8  UNL     1      22.017 -33.277  20.722  1.00  0.00     0.038 A 
HETATM   29  C9  UNL     1      21.368 -33.056  21.900  1.00  0.00     0.033 A 
BRANCH  27  30
HETATM   30  N6  UNL     1      23.284 -32.470  18.792  1.00  0.00    -0.116 N 
HETATM   31  O1  UNL     1      22.604 -32.720  17.790  1.00  0.00    -0.532 OA
HETATM   32  O2  UNL     1      24.641 -32.413  18.682  1.00  0.00    -0.532 OA
ENDBRANCH  27  30
ENDBRANCH  22  24
ENDBRANCH  20  22
ENDBRANCH   8  20
BRANCH   9  33
HETATM   33  N7  UNL     1      17.948 -31.748  25.950  1.00  0.00    -0.289 N 
ATOM     34  H7  UNL     1      18.566 -32.526  25.724  1.00  0.00     0.188 HD
BRANCH  33  35
HETATM   35  N8  UNL     1      16.731 -32.077  26.500  1.00  0.00    -0.344 N 
ATOM     36  H82 UNL     1      16.074 -31.302  26.591  1.00  0.00     0.176 HD
ATOM     37  H81 UNL     1      16.423 -32.994  26.822  1.00  0.00     0.176 HD
ENDBRANCH  33  35
ENDBRANCH   9  33
TORSDOF 8
ENDMDL
