MODEL 1
REMARK VINA RESULT: -6.965237206      0.000      0.000
REMARK  8 active torsions:
REMARK  status: ('A' for Active; 'I' for Inactive)
REMARK    1  A    between atoms: C1_4  and  O1_6 
REMARK    2  A    between atoms: O1_6  and  N3_7 
REMARK    3  A    between atoms: C2_9  and  C3_10 
REMARK    4  A    between atoms: C2_9  and  N5_18 
REMARK       I    between atoms: C3_10  and  N4_12 
REMARK    5  A    between atoms: N4_12  and  S1_14 
REMARK    6  A    between atoms: C4_21  and  C5_22 
REMARK    7  A    between atoms: C5_22  and  N7_23 
REMARK    8  A    between atoms: C5_22  and  O6_27 
ROOT
HETATM    1  N3  UNL     1      19.885 -31.352  25.448  1.00  0.00    -0.235 N 
ATOM      2  H3  UNL     1      20.111 -32.216  24.956  1.00  0.00     0.197 HD
HETATM    3  C2  UNL     1      19.386 -30.427  24.746  1.00  0.00     0.219 C 
ENDROOT
BRANCH   3   4
HETATM    4  C3  UNL     1      19.160 -30.607  23.340  1.00  0.00     0.304 C 
HETATM    5  O2  UNL     1      20.067 -30.313  22.513  1.00  0.00    -0.263 OA
HETATM    6  N4  UNL     1      17.944 -31.110  22.826  1.00  0.00    -0.228 N 
ATOM      7  H4  UNL     1      17.201 -31.353  23.481  1.00  0.00     0.184 HD
BRANCH   6   8
HETATM    8  S1  UNL     1      17.664 -31.328  21.153  1.00  0.00     0.211 S 
HETATM    9  O3  UNL     1      18.426 -32.492  20.624  1.00  0.00    -0.578 OA
HETATM   10  O4  UNL     1      16.190 -31.663  20.977  1.00  0.00    -0.578 OA
HETATM   11  O5  UNL     1      17.939 -29.918  20.303  1.00  0.00    -0.578 OA
ENDBRANCH   6   8
ENDBRANCH   3   4
BRANCH   3  12
HETATM   12  N5  UNL     1      19.053 -29.185  25.424  1.00  0.00    -0.210 N 
HETATM   13  N6  UNL     1      18.038 -29.156  26.218  1.00  0.00    -0.283 N 
HETATM   14  C4  UNL     1      17.705 -28.053  26.847  1.00  0.00     0.126 A 
ATOM     15  H6  UNL     1      17.485 -30.002  26.359  1.00  0.00     0.188 HD
HETATM   16  S2  UNL     1      18.900 -26.970  26.290  1.00  0.00    -0.033 SA
HETATM   17  C6  UNL     1      19.745 -28.044  25.275  1.00  0.00     0.167 A 
HETATM   18  N8  UNL     1      20.804 -27.850  24.522  1.00  0.00    -0.378 N 
ATOM     19  H82 UNL     1      21.311 -28.494  23.914  1.00  0.00     0.158 HD
ATOM     20  H81 UNL     1      21.330 -26.984  24.409  1.00  0.00     0.158 HD
BRANCH  14  21
HETATM   21  C5  UNL     1      16.560 -27.813  27.811  1.00  0.00     0.376 C 
BRANCH  21  22
HETATM   22  N7  UNL     1      15.303 -28.062  27.181  1.00  0.00    -0.047 N 
ATOM     23  H73 UNL     1      15.322 -27.815  26.191  1.00  0.00     0.277 HD
ATOM     24  H72 UNL     1      15.119 -29.061  27.088  1.00  0.00     0.277 HD
ATOM     25  H71 UNL     1      14.548 -27.584  27.673  1.00  0.00     0.277 HD
ENDBRANCH  21  22
BRANCH  21  26
HETATM   26  O6  UNL     1      16.721 -28.731  28.850  1.00  0.00    -0.365 OA
ATOM     27  H6  UNL     1      16.506 -28.268  29.651  1.00  0.00     0.212 HD
ENDBRANCH  21  26
ENDBRANCH  14  21
ENDBRANCH   3  12
BRANCH   1  28
HETATM   28  O1  UNL     1      20.154 -31.332  26.773  1.00  0.00    -0.203 OA
BRANCH  28  29
HETATM   29  C1  UNL     1      19.175 -31.690  27.694  1.00  0.00     0.249 C 
HETATM   30  N1  UNL     1      18.535 -32.801  27.442  1.00  0.00    -0.366 N 
ATOM     31  H12 UNL     1      17.817 -33.064  28.118  1.00  0.00     0.159 HD
ATOM     32  H11 UNL     1      18.757 -33.355  26.616  1.00  0.00     0.159 HD
HETATM   33  N2  UNL     1      18.865 -30.917  28.847  1.00  0.00    -0.055 NA
ENDBRANCH  28  29
ENDBRANCH   1  28
TORSDOF 8
ENDMDL
MODEL 2
REMARK VINA RESULT: -6.924431045      1.011      1.325
REMARK  8 active torsions:
REMARK  status: ('A' for Active; 'I' for Inactive)
REMARK    1  A    between atoms: C1_4  and  O1_6 
REMARK    2  A    between atoms: O1_6  and  N3_7 
REMARK    3  A    between atoms: C2_9  and  C3_10 
REMARK    4  A    between atoms: C2_9  and  N5_18 
REMARK       I    between atoms: C3_10  and  N4_12 
REMARK    5  A    between atoms: N4_12  and  S1_14 
REMARK    6  A    between atoms: C4_21  and  C5_22 
REMARK    7  A    between atoms: C5_22  and  N7_23 
REMARK    8  A    between atoms: C5_22  and  O6_27 
ROOT
HETATM    1  N3  UNL     1      19.522 -31.305  25.377  1.00  0.00    -0.235 N 
ATOM      2  H3  UNL     1      19.386 -32.142  24.811  1.00  0.00     0.197 HD
HETATM    3  C2  UNL     1      19.161 -30.214  24.851  1.00  0.00     0.219 C 
ENDROOT
BRANCH   3   4
HETATM    4  C3  UNL     1      18.595 -30.181  23.533  1.00  0.00     0.304 C 
HETATM    5  O2  UNL     1      17.928 -29.178  23.157  1.00  0.00    -0.263 OA
HETATM    6  N4  UNL     1      18.753 -31.243  22.614  1.00  0.00    -0.228 N 
ATOM      7  H4  UNL     1      19.290 -32.061  22.901  1.00  0.00     0.184 HD
BRANCH   6   8
HETATM    8  S1  UNL     1      18.083 -31.215  21.041  1.00  0.00     0.211 S 
HETATM    9  O3  UNL     1      18.644 -30.100  20.233  1.00  0.00    -0.578 OA
HETATM   10  O4  UNL     1      18.499 -32.503  20.345  1.00  0.00    -0.578 OA
HETATM   11  O5  UNL     1      16.414 -31.219  21.092  1.00  0.00    -0.578 OA
ENDBRANCH   6   8
ENDBRANCH   3   4
BRANCH   3  12
HETATM   12  N5  UNL     1      19.345 -29.005  25.638  1.00  0.00    -0.210 N 
HETATM   13  N6  UNL     1      18.582 -28.798  26.656  1.00  0.00    -0.283 N 
HETATM   14  C4  UNL     1      18.716 -27.718  27.391  1.00  0.00     0.126 A 
ATOM     15  H6  UNL     1      17.865 -29.483  26.895  1.00  0.00     0.188 HD
HETATM   16  S2  UNL     1      20.005 -26.928  26.601  1.00  0.00    -0.033 SA
HETATM   17  C6  UNL     1      20.272 -28.072  25.369  1.00  0.00     0.167 A 
HETATM   18  N8  UNL     1      21.146 -28.081  24.388  1.00  0.00    -0.378 N 
ATOM     19  H82 UNL     1      21.306 -28.767  23.650  1.00  0.00     0.158 HD
ATOM     20  H81 UNL     1      21.851 -27.372  24.184  1.00  0.00     0.158 HD
BRANCH  14  21
HETATM   21  C5  UNL     1      17.928 -27.293  28.614  1.00  0.00     0.376 C 
BRANCH  21  22
HETATM   22  N7  UNL     1      16.524 -27.327  28.353  1.00  0.00    -0.047 N 
ATOM     23  H73 UNL     1      16.253 -26.634  27.656  1.00  0.00     0.277 HD
ATOM     24  H72 UNL     1      16.256 -28.171  27.846  1.00  0.00     0.277 HD
ATOM     25  H71 UNL     1      15.992 -27.221  29.217  1.00  0.00     0.277 HD
ENDBRANCH  21  22
BRANCH  21  26
HETATM   26  O6  UNL     1      18.214 -28.226  29.611  1.00  0.00    -0.365 OA
ATOM     27  H6  UNL     1      19.158 -28.221  29.720  1.00  0.00     0.212 HD
ENDBRANCH  21  26
ENDBRANCH  14  21
ENDBRANCH   3  12
BRANCH   1  28
HETATM   28  O1  UNL     1      20.068 -31.493  26.600  1.00  0.00    -0.203 OA
BRANCH  28  29
HETATM   29  C1  UNL     1      19.263 -31.835  27.683  1.00  0.00     0.249 C 
HETATM   30  N1  UNL     1      18.441 -32.832  27.489  1.00  0.00    -0.366 N 
ATOM     31  H12 UNL     1      17.851 -33.083  28.283  1.00  0.00     0.159 HD
ATOM     32  H11 UNL     1      18.410 -33.316  26.592  1.00  0.00     0.159 HD
HETATM   33  N2  UNL     1      19.307 -31.160  28.933  1.00  0.00    -0.055 NA
ENDBRANCH  28  29
ENDBRANCH   1  28
TORSDOF 8
ENDMDL
MODEL 3
REMARK VINA RESULT: -6.794145688      2.271      4.036
REMARK  8 active torsions:
REMARK  status: ('A' for Active; 'I' for Inactive)
REMARK    1  A    between atoms: C1_4  and  O1_6 
REMARK    2  A    between atoms: O1_6  and  N3_7 
REMARK    3  A    between atoms: C2_9  and  C3_10 
REMARK    4  A    between atoms: C2_9  and  N5_18 
REMARK       I    between atoms: C3_10  and  N4_12 
REMARK    5  A    between atoms: N4_12  and  S1_14 
REMARK    6  A    between atoms: C4_21  and  C5_22 
REMARK    7  A    between atoms: C5_22  and  N7_23 
REMARK    8  A    between atoms: C5_22  and  O6_27 
ROOT
HETATM    1  N3  UNL     1      18.340 -28.985  25.004  1.00  0.00    -0.235 N 
ATOM      2  H3  UNL     1      18.169 -28.436  24.162  1.00  0.00     0.197 HD
HETATM    3  C2  UNL     1      18.677 -30.190  24.823  1.00  0.00     0.219 C 
ENDROOT
BRANCH   3   4
HETATM    4  C3  UNL     1      18.803 -30.730  23.499  1.00  0.00     0.304 C 
HETATM    5  O2  UNL     1      19.690 -31.594  23.253  1.00  0.00    -0.263 OA
HETATM    6  N4  UNL     1      17.964 -30.332  22.435  1.00  0.00    -0.228 N 
ATOM      7  H4  UNL     1      17.242 -29.635  22.617  1.00  0.00     0.184 HD
BRANCH   6   8
HETATM    8  S1  UNL     1      18.106 -30.968  20.854  1.00  0.00     0.211 S 
HETATM    9  O3  UNL     1      17.757 -32.414  20.819  1.00  0.00    -0.578 OA
HETATM   10  O4  UNL     1      17.081 -30.257  19.982  1.00  0.00    -0.578 OA
HETATM   11  O5  UNL     1      19.604 -30.635  20.198  1.00  0.00    -0.578 OA
ENDBRANCH   6   8
ENDBRANCH   3   4
BRANCH   3  12
HETATM   12  N5  UNL     1      18.927 -30.994  26.007  1.00  0.00    -0.210 N 
HETATM   13  N6  UNL     1      20.078 -30.921  26.584  1.00  0.00    -0.283 N 
HETATM   14  C4  UNL     1      20.342 -31.632  27.655  1.00  0.00     0.126 A 
ATOM     15  H6  UNL     1      20.792 -30.300  26.204  1.00  0.00     0.188 HD
HETATM   16  S2  UNL     1      18.873 -32.471  27.877  1.00  0.00    -0.033 SA
HETATM   17  C6  UNL     1      18.024 -31.826  26.550  1.00  0.00     0.167 A 
HETATM   18  N8  UNL     1      16.800 -32.055  26.129  1.00  0.00    -0.378 N 
ATOM     19  H82 UNL     1      16.291 -31.668  25.334  1.00  0.00     0.158 HD
ATOM     20  H81 UNL     1      16.114 -32.686  26.541  1.00  0.00     0.158 HD
BRANCH  14  21
HETATM   21  C5  UNL     1      21.618 -31.688  28.471  1.00  0.00     0.376 C 
BRANCH  21  22
HETATM   22  N7  UNL     1      22.465 -30.579  28.171  1.00  0.00    -0.047 N 
ATOM     23  H73 UNL     1      22.394 -29.848  28.880  1.00  0.00     0.277 HD
ATOM     24  H72 UNL     1      23.450 -30.815  28.289  1.00  0.00     0.277 HD
ATOM     25  H71 UNL     1      22.273 -30.217  27.237  1.00  0.00     0.277 HD
ENDBRANCH  21  22
BRANCH  21  26
HETATM   26  O6  UNL     1      21.234 -31.600  29.810  1.00  0.00    -0.365 OA
ATOM     27  H6  UNL     1      21.240 -32.487  30.150  1.00  0.00     0.212 HD
ENDBRANCH  21  26
ENDBRANCH  14  21
ENDBRANCH   3  12
BRANCH   1  28
HETATM   28  O1  UNL     1      18.180 -28.339  26.181  1.00  0.00    -0.203 OA
BRANCH  28  29
HETATM   29  C1  UNL     1      19.182 -27.503  26.665  1.00  0.00     0.249 C 
HETATM   30  N1  UNL     1      18.909 -26.225  26.662  1.00  0.00    -0.366 N 
ATOM     31  H12 UNL     1      19.643 -25.612  27.017  1.00  0.00     0.159 HD
ATOM     32  H11 UNL     1      18.009 -25.885  26.322  1.00  0.00     0.159 HD
HETATM   33  N2  UNL     1      20.436 -27.978  27.139  1.00  0.00    -0.055 NA
ENDBRANCH  28  29
ENDBRANCH   1  28
TORSDOF 8
ENDMDL
MODEL 4
REMARK VINA RESULT: -6.759416080      1.837      2.458
REMARK  8 active torsions:
REMARK  status: ('A' for Active; 'I' for Inactive)
REMARK    1  A    between atoms: C1_4  and  O1_6 
REMARK    2  A    between atoms: O1_6  and  N3_7 
REMARK    3  A    between atoms: C2_9  and  C3_10 
REMARK    4  A    between atoms: C2_9  and  N5_18 
REMARK       I    between atoms: C3_10  and  N4_12 
REMARK    5  A    between atoms: N4_12  and  S1_14 
REMARK    6  A    between atoms: C4_21  and  C5_22 
REMARK    7  A    between atoms: C5_22  and  N7_23 
REMARK    8  A    between atoms: C5_22  and  O6_27 
ROOT
HETATM    1  N3  UNL     1      20.028 -31.256  25.203  1.00  0.00    -0.235 N 
ATOM      2  H3  UNL     1      20.553 -31.571  24.387  1.00  0.00     0.197 HD
HETATM    3  C2  UNL     1      18.951 -30.640  24.967  1.00  0.00     0.219 C 
ENDROOT
BRANCH   3   4
HETATM    4  C3  UNL     1      18.512 -30.410  23.620  1.00  0.00     0.304 C 
HETATM    5  O2  UNL     1      18.009 -29.298  23.302  1.00  0.00    -0.263 OA
HETATM    6  N4  UNL     1      18.619 -31.393  22.610  1.00  0.00    -0.228 N 
ATOM      7  H4  UNL     1      19.023 -32.297  22.850  1.00  0.00     0.184 HD
BRANCH   6   8
HETATM    8  S1  UNL     1      18.099 -31.130  21.002  1.00  0.00     0.211 S 
HETATM    9  O3  UNL     1      18.238 -32.362  20.180  1.00  0.00    -0.578 OA
HETATM   10  O4  UNL     1      16.612 -30.810  21.049  1.00  0.00    -0.578 OA
HETATM   11  O5  UNL     1      18.852 -29.800  20.331  1.00  0.00    -0.578 OA
ENDBRANCH   6   8
ENDBRANCH   3   4
BRANCH   3  12
HETATM   12  N5  UNL     1      18.184 -30.181  26.113  1.00  0.00    -0.210 N 
HETATM   13  N6  UNL     1      18.428 -29.015  26.605  1.00  0.00    -0.283 N 
HETATM   14  C4  UNL     1      17.758 -28.565  27.640  1.00  0.00     0.126 A 
ATOM     15  H6  UNL     1      19.152 -28.433  26.184  1.00  0.00     0.188 HD
HETATM   16  S2  UNL     1      16.703 -29.869  27.954  1.00  0.00    -0.033 SA
HETATM   17  C6  UNL     1      17.220 -30.905  26.705  1.00  0.00     0.167 A 
HETATM   18  N8  UNL     1      16.811 -32.108  26.371  1.00  0.00    -0.378 N 
ATOM     19  H82 UNL     1      17.121 -32.728  25.623  1.00  0.00     0.158 HD
ATOM     20  H81 UNL     1      16.079 -32.657  26.821  1.00  0.00     0.158 HD
BRANCH  14  21
HETATM   21  C5  UNL     1      17.892 -27.239  28.360  1.00  0.00     0.376 C 
BRANCH  21  22
HETATM   22  N7  UNL     1      16.626 -26.589  28.474  1.00  0.00    -0.047 N 
ATOM     23  H73 UNL     1      16.418 -26.022  27.651  1.00  0.00     0.277 HD
ATOM     24  H72 UNL     1      15.854 -27.253  28.403  1.00  0.00     0.277 HD
ATOM     25  H71 UNL     1      16.573 -26.041  29.332  1.00  0.00     0.277 HD
ENDBRANCH  21  22
BRANCH  21  26
HETATM   26  O6  UNL     1      18.354 -27.532  29.644  1.00  0.00    -0.365 OA
ATOM     27  H6  UNL     1      19.301 -27.581  29.584  1.00  0.00     0.212 HD
ENDBRANCH  21  26
ENDBRANCH  14  21
ENDBRANCH   3  12
BRANCH   1  28
HETATM   28  O1  UNL     1      20.569 -31.546  26.408  1.00  0.00    -0.203 OA
BRANCH  28  29
HETATM   29  C1  UNL     1      21.360 -30.610  27.066  1.00  0.00     0.249 C 
HETATM   30  N1  UNL     1      21.888 -31.004  28.196  1.00  0.00    -0.366 N 
ATOM     31  H12 UNL     1      22.468 -30.318  28.679  1.00  0.00     0.159 HD
ATOM     32  H11 UNL     1      21.717 -31.944  28.552  1.00  0.00     0.159 HD
HETATM   33  N2  UNL     1      21.599 -29.300  26.570  1.00  0.00    -0.055 NA
ENDBRANCH  28  29
ENDBRANCH   1  28
TORSDOF 8
ENDMDL
MODEL 5
REMARK VINA RESULT: -6.739397436      2.671      3.765
REMARK  8 active torsions:
REMARK  status: ('A' for Active; 'I' for Inactive)
REMARK    1  A    between atoms: C1_4  and  O1_6 
REMARK    2  A    between atoms: O1_6  and  N3_7 
REMARK    3  A    between atoms: C2_9  and  C3_10 
REMARK    4  A    between atoms: C2_9  and  N5_18 
REMARK       I    between atoms: C3_10  and  N4_12 
REMARK    5  A    between atoms: N4_12  and  S1_14 
REMARK    6  A    between atoms: C4_21  and  C5_22 
REMARK    7  A    between atoms: C5_22  and  N7_23 
REMARK    8  A    between atoms: C5_22  and  O6_27 
ROOT
HETATM    1  N3  UNL     1      19.132 -30.528  26.697  1.00  0.00    -0.235 N 
ATOM      2  H3  UNL     1      18.346 -31.082  26.359  1.00  0.00     0.197 HD
HETATM    3  C2  UNL     1      19.824 -29.948  25.813  1.00  0.00     0.219 C 
ENDROOT
BRANCH   3   4
HETATM    4  C3  UNL     1      19.502 -30.077  24.421  1.00  0.00     0.304 C 
HETATM    5  O2  UNL     1      20.190 -29.470  23.555  1.00  0.00    -0.263 OA
HETATM    6  N4  UNL     1      18.426 -30.869  23.963  1.00  0.00    -0.228 N 
ATOM      7  H4  UNL     1      17.859 -31.367  24.649  1.00  0.00     0.184 HD
BRANCH   6   8
HETATM    8  S1  UNL     1      18.032 -31.031  22.306  1.00  0.00     0.211 S 
HETATM    9  O3  UNL     1      19.130 -31.692  21.551  1.00  0.00    -0.578 OA
HETATM   10  O4  UNL     1      16.827 -31.955  22.211  1.00  0.00    -0.578 OA
HETATM   11  O5  UNL     1      17.565 -29.569  21.649  1.00  0.00    -0.578 OA
ENDBRANCH   6   8
ENDBRANCH   3   4
BRANCH   3  12
HETATM   12  N5  UNL     1      20.951 -29.150  26.269  1.00  0.00    -0.210 N 
HETATM   13  N6  UNL     1      21.972 -29.744  26.785  1.00  0.00    -0.283 N 
HETATM   14  C4  UNL     1      23.008 -29.059  27.210  1.00  0.00     0.126 A 
ATOM     15  H6  UNL     1      21.975 -30.761  26.864  1.00  0.00     0.188 HD
HETATM   16  S2  UNL     1      22.522 -27.460  26.864  1.00  0.00    -0.033 SA
HETATM   17  C6  UNL     1      20.999 -27.811  26.189  1.00  0.00     0.167 A 
HETATM   18  N8  UNL     1      20.077 -27.010  25.703  1.00  0.00    -0.378 N 
ATOM     19  H82 UNL     1      19.165 -27.221  25.299  1.00  0.00     0.158 HD
ATOM     20  H81 UNL     1      20.114 -25.993  25.642  1.00  0.00     0.158 HD
BRANCH  14  21
HETATM   21  C5  UNL     1      24.291 -29.562  27.840  1.00  0.00     0.376 C 
BRANCH  21  22
HETATM   22  N7  UNL     1      25.139 -28.474  28.209  1.00  0.00    -0.047 N 
ATOM     23  H73 UNL     1      24.639 -27.585  28.195  1.00  0.00     0.277 HD
ATOM     24  H72 UNL     1      25.378 -28.502  29.200  1.00  0.00     0.277 HD
ATOM     25  H71 UNL     1      25.972 -28.447  27.621  1.00  0.00     0.277 HD
ENDBRANCH  21  22
BRANCH  21  26
HETATM   26  O6  UNL     1      23.920 -30.244  28.999  1.00  0.00    -0.365 OA
ATOM     27  H6  UNL     1      24.539 -30.958  29.100  1.00  0.00     0.212 HD
ENDBRANCH  21  26
ENDBRANCH  14  21
ENDBRANCH   3  12
BRANCH   1  28
HETATM   28  O1  UNL     1      19.311 -30.501  28.038  1.00  0.00    -0.203 OA
BRANCH  28  29
HETATM   29  C1  UNL     1      19.790 -31.625  28.705  1.00  0.00     0.249 C 
HETATM   30  N1  UNL     1      19.059 -32.703  28.601  1.00  0.00    -0.366 N 
ATOM     31  H12 UNL     1      19.410 -33.527  29.089  1.00  0.00     0.159 HD
ATOM     32  H11 UNL     1      18.196 -32.698  28.057  1.00  0.00     0.159 HD
HETATM   33  N2  UNL     1      20.993 -31.631  29.461  1.00  0.00    -0.055 NA
ENDBRANCH  28  29
ENDBRANCH   1  28
TORSDOF 8
ENDMDL
