MODEL 1
REMARK VINA RESULT: -9.208245072      0.000      0.000
REMARK  8 active torsions:
REMARK  status: ('A' for Active; 'I' for Inactive)
REMARK    1  A    between atoms: O1_2  and  C2_3 
REMARK    2  A    between atoms: C4_5  and  C5_6 
REMARK    3  A    between atoms: C5_6  and  C6_7 
REMARK    4  A    between atoms: C6_7  and  C7_9 
REMARK    5  A    between atoms: C7_9  and  S1_10 
REMARK    6  A    between atoms: S1_10  and  C8_11 
REMARK    7  A    between atoms: C16_24  and  C17_25 
REMARK    8  A    between atoms: C18_28  and  O4_29 
ROOT
HETATM    1  C8  UNL     1     -40.421  21.686  -7.746  1.00  0.00     0.046 A 
HETATM    2  C9  UNL     1     -41.484  21.458  -6.838  1.00  0.00     0.075 A 
HETATM    3 CL1  UNL     1     -41.152  21.540  -5.146  1.00  0.00    -0.081 Cl
HETATM    4  C10 UNL     1     -42.722  21.179  -7.318  1.00  0.00     0.080 A 
HETATM    5 CL2  UNL     1     -44.039  20.882  -6.180  1.00  0.00    -0.081 Cl
HETATM    6  C11 UNL     1     -43.022  21.100  -8.655  1.00  0.00     0.080 A 
HETATM    7 CL3  UNL     1     -44.626  20.733  -9.200  1.00  0.00    -0.081 Cl
HETATM    8  C12 UNL     1     -41.989  21.320  -9.529  1.00  0.00     0.079 A 
HETATM    9 CL4  UNL     1     -42.311  21.239 -11.226  1.00  0.00    -0.081 Cl
HETATM   10  C13 UNL     1     -40.715  21.607  -9.066  1.00  0.00     0.086 A 
HETATM   11  C14 UNL     1     -39.678  21.830 -10.032  1.00  0.00     0.102 C 
HETATM   12  N1  UNL     1     -38.866  22.033 -10.805  1.00  0.00    -0.191 NA
ENDROOT
BRANCH   1  13
HETATM   13  S1  UNL     1     -38.820  22.102  -7.060  1.00  0.00    -0.119 SA
BRANCH  13  14
HETATM   14  C7  UNL     1     -37.569  20.864  -7.596  1.00  0.00     0.158 C 
BRANCH  14  15
HETATM   15  C6  UNL     1     -38.077  19.489  -7.396  1.00  0.00     0.140 C 
HETATM   16  O2  UNL     1     -38.193  19.071  -6.274  1.00  0.00    -0.297 OA
BRANCH  15  17
HETATM   17  C5  UNL     1     -38.424  18.646  -8.544  1.00  0.00     0.117 C 
BRANCH  17  18
HETATM   18  C4  UNL     1     -37.298  18.370  -9.442  1.00  0.00    -0.047 A 
HETATM   19  C3  UNL     1     -37.504  18.631 -10.802  1.00  0.00     0.047 A 
HETATM   20  C2  UNL     1     -36.516  18.434 -11.728  1.00  0.00     0.103 A 
HETATM   21  C18 UNL     1     -35.268  17.964 -11.314  1.00  0.00     0.116 A 
HETATM   22  C16 UNL     1     -35.022  17.693  -9.997  1.00  0.00     0.066 A 
HETATM   23  C15 UNL     1     -36.069  17.910  -9.074  1.00  0.00     0.027 A 
BRANCH  20  24
HETATM   24  O1  UNL     1     -36.730  18.698 -13.085  1.00  0.00    -0.353 OA
HETATM   25  C1  UNL     1     -37.753  19.570 -13.466  1.00  0.00     0.210 C 
ENDBRANCH  20  24
BRANCH  21  26
HETATM   26  O4  UNL     1     -34.277  17.777 -12.269  1.00  0.00    -0.352 OA
HETATM   27  C19 UNL     1     -34.064  16.482 -12.830  1.00  0.00     0.210 C 
ENDBRANCH  21  26
BRANCH  22  28
HETATM   28  C17 UNL     1     -33.763  17.180  -9.498  1.00  0.00     0.267 C 
HETATM   29  N2  UNL     1     -33.531  16.110  -8.658  1.00  0.00    -0.057 NA
HETATM   30  O3  UNL     1     -32.698  17.809  -9.889  1.00  0.00    -0.271 OA
ENDBRANCH  22  28
ENDBRANCH  17  18
ENDBRANCH  15  17
ENDBRANCH  14  15
ENDBRANCH  13  14
ENDBRANCH   1  13
TORSDOF 8
ENDMDL
MODEL 2
REMARK VINA RESULT: -9.106547142      1.420      2.621
REMARK  8 active torsions:
REMARK  status: ('A' for Active; 'I' for Inactive)
REMARK    1  A    between atoms: O1_2  and  C2_3 
REMARK    2  A    between atoms: C4_5  and  C5_6 
REMARK    3  A    between atoms: C5_6  and  C6_7 
REMARK    4  A    between atoms: C6_7  and  C7_9 
REMARK    5  A    between atoms: C7_9  and  S1_10 
REMARK    6  A    between atoms: S1_10  and  C8_11 
REMARK    7  A    between atoms: C16_24  and  C17_25 
REMARK    8  A    between atoms: C18_28  and  O4_29 
ROOT
HETATM    1  C8  UNL     1     -40.416  21.707  -7.795  1.00  0.00     0.046 A 
HETATM    2  C9  UNL     1     -41.472  21.481  -6.879  1.00  0.00     0.075 A 
HETATM    3 CL1  UNL     1     -41.127  21.566  -5.190  1.00  0.00    -0.081 Cl
HETATM    4  C10 UNL     1     -42.714  21.201  -7.349  1.00  0.00     0.080 A 
HETATM    5 CL2  UNL     1     -44.022  20.908  -6.200  1.00  0.00    -0.081 Cl
HETATM    6  C11 UNL     1     -43.024  21.120  -8.683  1.00  0.00     0.080 A 
HETATM    7 CL3  UNL     1     -44.632  20.753  -9.216  1.00  0.00    -0.081 Cl
HETATM    8  C12 UNL     1     -41.997  21.338  -9.566  1.00  0.00     0.079 A 
HETATM    9 CL4  UNL     1     -42.333  21.254 -11.261  1.00  0.00    -0.081 Cl
HETATM   10  C13 UNL     1     -40.720  21.625  -9.113  1.00  0.00     0.086 A 
HETATM   11  C14 UNL     1     -39.690  21.846 -10.087  1.00  0.00     0.102 C 
HETATM   12  N1  UNL     1     -38.885  22.046 -10.867  1.00  0.00    -0.191 NA
ENDROOT
BRANCH   1  13
HETATM   13  S1  UNL     1     -38.810  22.123  -7.122  1.00  0.00    -0.119 SA
BRANCH  13  14
HETATM   14  C7  UNL     1     -37.602  20.792  -7.517  1.00  0.00     0.158 C 
BRANCH  14  15
HETATM   15  C6  UNL     1     -38.153  19.466  -7.161  1.00  0.00     0.140 C 
HETATM   16  O2  UNL     1     -38.358  19.215  -6.003  1.00  0.00    -0.297 OA
BRANCH  15  17
HETATM   17  C5  UNL     1     -38.434  18.471  -8.199  1.00  0.00     0.117 C 
BRANCH  17  18
HETATM   18  C4  UNL     1     -37.425  18.418  -9.263  1.00  0.00    -0.047 A 
HETATM   19  C3  UNL     1     -36.141  18.009  -8.886  1.00  0.00     0.047 A 
HETATM   20  C2  UNL     1     -35.126  17.899  -9.797  1.00  0.00     0.103 A 
HETATM   21  C18 UNL     1     -35.371  18.198 -11.139  1.00  0.00     0.116 A 
HETATM   22  C16 UNL     1     -36.608  18.604 -11.553  1.00  0.00     0.066 A 
HETATM   23  C15 UNL     1     -37.628  18.704 -10.580  1.00  0.00     0.027 A 
BRANCH  20  24
HETATM   24  O1  UNL     1     -33.846  17.489  -9.412  1.00  0.00    -0.353 OA
HETATM   25  C1  UNL     1     -33.635  16.168  -9.008  1.00  0.00     0.210 C 
ENDBRANCH  20  24
BRANCH  21  26
HETATM   26  O4  UNL     1     -34.329  18.074 -12.050  1.00  0.00    -0.352 OA
HETATM   27  C19 UNL     1     -33.973  16.787 -12.553  1.00  0.00     0.210 C 
ENDBRANCH  21  26
BRANCH  22  28
HETATM   28  C17 UNL     1     -36.930  18.954 -12.920  1.00  0.00     0.267 C 
HETATM   29  N2  UNL     1     -37.436  20.137 -13.420  1.00  0.00    -0.057 NA
HETATM   30  O3  UNL     1     -36.717  18.033 -13.808  1.00  0.00    -0.271 OA
ENDBRANCH  22  28
ENDBRANCH  17  18
ENDBRANCH  15  17
ENDBRANCH  14  15
ENDBRANCH  13  14
ENDBRANCH   1  13
TORSDOF 8
ENDMDL
MODEL 3
REMARK VINA RESULT: -8.962583584      1.394      2.432
REMARK  8 active torsions:
REMARK  status: ('A' for Active; 'I' for Inactive)
REMARK    1  A    between atoms: O1_2  and  C2_3 
REMARK    2  A    between atoms: C4_5  and  C5_6 
REMARK    3  A    between atoms: C5_6  and  C6_7 
REMARK    4  A    between atoms: C6_7  and  C7_9 
REMARK    5  A    between atoms: C7_9  and  S1_10 
REMARK    6  A    between atoms: S1_10  and  C8_11 
REMARK    7  A    between atoms: C16_24  and  C17_25 
REMARK    8  A    between atoms: C18_28  and  O4_29 
ROOT
HETATM    1  C8  UNL     1     -40.072  21.838  -7.864  1.00  0.00     0.046 A 
HETATM    2  C9  UNL     1     -40.440  21.723  -9.227  1.00  0.00     0.075 A 
HETATM    3 CL1  UNL     1     -39.242  22.029 -10.431  1.00  0.00    -0.081 Cl
HETATM    4  C10 UNL     1     -41.715  21.386  -9.547  1.00  0.00     0.080 A 
HETATM    5 CL2  UNL     1     -42.170  21.258 -11.248  1.00  0.00    -0.081 Cl
HETATM    6  C11 UNL     1     -42.695  21.141  -8.618  1.00  0.00     0.080 A 
HETATM    7 CL3  UNL     1     -44.307  20.719  -9.096  1.00  0.00    -0.081 Cl
HETATM    8  C12 UNL     1     -42.334  21.255  -7.301  1.00  0.00     0.079 A 
HETATM    9 CL4  UNL     1     -43.528  20.953  -6.087  1.00  0.00    -0.081 Cl
HETATM   10  C13 UNL     1     -41.039  21.599  -6.946  1.00  0.00     0.086 A 
HETATM   11  C14 UNL     1     -40.723  21.699  -5.550  1.00  0.00     0.102 C 
HETATM   12  N1  UNL     1     -40.474  21.750  -4.440  1.00  0.00    -0.191 NA
ENDROOT
BRANCH   1  13
HETATM   13  S1  UNL     1     -38.365  22.235  -7.498  1.00  0.00    -0.119 SA
BRANCH  13  14
HETATM   14  C7  UNL     1     -37.298  20.773  -7.828  1.00  0.00     0.158 C 
BRANCH  14  15
HETATM   15  C6  UNL     1     -38.010  19.521  -7.491  1.00  0.00     0.140 C 
HETATM   16  O2  UNL     1     -38.322  19.322  -6.347  1.00  0.00    -0.297 OA
BRANCH  15  17
HETATM   17  C5  UNL     1     -38.320  18.535  -8.530  1.00  0.00     0.117 C 
BRANCH  17  18
HETATM   18  C4  UNL     1     -37.216  18.286  -9.464  1.00  0.00    -0.047 A 
HETATM   19  C3  UNL     1     -37.468  18.551 -10.814  1.00  0.00     0.047 A 
HETATM   20  C2  UNL     1     -36.506  18.378 -11.772  1.00  0.00     0.103 A 
HETATM   21  C18 UNL     1     -35.237  17.930 -11.399  1.00  0.00     0.116 A 
HETATM   22  C16 UNL     1     -34.946  17.656 -10.091  1.00  0.00     0.066 A 
HETATM   23  C15 UNL     1     -35.968  17.847  -9.135  1.00  0.00     0.027 A 
BRANCH  20  24
HETATM   24  O1  UNL     1     -36.765  18.646 -13.119  1.00  0.00    -0.353 OA
HETATM   25  C1  UNL     1     -37.634  19.687 -13.463  1.00  0.00     0.210 C 
ENDBRANCH  20  24
BRANCH  21  26
HETATM   26  O4  UNL     1     -34.271  17.767 -12.384  1.00  0.00    -0.352 OA
HETATM   27  C19 UNL     1     -33.967  16.462 -12.873  1.00  0.00     0.210 C 
ENDBRANCH  21  26
BRANCH  22  28
HETATM   28  C17 UNL     1     -33.663  17.165  -9.634  1.00  0.00     0.267 C 
HETATM   29  N2  UNL     1     -33.382  16.066  -8.847  1.00  0.00    -0.057 NA
HETATM   30  O3  UNL     1     -32.626  17.847 -10.010  1.00  0.00    -0.271 OA
ENDBRANCH  22  28
ENDBRANCH  17  18
ENDBRANCH  15  17
ENDBRANCH  14  15
ENDBRANCH  13  14
ENDBRANCH   1  13
TORSDOF 8
ENDMDL
MODEL 4
REMARK VINA RESULT: -8.921891657      2.947      4.122
REMARK  8 active torsions:
REMARK  status: ('A' for Active; 'I' for Inactive)
REMARK    1  A    between atoms: O1_2  and  C2_3 
REMARK    2  A    between atoms: C4_5  and  C5_6 
REMARK    3  A    between atoms: C5_6  and  C6_7 
REMARK    4  A    between atoms: C6_7  and  C7_9 
REMARK    5  A    between atoms: C7_9  and  S1_10 
REMARK    6  A    between atoms: S1_10  and  C8_11 
REMARK    7  A    between atoms: C16_24  and  C17_25 
REMARK    8  A    between atoms: C18_28  and  O4_29 
ROOT
HETATM    1  C8  UNL     1     -40.623  22.220  -5.500  1.00  0.00     0.046 A 
HETATM    2  C9  UNL     1     -41.039  23.362  -6.228  1.00  0.00     0.075 A 
HETATM    3 CL1  UNL     1     -42.093  23.137  -7.576  1.00  0.00    -0.081 Cl
HETATM    4  C10 UNL     1     -40.599  24.589  -5.852  1.00  0.00     0.080 A 
HETATM    5 CL2  UNL     1     -41.112  26.006  -6.772  1.00  0.00    -0.081 Cl
HETATM    6  C11 UNL     1     -39.757  24.805  -4.790  1.00  0.00     0.080 A 
HETATM    7 CL3  UNL     1     -39.227  26.400  -4.368  1.00  0.00    -0.081 Cl
HETATM    8  C12 UNL     1     -39.355  23.696  -4.091  1.00  0.00     0.079 A 
HETATM    9 CL4  UNL     1     -38.298  23.911  -2.738  1.00  0.00    -0.081 Cl
HETATM   10  C13 UNL     1     -39.790  22.431  -4.453  1.00  0.00     0.086 A 
HETATM   11  C14 UNL     1     -39.336  21.312  -3.678  1.00  0.00     0.102 C 
HETATM   12  N1  UNL     1     -38.993  20.432  -3.042  1.00  0.00    -0.191 NA
ENDROOT
BRANCH   1  13
HETATM   13  S1  UNL     1     -41.275  20.631  -6.006  1.00  0.00    -0.119 SA
BRANCH  13  14
HETATM   14  C7  UNL     1     -40.311  19.986  -7.434  1.00  0.00     0.158 C 
BRANCH  14  15
HETATM   15  C6  UNL     1     -38.975  19.525  -6.997  1.00  0.00     0.140 C 
HETATM   16  O2  UNL     1     -38.903  18.713  -6.112  1.00  0.00    -0.297 OA
BRANCH  15  17
HETATM   17  C5  UNL     1     -37.760  20.053  -7.623  1.00  0.00     0.117 C 
BRANCH  17  18
HETATM   18  C4  UNL     1     -37.115  19.119  -8.552  1.00  0.00    -0.047 A 
HETATM   19  C3  UNL     1     -37.617  19.089  -9.858  1.00  0.00     0.047 A 
HETATM   20  C2  UNL     1     -37.078  18.274 -10.816  1.00  0.00     0.103 A 
HETATM   21  C18 UNL     1     -35.997  17.452 -10.491  1.00  0.00     0.116 A 
HETATM   22  C16 UNL     1     -35.475  17.446  -9.228  1.00  0.00     0.066 A 
HETATM   23  C15 UNL     1     -36.061  18.302  -8.269  1.00  0.00     0.027 A 
BRANCH  20  24
HETATM   24  O1  UNL     1     -37.585  18.250 -12.119  1.00  0.00    -0.353 OA
HETATM   25  C1  UNL     1     -37.572  19.418 -12.888  1.00  0.00     0.210 C 
ENDBRANCH  20  24
BRANCH  21  26
HETATM   26  O4  UNL     1     -35.459  16.637 -11.480  1.00  0.00    -0.352 OA
HETATM   27  C19 UNL     1     -34.528  17.176 -12.416  1.00  0.00     0.210 C 
ENDBRANCH  21  26
BRANCH  22  28
HETATM   28  C17 UNL     1     -34.373  16.604  -8.812  1.00  0.00     0.267 C 
HETATM   29  N2  UNL     1     -33.118  16.472  -9.371  1.00  0.00    -0.057 NA
HETATM   30  O3  UNL     1     -34.586  15.865  -7.767  1.00  0.00    -0.271 OA
ENDBRANCH  22  28
ENDBRANCH  17  18
ENDBRANCH  15  17
ENDBRANCH  14  15
ENDBRANCH  13  14
ENDBRANCH   1  13
TORSDOF 8
ENDMDL
MODEL 5
REMARK VINA RESULT: -8.909603644      1.684      3.587
REMARK  8 active torsions:
REMARK  status: ('A' for Active; 'I' for Inactive)
REMARK    1  A    between atoms: O1_2  and  C2_3 
REMARK    2  A    between atoms: C4_5  and  C5_6 
REMARK    3  A    between atoms: C5_6  and  C6_7 
REMARK    4  A    between atoms: C6_7  and  C7_9 
REMARK    5  A    between atoms: C7_9  and  S1_10 
REMARK    6  A    between atoms: S1_10  and  C8_11 
REMARK    7  A    between atoms: C16_24  and  C17_25 
REMARK    8  A    between atoms: C18_28  and  O4_29 
ROOT
HETATM    1  C8  UNL     1     -40.376  21.873  -7.755  1.00  0.00     0.046 A 
HETATM    2  C9  UNL     1     -40.664  21.734  -9.136  1.00  0.00     0.075 A 
HETATM    3 CL1  UNL     1     -39.406  22.052 -10.273  1.00  0.00    -0.081 Cl
HETATM    4  C10 UNL     1     -41.911  21.365  -9.523  1.00  0.00     0.080 A 
HETATM    5 CL2  UNL     1     -42.266  21.207 -11.245  1.00  0.00    -0.081 Cl
HETATM    6  C11 UNL     1     -42.937  21.109  -8.647  1.00  0.00     0.080 A 
HETATM    7 CL3  UNL     1     -44.510  20.646  -9.210  1.00  0.00    -0.081 Cl
HETATM    8  C12 UNL     1     -42.653  21.247  -7.313  1.00  0.00     0.079 A 
HETATM    9 CL4  UNL     1     -43.908  20.931  -6.165  1.00  0.00    -0.081 Cl
HETATM   10  C13 UNL     1     -41.388  21.623  -6.890  1.00  0.00     0.086 A 
HETATM   11  C14 UNL     1     -41.155  21.746  -5.480  1.00  0.00     0.102 C 
HETATM   12  N1  UNL     1     -40.970  21.815  -4.358  1.00  0.00    -0.191 NA
ENDROOT
BRANCH   1  13
HETATM   13  S1  UNL     1     -38.702  22.312  -7.298  1.00  0.00    -0.119 SA
BRANCH  13  14
HETATM   14  C7  UNL     1     -37.579  20.885  -7.592  1.00  0.00     0.158 C 
BRANCH  14  15
HETATM   15  C6  UNL     1     -38.233  19.617  -7.203  1.00  0.00     0.140 C 
HETATM   16  O2  UNL     1     -38.534  19.450  -6.050  1.00  0.00    -0.297 OA
BRANCH  15  17
HETATM   17  C5  UNL     1     -38.502  18.577  -8.200  1.00  0.00     0.117 C 
BRANCH  17  18
HETATM   18  C4  UNL     1     -37.496  18.501  -9.266  1.00  0.00    -0.047 A 
HETATM   19  C3  UNL     1     -36.222  18.059  -8.892  1.00  0.00     0.047 A 
HETATM   20  C2  UNL     1     -35.211  17.926  -9.805  1.00  0.00     0.103 A 
HETATM   21  C18 UNL     1     -35.451  18.233 -11.146  1.00  0.00     0.116 A 
HETATM   22  C16 UNL     1     -36.679  18.670 -11.557  1.00  0.00     0.066 A 
HETATM   23  C15 UNL     1     -37.694  18.794 -10.582  1.00  0.00     0.027 A 
BRANCH  20  24
HETATM   24  O1  UNL     1     -33.941  17.483  -9.423  1.00  0.00    -0.353 OA
HETATM   25  C1  UNL     1     -33.788  16.203  -8.883  1.00  0.00     0.210 C 
ENDBRANCH  20  24
BRANCH  21  26
HETATM   26  O4  UNL     1     -34.414  18.084 -12.059  1.00  0.00    -0.352 OA
HETATM   27  C19 UNL     1     -34.060  16.784 -12.527  1.00  0.00     0.210 C 
ENDBRANCH  21  26
BRANCH  22  28
HETATM   28  C17 UNL     1     -36.994  19.030 -12.923  1.00  0.00     0.267 C 
HETATM   29  N2  UNL     1     -37.488  20.220 -13.418  1.00  0.00    -0.057 NA
HETATM   30  O3  UNL     1     -36.788  18.111 -13.816  1.00  0.00    -0.271 OA
ENDBRANCH  22  28
ENDBRANCH  17  18
ENDBRANCH  15  17
ENDBRANCH  14  15
ENDBRANCH  13  14
ENDBRANCH   1  13
TORSDOF 8
ENDMDL
