MODEL 1
REMARK VINA RESULT: -7.445970453      0.000      0.000
REMARK  20 active torsions:
REMARK  status: ('A' for Active; 'I' for Inactive)
REMARK    1  A    between atoms: C3_3  and  C4_4 
REMARK    2  A    between atoms: C4_4  and  C5_5 
REMARK    3  A    between atoms: C6_6  and  C7_7 
REMARK    4  A    between atoms: C7_7  and  C8_8 
REMARK    5  A    between atoms: C8_8  and  C9_10 
REMARK    6  A    between atoms: C10_11  and  C11_12 
REMARK    7  A    between atoms: C11_12  and  C12_13 
REMARK    8  A    between atoms: C12_13  and  O2_14 
REMARK    9  A    between atoms: C12_13  and  C13_16 
REMARK   10  A    between atoms: C14_17  and  C15_18 
REMARK   11  A    between atoms: C18_21  and  O3_22 
REMARK   12  A    between atoms: C19_24  and  O4_25 
REMARK   13  A    between atoms: C20_27  and  O5_28 
REMARK   14  A    between atoms: C21_30  and  O6_31 
REMARK   15  A    between atoms: C24_35  and  C25_36 
REMARK   16  A    between atoms: C24_35  and  C29_44 
REMARK   17  A    between atoms: C25_36  and  C26_37 
REMARK   18  A    between atoms: C26_37  and  C27_38 
REMARK   19  A    between atoms: C27_38  and  C28_39 
REMARK   20  A    between atoms: C28_39  and  N1_40 
ROOT
HETATM    1  C11 UNL     1      13.695  37.226  -8.724  1.00  0.00     0.063 C 
ENDROOT
BRANCH   1   2
HETATM    2  C10 UNL     1      13.278  36.996 -10.125  1.00  0.00    -0.020 C 
HETATM    3  C9  UNL     1      13.840  36.086 -10.864  1.00  0.00     0.052 C 
BRANCH   3   4
HETATM    4  C8  UNL     1      13.454  35.818 -12.283  1.00  0.00     0.182 C 
HETATM    5  O1  UNL     1      12.763  34.795 -12.441  1.00  0.00    -0.288 OA
BRANCH   4   6
HETATM    6  C7  UNL     1      13.870  36.691 -13.354  1.00  0.00     0.020 C 
HETATM    7  C24 UNL     1      14.979  36.421 -14.239  1.00  0.00    -0.044 C 
BRANCH   6   8
HETATM    8  C6  UNL     1      13.794  38.160 -13.031  1.00  0.00     0.012 C 
HETATM    9  C5  UNL     1      14.087  39.132 -13.863  1.00  0.00    -0.022 C 
BRANCH   9  10
HETATM   10  C4  UNL     1      13.964  40.541 -13.393  1.00  0.00     0.054 C 
BRANCH  10  11
HETATM   11  C3  UNL     1      14.425  40.682 -11.992  1.00  0.00    -0.027 C 
HETATM   12  C2  UNL     1      15.700  40.609 -11.643  1.00  0.00    -0.035 C 
HETATM   13  C1  UNL     1      16.174  40.748 -10.245  1.00  0.00     0.036 C 
ENDBRANCH  10  11
ENDBRANCH   9  10
ENDBRANCH   6   8
BRANCH   7  14
HETATM   14  C25 UNL     1      14.689  36.339 -15.557  1.00  0.00     0.008 C 
BRANCH  14  15
HETATM   15  C26 UNL     1      13.527  35.735 -16.127  1.00  0.00    -0.002 C 
BRANCH  15  16
HETATM   16  C27 UNL     1      13.382  35.457 -17.415  1.00  0.00     0.000 C 
BRANCH  16  17
HETATM   17  C28 UNL     1      13.738  34.197 -18.082  1.00  0.00     0.257 C 
BRANCH  17  18
HETATM   18  N1  UNL     1      13.675  33.120 -17.082  1.00  0.00    -0.076 N 
ATOM     19  H13 UNL     1      14.349  33.242 -16.327  1.00  0.00     0.274 HD
ATOM     20  H12 UNL     1      12.827  33.156 -16.516  1.00  0.00     0.274 HD
ATOM     21  H11 UNL     1      13.784  32.231 -17.571  1.00  0.00     0.274 HD
ENDBRANCH  17  18
ENDBRANCH  16  17
ENDBRANCH  15  16
ENDBRANCH  14  15
ENDBRANCH   7  14
BRANCH   7  22
HETATM   22  C29 UNL     1      16.389  36.371 -13.887  1.00  0.00     0.035 C 
HETATM   23  C30 UNL     1      17.280  37.355 -14.580  1.00  0.00     0.010 C 
ENDBRANCH   7  22
ENDBRANCH   4   6
ENDBRANCH   3   4
ENDBRANCH   1   2
BRANCH   1  24
HETATM   24  C12 UNL     1      12.792  38.225  -8.020  1.00  0.00     0.144 C 
BRANCH  24  25
HETATM   25  O2  UNL     1      11.484  37.735  -8.070  1.00  0.00    -0.391 OA
ATOM     26  H2  UNL     1      10.918  38.362  -7.635  1.00  0.00     0.210 HD
ENDBRANCH  24  25
BRANCH  24  27
HETATM   27  C13 UNL     1      12.899  39.495  -8.764  1.00  0.00     0.001 C 
HETATM   28  C14 UNL     1      12.934  40.644  -8.116  1.00  0.00    -0.023 C 
BRANCH  28  29
HETATM   29  C15 UNL     1      13.040  41.985  -8.766  1.00  0.00     0.020 C 
HETATM   30  C16 UNL     1      11.813  42.143  -9.609  1.00  0.00     0.021 C 
HETATM   31  C17 UNL     1      10.520  41.980  -8.857  1.00  0.00     0.013 C 
HETATM   32  C18 UNL     1      11.827  43.336 -10.509  1.00  0.00     0.153 C 
HETATM   33  C19 UNL     1      13.032  44.208 -10.366  1.00  0.00     0.178 C 
HETATM   34  C20 UNL     1      12.843  45.061  -9.154  1.00  0.00     0.178 C 
HETATM   35  C21 UNL     1      12.838  44.359  -7.856  1.00  0.00     0.153 C 
HETATM   36  C22 UNL     1      13.389  42.990  -7.794  1.00  0.00     0.021 C 
HETATM   37  C23 UNL     1      14.922  43.127  -7.738  1.00  0.00     0.013 C 
BRANCH  32  38
HETATM   38  O3  UNL     1      11.706  43.011 -11.867  1.00  0.00    -0.393 OA
ATOM     39  H3  UNL     1      10.951  42.468 -12.059  1.00  0.00     0.210 HD
ENDBRANCH  32  38
BRANCH  33  40
HETATM   40  O4  UNL     1      13.035  45.082 -11.479  1.00  0.00    -0.390 OA
ATOM     41  H4  UNL     1      12.321  45.696 -11.346  1.00  0.00     0.210 HD
ENDBRANCH  33  40
BRANCH  34  42
HETATM   42  O5  UNL     1      11.625  45.760  -9.337  1.00  0.00    -0.390 OA
ATOM     43  H5  UNL     1      11.779  46.400 -10.022  1.00  0.00     0.210 HD
ENDBRANCH  34  42
BRANCH  35  44
HETATM   44  O6  UNL     1      11.585  44.400  -7.196  1.00  0.00    -0.393 OA
ATOM     45  H6  UNL     1      11.286  45.282  -7.008  1.00  0.00     0.210 HD
ENDBRANCH  35  44
ENDBRANCH  28  29
ENDBRANCH  24  27
ENDBRANCH   1  24
TORSDOF 20
ENDMDL
MODEL 2
REMARK VINA RESULT: -7.378806462      5.048      8.117
REMARK  20 active torsions:
REMARK  status: ('A' for Active; 'I' for Inactive)
REMARK    1  A    between atoms: C3_3  and  C4_4 
REMARK    2  A    between atoms: C4_4  and  C5_5 
REMARK    3  A    between atoms: C6_6  and  C7_7 
REMARK    4  A    between atoms: C7_7  and  C8_8 
REMARK    5  A    between atoms: C8_8  and  C9_10 
REMARK    6  A    between atoms: C10_11  and  C11_12 
REMARK    7  A    between atoms: C11_12  and  C12_13 
REMARK    8  A    between atoms: C12_13  and  O2_14 
REMARK    9  A    between atoms: C12_13  and  C13_16 
REMARK   10  A    between atoms: C14_17  and  C15_18 
REMARK   11  A    between atoms: C18_21  and  O3_22 
REMARK   12  A    between atoms: C19_24  and  O4_25 
REMARK   13  A    between atoms: C20_27  and  O5_28 
REMARK   14  A    between atoms: C21_30  and  O6_31 
REMARK   15  A    between atoms: C24_35  and  C25_36 
REMARK   16  A    between atoms: C24_35  and  C29_44 
REMARK   17  A    between atoms: C25_36  and  C26_37 
REMARK   18  A    between atoms: C26_37  and  C27_38 
REMARK   19  A    between atoms: C27_38  and  C28_39 
REMARK   20  A    between atoms: C28_39  and  N1_40 
ROOT
HETATM    1  C11 UNL     1      10.194  38.614  -3.339  1.00  0.00     0.063 C 
ENDROOT
BRANCH   1   2
HETATM    2  C10 UNL     1      10.536  38.340  -4.752  1.00  0.00    -0.020 C 
HETATM    3  C9  UNL     1      11.069  39.248  -5.514  1.00  0.00     0.052 C 
BRANCH   3   4
HETATM    4  C8  UNL     1      11.430  39.019  -6.946  1.00  0.00     0.182 C 
HETATM    5  O1  UNL     1      10.915  38.002  -7.447  1.00  0.00    -0.288 OA
BRANCH   4   6
HETATM    6  C7  UNL     1      12.306  39.919  -7.656  1.00  0.00     0.020 C 
HETATM    7  C24 UNL     1      12.235  41.359  -7.569  1.00  0.00    -0.044 C 
BRANCH   6   8
HETATM    8  C6  UNL     1      12.645  39.489  -9.058  1.00  0.00     0.012 C 
HETATM    9  C5  UNL     1      13.842  39.146  -9.474  1.00  0.00    -0.022 C 
BRANCH   9  10
HETATM   10  C4  UNL     1      14.020  38.743 -10.897  1.00  0.00     0.054 C 
BRANCH  10  11
HETATM   11  C3  UNL     1      13.372  37.439 -11.172  1.00  0.00    -0.027 C 
HETATM   12  C2  UNL     1      13.769  36.628 -12.141  1.00  0.00    -0.035 C 
HETATM   13  C1  UNL     1      13.130  35.321 -12.426  1.00  0.00     0.036 C 
ENDBRANCH  10  11
ENDBRANCH   9  10
ENDBRANCH   6   8
BRANCH   7  14
HETATM   14  C25 UNL     1      13.344  41.988  -7.119  1.00  0.00     0.008 C 
BRANCH  14  15
HETATM   15  C26 UNL     1      14.134  42.926  -7.849  1.00  0.00    -0.002 C 
BRANCH  15  16
HETATM   16  C27 UNL     1      15.183  42.604  -8.594  1.00  0.00     0.000 C 
BRANCH  16  17
HETATM   17  C28 UNL     1      16.454  43.338  -8.676  1.00  0.00     0.257 C 
BRANCH  17  18
HETATM   18  N1  UNL     1      16.511  44.276  -7.545  1.00  0.00    -0.076 N 
ATOM     19  H13 UNL     1      16.024  45.153  -7.735  1.00  0.00     0.274 HD
ATOM     20  H12 UNL     1      15.945  43.974  -6.753  1.00  0.00     0.274 HD
ATOM     21  H11 UNL     1      17.492  44.414  -7.300  1.00  0.00     0.274 HD
ENDBRANCH  17  18
ENDBRANCH  16  17
ENDBRANCH  15  16
ENDBRANCH  14  15
ENDBRANCH   7  14
BRANCH   7  22
HETATM   22  C29 UNL     1      11.160  42.215  -8.043  1.00  0.00     0.035 C 
HETATM   23  C30 UNL     1      10.950  42.254  -9.526  1.00  0.00     0.010 C 
ENDBRANCH   7  22
ENDBRANCH   4   6
ENDBRANCH   3   4
ENDBRANCH   1   2
BRANCH   1  24
HETATM   24  C12 UNL     1       8.692  38.663  -3.116  1.00  0.00     0.144 C 
BRANCH  24  25
HETATM   25  O2  UNL     1       8.072  38.081  -4.226  1.00  0.00    -0.391 OA
ATOM     26  H2  UNL     1       7.277  37.654  -3.928  1.00  0.00     0.210 HD
ENDBRANCH  24  25
BRANCH  24  27
HETATM   27  C13 UNL     1       8.324  40.088  -3.005  1.00  0.00     0.001 C 
HETATM   28  C14 UNL     1       7.425  40.607  -3.820  1.00  0.00    -0.023 C 
BRANCH  28  29
HETATM   29  C15 UNL     1       6.977  42.032  -3.797  1.00  0.00     0.020 C 
HETATM   30  C16 UNL     1       8.154  42.850  -4.232  1.00  0.00     0.021 C 
HETATM   31  C17 UNL     1       8.721  42.457  -5.569  1.00  0.00     0.013 C 
HETATM   32  C18 UNL     1       7.976  44.326  -4.075  1.00  0.00     0.153 C 
HETATM   33  C19 UNL     1       6.630  44.740  -3.577  1.00  0.00     0.178 C 
HETATM   34  C20 UNL     1       5.679  44.697  -4.728  1.00  0.00     0.178 C 
HETATM   35  C21 UNL     1       5.383  43.360  -5.280  1.00  0.00     0.153 C 
HETATM   36  C22 UNL     1       5.708  42.173  -4.462  1.00  0.00     0.021 C 
HETATM   37  C23 UNL     1       4.576  42.019  -3.429  1.00  0.00     0.013 C 
BRANCH  32  38
HETATM   38  O3  UNL     1       8.931  44.916  -3.237  1.00  0.00    -0.393 OA
ATOM     39  H3  UNL     1       8.606  45.677  -2.771  1.00  0.00     0.210 HD
ENDBRANCH  32  38
BRANCH  33  40
HETATM   40  O4  UNL     1       6.739  46.098  -3.194  1.00  0.00    -0.390 OA
ATOM     41  H4  UNL     1       6.656  46.123  -2.248  1.00  0.00     0.210 HD
ENDBRANCH  33  40
BRANCH  34  42
HETATM   42  O5  UNL     1       6.221  45.533  -5.734  1.00  0.00    -0.390 OA
ATOM     43  H5  UNL     1       6.498  44.962  -6.441  1.00  0.00     0.210 HD
ENDBRANCH  34  42
BRANCH  35  44
HETATM   44  O6  UNL     1       5.862  43.177  -6.600  1.00  0.00    -0.393 OA
ATOM     45  H6  UNL     1       6.773  43.424  -6.710  1.00  0.00     0.210 HD
ENDBRANCH  35  44
ENDBRANCH  28  29
ENDBRANCH  24  27
ENDBRANCH   1  24
TORSDOF 20
ENDMDL
MODEL 3
REMARK VINA RESULT: -7.248638728      1.621      2.315
REMARK  20 active torsions:
REMARK  status: ('A' for Active; 'I' for Inactive)
REMARK    1  A    between atoms: C3_3  and  C4_4 
REMARK    2  A    between atoms: C4_4  and  C5_5 
REMARK    3  A    between atoms: C6_6  and  C7_7 
REMARK    4  A    between atoms: C7_7  and  C8_8 
REMARK    5  A    between atoms: C8_8  and  C9_10 
REMARK    6  A    between atoms: C10_11  and  C11_12 
REMARK    7  A    between atoms: C11_12  and  C12_13 
REMARK    8  A    between atoms: C12_13  and  O2_14 
REMARK    9  A    between atoms: C12_13  and  C13_16 
REMARK   10  A    between atoms: C14_17  and  C15_18 
REMARK   11  A    between atoms: C18_21  and  O3_22 
REMARK   12  A    between atoms: C19_24  and  O4_25 
REMARK   13  A    between atoms: C20_27  and  O5_28 
REMARK   14  A    between atoms: C21_30  and  O6_31 
REMARK   15  A    between atoms: C24_35  and  C25_36 
REMARK   16  A    between atoms: C24_35  and  C29_44 
REMARK   17  A    between atoms: C25_36  and  C26_37 
REMARK   18  A    between atoms: C26_37  and  C27_38 
REMARK   19  A    between atoms: C27_38  and  C28_39 
REMARK   20  A    between atoms: C28_39  and  N1_40 
ROOT
HETATM    1  C11 UNL     1      13.297  36.541 -10.859  1.00  0.00     0.063 C 
ENDROOT
BRANCH   1   2
HETATM    2  C10 UNL     1      13.307  36.614 -12.336  1.00  0.00    -0.020 C 
HETATM    3  C9  UNL     1      13.553  35.571 -13.071  1.00  0.00     0.052 C 
BRANCH   3   4
HETATM    4  C8  UNL     1      13.575  35.596 -14.565  1.00  0.00     0.182 C 
HETATM    5  O1  UNL     1      12.569  35.095 -15.100  1.00  0.00    -0.288 OA
BRANCH   4   6
HETATM    6  C7  UNL     1      14.686  36.160 -15.292  1.00  0.00     0.020 C 
HETATM    7  C24 UNL     1      16.071  35.981 -14.927  1.00  0.00    -0.044 C 
BRANCH   6   8
HETATM    8  C6  UNL     1      14.452  37.553 -15.815  1.00  0.00     0.012 C 
HETATM    9  C5  UNL     1      14.098  38.583 -15.083  1.00  0.00    -0.022 C 
BRANCH   9  10
HETATM   10  C4  UNL     1      13.902  39.902 -15.748  1.00  0.00     0.054 C 
BRANCH  10  11
HETATM   11  C3  UNL     1      13.335  40.899 -14.809  1.00  0.00    -0.027 C 
HETATM   12  C2  UNL     1      13.696  40.977 -13.537  1.00  0.00    -0.035 C 
HETATM   13  C1  UNL     1      13.137  41.969 -12.588  1.00  0.00     0.036 C 
ENDBRANCH  10  11
ENDBRANCH   9  10
ENDBRANCH   6   8
BRANCH   7  14
HETATM   14  C25 UNL     1      16.864  35.390 -15.850  1.00  0.00     0.008 C 
BRANCH  14  15
HETATM   15  C26 UNL     1      16.433  34.809 -17.080  1.00  0.00    -0.002 C 
BRANCH  15  16
HETATM   16  C27 UNL     1      16.083  33.539 -17.228  1.00  0.00     0.000 C 
BRANCH  16  17
HETATM   17  C28 UNL     1      14.921  33.034 -17.974  1.00  0.00     0.257 C 
BRANCH  17  18
HETATM   18  N1  UNL     1      13.776  32.987 -17.053  1.00  0.00    -0.076 N 
ATOM     19  H13 UNL     1      13.083  32.287 -17.320  1.00  0.00     0.274 HD
ATOM     20  H12 UNL     1      14.018  32.599 -16.141  1.00  0.00     0.274 HD
ATOM     21  H11 UNL     1      13.384  33.927 -16.989  1.00  0.00     0.274 HD
ENDBRANCH  17  18
ENDBRANCH  16  17
ENDBRANCH  15  16
ENDBRANCH  14  15
ENDBRANCH   7  14
BRANCH   7  22
HETATM   22  C29 UNL     1      16.739  36.490 -13.739  1.00  0.00     0.035 C 
HETATM   23  C30 UNL     1      17.721  37.600 -13.957  1.00  0.00     0.010 C 
ENDBRANCH   7  22
ENDBRANCH   4   6
ENDBRANCH   3   4
ENDBRANCH   1   2
BRANCH   1  24
HETATM   24  C12 UNL     1      14.346  37.449 -10.238  1.00  0.00     0.144 C 
BRANCH  24  25
HETATM   25  O2  UNL     1      14.531  37.051  -8.911  1.00  0.00    -0.391 OA
ATOM     26  H2  UNL     1      14.393  37.809  -8.354  1.00  0.00     0.210 HD
ENDBRANCH  24  25
BRANCH  24  27
HETATM   27  C13 UNL     1      13.809  38.823 -10.297  1.00  0.00     0.001 C 
HETATM   28  C14 UNL     1      13.940  39.632  -9.262  1.00  0.00    -0.023 C 
BRANCH  28  29
HETATM   29  C15 UNL     1      13.437  41.038  -9.212  1.00  0.00     0.020 C 
HETATM   30  C16 UNL     1      11.995  40.955  -8.817  1.00  0.00     0.021 C 
HETATM   31  C17 UNL     1      11.746  40.220  -7.529  1.00  0.00     0.013 C 
HETATM   32  C18 UNL     1      11.250  42.247  -8.914  1.00  0.00     0.153 C 
HETATM   33  C19 UNL     1      12.085  43.417  -9.320  1.00  0.00     0.178 C 
HETATM   34  C20 UNL     1      12.841  43.884  -8.119  1.00  0.00     0.178 C 
HETATM   35  C21 UNL     1      13.869  42.963  -7.596  1.00  0.00     0.153 C 
HETATM   36  C22 UNL     1      14.346  41.873  -8.471  1.00  0.00     0.021 C 
HETATM   37  C23 UNL     1      15.368  42.493  -9.442  1.00  0.00     0.013 C 
BRANCH  32  38
HETATM   38  O3  UNL     1      10.153  42.195  -9.784  1.00  0.00    -0.393 OA
ATOM     39  H3  UNL     1       9.884  43.048 -10.104  1.00  0.00     0.210 HD
ENDBRANCH  32  38
BRANCH  33  40
HETATM   40  O4  UNL     1      11.188  44.457  -9.663  1.00  0.00    -0.390 OA
ATOM     41  H4  UNL     1      10.677  44.145 -10.401  1.00  0.00     0.210 HD
ENDBRANCH  33  40
BRANCH  34  42
HETATM   42  O5  UNL     1      11.879  44.163  -7.119  1.00  0.00    -0.390 OA
ATOM     43  H5  UNL     1      12.309  44.029  -6.283  1.00  0.00     0.210 HD
ENDBRANCH  34  42
BRANCH  35  44
HETATM   44  O6  UNL     1      13.564  42.449  -6.312  1.00  0.00    -0.393 OA
ATOM     45  H6  UNL     1      13.427  43.123  -5.658  1.00  0.00     0.210 HD
ENDBRANCH  35  44
ENDBRANCH  28  29
ENDBRANCH  24  27
ENDBRANCH   1  24
TORSDOF 20
ENDMDL
MODEL 4
REMARK VINA RESULT: -7.237057204      1.063      2.289
REMARK  20 active torsions:
REMARK  status: ('A' for Active; 'I' for Inactive)
REMARK    1  A    between atoms: C3_3  and  C4_4 
REMARK    2  A    between atoms: C4_4  and  C5_5 
REMARK    3  A    between atoms: C6_6  and  C7_7 
REMARK    4  A    between atoms: C7_7  and  C8_8 
REMARK    5  A    between atoms: C8_8  and  C9_10 
REMARK    6  A    between atoms: C10_11  and  C11_12 
REMARK    7  A    between atoms: C11_12  and  C12_13 
REMARK    8  A    between atoms: C12_13  and  O2_14 
REMARK    9  A    between atoms: C12_13  and  C13_16 
REMARK   10  A    between atoms: C14_17  and  C15_18 
REMARK   11  A    between atoms: C18_21  and  O3_22 
REMARK   12  A    between atoms: C19_24  and  O4_25 
REMARK   13  A    between atoms: C20_27  and  O5_28 
REMARK   14  A    between atoms: C21_30  and  O6_31 
REMARK   15  A    between atoms: C24_35  and  C25_36 
REMARK   16  A    between atoms: C24_35  and  C29_44 
REMARK   17  A    between atoms: C25_36  and  C26_37 
REMARK   18  A    between atoms: C26_37  and  C27_38 
REMARK   19  A    between atoms: C27_38  and  C28_39 
REMARK   20  A    between atoms: C28_39  and  N1_40 
ROOT
HETATM    1  C11 UNL     1      13.469  38.056  -8.221  1.00  0.00     0.063 C 
ENDROOT
BRANCH   1   2
HETATM    2  C10 UNL     1      13.044  37.589  -9.559  1.00  0.00    -0.020 C 
HETATM    3  C9  UNL     1      13.816  36.855 -10.303  1.00  0.00     0.052 C 
BRANCH   3   4
HETATM    4  C8  UNL     1      13.430  36.360 -11.660  1.00  0.00     0.182 C 
HETATM    5  O1  UNL     1      12.618  35.417 -11.649  1.00  0.00    -0.288 OA
BRANCH   4   6
HETATM    6  C7  UNL     1      13.977  36.948 -12.859  1.00  0.00     0.020 C 
HETATM    7  C24 UNL     1      15.115  36.423 -13.576  1.00  0.00    -0.044 C 
BRANCH   6   8
HETATM    8  C6  UNL     1      13.994  38.454 -12.867  1.00  0.00     0.012 C 
HETATM    9  C5  UNL     1      14.787  39.203 -12.136  1.00  0.00    -0.022 C 
BRANCH   9  10
HETATM   10  C4  UNL     1      14.684  40.685 -12.254  1.00  0.00     0.054 C 
BRANCH  10  11
HETATM   11  C3  UNL     1      15.961  41.343 -11.890  1.00  0.00    -0.027 C 
HETATM   12  C2  UNL     1      16.923  40.728 -11.219  1.00  0.00    -0.035 C 
HETATM   13  C1  UNL     1      18.204  41.374 -10.848  1.00  0.00     0.036 C 
ENDBRANCH  10  11
ENDBRANCH   9  10
ENDBRANCH   6   8
BRANCH   7  14
HETATM   14  C25 UNL     1      14.901  36.069 -14.864  1.00  0.00     0.008 C 
BRANCH  14  15
HETATM   15  C26 UNL     1      13.694  35.526 -15.398  1.00  0.00    -0.002 C 
BRANCH  15  16
HETATM   16  C27 UNL     1      13.367  35.546 -16.683  1.00  0.00     0.000 C 
BRANCH  16  17
HETATM   17  C28 UNL     1      13.677  34.511 -17.679  1.00  0.00     0.257 C 
BRANCH  17  18
HETATM   18  N1  UNL     1      13.611  33.202 -17.011  1.00  0.00    -0.076 N 
ATOM     19  H13 UNL     1      14.509  32.911 -16.623  1.00  0.00     0.274 HD
ATOM     20  H12 UNL     1      13.088  33.232 -16.135  1.00  0.00     0.274 HD
ATOM     21  H11 UNL     1      13.229  32.529 -17.675  1.00  0.00     0.274 HD
ENDBRANCH  17  18
ENDBRANCH  16  17
ENDBRANCH  15  16
ENDBRANCH  14  15
ENDBRANCH   7  14
BRANCH   7  22
HETATM   22  C29 UNL     1      16.492  36.364 -13.114  1.00  0.00     0.035 C 
HETATM   23  C30 UNL     1      17.465  37.259 -13.819  1.00  0.00     0.010 C 
ENDBRANCH   7  22
ENDBRANCH   4   6
ENDBRANCH   3   4
ENDBRANCH   1   2
BRANCH   1  24
HETATM   24  C12 UNL     1      12.289  38.241  -7.282  1.00  0.00     0.144 C 
BRANCH  24  25
HETATM   25  O2  UNL     1      11.183  37.597  -7.846  1.00  0.00    -0.391 OA
ATOM     26  H2  UNL     1      10.810  37.023  -7.187  1.00  0.00     0.210 HD
ENDBRANCH  24  25
BRANCH  24  27
HETATM   27  C13 UNL     1      12.047  39.694  -7.182  1.00  0.00     0.001 C 
HETATM   28  C14 UNL     1      12.521  40.511  -8.104  1.00  0.00    -0.023 C 
BRANCH  28  29
HETATM   29  C15 UNL     1      12.337  41.994  -8.103  1.00  0.00     0.020 C 
HETATM   30  C16 UNL     1      13.626  42.578  -7.613  1.00  0.00     0.021 C 
HETATM   31  C17 UNL     1      14.835  42.159  -8.404  1.00  0.00     0.013 C 
HETATM   32  C18 UNL     1      13.578  44.046  -7.340  1.00  0.00     0.153 C 
HETATM   33  C19 UNL     1      12.274  44.697  -7.667  1.00  0.00     0.178 C 
HETATM   34  C20 UNL     1      12.226  44.920  -9.143  1.00  0.00     0.178 C 
HETATM   35  C21 UNL     1      12.163  43.708  -9.984  1.00  0.00     0.153 C 
HETATM   36  C22 UNL     1      11.768  42.433  -9.351  1.00  0.00     0.021 C 
HETATM   37  C23 UNL     1      10.233  42.451  -9.228  1.00  0.00     0.013 C 
BRANCH  32  38
HETATM   38  O3  UNL     1      13.889  44.377  -6.014  1.00  0.00    -0.393 OA
ATOM     39  H3  UNL     1      13.124  44.461  -5.457  1.00  0.00     0.210 HD
ENDBRANCH  32  38
BRANCH  33  40
HETATM   40  O4  UNL     1      12.297  45.978  -7.066  1.00  0.00    -0.390 OA
ATOM     41  H4  UNL     1      11.687  46.520  -7.553  1.00  0.00     0.210 HD
ENDBRANCH  33  40
BRANCH  34  42
HETATM   42  O5  UNL     1      13.369  45.686  -9.474  1.00  0.00    -0.390 OA
ATOM     43  H5  UNL     1      13.843  45.196 -10.135  1.00  0.00     0.210 HD
ENDBRANCH  34  42
BRANCH  35  44
HETATM   44  O6  UNL     1      13.320  43.511 -10.776  1.00  0.00    -0.393 OA
ATOM     45  H6  UNL     1      13.366  42.648 -11.171  1.00  0.00     0.210 HD
ENDBRANCH  35  44
ENDBRANCH  28  29
ENDBRANCH  24  27
ENDBRANCH   1  24
TORSDOF 20
ENDMDL
MODEL 5
REMARK VINA RESULT: -7.215591737      1.514      1.962
REMARK  20 active torsions:
REMARK  status: ('A' for Active; 'I' for Inactive)
REMARK    1  A    between atoms: C3_3  and  C4_4 
REMARK    2  A    between atoms: C4_4  and  C5_5 
REMARK    3  A    between atoms: C6_6  and  C7_7 
REMARK    4  A    between atoms: C7_7  and  C8_8 
REMARK    5  A    between atoms: C8_8  and  C9_10 
REMARK    6  A    between atoms: C10_11  and  C11_12 
REMARK    7  A    between atoms: C11_12  and  C12_13 
REMARK    8  A    between atoms: C12_13  and  O2_14 
REMARK    9  A    between atoms: C12_13  and  C13_16 
REMARK   10  A    between atoms: C14_17  and  C15_18 
REMARK   11  A    between atoms: C18_21  and  O3_22 
REMARK   12  A    between atoms: C19_24  and  O4_25 
REMARK   13  A    between atoms: C20_27  and  O5_28 
REMARK   14  A    between atoms: C21_30  and  O6_31 
REMARK   15  A    between atoms: C24_35  and  C25_36 
REMARK   16  A    between atoms: C24_35  and  C29_44 
REMARK   17  A    between atoms: C25_36  and  C26_37 
REMARK   18  A    between atoms: C26_37  and  C27_38 
REMARK   19  A    between atoms: C27_38  and  C28_39 
REMARK   20  A    between atoms: C28_39  and  N1_40 
ROOT
HETATM    1  C11 UNL     1      13.219  36.530 -10.536  1.00  0.00     0.063 C 
ENDROOT
BRANCH   1   2
HETATM    2  C10 UNL     1      13.057  36.595 -12.005  1.00  0.00    -0.020 C 
HETATM    3  C9  UNL     1      13.677  35.773 -12.798  1.00  0.00     0.052 C 
BRANCH   3   4
HETATM    4  C8  UNL     1      13.546  35.801 -14.287  1.00  0.00     0.182 C 
HETATM    5  O1  UNL     1      12.724  34.985 -14.743  1.00  0.00    -0.288 OA
BRANCH   4   6
HETATM    6  C7  UNL     1      14.325  36.709 -15.095  1.00  0.00     0.020 C 
HETATM    7  C24 UNL     1      15.379  36.297 -15.992  1.00  0.00    -0.044 C 
BRANCH   6   8
HETATM    8  C6  UNL     1      14.681  38.004 -14.415  1.00  0.00     0.012 C 
HETATM    9  C5  UNL     1      14.052  39.144 -14.585  1.00  0.00    -0.022 C 
BRANCH   9  10
HETATM   10  C4  UNL     1      14.527  40.344 -13.840  1.00  0.00     0.054 C 
BRANCH  10  11
HETATM   11  C3  UNL     1      15.529  39.976 -12.812  1.00  0.00    -0.027 C 
HETATM   12  C2  UNL     1      16.508  40.787 -12.438  1.00  0.00    -0.035 C 
HETATM   13  C1  UNL     1      17.517  40.432 -11.412  1.00  0.00     0.036 C 
ENDBRANCH  10  11
ENDBRANCH   9  10
ENDBRANCH   6   8
BRANCH   7  14
HETATM   14  C25 UNL     1      15.217  36.620 -17.295  1.00  0.00     0.008 C 
BRANCH  14  15
HETATM   15  C26 UNL     1      14.037  36.415 -18.072  1.00  0.00    -0.002 C 
BRANCH  15  16
HETATM   16  C27 UNL     1      13.378  35.268 -18.147  1.00  0.00     0.000 C 
BRANCH  16  17
HETATM   17  C28 UNL     1      13.967  33.926 -18.255  1.00  0.00     0.257 C 
BRANCH  17  18
HETATM   18  N1  UNL     1      13.655  33.192 -17.020  1.00  0.00    -0.076 N 
ATOM     19  H13 UNL     1      14.355  32.484 -16.794  1.00  0.00     0.274 HD
ATOM     20  H12 UNL     1      13.765  33.763 -16.182  1.00  0.00     0.274 HD
ATOM     21  H11 UNL     1      12.716  32.804 -17.113  1.00  0.00     0.274 HD
ENDBRANCH  17  18
ENDBRANCH  16  17
ENDBRANCH  15  16
ENDBRANCH  14  15
ENDBRANCH   7  14
BRANCH   7  22
HETATM   22  C29 UNL     1      16.657  35.704 -15.631  1.00  0.00     0.035 C 
HETATM   23  C30 UNL     1      17.193  34.667 -16.568  1.00  0.00     0.010 C 
ENDBRANCH   7  22
ENDBRANCH   4   6
ENDBRANCH   3   4
ENDBRANCH   1   2
BRANCH   1  24
HETATM   24  C12 UNL     1      14.264  37.513 -10.036  1.00  0.00     0.144 C 
BRANCH  24  25
HETATM   25  O2  UNL     1      14.606  37.153  -8.729  1.00  0.00    -0.391 OA
ATOM     26  H2  UNL     1      15.468  37.507  -8.542  1.00  0.00     0.210 HD
ENDBRANCH  24  25
BRANCH  24  27
HETATM   27  C13 UNL     1      13.637  38.849 -10.057  1.00  0.00     0.001 C 
HETATM   28  C14 UNL     1      14.081  39.804  -9.261  1.00  0.00    -0.023 C 
BRANCH  28  29
HETATM   29  C15 UNL     1      13.523  41.189  -9.200  1.00  0.00     0.020 C 
HETATM   30  C16 UNL     1      12.092  41.048  -8.782  1.00  0.00     0.021 C 
HETATM   31  C17 UNL     1      11.895  40.302  -7.491  1.00  0.00     0.013 C 
HETATM   32  C18 UNL     1      11.295  42.310  -8.864  1.00  0.00     0.153 C 
HETATM   33  C19 UNL     1      12.076  43.513  -9.281  1.00  0.00     0.178 C 
HETATM   34  C20 UNL     1      12.833  44.008  -8.092  1.00  0.00     0.178 C 
HETATM   35  C21 UNL     1      13.905  43.128  -7.588  1.00  0.00     0.153 C 
HETATM   36  C22 UNL     1      14.411  42.058  -8.472  1.00  0.00     0.021 C 
HETATM   37  C23 UNL     1      15.391  42.721  -9.458  1.00  0.00     0.013 C 
BRANCH  32  38
HETATM   38  O3  UNL     1      10.187  42.215  -9.717  1.00  0.00    -0.393 OA
ATOM     39  H3  UNL     1       9.831  43.059  -9.968  1.00  0.00     0.210 HD
ENDBRANCH  32  38
BRANCH  33  40
HETATM   40  O4  UNL     1      11.134  44.517  -9.607  1.00  0.00    -0.390 OA
ATOM     41  H4  UNL     1      10.813  44.868  -8.784  1.00  0.00     0.210 HD
ENDBRANCH  33  40
BRANCH  34  42
HETATM   42  O5  UNL     1      11.877  44.247  -7.075  1.00  0.00    -0.390 OA
ATOM     43  H5  UNL     1      12.285  43.997  -6.255  1.00  0.00     0.210 HD
ENDBRANCH  34  42
BRANCH  35  44
HETATM   44  O6  UNL     1      13.642  42.600  -6.300  1.00  0.00    -0.393 OA
ATOM     45  H6  UNL     1      14.110  41.793  -6.119  1.00  0.00     0.210 HD
ENDBRANCH  35  44
ENDBRANCH  28  29
ENDBRANCH  24  27
ENDBRANCH   1  24
TORSDOF 20
ENDMDL
