MODEL 1
REMARK VINA RESULT: -8.526321766      0.000      0.000
REMARK  15 active torsions:
REMARK  status: ('A' for Active; 'I' for Inactive)
REMARK    1  A    between atoms: N3_15  and  C11_16 
REMARK    2  A    between atoms: C11_16  and  C12_17 
REMARK    3  A    between atoms: C12_17  and  C13_18 
REMARK    4  A    between atoms: C13_18  and  C14_19 
REMARK    5  A    between atoms: C14_19  and  C15_20 
REMARK    6  A    between atoms: C15_20  and  C16_21 
REMARK    7  A    between atoms: C16_21  and  C17_22 
REMARK    8  A    between atoms: C17_22  and  C18_23 
REMARK    9  A    between atoms: C18_23  and  C19_24 
REMARK   10  A    between atoms: C19_24  and  N4_25 
REMARK   11  A    between atoms: N4_25  and  C20_28 
REMARK   12  A    between atoms: C20_28  and  C21_29 
REMARK   13  A    between atoms: C21_29  and  N5_30 
REMARK   14  A    between atoms: N5_30  and  C22_32 
REMARK   15  A    between atoms: C25_41  and  N9_42 
ROOT
HETATM    1  C18 UNL     1       9.157  36.734  -1.508  1.00  0.00     0.028 C 
ENDROOT
BRANCH   1   2
HETATM    2  C17 UNL     1      10.119  37.440  -0.594  1.00  0.00     0.005 C 
BRANCH   2   3
HETATM    3  C16 UNL     1       9.595  38.674   0.054  1.00  0.00     0.027 C 
BRANCH   3   4
HETATM    4  C15 UNL     1       9.910  39.960  -0.575  1.00  0.00    -0.031 C 
BRANCH   4   5
HETATM    5  C14 UNL     1       8.993  40.661  -1.459  1.00  0.00    -0.031 C 
BRANCH   5   6
HETATM    6  C13 UNL     1       8.818  42.139  -1.413  1.00  0.00     0.028 C 
BRANCH   6   7
HETATM    7  C12 UNL     1       8.251  42.825  -2.583  1.00  0.00     0.024 C 
BRANCH   7   8
HETATM    8  C11 UNL     1       8.191  42.038  -3.865  1.00  0.00     0.134 C 
BRANCH   8   9
HETATM    9  N3  UNL     1       7.297  42.639  -4.792  1.00  0.00    -0.297 N 
HETATM   10  C10 UNL     1       5.961  42.464  -4.645  1.00  0.00     0.139 A 
HETATM   11  C3  UNL     1       5.130  43.092  -5.560  1.00  0.00     0.090 A 
HETATM   12  N2  UNL     1       5.188  41.768  -3.769  1.00  0.00    -0.340 N 
HETATM   13  N1  UNL     1       5.617  43.847  -6.561  1.00  0.00    -0.352 N 
HETATM   14  C4  UNL     1       3.846  42.736  -5.185  1.00  0.00     0.021 A 
HETATM   15  C2  UNL     1       6.932  44.023  -6.711  1.00  0.00     0.074 A 
ATOM     16  H1  UNL     1       4.973  44.292  -7.214  1.00  0.00     0.166 HD
HETATM   17  C1  UNL     1       7.513  44.854  -7.808  1.00  0.00     0.074 C 
HETATM   18  C27 UNL     1       7.760  43.401  -5.803  1.00  0.00     0.271 A 
HETATM   19  O1  UNL     1       9.023  43.524  -5.889  1.00  0.00    -0.266 OA
HETATM   20  C5  UNL     1       2.618  43.055  -5.719  1.00  0.00     0.016 A 
HETATM   21  C9  UNL     1       3.895  41.927  -4.091  1.00  0.00     0.046 A 
HETATM   22  C6  UNL     1       1.460  42.582  -5.178  1.00  0.00     0.001 A 
HETATM   23  C7  UNL     1       1.533  41.765  -4.069  1.00  0.00     0.002 A 
HETATM   24  C8  UNL     1       2.736  41.424  -3.509  1.00  0.00     0.030 A 
ATOM     25  H2  UNL     1       5.537  41.212  -2.989  1.00  0.00     0.167 HD
ENDBRANCH   8   9
ENDBRANCH   7   8
ENDBRANCH   6   7
ENDBRANCH   5   6
ENDBRANCH   4   5
ENDBRANCH   3   4
ENDBRANCH   2   3
ENDBRANCH   1   2
BRANCH   1  26
HETATM   26  C19 UNL     1       9.210  37.216  -2.916  1.00  0.00     0.232 C 
BRANCH  26  27
HETATM   27  N4  UNL     1      10.525  37.679  -3.303  1.00  0.00    -0.074 N 
ATOM     28  H42 UNL     1      11.029  38.069  -2.507  1.00  0.00     0.277 HD
ATOM     29  H41 UNL     1      11.144  36.898  -3.519  1.00  0.00     0.277 HD
BRANCH  27  30
HETATM   30  C20 UNL     1      10.465  38.608  -4.385  1.00  0.00     0.251 C 
BRANCH  30  31
HETATM   31  C21 UNL     1      10.837  37.940  -5.698  1.00  0.00     0.148 C 
BRANCH  31  32
HETATM   32  N5  UNL     1      12.229  38.160  -6.011  1.00  0.00    -0.373 N 
ATOM     33  H5  UNL     1      12.937  38.066  -5.283  1.00  0.00     0.161 HD
BRANCH  32  34
HETATM   34  C22 UNL     1      12.572  38.470  -7.198  1.00  0.00     0.133 A 
HETATM   35  N6  UNL     1      13.283  37.638  -7.945  1.00  0.00    -0.337 N 
HETATM   36  C23 UNL     1      13.659  37.934  -9.214  1.00  0.00     0.183 A 
ATOM     37  H6  UNL     1      13.559  36.739  -7.550  1.00  0.00     0.168 HD
HETATM   38  N7  UNL     1      13.280  39.124  -9.701  1.00  0.00    -0.336 N 
HETATM   39  C24 UNL     1      12.560  40.030  -9.016  1.00  0.00     0.153 A 
ATOM     40  H7  UNL     1      13.557  39.359 -10.654  1.00  0.00     0.168 HD
HETATM   41  N8  UNL     1      12.058  41.256  -9.246  1.00  0.00    -0.174 N 
HETATM   42  C26 UNL     1      12.194  39.687  -7.717  1.00  0.00     0.137 A 
HETATM   43  C25 UNL     1      11.398  41.708  -8.173  1.00  0.00     0.678 A 
ATOM     44  H8  UNL     1      12.166  41.772 -10.119  1.00  0.00     0.186 HD
HETATM   45  N10 UNL     1      11.491  40.740  -7.252  1.00  0.00    -0.184 N 
ATOM     46  H10 UNL     1      11.083  40.792  -6.318  1.00  0.00     0.184 HD
BRANCH  43  47
HETATM   47  N9  UNL     1      10.801  42.857  -8.080  1.00  0.00    -0.234 N 
ATOM     48  H92 UNL     1      10.937  43.589  -7.384  1.00  0.00     0.174 HD
ATOM     49  H91 UNL     1      10.085  43.207  -8.716  1.00  0.00     0.174 HD
ENDBRANCH  43  47
ENDBRANCH  32  34
ENDBRANCH  31  32
ENDBRANCH  30  31
ENDBRANCH  27  30
ENDBRANCH  26  27
ENDBRANCH   1  26
TORSDOF 15
ENDMDL
MODEL 2
REMARK VINA RESULT: -8.453590401      4.337     11.021
REMARK  15 active torsions:
REMARK  status: ('A' for Active; 'I' for Inactive)
REMARK    1  A    between atoms: N3_15  and  C11_16 
REMARK    2  A    between atoms: C11_16  and  C12_17 
REMARK    3  A    between atoms: C12_17  and  C13_18 
REMARK    4  A    between atoms: C13_18  and  C14_19 
REMARK    5  A    between atoms: C14_19  and  C15_20 
REMARK    6  A    between atoms: C15_20  and  C16_21 
REMARK    7  A    between atoms: C16_21  and  C17_22 
REMARK    8  A    between atoms: C17_22  and  C18_23 
REMARK    9  A    between atoms: C18_23  and  C19_24 
REMARK   10  A    between atoms: C19_24  and  N4_25 
REMARK   11  A    between atoms: N4_25  and  C20_28 
REMARK   12  A    between atoms: C20_28  and  C21_29 
REMARK   13  A    between atoms: C21_29  and  N5_30 
REMARK   14  A    between atoms: N5_30  and  C22_32 
REMARK   15  A    between atoms: C25_41  and  N9_42 
ROOT
HETATM    1  C18 UNL     1      13.307  37.242 -10.687  1.00  0.00     0.028 C 
ENDROOT
BRANCH   1   2
HETATM    2  C17 UNL     1      13.866  35.981 -11.285  1.00  0.00     0.005 C 
BRANCH   2   3
HETATM    3  C16 UNL     1      13.315  35.608 -12.617  1.00  0.00     0.027 C 
BRANCH   3   4
HETATM    4  C15 UNL     1      14.153  35.854 -13.794  1.00  0.00    -0.031 C 
BRANCH   4   5
HETATM    5  C14 UNL     1      14.065  37.062 -14.598  1.00  0.00    -0.031 C 
BRANCH   5   6
HETATM    6  C13 UNL     1      14.091  38.422 -13.994  1.00  0.00     0.028 C 
BRANCH   6   7
HETATM    7  C12 UNL     1      15.382  39.108 -13.840  1.00  0.00     0.024 C 
BRANCH   7   8
HETATM    8  C11 UNL     1      16.234  38.689 -12.671  1.00  0.00     0.134 C 
BRANCH   8   9
HETATM    9  N3  UNL     1      16.917  39.804 -12.112  1.00  0.00    -0.297 N 
HETATM   10  C10 UNL     1      16.337  40.514 -11.114  1.00  0.00     0.139 A 
HETATM   11  C3  UNL     1      17.055  41.577 -10.585  1.00  0.00     0.090 A 
HETATM   12  N2  UNL     1      15.142  40.441 -10.471  1.00  0.00    -0.340 N 
HETATM   13  N1  UNL     1      18.279  41.901 -11.037  1.00  0.00    -0.352 N 
HETATM   14  C4  UNL     1      16.233  42.118  -9.612  1.00  0.00     0.021 A 
HETATM   15  C2  UNL     1      18.855  41.205 -12.021  1.00  0.00     0.074 A 
ATOM     16  H1  UNL     1      18.775  42.690 -10.623  1.00  0.00     0.166 HD
HETATM   17  C1  UNL     1      20.213  41.534 -12.551  1.00  0.00     0.074 C 
HETATM   18  C27 UNL     1      18.146  40.150 -12.547  1.00  0.00     0.271 A 
HETATM   19  O1  UNL     1      18.633  39.446 -13.487  1.00  0.00    -0.266 OA
HETATM   20  C5  UNL     1      16.409  43.185  -8.761  1.00  0.00     0.016 A 
HETATM   21  C9  UNL     1      15.068  41.417  -9.553  1.00  0.00     0.046 A 
HETATM   22  C6  UNL     1      15.447  43.551  -7.866  1.00  0.00     0.001 A 
HETATM   23  C7  UNL     1      14.275  42.825  -7.822  1.00  0.00     0.002 A 
HETATM   24  C8  UNL     1      14.062  41.758  -8.654  1.00  0.00     0.030 A 
ATOM     25  H2  UNL     1      14.413  39.752 -10.658  1.00  0.00     0.167 HD
ENDBRANCH   8   9
ENDBRANCH   7   8
ENDBRANCH   6   7
ENDBRANCH   5   6
ENDBRANCH   4   5
ENDBRANCH   3   4
ENDBRANCH   2   3
ENDBRANCH   1   2
BRANCH   1  26
HETATM   26  C19 UNL     1      13.636  37.413  -9.244  1.00  0.00     0.232 C 
BRANCH  26  27
HETATM   27  N4  UNL     1      12.695  38.265  -8.550  1.00  0.00    -0.074 N 
ATOM     28  H42 UNL     1      12.892  39.250  -8.721  1.00  0.00     0.277 HD
ATOM     29  H41 UNL     1      11.767  38.211  -8.970  1.00  0.00     0.277 HD
BRANCH  27  30
HETATM   30  C20 UNL     1      12.648  37.980  -7.152  1.00  0.00     0.251 C 
BRANCH  30  31
HETATM   31  C21 UNL     1      11.294  38.342  -6.567  1.00  0.00     0.148 C 
BRANCH  31  32
HETATM   32  N5  UNL     1      11.278  38.135  -5.139  1.00  0.00    -0.373 N 
ATOM     33  H5  UNL     1      12.001  37.567  -4.697  1.00  0.00     0.161 HD
BRANCH  32  34
HETATM   34  C22 UNL     1      10.361  38.664  -4.430  1.00  0.00     0.133 A 
HETATM   35  N6  UNL     1       9.863  39.854  -4.731  1.00  0.00    -0.337 N 
HETATM   36  C23 UNL     1       8.882  40.442  -4.002  1.00  0.00     0.183 A 
ATOM     37  H6  UNL     1      10.232  40.348  -5.543  1.00  0.00     0.168 HD
HETATM   38  N7  UNL     1       8.421  39.765  -2.941  1.00  0.00    -0.336 N 
HETATM   39  C24 UNL     1       8.868  38.555  -2.561  1.00  0.00     0.153 A 
ATOM     40  H7  UNL     1       7.684  40.196  -2.384  1.00  0.00     0.168 HD
HETATM   41  N8  UNL     1       8.597  37.678  -1.577  1.00  0.00    -0.174 N 
HETATM   42  C26 UNL     1       9.874  37.986  -3.336  1.00  0.00     0.137 A 
HETATM   43  C25 UNL     1       9.372  36.591  -1.684  1.00  0.00     0.678 A 
ATOM     44  H8  UNL     1       7.898  37.821  -0.849  1.00  0.00     0.186 HD
HETATM   45  N10 UNL     1      10.143  36.796  -2.760  1.00  0.00    -0.184 N 
ATOM     46  H10 UNL     1      10.843  36.137  -3.101  1.00  0.00     0.184 HD
BRANCH  43  47
HETATM   47  N9  UNL     1       9.351  35.566  -0.888  1.00  0.00    -0.234 N 
ATOM     48  H92 UNL     1       9.437  35.550   0.128  1.00  0.00     0.174 HD
ATOM     49  H91 UNL     1       9.241  34.594  -1.174  1.00  0.00     0.174 HD
ENDBRANCH  43  47
ENDBRANCH  32  34
ENDBRANCH  31  32
ENDBRANCH  30  31
ENDBRANCH  27  30
ENDBRANCH  26  27
ENDBRANCH   1  26
TORSDOF 15
ENDMDL
MODEL 3
REMARK VINA RESULT: -8.423644469      0.959      2.168
REMARK  15 active torsions:
REMARK  status: ('A' for Active; 'I' for Inactive)
REMARK    1  A    between atoms: N3_15  and  C11_16 
REMARK    2  A    between atoms: C11_16  and  C12_17 
REMARK    3  A    between atoms: C12_17  and  C13_18 
REMARK    4  A    between atoms: C13_18  and  C14_19 
REMARK    5  A    between atoms: C14_19  and  C15_20 
REMARK    6  A    between atoms: C15_20  and  C16_21 
REMARK    7  A    between atoms: C16_21  and  C17_22 
REMARK    8  A    between atoms: C17_22  and  C18_23 
REMARK    9  A    between atoms: C18_23  and  C19_24 
REMARK   10  A    between atoms: C19_24  and  N4_25 
REMARK   11  A    between atoms: N4_25  and  C20_28 
REMARK   12  A    between atoms: C20_28  and  C21_29 
REMARK   13  A    between atoms: C21_29  and  N5_30 
REMARK   14  A    between atoms: N5_30  and  C22_32 
REMARK   15  A    between atoms: C25_41  and  N9_42 
ROOT
HETATM    1  C18 UNL     1       9.478  36.863  -1.995  1.00  0.00     0.028 C 
ENDROOT
BRANCH   1   2
HETATM    2  C17 UNL     1      10.358  37.558  -0.995  1.00  0.00     0.005 C 
BRANCH   2   3
HETATM    3  C16 UNL     1       9.695  38.620  -0.188  1.00  0.00     0.027 C 
BRANCH   3   4
HETATM    4  C15 UNL     1       9.886  40.012  -0.607  1.00  0.00    -0.031 C 
BRANCH   4   5
HETATM    5  C14 UNL     1       8.961  40.717  -1.479  1.00  0.00    -0.031 C 
BRANCH   5   6
HETATM    6  C13 UNL     1       8.793  42.195  -1.428  1.00  0.00     0.028 C 
BRANCH   6   7
HETATM    7  C12 UNL     1       8.210  42.885  -2.589  1.00  0.00     0.024 C 
BRANCH   7   8
HETATM    8  C11 UNL     1       8.190  42.122  -3.888  1.00  0.00     0.134 C 
BRANCH   8   9
HETATM    9  N3  UNL     1       7.281  42.709  -4.811  1.00  0.00    -0.297 N 
HETATM   10  C10 UNL     1       5.950  42.505  -4.662  1.00  0.00     0.139 A 
HETATM   11  C3  UNL     1       5.104  43.120  -5.573  1.00  0.00     0.090 A 
HETATM   12  N2  UNL     1       5.194  41.788  -3.789  1.00  0.00    -0.340 N 
HETATM   13  N1  UNL     1       5.573  43.890  -6.570  1.00  0.00    -0.352 N 
HETATM   14  C4  UNL     1       3.829  42.734  -5.197  1.00  0.00     0.021 A 
HETATM   15  C2  UNL     1       6.884  44.094  -6.721  1.00  0.00     0.074 A 
ATOM     16  H1  UNL     1       4.918  44.325  -7.220  1.00  0.00     0.166 HD
HETATM   17  C1  UNL     1       7.445  44.944  -7.816  1.00  0.00     0.074 C 
HETATM   18  C27 UNL     1       7.727  43.486  -5.819  1.00  0.00     0.271 A 
HETATM   19  O1  UNL     1       8.986  43.636  -5.905  1.00  0.00    -0.266 OA
HETATM   20  C5  UNL     1       2.593  43.030  -5.728  1.00  0.00     0.016 A 
HETATM   21  C9  UNL     1       3.897  41.921  -4.108  1.00  0.00     0.046 A 
HETATM   22  C6  UNL     1       1.446  42.529  -5.187  1.00  0.00     0.001 A 
HETATM   23  C7  UNL     1       1.538  41.708  -4.083  1.00  0.00     0.002 A 
HETATM   24  C8  UNL     1       2.749  41.391  -3.527  1.00  0.00     0.030 A 
ATOM     25  H2  UNL     1       5.555  41.235  -3.012  1.00  0.00     0.167 HD
ENDBRANCH   8   9
ENDBRANCH   7   8
ENDBRANCH   6   7
ENDBRANCH   5   6
ENDBRANCH   4   5
ENDBRANCH   3   4
ENDBRANCH   2   3
ENDBRANCH   1   2
BRANCH   1  26
HETATM   26  C19 UNL     1       9.364  37.586  -3.292  1.00  0.00     0.232 C 
BRANCH  26  27
HETATM   27  N4  UNL     1      10.649  37.938  -3.855  1.00  0.00    -0.074 N 
ATOM     28  H42 UNL     1      11.169  38.555  -3.232  1.00  0.00     0.277 HD
ATOM     29  H41 UNL     1      11.283  37.139  -3.857  1.00  0.00     0.277 HD
BRANCH  27  30
HETATM   30  C20 UNL     1      10.523  38.504  -5.159  1.00  0.00     0.251 C 
BRANCH  30  31
HETATM   31  C21 UNL     1      11.652  38.043  -6.065  1.00  0.00     0.148 C 
BRANCH  31  32
HETATM   32  N5  UNL     1      11.398  38.418  -7.435  1.00  0.00    -0.373 N 
ATOM     33  H5  UNL     1      10.528  38.139  -7.887  1.00  0.00     0.161 HD
BRANCH  32  34
HETATM   34  C22 UNL     1      12.262  39.097  -8.079  1.00  0.00     0.133 A 
HETATM   35  N6  UNL     1      12.337  40.413  -7.945  1.00  0.00    -0.337 N 
HETATM   36  C23 UNL     1      13.249  41.165  -8.609  1.00  0.00     0.183 A 
ATOM     37  H6  UNL     1      11.683  40.879  -7.316  1.00  0.00     0.168 HD
HETATM   38  N7  UNL     1      14.092  40.520  -9.428  1.00  0.00    -0.336 N 
HETATM   39  C24 UNL     1      14.088  39.190  -9.626  1.00  0.00     0.153 A 
ATOM     40  H7  UNL     1      14.782  41.075  -9.934  1.00  0.00     0.168 HD
HETATM   41  N8  UNL     1      14.791  38.309 -10.360  1.00  0.00    -0.174 N 
HETATM   42  C26 UNL     1      13.137  38.455  -8.925  1.00  0.00     0.137 A 
HETATM   43  C25 UNL     1      14.342  37.063 -10.165  1.00  0.00     0.678 A 
ATOM     44  H8  UNL     1      15.561  38.557 -10.982  1.00  0.00     0.186 HD
HETATM   45  N10 UNL     1      13.335  37.171  -9.288  1.00  0.00    -0.184 N 
ATOM     46  H10 UNL     1      12.788  36.383  -8.940  1.00  0.00     0.184 HD
BRANCH  43  47
HETATM   47  N9  UNL     1      14.813  35.993 -10.729  1.00  0.00    -0.234 N 
ATOM     48  H92 UNL     1      14.903  35.786 -11.723  1.00  0.00     0.174 HD
ATOM     49  H91 UNL     1      15.174  35.174 -10.240  1.00  0.00     0.174 HD
ENDBRANCH  43  47
ENDBRANCH  32  34
ENDBRANCH  31  32
ENDBRANCH  30  31
ENDBRANCH  27  30
ENDBRANCH  26  27
ENDBRANCH   1  26
TORSDOF 15
ENDMDL
MODEL 4
REMARK VINA RESULT: -8.328853499      3.876     10.562
REMARK  15 active torsions:
REMARK  status: ('A' for Active; 'I' for Inactive)
REMARK    1  A    between atoms: N3_15  and  C11_16 
REMARK    2  A    between atoms: C11_16  and  C12_17 
REMARK    3  A    between atoms: C12_17  and  C13_18 
REMARK    4  A    between atoms: C13_18  and  C14_19 
REMARK    5  A    between atoms: C14_19  and  C15_20 
REMARK    6  A    between atoms: C15_20  and  C16_21 
REMARK    7  A    between atoms: C16_21  and  C17_22 
REMARK    8  A    between atoms: C17_22  and  C18_23 
REMARK    9  A    between atoms: C18_23  and  C19_24 
REMARK   10  A    between atoms: C19_24  and  N4_25 
REMARK   11  A    between atoms: N4_25  and  C20_28 
REMARK   12  A    between atoms: C20_28  and  C21_29 
REMARK   13  A    between atoms: C21_29  and  N5_30 
REMARK   14  A    between atoms: N5_30  and  C22_32 
REMARK   15  A    between atoms: C25_41  and  N9_42 
ROOT
HETATM    1  C18 UNL     1      13.358  36.628 -10.532  1.00  0.00     0.028 C 
ENDROOT
BRANCH   1   2
HETATM    2  C17 UNL     1      14.500  35.882 -11.163  1.00  0.00     0.005 C 
BRANCH   2   3
HETATM    3  C16 UNL     1      14.633  36.044 -12.637  1.00  0.00     0.027 C 
BRANCH   3   4
HETATM    4  C15 UNL     1      13.816  37.075 -13.285  1.00  0.00    -0.031 C 
BRANCH   4   5
HETATM    5  C14 UNL     1      14.327  38.386 -13.649  1.00  0.00    -0.031 C 
BRANCH   5   6
HETATM    6  C13 UNL     1      15.486  39.008 -12.953  1.00  0.00     0.028 C 
BRANCH   6   7
HETATM    7  C12 UNL     1      15.282  39.605 -11.625  1.00  0.00     0.024 C 
BRANCH   7   8
HETATM    8  C11 UNL     1      14.370  40.801 -11.554  1.00  0.00     0.134 C 
BRANCH   8   9
HETATM    9  N3  UNL     1      14.499  41.469 -10.305  1.00  0.00    -0.297 N 
HETATM   10  C10 UNL     1      15.573  42.263 -10.078  1.00  0.00     0.139 A 
HETATM   11  C3  UNL     1      15.640  42.912  -8.854  1.00  0.00     0.090 A 
HETATM   12  N2  UNL     1      16.678  42.590 -10.799  1.00  0.00    -0.340 N 
HETATM   13  N1  UNL     1      14.684  42.766  -7.920  1.00  0.00    -0.352 N 
HETATM   14  C4  UNL     1      16.824  43.628  -8.891  1.00  0.00     0.021 A 
HETATM   15  C2  UNL     1      13.623  41.984  -8.139  1.00  0.00     0.074 A 
ATOM     16  H1  UNL     1      14.770  43.260  -7.032  1.00  0.00     0.166 HD
HETATM   17  C1  UNL     1      12.540  41.796  -7.127  1.00  0.00     0.074 C 
HETATM   18  C27 UNL     1      13.554  41.339  -9.353  1.00  0.00     0.271 A 
HETATM   19  O1  UNL     1      12.573  40.578  -9.626  1.00  0.00    -0.266 OA
HETATM   20  C5  UNL     1      17.418  44.455  -7.964  1.00  0.00     0.016 A 
HETATM   21  C9  UNL     1      17.448  43.423 -10.082  1.00  0.00     0.046 A 
HETATM   22  C6  UNL     1      18.610  45.068  -8.214  1.00  0.00     0.001 A 
HETATM   23  C7  UNL     1      19.225  44.847  -9.429  1.00  0.00     0.002 A 
HETATM   24  C8  UNL     1      18.665  44.030 -10.376  1.00  0.00     0.030 A 
ATOM     25  H2  UNL     1      16.889  42.255 -11.739  1.00  0.00     0.167 HD
ENDBRANCH   8   9
ENDBRANCH   7   8
ENDBRANCH   6   7
ENDBRANCH   5   6
ENDBRANCH   4   5
ENDBRANCH   3   4
ENDBRANCH   2   3
ENDBRANCH   1   2
BRANCH   1  26
HETATM   26  C19 UNL     1      13.693  37.221  -9.208  1.00  0.00     0.232 C 
BRANCH  26  27
HETATM   27  N4  UNL     1      12.592  37.959  -8.627  1.00  0.00    -0.074 N 
ATOM     28  H42 UNL     1      12.547  38.908  -8.997  1.00  0.00     0.277 HD
ATOM     29  H41 UNL     1      11.695  37.612  -8.965  1.00  0.00     0.277 HD
BRANCH  27  30
HETATM   30  C20 UNL     1      12.644  37.959  -7.201  1.00  0.00     0.251 C 
BRANCH  30  31
HETATM   31  C21 UNL     1      11.294  38.323  -6.606  1.00  0.00     0.148 C 
BRANCH  31  32
HETATM   32  N5  UNL     1      11.300  38.153  -5.173  1.00  0.00    -0.373 N 
ATOM     33  H5  UNL     1      12.037  37.607  -4.727  1.00  0.00     0.161 HD
BRANCH  32  34
HETATM   34  C22 UNL     1      10.384  38.685  -4.466  1.00  0.00     0.133 A 
HETATM   35  N6  UNL     1       9.888  39.875  -4.771  1.00  0.00    -0.337 N 
HETATM   36  C23 UNL     1       8.908  40.467  -4.044  1.00  0.00     0.183 A 
ATOM     37  H6  UNL     1      10.257  40.366  -5.585  1.00  0.00     0.168 HD
HETATM   38  N7  UNL     1       8.446  39.794  -2.980  1.00  0.00    -0.336 N 
HETATM   39  C24 UNL     1       8.891  38.585  -2.596  1.00  0.00     0.153 A 
ATOM     40  H7  UNL     1       7.710  40.229  -2.425  1.00  0.00     0.168 HD
HETATM   41  N8  UNL     1       8.620  37.711  -1.609  1.00  0.00    -0.174 N 
HETATM   42  C26 UNL     1       9.896  38.012  -3.370  1.00  0.00     0.137 A 
HETATM   43  C25 UNL     1       9.392  36.623  -1.713  1.00  0.00     0.678 A 
ATOM     44  H8  UNL     1       7.921  37.859  -0.881  1.00  0.00     0.186 HD
HETATM   45  N10 UNL     1      10.163  36.823  -2.790  1.00  0.00    -0.184 N 
ATOM     46  H10 UNL     1      10.863  36.162  -3.128  1.00  0.00     0.184 HD
BRANCH  43  47
HETATM   47  N9  UNL     1       9.370  35.601  -0.913  1.00  0.00    -0.234 N 
ATOM     48  H92 UNL     1      10.157  35.083  -0.522  1.00  0.00     0.174 HD
ATOM     49  H91 UNL     1       8.531  35.153  -0.546  1.00  0.00     0.174 HD
ENDBRANCH  43  47
ENDBRANCH  32  34
ENDBRANCH  31  32
ENDBRANCH  30  31
ENDBRANCH  27  30
ENDBRANCH  26  27
ENDBRANCH   1  26
TORSDOF 15
ENDMDL
MODEL 5
REMARK VINA RESULT: -8.125535559      4.441     11.147
REMARK  15 active torsions:
REMARK  status: ('A' for Active; 'I' for Inactive)
REMARK    1  A    between atoms: N3_15  and  C11_16 
REMARK    2  A    between atoms: C11_16  and  C12_17 
REMARK    3  A    between atoms: C12_17  and  C13_18 
REMARK    4  A    between atoms: C13_18  and  C14_19 
REMARK    5  A    between atoms: C14_19  and  C15_20 
REMARK    6  A    between atoms: C15_20  and  C16_21 
REMARK    7  A    between atoms: C16_21  and  C17_22 
REMARK    8  A    between atoms: C17_22  and  C18_23 
REMARK    9  A    between atoms: C18_23  and  C19_24 
REMARK   10  A    between atoms: C19_24  and  N4_25 
REMARK   11  A    between atoms: N4_25  and  C20_28 
REMARK   12  A    between atoms: C20_28  and  C21_29 
REMARK   13  A    between atoms: C21_29  and  N5_30 
REMARK   14  A    between atoms: N5_30  and  C22_32 
REMARK   15  A    between atoms: C25_41  and  N9_42 
ROOT
HETATM    1  C18 UNL     1      13.241  37.281 -10.551  1.00  0.00     0.028 C 
ENDROOT
BRANCH   1   2
HETATM    2  C17 UNL     1      14.090  36.138 -11.032  1.00  0.00     0.005 C 
BRANCH   2   3
HETATM    3  C16 UNL     1      13.560  35.401 -12.213  1.00  0.00     0.027 C 
BRANCH   3   4
HETATM    4  C15 UNL     1      13.456  36.129 -13.480  1.00  0.00    -0.031 C 
BRANCH   4   5
HETATM    5  C14 UNL     1      13.951  35.606 -14.744  1.00  0.00    -0.031 C 
BRANCH   5   6
HETATM    6  C13 UNL     1      15.368  35.763 -15.168  1.00  0.00     0.028 C 
BRANCH   6   7
HETATM    7  C12 UNL     1      16.231  36.703 -14.436  1.00  0.00     0.024 C 
BRANCH   7   8
HETATM    8  C11 UNL     1      16.473  38.041 -15.082  1.00  0.00     0.134 C 
BRANCH   8   9
HETATM    9  N3  UNL     1      15.393  38.932 -14.830  1.00  0.00    -0.297 N 
HETATM   10  C10 UNL     1      15.237  39.464 -13.594  1.00  0.00     0.139 A 
HETATM   11  C3  UNL     1      14.184  40.347 -13.407  1.00  0.00     0.090 A 
HETATM   12  N2  UNL     1      15.897  39.325 -12.414  1.00  0.00    -0.340 N 
HETATM   13  N1  UNL     1      13.342  40.670 -14.405  1.00  0.00    -0.352 N 
HETATM   14  C4  UNL     1      14.256  40.716 -12.075  1.00  0.00     0.021 A 
HETATM   15  C2  UNL     1      13.491  40.147 -15.625  1.00  0.00     0.074 A 
ATOM     16  H1  UNL     1      12.579  41.322 -14.227  1.00  0.00     0.166 HD
HETATM   17  C1  UNL     1      12.577  40.481 -16.759  1.00  0.00     0.074 C 
HETATM   18  C27 UNL     1      14.536  39.271 -15.814  1.00  0.00     0.271 A 
HETATM   19  O1  UNL     1      14.734  38.736 -16.950  1.00  0.00    -0.266 OA
HETATM   20  C5  UNL     1      13.476  41.564 -11.321  1.00  0.00     0.016 A 
HETATM   21  C9  UNL     1      15.305  40.085 -11.479  1.00  0.00     0.046 A 
HETATM   22  C6  UNL     1      13.733  41.783  -9.999  1.00  0.00     0.001 A 
HETATM   23  C7  UNL     1      14.801  41.134  -9.416  1.00  0.00     0.002 A 
HETATM   24  C8  UNL     1      15.599  40.282 -10.134  1.00  0.00     0.030 A 
ATOM     25  H2  UNL     1      16.715  38.735 -12.261  1.00  0.00     0.167 HD
ENDBRANCH   8   9
ENDBRANCH   7   8
ENDBRANCH   6   7
ENDBRANCH   5   6
ENDBRANCH   4   5
ENDBRANCH   3   4
ENDBRANCH   2   3
ENDBRANCH   1   2
BRANCH   1  26
HETATM   26  C19 UNL     1      13.400  37.571  -9.099  1.00  0.00     0.232 C 
BRANCH  26  27
HETATM   27  N4  UNL     1      12.446  38.544  -8.612  1.00  0.00    -0.074 N 
ATOM     28  H42 UNL     1      12.560  39.441  -9.081  1.00  0.00     0.277 HD
ATOM     29  H41 UNL     1      11.500  38.321  -8.920  1.00  0.00     0.277 HD
BRANCH  27  30
HETATM   30  C20 UNL     1      12.509  38.688  -7.194  1.00  0.00     0.251 C 
BRANCH  30  31
HETATM   31  C21 UNL     1      11.299  38.055  -6.527  1.00  0.00     0.148 C 
BRANCH  31  32
HETATM   32  N5  UNL     1      11.389  38.161  -5.090  1.00  0.00    -0.373 N 
ATOM     33  H5  UNL     1      12.221  37.826  -4.605  1.00  0.00     0.161 HD
BRANCH  32  34
HETATM   34  C22 UNL     1      10.428  38.674  -4.429  1.00  0.00     0.133 A 
HETATM   35  N6  UNL     1       9.920  39.852  -4.762  1.00  0.00    -0.337 N 
HETATM   36  C23 UNL     1       8.893  40.423  -4.085  1.00  0.00     0.183 A 
ATOM     37  H6  UNL     1      10.317  40.349  -5.559  1.00  0.00     0.168 HD
HETATM   38  N7  UNL     1       8.397  39.741  -3.042  1.00  0.00    -0.336 N 
HETATM   39  C24 UNL     1       8.850  38.543  -2.633  1.00  0.00     0.153 A 
ATOM     40  H7  UNL     1       7.624  40.160  -2.524  1.00  0.00     0.168 HD
HETATM   41  N8  UNL     1       8.551  37.666  -1.658  1.00  0.00    -0.174 N 
HETATM   42  C26 UNL     1       9.904  37.992  -3.356  1.00  0.00     0.137 A 
HETATM   43  C25 UNL     1       9.352  36.595  -1.721  1.00  0.00     0.678 A 
ATOM     44  H8  UNL     1       7.815  37.799  -0.965  1.00  0.00     0.186 HD
HETATM   45  N10 UNL     1      10.170  36.811  -2.760  1.00  0.00    -0.184 N 
ATOM     46  H10 UNL     1      10.899  36.165  -3.063  1.00  0.00     0.184 HD
BRANCH  43  47
HETATM   47  N9  UNL     1       9.315  35.575  -0.920  1.00  0.00    -0.234 N 
ATOM     48  H92 UNL     1       9.883  34.728  -0.942  1.00  0.00     0.174 HD
ATOM     49  H91 UNL     1       8.689  35.469  -0.122  1.00  0.00     0.174 HD
ENDBRANCH  43  47
ENDBRANCH  32  34
ENDBRANCH  31  32
ENDBRANCH  30  31
ENDBRANCH  27  30
ENDBRANCH  26  27
ENDBRANCH   1  26
TORSDOF 15
ENDMDL
