MODEL 1
REMARK VINA RESULT: -7.957649448      0.000      0.000
REMARK  15 active torsions:
REMARK  status: ('A' for Active; 'I' for Inactive)
REMARK    1  A    between atoms: C3_7  and  N3_8 
REMARK    2  A    between atoms: C5_15  and  C6_16 
REMARK       I    between atoms: C6_16  and  N5_18 
REMARK    3  A    between atoms: N5_18  and  C7_19 
REMARK    4  A    between atoms: C7_19  and  C8_20 
REMARK    5  A    between atoms: C8_20  and  C9_21 
REMARK    6  A    between atoms: C9_21  and  C10_22 
REMARK    7  A    between atoms: C10_22  and  C11_23 
REMARK    8  A    between atoms: C11_23  and  C12_24 
REMARK    9  A    between atoms: C12_24  and  N7_28 
REMARK   10  A    between atoms: N7_28  and  C13_30 
REMARK   11  A    between atoms: C13_30  and  C14_31 
REMARK   12  A    between atoms: C14_31  and  C15_32 
REMARK   13  A    between atoms: C15_32  and  C16_33 
REMARK   14  A    between atoms: C16_33  and  C17_34 
REMARK   15  A    between atoms: C17_34  and  C18_35 
ROOT
HETATM    1  C8  UNL     1      14.013  38.256  -9.800  1.00  0.00     0.060 C 
ENDROOT
BRANCH   1   2
HETATM    2  C7  UNL     1      12.981  37.218  -9.962  1.00  0.00     0.159 C 
BRANCH   2   3
HETATM    3  N5  UNL     1      13.077  36.354 -11.050  1.00  0.00    -0.383 NA
HETATM    4  C6  UNL     1      13.168  35.507 -12.103  1.00  0.00     0.332 C 
HETATM    5  O1  UNL     1      12.965  34.267 -12.113  1.00  0.00    -0.250 OA
BRANCH   4   6
HETATM    6  C5  UNL     1      13.568  36.094 -13.428  1.00  0.00     0.090 A 
HETATM    7  S1  UNL     1      13.327  35.441 -14.981  1.00  0.00    -0.064 SA
HETATM    8  C4  UNL     1      14.046  36.693 -15.909  1.00  0.00     0.105 A 
HETATM    9  N4  UNL     1      14.233  36.868 -17.256  1.00  0.00    -0.185 N 
HETATM   10  C24 UNL     1      14.456  37.597 -14.969  1.00  0.00     0.044 A 
HETATM   11  C3  UNL     1      14.842  37.967 -17.720  1.00  0.00     0.678 A 
ATOM     12  H4  UNL     1      13.904  36.158 -17.910  1.00  0.00     0.185 HD
HETATM   13  N2  UNL     1      15.243  38.852 -16.826  1.00  0.00    -0.176 N 
HETATM   14  C2  UNL     1      15.094  38.751 -15.470  1.00  0.00     0.129 A 
ATOM     15  H2  UNL     1      15.707  39.690 -17.179  1.00  0.00     0.186 HD
HETATM   16  N1  UNL     1      15.537  39.726 -14.837  1.00  0.00    -0.379 N 
HETATM   17  C1  UNL     1      15.635  40.118 -13.527  1.00  0.00     0.147 C 
ATOM     18  H1  UNL     1      15.934  40.426 -15.464  1.00  0.00     0.160 HD
HETATM   19  C23 UNL     1      14.202  37.273 -13.681  1.00  0.00     0.044 A 
BRANCH  11  20
HETATM   20  N3  UNL     1      15.027  38.153 -18.976  1.00  0.00    -0.234 N 
ATOM     21  H32 UNL     1      14.637  38.962 -19.459  1.00  0.00     0.174 HD
ATOM     22  H31 UNL     1      15.573  37.498 -19.537  1.00  0.00     0.174 HD
ENDBRANCH  11  20
ENDBRANCH   4   6
ENDBRANCH   2   3
ENDBRANCH   1   2
BRANCH   1  23
HETATM   23  C9  UNL     1      13.737  39.523 -10.544  1.00  0.00     0.006 C 
BRANCH  23  24
HETATM   24  C10 UNL     1      12.969  40.511  -9.737  1.00  0.00     0.008 C 
BRANCH  24  25
HETATM   25  C11 UNL     1      13.806  41.200  -8.719  1.00  0.00     0.075 C 
BRANCH  25  26
HETATM   26  C12 UNL     1      13.026  41.763  -7.597  1.00  0.00     0.070 C 
HETATM   27  N6  UNL     1      12.697  43.025  -7.533  1.00  0.00    -0.389 N 
ATOM     28  H62 UNL     1      12.992  43.590  -8.328  1.00  0.00     0.157 HD
ATOM     29  H61 UNL     1      12.159  43.413  -6.758  1.00  0.00     0.157 HD
BRANCH  26  30
HETATM   30  N7  UNL     1      12.618  40.979  -6.495  1.00  0.00    -0.380 N 
ATOM     31  H7  UNL     1      13.267  40.888  -5.713  1.00  0.00     0.160 HD
BRANCH  30  32
HETATM   32  C13 UNL     1      11.350  40.300  -6.395  1.00  0.00     0.121 C 
BRANCH  32  33
HETATM   33  C14 UNL     1      11.492  38.831  -6.778  1.00  0.00     0.020 C 
BRANCH  33  34
HETATM   34  C15 UNL     1      11.146  37.939  -5.601  1.00  0.00     0.002 C 
BRANCH  34  35
HETATM   35  C16 UNL     1      10.316  38.683  -4.589  1.00  0.00     0.003 C 
BRANCH  35  36
HETATM   36  C17 UNL     1       9.865  37.720  -3.508  1.00  0.00     0.034 C 
BRANCH  36  37
HETATM   37  C18 UNL     1       9.036  38.424  -2.458  1.00  0.00     0.149 C 
HETATM   38  C19 UNL     1       9.982  38.879  -1.350  1.00  0.00     0.203 C 
HETATM   39  O2  UNL     1      10.139  37.707  -0.647  1.00  0.00    -0.353 OA
HETATM   40  C20 UNL     1       8.937  37.005  -0.717  1.00  0.00     0.157 C 
HETATM   41  C21 UNL     1       9.239  35.555  -1.022  1.00  0.00     0.078 C 
HETATM   42  C22 UNL     1       8.197  37.097   0.594  1.00  0.00     0.078 C 
HETATM   43  O3  UNL     1       8.205  37.521  -1.786  1.00  0.00    -0.348 OA
ENDBRANCH  36  37
ENDBRANCH  35  36
ENDBRANCH  34  35
ENDBRANCH  33  34
ENDBRANCH  32  33
ENDBRANCH  30  32
ENDBRANCH  26  30
ENDBRANCH  25  26
ENDBRANCH  24  25
ENDBRANCH  23  24
ENDBRANCH   1  23
TORSDOF 15
ENDMDL
MODEL 2
REMARK VINA RESULT: -7.832932601      3.379      4.518
REMARK  15 active torsions:
REMARK  status: ('A' for Active; 'I' for Inactive)
REMARK    1  A    between atoms: C3_7  and  N3_8 
REMARK    2  A    between atoms: C5_15  and  C6_16 
REMARK       I    between atoms: C6_16  and  N5_18 
REMARK    3  A    between atoms: N5_18  and  C7_19 
REMARK    4  A    between atoms: C7_19  and  C8_20 
REMARK    5  A    between atoms: C8_20  and  C9_21 
REMARK    6  A    between atoms: C9_21  and  C10_22 
REMARK    7  A    between atoms: C10_22  and  C11_23 
REMARK    8  A    between atoms: C11_23  and  C12_24 
REMARK    9  A    between atoms: C12_24  and  N7_28 
REMARK   10  A    between atoms: N7_28  and  C13_30 
REMARK   11  A    between atoms: C13_30  and  C14_31 
REMARK   12  A    between atoms: C14_31  and  C15_32 
REMARK   13  A    between atoms: C15_32  and  C16_33 
REMARK   14  A    between atoms: C16_33  and  C17_34 
REMARK   15  A    between atoms: C17_34  and  C18_35 
ROOT
HETATM    1  C8  UNL     1      12.009  41.144  -8.828  1.00  0.00     0.060 C 
ENDROOT
BRANCH   1   2
HETATM    2  C7  UNL     1      12.986  40.801  -9.875  1.00  0.00     0.159 C 
BRANCH   2   3
HETATM    3  N5  UNL     1      13.450  39.490  -9.943  1.00  0.00    -0.383 NA
HETATM    4  C6  UNL     1      13.904  38.215 -10.000  1.00  0.00     0.332 C 
HETATM    5  O1  UNL     1      14.397  37.530  -9.069  1.00  0.00    -0.250 OA
BRANCH   4   6
HETATM    6  C5  UNL     1      13.829  37.515 -11.329  1.00  0.00     0.090 A 
HETATM    7  S1  UNL     1      13.286  35.936 -11.654  1.00  0.00    -0.064 SA
HETATM    8  C4  UNL     1      13.514  35.922 -13.355  1.00  0.00     0.105 A 
HETATM    9  N4  UNL     1      13.297  34.972 -14.319  1.00  0.00    -0.185 N 
HETATM   10  C24 UNL     1      14.010  37.168 -13.625  1.00  0.00     0.044 A 
HETATM   11  C3  UNL     1      13.572  35.233 -15.604  1.00  0.00     0.678 A 
ATOM     12  H4  UNL     1      12.924  34.059 -14.057  1.00  0.00     0.185 HD
HETATM   13  N2  UNL     1      14.050  36.432 -15.883  1.00  0.00    -0.176 N 
HETATM   14  C2  UNL     1      14.292  37.431 -14.981  1.00  0.00     0.129 A 
ATOM     15  H2  UNL     1      14.258  36.631 -16.862  1.00  0.00     0.186 HD
HETATM   16  N1  UNL     1      14.725  38.481 -15.490  1.00  0.00    -0.379 N 
HETATM   17  C1  UNL     1      15.109  39.725 -15.064  1.00  0.00     0.147 C 
ATOM     18  H1  UNL     1      14.819  38.390 -16.502  1.00  0.00     0.160 HD
HETATM   19  C23 UNL     1      14.170  37.987 -12.560  1.00  0.00     0.044 A 
BRANCH  11  20
HETATM   20  N3  UNL     1      13.377  34.359 -16.524  1.00  0.00    -0.234 N 
ATOM     21  H32 UNL     1      14.029  34.247 -17.300  1.00  0.00     0.174 HD
ATOM     22  H31 UNL     1      12.562  33.746 -16.510  1.00  0.00     0.174 HD
ENDBRANCH  11  20
ENDBRANCH   4   6
ENDBRANCH   2   3
ENDBRANCH   1   2
BRANCH   1  23
HETATM   23  C9  UNL     1      12.589  41.263  -7.456  1.00  0.00     0.006 C 
BRANCH  23  24
HETATM   24  C10 UNL     1      11.708  40.686  -6.403  1.00  0.00     0.008 C 
BRANCH  24  25
HETATM   25  C11 UNL     1      11.136  39.369  -6.787  1.00  0.00     0.075 C 
BRANCH  25  26
HETATM   26  C12 UNL     1      11.787  38.225  -6.116  1.00  0.00     0.070 C 
HETATM   27  N6  UNL     1      12.844  37.633  -6.603  1.00  0.00    -0.389 N 
ATOM     28  H62 UNL     1      13.207  38.036  -7.466  1.00  0.00     0.157 HD
ATOM     29  H61 UNL     1      13.294  36.843  -6.140  1.00  0.00     0.157 HD
BRANCH  26  30
HETATM   30  N7  UNL     1      11.284  37.666  -4.920  1.00  0.00    -0.380 N 
ATOM     31  H7  UNL     1      11.419  36.666  -4.772  1.00  0.00     0.160 HD
BRANCH  30  32
HETATM   32  C13 UNL     1      10.594  38.408  -3.894  1.00  0.00     0.121 C 
BRANCH  32  33
HETATM   33  C14 UNL     1       9.100  38.107  -3.921  1.00  0.00     0.020 C 
BRANCH  33  34
HETATM   34  C15 UNL     1       8.309  39.303  -3.428  1.00  0.00     0.002 C 
BRANCH  34  35
HETATM   35  C16 UNL     1       8.700  40.551  -4.174  1.00  0.00     0.003 C 
BRANCH  35  36
HETATM   36  C17 UNL     1       7.916  41.728  -3.626  1.00  0.00     0.034 C 
BRANCH  36  37
HETATM   37  C18 UNL     1       6.490  41.716  -4.126  1.00  0.00     0.149 C 
HETATM   38  C19 UNL     1       6.338  42.866  -5.119  1.00  0.00     0.203 C 
HETATM   39  O2  UNL     1       6.181  43.929  -4.260  1.00  0.00    -0.353 OA
HETATM   40  C20 UNL     1       5.492  43.472  -3.139  1.00  0.00     0.157 C 
HETATM   41  C21 UNL     1       6.168  44.012  -1.898  1.00  0.00     0.078 C 
HETATM   42  C22 UNL     1       4.059  43.944  -3.173  1.00  0.00     0.078 C 
HETATM   43  O3  UNL     1       5.600  42.082  -3.111  1.00  0.00    -0.348 OA
ENDBRANCH  36  37
ENDBRANCH  35  36
ENDBRANCH  34  35
ENDBRANCH  33  34
ENDBRANCH  32  33
ENDBRANCH  30  32
ENDBRANCH  26  30
ENDBRANCH  25  26
ENDBRANCH  24  25
ENDBRANCH  23  24
ENDBRANCH   1  23
TORSDOF 15
ENDMDL
MODEL 3
REMARK VINA RESULT: -7.832308517      2.175      3.407
REMARK  15 active torsions:
REMARK  status: ('A' for Active; 'I' for Inactive)
REMARK    1  A    between atoms: C3_7  and  N3_8 
REMARK    2  A    between atoms: C5_15  and  C6_16 
REMARK       I    between atoms: C6_16  and  N5_18 
REMARK    3  A    between atoms: N5_18  and  C7_19 
REMARK    4  A    between atoms: C7_19  and  C8_20 
REMARK    5  A    between atoms: C8_20  and  C9_21 
REMARK    6  A    between atoms: C9_21  and  C10_22 
REMARK    7  A    between atoms: C10_22  and  C11_23 
REMARK    8  A    between atoms: C11_23  and  C12_24 
REMARK    9  A    between atoms: C12_24  and  N7_28 
REMARK   10  A    between atoms: N7_28  and  C13_30 
REMARK   11  A    between atoms: C13_30  and  C14_31 
REMARK   12  A    between atoms: C14_31  and  C15_32 
REMARK   13  A    between atoms: C15_32  and  C16_33 
REMARK   14  A    between atoms: C16_33  and  C17_34 
REMARK   15  A    between atoms: C17_34  and  C18_35 
ROOT
HETATM    1  C8  UNL     1      17.005  42.513  -9.997  1.00  0.00     0.060 C 
ENDROOT
BRANCH   1   2
HETATM    2  C7  UNL     1      16.618  41.191 -10.520  1.00  0.00     0.159 C 
BRANCH   2   3
HETATM    3  N5  UNL     1      15.990  41.130 -11.761  1.00  0.00    -0.383 NA
HETATM    4  C6  UNL     1      15.379  41.079 -12.969  1.00  0.00     0.332 C 
HETATM    5  O1  UNL     1      15.125  42.034 -13.745  1.00  0.00    -0.250 OA
BRANCH   4   6
HETATM    6  C5  UNL     1      14.933  39.729 -13.460  1.00  0.00     0.090 A 
HETATM    7  S1  UNL     1      15.011  39.110 -15.043  1.00  0.00    -0.064 SA
HETATM    8  C4  UNL     1      14.328  37.562 -14.757  1.00  0.00     0.105 A 
HETATM    9  N4  UNL     1      14.061  36.493 -15.572  1.00  0.00    -0.185 N 
HETATM   10  C24 UNL     1      14.059  37.571 -13.416  1.00  0.00     0.044 A 
HETATM   11  C3  UNL     1      13.508  35.380 -15.073  1.00  0.00     0.678 A 
ATOM     12  H4  UNL     1      14.284  36.545 -16.566  1.00  0.00     0.185 HD
HETATM   13  N2  UNL     1      13.243  35.370 -13.779  1.00  0.00    -0.176 N 
HETATM   14  C2  UNL     1      13.479  36.392 -12.902  1.00  0.00     0.129 A 
ATOM     15  H2  UNL     1      12.823  34.521 -13.399  1.00  0.00     0.186 HD
HETATM   16  N1  UNL     1      13.162  36.136 -11.726  1.00  0.00    -0.379 N 
HETATM   17  C1  UNL     1      13.188  36.772 -10.513  1.00  0.00     0.147 C 
ATOM     18  H1  UNL     1      12.777  35.195 -11.643  1.00  0.00     0.160 HD
HETATM   19  C23 UNL     1      14.378  38.706 -12.753  1.00  0.00     0.044 A 
BRANCH  11  20
HETATM   20  N3  UNL     1      13.249  34.366 -15.817  1.00  0.00    -0.234 N 
ATOM     21  H32 UNL     1      12.946  33.477 -15.420  1.00  0.00     0.174 HD
ATOM     22  H31 UNL     1      13.336  34.415 -16.832  1.00  0.00     0.174 HD
ENDBRANCH  11  20
ENDBRANCH   4   6
ENDBRANCH   2   3
ENDBRANCH   1   2
BRANCH   1  23
HETATM   23  C9  UNL     1      15.962  43.172  -9.152  1.00  0.00     0.006 C 
BRANCH  23  24
HETATM   24  C10 UNL     1      14.948  42.214  -8.633  1.00  0.00     0.008 C 
BRANCH  24  25
HETATM   25  C11 UNL     1      14.259  42.707  -7.412  1.00  0.00     0.075 C 
BRANCH  25  26
HETATM   26  C12 UNL     1      12.903  42.149  -7.234  1.00  0.00     0.070 C 
HETATM   27  N6  UNL     1      11.849  42.664  -7.809  1.00  0.00    -0.389 N 
ATOM     28  H62 UNL     1      12.034  43.463  -8.415  1.00  0.00     0.157 HD
ATOM     29  H61 UNL     1      10.913  42.279  -7.686  1.00  0.00     0.157 HD
BRANCH  26  30
HETATM   30  N7  UNL     1      12.647  41.043  -6.394  1.00  0.00    -0.380 N 
ATOM     31  H7  UNL     1      13.395  40.738  -5.772  1.00  0.00     0.160 HD
BRANCH  30  32
HETATM   32  C13 UNL     1      11.404  40.312  -6.352  1.00  0.00     0.121 C 
BRANCH  32  33
HETATM   33  C14 UNL     1      11.623  38.850  -6.724  1.00  0.00     0.020 C 
BRANCH  33  34
HETATM   34  C15 UNL     1      11.225  37.945  -5.574  1.00  0.00     0.002 C 
BRANCH  34  35
HETATM   35  C16 UNL     1      10.415  38.698  -4.553  1.00  0.00     0.003 C 
BRANCH  35  36
HETATM   36  C17 UNL     1       9.618  37.712  -3.721  1.00  0.00     0.034 C 
BRANCH  36  37
HETATM   37  C18 UNL     1       8.868  38.411  -2.611  1.00  0.00     0.149 C 
HETATM   38  C19 UNL     1       9.899  38.941  -1.618  1.00  0.00     0.203 C 
HETATM   39  O2  UNL     1      10.180  37.800  -0.904  1.00  0.00    -0.353 OA
HETATM   40  C20 UNL     1       9.011  37.044  -0.832  1.00  0.00     0.157 C 
HETATM   41  C21 UNL     1       9.348  35.599  -1.128  1.00  0.00     0.078 C 
HETATM   42  C22 UNL     1       8.404  37.145   0.545  1.00  0.00     0.078 C 
HETATM   43  O3  UNL     1       8.152  37.494  -1.834  1.00  0.00    -0.348 OA
ENDBRANCH  36  37
ENDBRANCH  35  36
ENDBRANCH  34  35
ENDBRANCH  33  34
ENDBRANCH  32  33
ENDBRANCH  30  32
ENDBRANCH  26  30
ENDBRANCH  25  26
ENDBRANCH  24  25
ENDBRANCH  23  24
ENDBRANCH   1  23
TORSDOF 15
ENDMDL
MODEL 4
REMARK VINA RESULT: -7.829357418      4.392      6.778
REMARK  15 active torsions:
REMARK  status: ('A' for Active; 'I' for Inactive)
REMARK    1  A    between atoms: C3_7  and  N3_8 
REMARK    2  A    between atoms: C5_15  and  C6_16 
REMARK       I    between atoms: C6_16  and  N5_18 
REMARK    3  A    between atoms: N5_18  and  C7_19 
REMARK    4  A    between atoms: C7_19  and  C8_20 
REMARK    5  A    between atoms: C8_20  and  C9_21 
REMARK    6  A    between atoms: C9_21  and  C10_22 
REMARK    7  A    between atoms: C10_22  and  C11_23 
REMARK    8  A    between atoms: C11_23  and  C12_24 
REMARK    9  A    between atoms: C12_24  and  N7_28 
REMARK   10  A    between atoms: N7_28  and  C13_30 
REMARK   11  A    between atoms: C13_30  and  C14_31 
REMARK   12  A    between atoms: C14_31  and  C15_32 
REMARK   13  A    between atoms: C15_32  and  C16_33 
REMARK   14  A    between atoms: C16_33  and  C17_34 
REMARK   15  A    between atoms: C17_34  and  C18_35 
ROOT
HETATM    1  C8  UNL     1      14.820  38.970 -10.136  1.00  0.00     0.060 C 
ENDROOT
BRANCH   1   2
HETATM    2  C7  UNL     1      15.368  40.100 -10.905  1.00  0.00     0.159 C 
BRANCH   2   3
HETATM    3  N5  UNL     1      15.006  40.227 -12.243  1.00  0.00    -0.383 NA
HETATM    4  C6  UNL     1      14.653  40.359 -13.544  1.00  0.00     0.332 C 
HETATM    5  O1  UNL     1      14.513  41.421 -14.200  1.00  0.00    -0.250 OA
BRANCH   4   6
HETATM    6  C5  UNL     1      14.381  39.097 -14.317  1.00  0.00     0.090 A 
HETATM    7  S1  UNL     1      14.316  38.895 -16.005  1.00  0.00    -0.064 SA
HETATM    8  C4  UNL     1      13.973  37.214 -16.057  1.00  0.00     0.105 A 
HETATM    9  N4  UNL     1      13.774  36.332 -17.088  1.00  0.00    -0.185 N 
HETATM   10  C24 UNL     1      13.921  36.854 -14.739  1.00  0.00     0.044 A 
HETATM   11  C3  UNL     1      13.513  35.043 -16.837  1.00  0.00     0.678 A 
ATOM     12  H4  UNL     1      13.825  36.660 -18.052  1.00  0.00     0.185 HD
HETATM   13  N2  UNL     1      13.461  34.677 -15.570  1.00  0.00    -0.176 N 
HETATM   14  C2  UNL     1      13.648  35.493 -14.489  1.00  0.00     0.129 A 
ATOM     15  H2  UNL     1      13.264  33.694 -15.379  1.00  0.00     0.186 HD
HETATM   16  N1  UNL     1      13.571  34.910 -13.392  1.00  0.00    -0.379 N 
HETATM   17  C1  UNL     1      13.675  35.237 -12.066  1.00  0.00     0.147 C 
ATOM     18  H1  UNL     1      13.376  33.916 -13.515  1.00  0.00     0.160 HD
HETATM   19  C23 UNL     1      14.135  37.845 -13.843  1.00  0.00     0.044 A 
BRANCH  11  20
HETATM   20  N3  UNL     1      13.323  34.199 -17.786  1.00  0.00    -0.234 N 
ATOM     21  H32 UNL     1      12.596  34.339 -18.487  1.00  0.00     0.174 HD
ATOM     22  H31 UNL     1      13.895  33.359 -17.873  1.00  0.00     0.174 HD
ENDBRANCH  11  20
ENDBRANCH   4   6
ENDBRANCH   2   3
ENDBRANCH   1   2
BRANCH   1  23
HETATM   23  C9  UNL     1      13.398  38.636 -10.455  1.00  0.00     0.006 C 
BRANCH  23  24
HETATM   24  C10 UNL     1      12.804  37.663  -9.497  1.00  0.00     0.008 C 
BRANCH  24  25
HETATM   25  C11 UNL     1      13.347  37.804  -8.120  1.00  0.00     0.075 C 
BRANCH  25  26
HETATM   26  C12 UNL     1      12.328  38.188  -7.121  1.00  0.00     0.070 C 
HETATM   27  N6  UNL     1      12.235  37.611  -5.954  1.00  0.00    -0.389 N 
ATOM     28  H62 UNL     1      12.936  36.894  -5.768  1.00  0.00     0.157 HD
ATOM     29  H61 UNL     1      11.532  37.876  -5.264  1.00  0.00     0.157 HD
BRANCH  26  30
HETATM   30  N7  UNL     1      11.357  39.181  -7.379  1.00  0.00    -0.380 N 
ATOM     31  H7  UNL     1      10.630  38.967  -8.062  1.00  0.00     0.160 HD
BRANCH  30  32
HETATM   32  C13 UNL     1      11.318  40.476  -6.745  1.00  0.00     0.121 C 
BRANCH  32  33
HETATM   33  C14 UNL     1      11.103  41.577  -7.778  1.00  0.00     0.020 C 
BRANCH  33  34
HETATM   34  C15 UNL     1      12.257  41.616  -8.761  1.00  0.00     0.002 C 
BRANCH  34  35
HETATM   35  C16 UNL     1      13.555  41.901  -8.054  1.00  0.00     0.003 C 
BRANCH  35  36
HETATM   36  C17 UNL     1      14.244  43.072  -8.726  1.00  0.00     0.034 C 
BRANCH  36  37
HETATM   37  C18 UNL     1      14.828  44.023  -7.707  1.00  0.00     0.149 C 
HETATM   38  C19 UNL     1      14.893  45.407  -8.349  1.00  0.00     0.203 C 
HETATM   39  O2  UNL     1      16.036  45.288  -9.105  1.00  0.00    -0.353 OA
HETATM   40  C20 UNL     1      16.917  44.457  -8.415  1.00  0.00     0.157 C 
HETATM   41  C21 UNL     1      17.511  43.463  -9.389  1.00  0.00     0.078 C 
HETATM   42  C22 UNL     1      18.025  45.269  -7.791  1.00  0.00     0.078 C 
HETATM   43  O3  UNL     1      16.179  43.741  -7.474  1.00  0.00    -0.348 OA
ENDBRANCH  36  37
ENDBRANCH  35  36
ENDBRANCH  34  35
ENDBRANCH  33  34
ENDBRANCH  32  33
ENDBRANCH  30  32
ENDBRANCH  26  30
ENDBRANCH  25  26
ENDBRANCH  24  25
ENDBRANCH  23  24
ENDBRANCH   1  23
TORSDOF 15
ENDMDL
MODEL 5
REMARK VINA RESULT: -7.732388564      1.561      2.221
REMARK  15 active torsions:
REMARK  status: ('A' for Active; 'I' for Inactive)
REMARK    1  A    between atoms: C3_7  and  N3_8 
REMARK    2  A    between atoms: C5_15  and  C6_16 
REMARK       I    between atoms: C6_16  and  N5_18 
REMARK    3  A    between atoms: N5_18  and  C7_19 
REMARK    4  A    between atoms: C7_19  and  C8_20 
REMARK    5  A    between atoms: C8_20  and  C9_21 
REMARK    6  A    between atoms: C9_21  and  C10_22 
REMARK    7  A    between atoms: C10_22  and  C11_23 
REMARK    8  A    between atoms: C11_23  and  C12_24 
REMARK    9  A    between atoms: C12_24  and  N7_28 
REMARK   10  A    between atoms: N7_28  and  C13_30 
REMARK   11  A    between atoms: C13_30  and  C14_31 
REMARK   12  A    between atoms: C14_31  and  C15_32 
REMARK   13  A    between atoms: C15_32  and  C16_33 
REMARK   14  A    between atoms: C16_33  and  C17_34 
REMARK   15  A    between atoms: C17_34  and  C18_35 
ROOT
HETATM    1  C8  UNL     1      14.137  37.888  -9.274  1.00  0.00     0.060 C 
ENDROOT
BRANCH   1   2
HETATM    2  C7  UNL     1      12.961  37.195  -9.827  1.00  0.00     0.159 C 
BRANCH   2   3
HETATM    3  N5  UNL     1      13.138  36.378 -10.940  1.00  0.00    -0.383 NA
HETATM    4  C6  UNL     1      13.305  35.578 -12.020  1.00  0.00     0.332 C 
HETATM    5  O1  UNL     1      12.725  34.491 -12.270  1.00  0.00    -0.250 OA
BRANCH   4   6
HETATM    6  C5  UNL     1      14.305  36.014 -13.055  1.00  0.00     0.090 A 
HETATM    7  S1  UNL     1      15.692  36.974 -12.834  1.00  0.00    -0.064 SA
HETATM    8  C4  UNL     1      16.261  36.994 -14.453  1.00  0.00     0.105 A 
HETATM    9  N4  UNL     1      17.344  37.580 -15.056  1.00  0.00    -0.185 N 
HETATM   10  C24 UNL     1      15.342  36.238 -15.127  1.00  0.00     0.044 A 
HETATM   11  C3  UNL     1      17.552  37.432 -16.370  1.00  0.00     0.678 A 
ATOM     12  H4  UNL     1      17.996  38.133 -14.499  1.00  0.00     0.185 HD
HETATM   13  N2  UNL     1      16.676  36.703 -17.038  1.00  0.00    -0.176 N 
HETATM   14  C2  UNL     1      15.575  36.088 -16.510  1.00  0.00     0.129 A 
ATOM     15  H2  UNL     1      16.836  36.589 -18.039  1.00  0.00     0.186 HD
HETATM   16  N1  UNL     1      14.911  35.438 -17.339  1.00  0.00    -0.379 N 
HETATM   17  C1  UNL     1      13.777  34.669 -17.342  1.00  0.00     0.147 C 
ATOM     18  H1  UNL     1      15.324  35.494 -18.270  1.00  0.00     0.160 HD
HETATM   19  C23 UNL     1      14.328  35.735 -14.387  1.00  0.00     0.044 A 
BRANCH  11  20
HETATM   20  N3  UNL     1      18.559  37.971 -16.956  1.00  0.00    -0.234 N 
ATOM     21  H32 UNL     1      18.439  38.632 -17.723  1.00  0.00     0.174 HD
ATOM     22  H31 UNL     1      19.516  37.756 -16.674  1.00  0.00     0.174 HD
ENDBRANCH  11  20
ENDBRANCH   4   6
ENDBRANCH   2   3
ENDBRANCH   1   2
BRANCH   1  23
HETATM   23  C9  UNL     1      14.491  39.160  -9.974  1.00  0.00     0.006 C 
BRANCH  23  24
HETATM   24  C10 UNL     1      13.326  40.072 -10.142  1.00  0.00     0.008 C 
BRANCH  24  25
HETATM   25  C11 UNL     1      13.140  40.990  -8.987  1.00  0.00     0.075 C 
BRANCH  25  26
HETATM   26  C12 UNL     1      11.732  41.372  -8.758  1.00  0.00     0.070 C 
HETATM   27  N6  UNL     1      11.056  42.107  -9.600  1.00  0.00    -0.389 N 
ATOM     28  H62 UNL     1      11.562  42.374 -10.444  1.00  0.00     0.157 HD
ATOM     29  H61 UNL     1      10.084  42.371  -9.443  1.00  0.00     0.157 HD
BRANCH  26  30
HETATM   30  N7  UNL     1      11.030  41.002  -7.589  1.00  0.00    -0.380 N 
ATOM     31  H7  UNL     1      10.053  41.283  -7.515  1.00  0.00     0.160 HD
BRANCH  30  32
HETATM   32  C13 UNL     1      11.597  40.255  -6.493  1.00  0.00     0.121 C 
BRANCH  32  33
HETATM   33  C14 UNL     1      11.557  38.758  -6.782  1.00  0.00     0.020 C 
BRANCH  33  34
HETATM   34  C15 UNL     1      11.271  37.980  -5.512  1.00  0.00     0.002 C 
BRANCH  34  35
HETATM   35  C16 UNL     1      10.272  38.705  -4.651  1.00  0.00     0.003 C 
BRANCH  35  36
HETATM   36  C17 UNL     1       9.618  37.718  -3.704  1.00  0.00     0.034 C 
BRANCH  36  37
HETATM   37  C18 UNL     1       8.864  38.430  -2.604  1.00  0.00     0.149 C 
HETATM   38  C19 UNL     1       9.892  38.958  -1.606  1.00  0.00     0.203 C 
HETATM   39  O2  UNL     1      10.159  37.818  -0.883  1.00  0.00    -0.353 OA
HETATM   40  C20 UNL     1       8.984  37.072  -0.816  1.00  0.00     0.157 C 
HETATM   41  C21 UNL     1       9.311  35.623  -1.101  1.00  0.00     0.078 C 
HETATM   42  C22 UNL     1       8.367  37.185   0.556  1.00  0.00     0.078 C 
HETATM   43  O3  UNL     1       8.136  37.523  -1.827  1.00  0.00    -0.348 OA
ENDBRANCH  36  37
ENDBRANCH  35  36
ENDBRANCH  34  35
ENDBRANCH  33  34
ENDBRANCH  32  33
ENDBRANCH  30  32
ENDBRANCH  26  30
ENDBRANCH  25  26
ENDBRANCH  24  25
ENDBRANCH  23  24
ENDBRANCH   1  23
TORSDOF 15
ENDMDL
