MODEL 1
REMARK VINA RESULT: -8.523515765      0.000      0.000
REMARK  13 active torsions:
REMARK  status: ('A' for Active; 'I' for Inactive)
REMARK    1  A    between atoms: C5_5  and  O1_6 
REMARK    2  A    between atoms: C5_5  and  O2_8 
REMARK    3  A    between atoms: O2_8  and  C6_9 
REMARK    4  A    between atoms: C6_9  and  C7_10 
REMARK    5  A    between atoms: C8_12  and  O4_13 
REMARK    6  A    between atoms: O4_13  and  C9_14 
REMARK    7  A    between atoms: C9_14  and  C10_15 
REMARK    8  A    between atoms: C11_17  and  C12_18 
REMARK    9  A    between atoms: C12_18  and  O6_19 
REMARK   10  A    between atoms: C13_21  and  O7_22 
REMARK   11  A    between atoms: C14_24  and  O8_25 
REMARK   12  A    between atoms: C15_27  and  O9_28 
REMARK   13  A    between atoms: C21_35  and  O10_36 
ROOT
HETATM    1  C1  UNL     1       1.499 -35.127  -8.958  1.00  0.00     0.017 C 
HETATM    2  C2  UNL     1       0.883 -34.091  -9.041  1.00  0.00    -0.078 C 
HETATM    3  C3  UNL     1       0.138 -32.871  -9.141  1.00  0.00     0.048 C 
HETATM    4  C4  UNL     1       0.621 -31.627  -8.492  1.00  0.00     0.063 C 
HETATM    5  C5  UNL     1      -0.994 -32.825  -9.811  1.00  0.00     0.193 C 
ENDROOT
BRANCH   5   6
HETATM    6  O1  UNL     1      -1.751 -31.668  -9.935  1.00  0.00    -0.340 OA
ATOM      7  H1  UNL     1      -1.365 -30.807 -10.040  1.00  0.00     0.220 HD
ENDBRANCH   5   6
BRANCH   5   8
HETATM    8  O2  UNL     1      -1.519 -33.962 -10.453  1.00  0.00    -0.327 OA
BRANCH   8   9
HETATM    9  C6  UNL     1      -2.255 -33.804 -11.676  1.00  0.00     0.210 C 
BRANCH   9  10
HETATM   10  C7  UNL     1      -1.714 -34.788 -12.640  1.00  0.00     0.156 C 
HETATM   11  O3  UNL     1      -2.465 -35.909 -12.826  1.00  0.00    -0.353 OA
HETATM   12  C8  UNL     1      -1.877 -36.555 -13.987  1.00  0.00     0.268 C 
HETATM   13  C16 UNL     1      -1.093 -35.559 -14.675  1.00  0.00     0.078 C 
HETATM   14  C17 UNL     1      -1.014 -35.393 -16.105  1.00  0.00    -0.080 C 
HETATM   15  C22 UNL     1      -1.717 -34.256 -14.100  1.00  0.00     0.058 C 
HETATM   16  C18 UNL     1      -0.136 -36.017 -16.889  1.00  0.00     0.015 C 
HETATM   17  C19 UNL     1      -1.917 -34.437 -16.799  1.00  0.00     0.036 C 
HETATM   18  C20 UNL     1      -3.218 -34.362 -16.062  1.00  0.00     0.036 C 
HETATM   19  C21 UNL     1      -3.112 -34.169 -14.597  1.00  0.00     0.126 C 
BRANCH  12  20
HETATM   20  O4  UNL     1      -2.860 -37.284 -14.593  1.00  0.00    -0.358 OA
BRANCH  20  21
HETATM   21  C9  UNL     1      -3.810 -37.680 -13.671  1.00  0.00     0.205 C 
BRANCH  21  22
HETATM   22  C10 UNL     1      -5.192 -37.861 -14.158  1.00  0.00     0.177 C 
HETATM   23  O5  UNL     1      -5.211 -38.609 -15.380  1.00  0.00    -0.371 OA
HETATM   24  C11 UNL     1      -6.446 -38.370 -15.936  1.00  0.00     0.177 C 
HETATM   25  C13 UNL     1      -7.619 -38.461 -15.043  1.00  0.00     0.180 C 
HETATM   26  C14 UNL     1      -7.345 -38.958 -13.653  1.00  0.00     0.180 C 
HETATM   27  C15 UNL     1      -5.930 -38.860 -13.236  1.00  0.00     0.180 C 
BRANCH  24  28
HETATM   28  C12 UNL     1      -6.592 -39.296 -17.151  1.00  0.00     0.198 C 
BRANCH  28  29
HETATM   29  O6  UNL     1      -6.277 -38.584 -18.331  1.00  0.00    -0.398 OA
ATOM     30  H6  UNL     1      -7.008 -38.631 -18.936  1.00  0.00     0.209 HD
ENDBRANCH  28  29
ENDBRANCH  24  28
BRANCH  25  31
HETATM   31  O7  UNL     1      -8.285 -37.214 -14.975  1.00  0.00    -0.390 OA
ATOM     32  H7  UNL     1      -7.687 -36.535 -14.684  1.00  0.00     0.210 HD
ENDBRANCH  25  31
BRANCH  26  33
HETATM   33  O8  UNL     1      -8.141 -38.248 -12.766  1.00  0.00    -0.390 OA
ATOM     34  H8  UNL     1      -7.778 -37.375 -12.666  1.00  0.00     0.210 HD
ENDBRANCH  26  33
BRANCH  27  35
HETATM   35  O9  UNL     1      -5.653 -38.552 -11.944  1.00  0.00    -0.390 OA
ATOM     36  H9  UNL     1      -6.377 -38.835 -11.398  1.00  0.00     0.210 HD
ENDBRANCH  27  35
ENDBRANCH  21  22
ENDBRANCH  20  21
ENDBRANCH  12  20
BRANCH  19  37
HETATM   37  O10 UNL     1      -3.716 -32.948 -14.248  1.00  0.00    -0.395 OA
ATOM     38  H10 UNL     1      -4.566 -32.888 -14.669  1.00  0.00     0.210 HD
ENDBRANCH  19  37
ENDBRANCH   9  10
ENDBRANCH   8   9
ENDBRANCH   5   8
TORSDOF 13
ENDMDL
MODEL 2
REMARK VINA RESULT: -8.487770060      1.249      1.442
REMARK  13 active torsions:
REMARK  status: ('A' for Active; 'I' for Inactive)
REMARK    1  A    between atoms: C5_5  and  O1_6 
REMARK    2  A    between atoms: C5_5  and  O2_8 
REMARK    3  A    between atoms: O2_8  and  C6_9 
REMARK    4  A    between atoms: C6_9  and  C7_10 
REMARK    5  A    between atoms: C8_12  and  O4_13 
REMARK    6  A    between atoms: O4_13  and  C9_14 
REMARK    7  A    between atoms: C9_14  and  C10_15 
REMARK    8  A    between atoms: C11_17  and  C12_18 
REMARK    9  A    between atoms: C12_18  and  O6_19 
REMARK   10  A    between atoms: C13_21  and  O7_22 
REMARK   11  A    between atoms: C14_24  and  O8_25 
REMARK   12  A    between atoms: C15_27  and  O9_28 
REMARK   13  A    between atoms: C21_35  and  O10_36 
ROOT
HETATM    1  C1  UNL     1       1.040 -35.568  -9.329  1.00  0.00     0.017 C 
HETATM    2  C2  UNL     1       0.560 -34.460  -9.315  1.00  0.00    -0.078 C 
HETATM    3  C3  UNL     1      -0.025 -33.153  -9.298  1.00  0.00     0.048 C 
HETATM    4  C4  UNL     1       0.611 -32.041  -8.549  1.00  0.00     0.063 C 
HETATM    5  C5  UNL     1      -1.143 -32.905  -9.948  1.00  0.00     0.193 C 
ENDROOT
BRANCH   5   6
HETATM    6  O1  UNL     1      -1.749 -31.656  -9.961  1.00  0.00    -0.340 OA
ATOM      7  H1  UNL     1      -2.611 -31.503 -10.329  1.00  0.00     0.220 HD
ENDBRANCH   5   6
BRANCH   5   8
HETATM    8  O2  UNL     1      -1.808 -33.906 -10.680  1.00  0.00    -0.327 OA
BRANCH   8   9
HETATM    9  C6  UNL     1      -2.171 -33.656 -12.047  1.00  0.00     0.210 C 
BRANCH   9  10
HETATM   10  C7  UNL     1      -1.635 -34.776 -12.853  1.00  0.00     0.156 C 
HETATM   11  O3  UNL     1      -2.479 -35.829 -13.037  1.00  0.00    -0.353 OA
HETATM   12  C8  UNL     1      -1.836 -36.637 -14.059  1.00  0.00     0.268 C 
HETATM   13  C16 UNL     1      -0.874 -35.794 -14.725  1.00  0.00     0.078 C 
HETATM   14  C17 UNL     1      -0.613 -35.773 -16.142  1.00  0.00    -0.080 C 
HETATM   15  C22 UNL     1      -1.411 -34.386 -14.340  1.00  0.00     0.058 C 
HETATM   16  C18 UNL     1       0.276 -36.553 -16.757  1.00  0.00     0.015 C 
HETATM   17  C19 UNL     1      -1.318 -34.801 -17.019  1.00  0.00     0.036 C 
HETATM   18  C20 UNL     1      -2.679 -34.528 -16.458  1.00  0.00     0.036 C 
HETATM   19  C21 UNL     1      -2.721 -34.207 -15.013  1.00  0.00     0.126 C 
BRANCH  12  20
HETATM   20  O4  UNL     1      -2.818 -37.318 -14.722  1.00  0.00    -0.358 OA
BRANCH  20  21
HETATM   21  C9  UNL     1      -3.965 -37.386 -13.953  1.00  0.00     0.205 C 
BRANCH  21  22
HETATM   22  C10 UNL     1      -4.947 -38.435 -14.296  1.00  0.00     0.177 C 
HETATM   23  O5  UNL     1      -5.416 -38.278 -15.641  1.00  0.00    -0.371 OA
HETATM   24  C11 UNL     1      -6.575 -39.013 -15.713  1.00  0.00     0.177 C 
HETATM   25  C13 UNL     1      -6.550 -40.373 -15.136  1.00  0.00     0.180 C 
HETATM   26  C14 UNL     1      -5.209 -40.860 -14.671  1.00  0.00     0.180 C 
HETATM   27  C15 UNL     1      -4.216 -39.790 -14.438  1.00  0.00     0.180 C 
BRANCH  24  28
HETATM   28  C12 UNL     1      -7.018 -39.035 -17.182  1.00  0.00     0.198 C 
BRANCH  28  29
HETATM   29  O6  UNL     1      -6.090 -38.313 -17.968  1.00  0.00    -0.398 OA
ATOM     30  H6  UNL     1      -6.536 -37.925 -18.711  1.00  0.00     0.209 HD
ENDBRANCH  28  29
ENDBRANCH  24  28
BRANCH  25  31
HETATM   31  O7  UNL     1      -7.483 -40.476 -14.077  1.00  0.00    -0.390 OA
ATOM     32  H7  UNL     1      -7.300 -41.245 -13.549  1.00  0.00     0.210 HD
ENDBRANCH  25  31
BRANCH  26  33
HETATM   33  O8  UNL     1      -5.385 -41.591 -13.504  1.00  0.00    -0.390 OA
ATOM     34  H8  UNL     1      -5.777 -41.025 -12.849  1.00  0.00     0.210 HD
ENDBRANCH  26  33
BRANCH  27  35
HETATM   35  O9  UNL     1      -3.341 -39.927 -13.409  1.00  0.00    -0.390 OA
ATOM     36  H9  UNL     1      -3.104 -40.843 -13.327  1.00  0.00     0.210 HD
ENDBRANCH  27  35
ENDBRANCH  21  22
ENDBRANCH  20  21
ENDBRANCH  12  20
BRANCH  19  37
HETATM   37  O10 UNL     1      -3.223 -32.905 -14.843  1.00  0.00    -0.395 OA
ATOM     38  H10 UNL     1      -3.659 -32.846 -14.001  1.00  0.00     0.210 HD
ENDBRANCH  19  37
ENDBRANCH   9  10
ENDBRANCH   8   9
ENDBRANCH   5   8
TORSDOF 13
ENDMDL
MODEL 3
REMARK VINA RESULT: -8.203789319      1.142      2.531
REMARK  13 active torsions:
REMARK  status: ('A' for Active; 'I' for Inactive)
REMARK    1  A    between atoms: C5_5  and  O1_6 
REMARK    2  A    between atoms: C5_5  and  O2_8 
REMARK    3  A    between atoms: O2_8  and  C6_9 
REMARK    4  A    between atoms: C6_9  and  C7_10 
REMARK    5  A    between atoms: C8_12  and  O4_13 
REMARK    6  A    between atoms: O4_13  and  C9_14 
REMARK    7  A    between atoms: C9_14  and  C10_15 
REMARK    8  A    between atoms: C11_17  and  C12_18 
REMARK    9  A    between atoms: C12_18  and  O6_19 
REMARK   10  A    between atoms: C13_21  and  O7_22 
REMARK   11  A    between atoms: C14_24  and  O8_25 
REMARK   12  A    between atoms: C15_27  and  O9_28 
REMARK   13  A    between atoms: C21_35  and  O10_36 
ROOT
HETATM    1  C1  UNL     1       1.506 -35.110  -8.941  1.00  0.00     0.017 C 
HETATM    2  C2  UNL     1       0.889 -34.076  -9.030  1.00  0.00    -0.078 C 
HETATM    3  C3  UNL     1       0.141 -32.859  -9.136  1.00  0.00     0.048 C 
HETATM    4  C4  UNL     1       0.608 -31.616  -8.473  1.00  0.00     0.063 C 
HETATM    5  C5  UNL     1      -0.979 -32.813  -9.826  1.00  0.00     0.193 C 
ENDROOT
BRANCH   5   6
HETATM    6  O1  UNL     1      -1.738 -31.658  -9.958  1.00  0.00    -0.340 OA
ATOM      7  H1  UNL     1      -2.012 -31.312 -10.800  1.00  0.00     0.220 HD
ENDBRANCH   5   6
BRANCH   5   8
HETATM    8  O2  UNL     1      -1.489 -33.948 -10.483  1.00  0.00    -0.327 OA
BRANCH   8   9
HETATM    9  C6  UNL     1      -2.236 -33.784 -11.698  1.00  0.00     0.210 C 
BRANCH   9  10
HETATM   10  C7  UNL     1      -1.725 -34.784 -12.663  1.00  0.00     0.156 C 
HETATM   11  O3  UNL     1      -2.514 -35.877 -12.856  1.00  0.00    -0.353 OA
HETATM   12  C8  UNL     1      -1.943 -36.540 -14.016  1.00  0.00     0.268 C 
HETATM   13  C16 UNL     1      -1.121 -35.570 -14.697  1.00  0.00     0.078 C 
HETATM   14  C17 UNL     1      -1.029 -35.402 -16.126  1.00  0.00    -0.080 C 
HETATM   15  C22 UNL     1      -1.701 -34.247 -14.121  1.00  0.00     0.058 C 
HETATM   16  C18 UNL     1      -0.168 -36.054 -16.907  1.00  0.00     0.015 C 
HETATM   17  C19 UNL     1      -1.893 -34.412 -16.821  1.00  0.00     0.036 C 
HETATM   18  C20 UNL     1      -3.195 -34.294 -16.091  1.00  0.00     0.036 C 
HETATM   19  C21 UNL     1      -3.090 -34.109 -14.625  1.00  0.00     0.126 C 
BRANCH  12  20
HETATM   20  O4  UNL     1      -2.948 -37.231 -14.630  1.00  0.00    -0.358 OA
BRANCH  20  21
HETATM   21  C9  UNL     1      -3.075 -38.493 -14.081  1.00  0.00     0.205 C 
BRANCH  21  22
HETATM   22  C10 UNL     1      -4.384 -38.848 -13.497  1.00  0.00     0.177 C 
HETATM   23  O5  UNL     1      -4.544 -38.259 -12.201  1.00  0.00    -0.371 OA
HETATM   24  C11 UNL     1      -5.565 -38.960 -11.604  1.00  0.00     0.177 C 
HETATM   25  C13 UNL     1      -6.777 -39.209 -12.411  1.00  0.00     0.180 C 
HETATM   26  C14 UNL     1      -6.819 -38.532 -13.751  1.00  0.00     0.180 C 
HETATM   27  C15 UNL     1      -5.501 -38.095 -14.258  1.00  0.00     0.180 C 
BRANCH  24  28
HETATM   28  C12 UNL     1      -5.905 -38.249 -10.287  1.00  0.00     0.198 C 
BRANCH  28  29
HETATM   29  O6  UNL     1      -4.863 -37.354  -9.949  1.00  0.00    -0.398 OA
ATOM     30  H6  UNL     1      -5.071 -36.486 -10.273  1.00  0.00     0.209 HD
ENDBRANCH  28  29
ENDBRANCH  24  28
BRANCH  25  31
HETATM   31  O7  UNL     1      -6.980 -40.600 -12.579  1.00  0.00    -0.390 OA
ATOM     32  H7  UNL     1      -6.688 -40.875 -13.441  1.00  0.00     0.210 HD
ENDBRANCH  25  31
BRANCH  26  33
HETATM   33  O8  UNL     1      -7.404 -39.398 -14.664  1.00  0.00    -0.390 OA
ATOM     34  H8  UNL     1      -6.997 -39.262 -15.512  1.00  0.00     0.210 HD
ENDBRANCH  26  33
BRANCH  27  35
HETATM   35  O9  UNL     1      -5.257 -38.177 -15.590  1.00  0.00    -0.390 OA
ATOM     36  H9  UNL     1      -4.853 -37.368 -15.880  1.00  0.00     0.210 HD
ENDBRANCH  27  35
ENDBRANCH  21  22
ENDBRANCH  20  21
ENDBRANCH  12  20
BRANCH  19  37
HETATM   37  O10 UNL     1      -3.652 -32.869 -14.275  1.00  0.00    -0.395 OA
ATOM     38  H10 UNL     1      -3.300 -32.591 -13.438  1.00  0.00     0.210 HD
ENDBRANCH  19  37
ENDBRANCH   9  10
ENDBRANCH   8   9
ENDBRANCH   5   8
TORSDOF 13
ENDMDL
MODEL 4
REMARK VINA RESULT: -8.081987654      3.071      5.621
REMARK  13 active torsions:
REMARK  status: ('A' for Active; 'I' for Inactive)
REMARK    1  A    between atoms: C5_5  and  O1_6 
REMARK    2  A    between atoms: C5_5  and  O2_8 
REMARK    3  A    between atoms: O2_8  and  C6_9 
REMARK    4  A    between atoms: C6_9  and  C7_10 
REMARK    5  A    between atoms: C8_12  and  O4_13 
REMARK    6  A    between atoms: O4_13  and  C9_14 
REMARK    7  A    between atoms: C9_14  and  C10_15 
REMARK    8  A    between atoms: C11_17  and  C12_18 
REMARK    9  A    between atoms: C12_18  and  O6_19 
REMARK   10  A    between atoms: C13_21  and  O7_22 
REMARK   11  A    between atoms: C14_24  and  O8_25 
REMARK   12  A    between atoms: C15_27  and  O9_28 
REMARK   13  A    between atoms: C21_35  and  O10_36 
ROOT
HETATM    1  C1  UNL     1      -1.434 -29.795  -9.490  1.00  0.00     0.017 C 
HETATM    2  C2  UNL     1      -0.554 -30.379  -8.902  1.00  0.00    -0.078 C 
HETATM    3  C3  UNL     1       0.492 -31.081  -8.220  1.00  0.00     0.048 C 
HETATM    4  C4  UNL     1       1.403 -30.374  -7.286  1.00  0.00     0.063 C 
HETATM    5  C5  UNL     1       0.670 -32.372  -8.405  1.00  0.00     0.193 C 
ENDROOT
BRANCH   5   6
HETATM    6  O1  UNL     1       1.668 -33.096  -7.768  1.00  0.00    -0.340 OA
ATOM      7  H1  UNL     1       2.370 -33.532  -8.236  1.00  0.00     0.220 HD
ENDBRANCH   5   6
BRANCH   5   8
HETATM    8  O2  UNL     1      -0.151 -33.113  -9.275  1.00  0.00    -0.327 OA
BRANCH   8   9
HETATM    9  C6  UNL     1       0.221 -34.456  -9.623  1.00  0.00     0.210 C 
BRANCH   9  10
HETATM   10  C7  UNL     1      -0.914 -35.043 -10.370  1.00  0.00     0.156 C 
HETATM   11  O3  UNL     1      -0.589 -35.717 -11.508  1.00  0.00    -0.353 OA
HETATM   12  C8  UNL     1      -1.809 -36.410 -11.884  1.00  0.00     0.268 C 
HETATM   13  C16 UNL     1      -2.651 -36.453 -10.714  1.00  0.00     0.078 C 
HETATM   14  C17 UNL     1      -3.452 -37.575 -10.296  1.00  0.00    -0.080 C 
HETATM   15  C22 UNL     1      -1.600 -36.203  -9.595  1.00  0.00     0.058 C 
HETATM   16  C18 UNL     1      -4.707 -37.793 -10.688  1.00  0.00     0.015 C 
HETATM   17  C19 UNL     1      -2.911 -38.562  -9.325  1.00  0.00     0.036 C 
HETATM   18  C20 UNL     1      -1.428 -38.668  -9.503  1.00  0.00     0.036 C 
HETATM   19  C21 UNL     1      -0.698 -37.381  -9.556  1.00  0.00     0.126 C 
BRANCH  12  20
HETATM   20  O4  UNL     1      -1.448 -37.524 -12.587  1.00  0.00    -0.358 OA
BRANCH  20  21
HETATM   21  C9  UNL     1      -2.288 -37.708 -13.669  1.00  0.00     0.205 C 
BRANCH  21  22
HETATM   22  C10 UNL     1      -2.127 -36.789 -14.814  1.00  0.00     0.177 C 
HETATM   23  O5  UNL     1      -2.555 -35.465 -14.472  1.00  0.00    -0.371 OA
HETATM   24  C11 UNL     1      -2.746 -34.821 -15.672  1.00  0.00     0.177 C 
HETATM   25  C13 UNL     1      -1.692 -34.972 -16.696  1.00  0.00     0.180 C 
HETATM   26  C14 UNL     1      -0.450 -35.690 -16.254  1.00  0.00     0.180 C 
HETATM   27  C15 UNL     1      -0.621 -36.520 -15.042  1.00  0.00     0.180 C 
BRANCH  24  28
HETATM   28  C12 UNL     1      -3.022 -33.344 -15.364  1.00  0.00     0.198 C 
BRANCH  28  29
HETATM   29  O6  UNL     1      -3.807 -33.242 -14.192  1.00  0.00    -0.398 OA
ATOM     30  H6  UNL     1      -4.171 -32.367 -14.127  1.00  0.00     0.209 HD
ENDBRANCH  28  29
ENDBRANCH  24  28
BRANCH  25  31
HETATM   31  O7  UNL     1      -2.214 -35.601 -17.852  1.00  0.00    -0.390 OA
ATOM     32  H7  UNL     1      -2.173 -35.011 -18.596  1.00  0.00     0.210 HD
ENDBRANCH  25  31
BRANCH  26  33
HETATM   33  O8  UNL     1      -0.004 -36.485 -17.300  1.00  0.00    -0.390 OA
ATOM     34  H8  UNL     1       0.318 -37.304 -16.942  1.00  0.00     0.210 HD
ENDBRANCH  26  33
BRANCH  27  35
HETATM   35  O9  UNL     1       0.053 -37.694 -14.957  1.00  0.00    -0.390 OA
ATOM     36  H9  UNL     1       0.090 -37.963 -14.047  1.00  0.00     0.210 HD
ENDBRANCH  27  35
ENDBRANCH  21  22
ENDBRANCH  20  21
ENDBRANCH  12  20
BRANCH  19  37
HETATM   37  O10 UNL     1       0.201 -37.315  -8.477  1.00  0.00    -0.395 OA
ATOM     38  H10 UNL     1       0.690 -36.502  -8.528  1.00  0.00     0.210 HD
ENDBRANCH  19  37
ENDBRANCH   9  10
ENDBRANCH   8   9
ENDBRANCH   5   8
TORSDOF 13
ENDMDL
MODEL 5
REMARK VINA RESULT: -8.005511314      2.764      5.198
REMARK  13 active torsions:
REMARK  status: ('A' for Active; 'I' for Inactive)
REMARK    1  A    between atoms: C5_5  and  O1_6 
REMARK    2  A    between atoms: C5_5  and  O2_8 
REMARK    3  A    between atoms: O2_8  and  C6_9 
REMARK    4  A    between atoms: C6_9  and  C7_10 
REMARK    5  A    between atoms: C8_12  and  O4_13 
REMARK    6  A    between atoms: O4_13  and  C9_14 
REMARK    7  A    between atoms: C9_14  and  C10_15 
REMARK    8  A    between atoms: C11_17  and  C12_18 
REMARK    9  A    between atoms: C12_18  and  O6_19 
REMARK   10  A    between atoms: C13_21  and  O7_22 
REMARK   11  A    between atoms: C14_24  and  O8_25 
REMARK   12  A    between atoms: C15_27  and  O9_28 
REMARK   13  A    between atoms: C21_35  and  O10_36 
ROOT
HETATM    1  C1  UNL     1      -1.321 -29.853  -9.631  1.00  0.00     0.017 C 
HETATM    2  C2  UNL     1      -0.467 -30.359  -8.943  1.00  0.00    -0.078 C 
HETATM    3  C3  UNL     1       0.549 -30.971  -8.139  1.00  0.00     0.048 C 
HETATM    4  C4  UNL     1       1.354 -30.169  -7.185  1.00  0.00     0.063 C 
HETATM    5  C5  UNL     1       0.793 -32.262  -8.228  1.00  0.00     0.193 C 
ENDROOT
BRANCH   5   6
HETATM    6  O1  UNL     1       1.767 -32.900  -7.471  1.00  0.00    -0.340 OA
ATOM      7  H1  UNL     1       2.135 -32.524  -6.680  1.00  0.00     0.220 HD
ENDBRANCH   5   6
BRANCH   5   8
HETATM    8  O2  UNL     1       0.075 -33.090  -9.109  1.00  0.00    -0.327 OA
BRANCH   8   9
HETATM    9  C6  UNL     1       0.601 -34.383  -9.448  1.00  0.00     0.210 C 
BRANCH   9  10
HETATM   10  C7  UNL     1      -0.441 -35.085 -10.232  1.00  0.00     0.156 C 
HETATM   11  O3  UNL     1      -0.091 -35.434 -11.502  1.00  0.00    -0.353 OA
HETATM   12  C8  UNL     1      -1.150 -36.326 -11.940  1.00  0.00     0.268 C 
HETATM   13  C16 UNL     1      -1.830 -36.792 -10.757  1.00  0.00     0.078 C 
HETATM   14  C17 UNL     1      -2.301 -38.136 -10.532  1.00  0.00    -0.080 C 
HETATM   15  C22 UNL     1      -0.753 -36.501  -9.674  1.00  0.00     0.058 C 
HETATM   16  C18 UNL     1      -3.505 -38.582 -10.887  1.00  0.00     0.015 C 
HETATM   17  C19 UNL     1      -1.445 -39.119  -9.817  1.00  0.00     0.036 C 
HETATM   18  C20 UNL     1      -0.006 -38.820 -10.100  1.00  0.00     0.036 C 
HETATM   19  C21 UNL     1       0.396 -37.404  -9.930  1.00  0.00     0.126 C 
BRANCH  12  20
HETATM   20  O4  UNL     1      -0.618 -37.167 -12.877  1.00  0.00    -0.358 OA
BRANCH  20  21
HETATM   21  C9  UNL     1      -1.485 -37.316 -13.943  1.00  0.00     0.205 C 
BRANCH  21  22
HETATM   22  C10 UNL     1      -1.902 -36.089 -14.653  1.00  0.00     0.177 C 
HETATM   23  O5  UNL     1      -1.512 -36.136 -16.030  1.00  0.00    -0.371 OA
HETATM   24  C11 UNL     1      -1.575 -34.836 -16.473  1.00  0.00     0.177 C 
HETATM   25  C13 UNL     1      -2.776 -34.056 -16.113  1.00  0.00     0.180 C 
HETATM   26  C14 UNL     1      -3.872 -34.822 -15.431  1.00  0.00     0.180 C 
HETATM   27  C15 UNL     1      -3.439 -36.098 -14.822  1.00  0.00     0.180 C 
BRANCH  24  28
HETATM   28  C12 UNL     1      -1.350 -34.854 -17.990  1.00  0.00     0.198 C 
BRANCH  28  29
HETATM   29  O6  UNL     1      -2.517 -35.324 -18.637  1.00  0.00    -0.398 OA
ATOM     30  H6  UNL     1      -2.598 -34.911 -19.488  1.00  0.00     0.209 HD
ENDBRANCH  28  29
ENDBRANCH  24  28
BRANCH  25  31
HETATM   31  O7  UNL     1      -2.419 -32.938 -15.322  1.00  0.00    -0.390 OA
ATOM     32  H7  UNL     1      -3.185 -32.585 -14.883  1.00  0.00     0.210 HD
ENDBRANCH  25  31
BRANCH  26  33
HETATM   33  O8  UNL     1      -4.437 -34.011 -14.456  1.00  0.00    -0.390 OA
ATOM     34  H8  UNL     1      -5.057 -34.528 -13.955  1.00  0.00     0.210 HD
ENDBRANCH  26  33
BRANCH  27  35
HETATM   35  O9  UNL     1      -4.008 -36.486 -13.653  1.00  0.00    -0.390 OA
ATOM     36  H9  UNL     1      -4.783 -35.960 -13.498  1.00  0.00     0.210 HD
ENDBRANCH  27  35
ENDBRANCH  21  22
ENDBRANCH  20  21
ENDBRANCH  12  20
BRANCH  19  37
HETATM   37  O10 UNL     1       1.366 -37.318  -8.915  1.00  0.00    -0.395 OA
ATOM     38  H10 UNL     1       2.160 -37.750  -9.205  1.00  0.00     0.210 HD
ENDBRANCH  19  37
ENDBRANCH   9  10
ENDBRANCH   8   9
ENDBRANCH   5   8
TORSDOF 13
ENDMDL
