MODEL 1
REMARK VINA RESULT: -6.445522157      0.000      0.000
REMARK  13 active torsions:
REMARK  status: ('A' for Active; 'I' for Inactive)
REMARK    1  A    between atoms: O1_2  and  C2_3 
REMARK    2  A    between atoms: C2_3  and  C3_4 
REMARK    3  A    between atoms: C9_11  and  C10_12 
REMARK    4  A    between atoms: C12_14  and  O3_15 
REMARK    5  A    between atoms: C13_17  and  O4_18 
REMARK    6  A    between atoms: C15_21  and  C16_22 
REMARK    7  A    between atoms: C16_22  and  O5_23 
REMARK    8  A    between atoms: O5_23  and  C17_24 
REMARK    9  A    between atoms: C18_26  and  C19_27 
REMARK   10  A    between atoms: C19_27  and  O7_28 
REMARK   11  A    between atoms: C20_30  and  O8_31 
REMARK   12  A    between atoms: C21_33  and  O9_34 
REMARK   13  A    between atoms: C22_36  and  O10_37 
ROOT
HETATM    1  C10 UNL     1      -1.066 -36.641 -11.506  1.00  0.00     0.029 C 
HETATM    2  C11 UNL     1      -0.042 -37.012 -10.509  1.00  0.00     0.042 C 
HETATM    3  C12 UNL     1       0.595 -35.922  -9.729  1.00  0.00     0.147 C 
HETATM    4  C13 UNL     1      -0.236 -34.695  -9.526  1.00  0.00     0.147 C 
HETATM    5  C14 UNL     1      -1.143 -34.395 -10.679  1.00  0.00     0.041 C 
HETATM    6  C15 UNL     1      -2.029 -35.597 -10.929  1.00  0.00     0.019 C 
ENDROOT
BRANCH   6   7
HETATM    7  C16 UNL     1      -2.706 -36.081  -9.710  1.00  0.00     0.176 C 
BRANCH   7   8
HETATM    8  O5  UNL     1      -3.515 -37.141  -9.909  1.00  0.00    -0.358 OA
BRANCH   8   9
HETATM    9  C17 UNL     1      -3.568 -38.128  -8.950  1.00  0.00     0.291 C 
HETATM   10  O6  UNL     1      -3.116 -37.538  -7.758  1.00  0.00    -0.348 OA
HETATM   11  C18 UNL     1      -3.021 -38.408  -6.711  1.00  0.00     0.179 C 
HETATM   12  C20 UNL     1      -4.183 -39.378  -6.623  1.00  0.00     0.180 C 
HETATM   13  C21 UNL     1      -5.379 -38.924  -7.395  1.00  0.00     0.183 C 
HETATM   14  C22 UNL     1      -4.938 -38.676  -8.830  1.00  0.00     0.204 C 
BRANCH  11  15
HETATM   15  C19 UNL     1      -1.723 -39.134  -6.566  1.00  0.00     0.198 C 
BRANCH  15  16
HETATM   16  O7  UNL     1      -0.630 -38.568  -7.160  1.00  0.00    -0.398 OA
ATOM     17  H7  UNL     1       0.157 -38.497  -6.632  1.00  0.00     0.209 HD
ENDBRANCH  15  16
ENDBRANCH  11  15
BRANCH  12  18
HETATM   18  O8  UNL     1      -3.846 -40.667  -7.032  1.00  0.00    -0.390 OA
ATOM     19  H8  UNL     1      -4.571 -41.127  -7.437  1.00  0.00     0.210 HD
ENDBRANCH  12  18
BRANCH  13  20
HETATM   20  O9  UNL     1      -5.929 -37.765  -6.838  1.00  0.00    -0.390 OA
ATOM     21  H9  UNL     1      -6.688 -37.969  -6.305  1.00  0.00     0.210 HD
ENDBRANCH  13  20
BRANCH  14  22
HETATM   22  O10 UNL     1      -5.910 -37.771  -9.330  1.00  0.00    -0.388 OA
ATOM     23  H10 UNL     1      -6.453 -38.173  -9.997  1.00  0.00     0.210 HD
ENDBRANCH  14  22
ENDBRANCH   8   9
ENDBRANCH   7   8
ENDBRANCH   6   7
BRANCH   1  24
HETATM   24  C9  UNL     1      -0.564 -36.123 -12.820  1.00  0.00     0.192 A 
HETATM   25  C2  UNL     1      -1.282 -36.264 -14.078  1.00  0.00     0.194 A 
HETATM   26  O2  UNL     1      -0.275 -37.182 -13.720  1.00  0.00    -0.341 OA
BRANCH  25  27
HETATM   27  O1  UNL     1      -2.572 -36.774 -14.152  1.00  0.00    -0.357 OA
HETATM   28  C1  UNL     1      -2.604 -38.152 -14.237  1.00  0.00     0.205 C 
ENDBRANCH  25  27
BRANCH  25  29
HETATM   29  C3  UNL     1      -0.874 -35.387 -15.231  1.00  0.00     0.051 C 
HETATM   30  C4  UNL     1      -0.550 -36.158 -16.472  1.00  0.00     0.010 C 
HETATM   31  C5  UNL     1      -0.595 -35.303 -17.737  1.00  0.00     0.001 C 
HETATM   32  C6  UNL     1      -1.953 -34.712 -17.989  1.00  0.00     0.000 C 
HETATM   33  C7  UNL     1      -2.799 -34.866 -16.737  1.00  0.00     0.001 C 
HETATM   34  C8  UNL     1      -1.937 -34.362 -15.569  1.00  0.00     0.010 C 
ENDBRANCH  25  29
ENDBRANCH   1  24
BRANCH   4  35
HETATM   35  O4  UNL     1       0.654 -33.598  -9.408  1.00  0.00    -0.393 OA
ATOM     36  H4  UNL     1       0.146 -32.806  -9.540  1.00  0.00     0.210 HD
ENDBRANCH   4  35
BRANCH   3  37
HETATM   37  O3  UNL     1       0.924 -36.430  -8.463  1.00  0.00    -0.393 OA
ATOM     38  H3  UNL     1       1.708 -35.985  -8.162  1.00  0.00     0.210 HD
ENDBRANCH   3  37
TORSDOF 13
ENDMDL
MODEL 2
REMARK VINA RESULT: -6.095222171      3.014      6.200
REMARK  13 active torsions:
REMARK  status: ('A' for Active; 'I' for Inactive)
REMARK    1  A    between atoms: O1_2  and  C2_3 
REMARK    2  A    between atoms: C2_3  and  C3_4 
REMARK    3  A    between atoms: C9_11  and  C10_12 
REMARK    4  A    between atoms: C12_14  and  O3_15 
REMARK    5  A    between atoms: C13_17  and  O4_18 
REMARK    6  A    between atoms: C15_21  and  C16_22 
REMARK    7  A    between atoms: C16_22  and  O5_23 
REMARK    8  A    between atoms: O5_23  and  C17_24 
REMARK    9  A    between atoms: C18_26  and  C19_27 
REMARK   10  A    between atoms: C19_27  and  O7_28 
REMARK   11  A    between atoms: C20_30  and  O8_31 
REMARK   12  A    between atoms: C21_33  and  O9_34 
REMARK   13  A    between atoms: C22_36  and  O10_37 
ROOT
HETATM    1  C10 UNL     1      -2.797 -35.989 -14.270  1.00  0.00     0.029 C 
HETATM    2  C11 UNL     1      -1.649 -36.359 -15.122  1.00  0.00     0.042 C 
HETATM    3  C12 UNL     1      -1.574 -35.769 -16.481  1.00  0.00     0.147 C 
HETATM    4  C13 UNL     1      -2.229 -34.434 -16.650  1.00  0.00     0.147 C 
HETATM    5  C14 UNL     1      -3.446 -34.260 -15.795  1.00  0.00     0.041 C 
HETATM    6  C15 UNL     1      -3.062 -34.480 -14.347  1.00  0.00     0.019 C 
ENDROOT
BRANCH   6   7
HETATM    7  C16 UNL     1      -1.888 -33.689 -13.933  1.00  0.00     0.176 C 
BRANCH   7   8
HETATM    8  O5  UNL     1      -1.912 -33.295 -12.643  1.00  0.00    -0.358 OA
BRANCH   8   9
HETATM    9  C17 UNL     1      -1.670 -34.226 -11.658  1.00  0.00     0.291 C 
HETATM   10  O6  UNL     1      -0.474 -34.871 -12.016  1.00  0.00    -0.348 OA
HETATM   11  C18 UNL     1      -0.127 -35.895 -11.182  1.00  0.00     0.179 C 
HETATM   12  C20 UNL     1      -0.350 -35.584  -9.716  1.00  0.00     0.180 C 
HETATM   13  C21 UNL     1      -0.478 -34.120  -9.444  1.00  0.00     0.183 C 
HETATM   14  C22 UNL     1      -1.592 -33.579 -10.327  1.00  0.00     0.204 C 
BRANCH  11  15
HETATM   15  C19 UNL     1      -0.678 -37.242 -11.521  1.00  0.00     0.198 C 
BRANCH  15  16
HETATM   16  O7  UNL     1      -0.176 -38.307 -10.827  1.00  0.00    -0.398 OA
ATOM     17  H7  UNL     1      -0.627 -39.136 -10.928  1.00  0.00     0.209 HD
ENDBRANCH  15  16
ENDBRANCH  11  15
BRANCH  12  18
HETATM   18  O8  UNL     1      -1.461 -36.238  -9.186  1.00  0.00    -0.390 OA
ATOM     19  H8  UNL     1      -2.206 -36.239  -9.776  1.00  0.00     0.210 HD
ENDBRANCH  12  18
BRANCH  13  20
HETATM   20  O9  UNL     1       0.725 -33.454  -9.699  1.00  0.00    -0.390 OA
ATOM     21  H9  UNL     1       1.264 -33.942 -10.310  1.00  0.00     0.210 HD
ENDBRANCH  13  20
BRANCH  14  22
HETATM   22  O10 UNL     1      -1.298 -32.196 -10.434  1.00  0.00    -0.388 OA
ATOM     23  H10 UNL     1      -1.564 -31.720  -9.657  1.00  0.00     0.210 HD
ENDBRANCH  14  22
ENDBRANCH   8   9
ENDBRANCH   7   8
ENDBRANCH   6   7
BRANCH   1  24
HETATM   24  C9  UNL     1      -4.090 -36.695 -14.546  1.00  0.00     0.192 A 
HETATM   25  C2  UNL     1      -4.599 -37.801 -13.749  1.00  0.00     0.194 A 
HETATM   26  O2  UNL     1      -3.874 -38.043 -14.932  1.00  0.00    -0.341 OA
BRANCH  25  27
HETATM   27  O1  UNL     1      -3.994 -38.216 -12.568  1.00  0.00    -0.357 OA
HETATM   28  C1  UNL     1      -3.220 -39.348 -12.726  1.00  0.00     0.205 C 
ENDBRANCH  25  27
BRANCH  25  29
HETATM   29  C3  UNL     1      -6.053 -38.164 -13.884  1.00  0.00     0.051 C 
HETATM   30  C4  UNL     1      -6.295 -39.272 -14.860  1.00  0.00     0.010 C 
HETATM   31  C5  UNL     1      -7.649 -39.955 -14.668  1.00  0.00     0.001 C 
HETATM   32  C6  UNL     1      -7.790 -40.590 -13.314  1.00  0.00     0.000 C 
HETATM   33  C7  UNL     1      -6.677 -40.086 -12.412  1.00  0.00     0.001 C 
HETATM   34  C8  UNL     1      -6.666 -38.556 -12.555  1.00  0.00     0.010 C 
ENDBRANCH  25  29
ENDBRANCH   1  24
BRANCH   4  35
HETATM   35  O4  UNL     1      -2.657 -34.343 -17.998  1.00  0.00    -0.393 OA
ATOM     36  H4  UNL     1      -3.475 -34.822 -18.067  1.00  0.00     0.210 HD
ENDBRANCH   4  35
BRANCH   3  37
HETATM   37  O3  UNL     1      -0.218 -35.625 -16.817  1.00  0.00    -0.393 OA
ATOM     38  H3  UNL     1      -0.093 -34.749 -17.162  1.00  0.00     0.210 HD
ENDBRANCH   3  37
TORSDOF 13
ENDMDL
MODEL 3
REMARK VINA RESULT: -6.043625531      1.895      3.277
REMARK  13 active torsions:
REMARK  status: ('A' for Active; 'I' for Inactive)
REMARK    1  A    between atoms: O1_2  and  C2_3 
REMARK    2  A    between atoms: C2_3  and  C3_4 
REMARK    3  A    between atoms: C9_11  and  C10_12 
REMARK    4  A    between atoms: C12_14  and  O3_15 
REMARK    5  A    between atoms: C13_17  and  O4_18 
REMARK    6  A    between atoms: C15_21  and  C16_22 
REMARK    7  A    between atoms: C16_22  and  O5_23 
REMARK    8  A    between atoms: O5_23  and  C17_24 
REMARK    9  A    between atoms: C18_26  and  C19_27 
REMARK   10  A    between atoms: C19_27  and  O7_28 
REMARK   11  A    between atoms: C20_30  and  O8_31 
REMARK   12  A    between atoms: C21_33  and  O9_34 
REMARK   13  A    between atoms: C22_36  and  O10_37 
ROOT
HETATM    1  C10 UNL     1      -1.036 -36.137 -11.756  1.00  0.00     0.029 C 
HETATM    2  C11 UNL     1      -0.019 -36.159 -10.686  1.00  0.00     0.042 C 
HETATM    3  C12 UNL     1       0.213 -34.908  -9.922  1.00  0.00     0.147 C 
HETATM    4  C13 UNL     1      -0.955 -33.978  -9.824  1.00  0.00     0.147 C 
HETATM    5  C14 UNL     1      -1.828 -33.993 -11.040  1.00  0.00     0.041 C 
HETATM    6  C15 UNL     1      -2.301 -35.411 -11.283  1.00  0.00     0.019 C 
ENDROOT
BRANCH   6   7
HETATM    7  C16 UNL     1      -2.887 -36.040 -10.084  1.00  0.00     0.176 C 
BRANCH   7   8
HETATM    8  O5  UNL     1      -3.157 -37.354 -10.224  1.00  0.00    -0.358 OA
BRANCH   8   9
HETATM    9  C17 UNL     1      -4.319 -37.732 -10.860  1.00  0.00     0.291 C 
HETATM   10  O6  UNL     1      -3.922 -38.413 -12.023  1.00  0.00    -0.348 OA
HETATM   11  C18 UNL     1      -4.960 -38.787 -12.826  1.00  0.00     0.179 C 
HETATM   12  C20 UNL     1      -6.151 -39.330 -12.062  1.00  0.00     0.180 C 
HETATM   13  C21 UNL     1      -5.806 -39.753 -10.671  1.00  0.00     0.183 C 
HETATM   14  C22 UNL     1      -5.161 -38.566  -9.972  1.00  0.00     0.204 C 
BRANCH  11  15
HETATM   15  C19 UNL     1      -5.404 -37.789 -13.846  1.00  0.00     0.198 C 
BRANCH  15  16
HETATM   16  O7  UNL     1      -4.760 -37.810 -15.051  1.00  0.00    -0.398 OA
ATOM     17  H7  UNL     1      -4.366 -36.996 -15.342  1.00  0.00     0.209 HD
ENDBRANCH  15  16
ENDBRANCH  11  15
BRANCH  12  18
HETATM   18  O8  UNL     1      -7.216 -38.432 -12.009  1.00  0.00    -0.390 OA
ATOM     19  H8  UNL     1      -7.572 -38.229 -12.866  1.00  0.00     0.210 HD
ENDBRANCH  12  18
BRANCH  13  20
HETATM   20  O9  UNL     1      -4.944 -40.853 -10.678  1.00  0.00    -0.390 OA
ATOM     21  H9  UNL     1      -4.922 -41.277  -9.828  1.00  0.00     0.210 HD
ENDBRANCH  13  20
BRANCH  14  22
HETATM   22  O10 UNL     1      -4.398 -39.160  -8.933  1.00  0.00    -0.388 OA
ATOM     23  H10 UNL     1      -3.737 -38.565  -8.599  1.00  0.00     0.210 HD
ENDBRANCH  14  22
ENDBRANCH   8   9
ENDBRANCH   7   8
ENDBRANCH   6   7
BRANCH   1  24
HETATM   24  C9  UNL     1      -0.620 -35.529 -13.061  1.00  0.00     0.192 A 
HETATM   25  C2  UNL     1      -1.033 -36.034 -14.362  1.00  0.00     0.194 A 
HETATM   26  O2  UNL     1       0.205 -36.412 -13.806  1.00  0.00    -0.341 OA
BRANCH  25  27
HETATM   27  O1  UNL     1      -1.970 -37.050 -14.509  1.00  0.00    -0.357 OA
HETATM   28  C1  UNL     1      -1.420 -38.312 -14.396  1.00  0.00     0.205 C 
ENDBRANCH  25  27
BRANCH  25  29
HETATM   29  C3  UNL     1      -0.874 -35.134 -15.557  1.00  0.00     0.051 C 
HETATM   30  C4  UNL     1      -0.585 -35.879 -16.822  1.00  0.00     0.010 C 
HETATM   31  C5  UNL     1      -0.881 -35.063 -18.079  1.00  0.00     0.001 C 
HETATM   32  C6  UNL     1      -2.325 -34.664 -18.183  1.00  0.00     0.000 C 
HETATM   33  C7  UNL     1      -3.003 -34.904 -16.846  1.00  0.00     0.001 C 
HETATM   34  C8  UNL     1      -2.096 -34.267 -15.782  1.00  0.00     0.010 C 
ENDBRANCH  25  29
ENDBRANCH   1  24
BRANCH   4  35
HETATM   35  O4  UNL     1      -0.438 -32.663  -9.706  1.00  0.00    -0.393 OA
ATOM     36  H4  UNL     1       0.324 -32.709  -9.141  1.00  0.00     0.210 HD
ENDBRANCH   4  35
BRANCH   3  37
HETATM   37  O3  UNL     1       0.590 -35.260  -8.616  1.00  0.00    -0.393 OA
ATOM     38  H3  UNL     1       1.347 -34.738  -8.378  1.00  0.00     0.210 HD
ENDBRANCH   3  37
TORSDOF 13
ENDMDL
MODEL 4
REMARK VINA RESULT: -5.998135250      2.751      7.643
REMARK  13 active torsions:
REMARK  status: ('A' for Active; 'I' for Inactive)
REMARK    1  A    between atoms: O1_2  and  C2_3 
REMARK    2  A    between atoms: C2_3  and  C3_4 
REMARK    3  A    between atoms: C9_11  and  C10_12 
REMARK    4  A    between atoms: C12_14  and  O3_15 
REMARK    5  A    between atoms: C13_17  and  O4_18 
REMARK    6  A    between atoms: C15_21  and  C16_22 
REMARK    7  A    between atoms: C16_22  and  O5_23 
REMARK    8  A    between atoms: O5_23  and  C17_24 
REMARK    9  A    between atoms: C18_26  and  C19_27 
REMARK   10  A    between atoms: C19_27  and  O7_28 
REMARK   11  A    between atoms: C20_30  and  O8_31 
REMARK   12  A    between atoms: C21_33  and  O9_34 
REMARK   13  A    between atoms: C22_36  and  O10_37 
ROOT
HETATM    1  C10 UNL     1      -0.498 -37.994  -9.854  1.00  0.00     0.029 C 
HETATM    2  C11 UNL     1      -1.151 -39.183  -9.272  1.00  0.00     0.042 C 
HETATM    3  C12 UNL     1      -2.383 -38.977  -8.470  1.00  0.00     0.147 C 
HETATM    4  C13 UNL     1      -3.200 -37.775  -8.829  1.00  0.00     0.147 C 
HETATM    5  C14 UNL     1      -2.376 -36.616  -9.295  1.00  0.00     0.041 C 
HETATM    6  C15 UNL     1      -1.539 -37.057 -10.478  1.00  0.00     0.019 C 
ENDROOT
BRANCH   6   7
HETATM    7  C16 UNL     1      -2.329 -37.726 -11.529  1.00  0.00     0.176 C 
BRANCH   7   8
HETATM    8  O5  UNL     1      -2.063 -37.299 -12.780  1.00  0.00    -0.358 OA
BRANCH   8   9
HETATM    9  C17 UNL     1      -2.507 -36.054 -13.167  1.00  0.00     0.291 C 
HETATM   10  O6  UNL     1      -1.364 -35.338 -13.562  1.00  0.00    -0.348 OA
HETATM   11  C18 UNL     1      -1.615 -34.040 -13.899  1.00  0.00     0.179 C 
HETATM   12  C20 UNL     1      -2.878 -33.859 -14.717  1.00  0.00     0.180 C 
HETATM   13  C21 UNL     1      -3.345 -35.129 -15.352  1.00  0.00     0.183 C 
HETATM   14  C22 UNL     1      -3.511 -36.165 -14.250  1.00  0.00     0.204 C 
BRANCH  11  15
HETATM   15  C19 UNL     1      -1.566 -33.043 -12.786  1.00  0.00     0.198 C 
BRANCH  15  16
HETATM   16  O7  UNL     1      -1.297 -31.748 -13.129  1.00  0.00    -0.398 OA
ATOM     17  H7  UNL     1      -1.091 -31.150 -12.421  1.00  0.00     0.209 HD
ENDBRANCH  15  16
ENDBRANCH  11  15
BRANCH  12  18
HETATM   18  O8  UNL     1      -3.927 -33.311 -13.981  1.00  0.00    -0.390 OA
ATOM     19  H8  UNL     1      -4.654 -33.033 -14.525  1.00  0.00     0.210 HD
ENDBRANCH  12  18
BRANCH  13  20
HETATM   20  O9  UNL     1      -2.438 -35.573 -16.319  1.00  0.00    -0.390 OA
ATOM     21  H9  UNL     1      -1.644 -35.052 -16.308  1.00  0.00     0.210 HD
ENDBRANCH  13  20
BRANCH  14  22
HETATM   22  O10 UNL     1      -3.409 -37.404 -14.934  1.00  0.00    -0.388 OA
ATOM     23  H10 UNL     1      -3.922 -38.082 -14.510  1.00  0.00     0.210 HD
ENDBRANCH  14  22
ENDBRANCH   8   9
ENDBRANCH   7   8
ENDBRANCH   6   7
BRANCH   1  24
HETATM   24  C9  UNL     1       0.354 -37.179  -8.928  1.00  0.00     0.192 A 
HETATM   25  C2  UNL     1       1.735 -37.501  -8.598  1.00  0.00     0.194 A 
HETATM   26  O2  UNL     1       0.682 -37.902  -7.752  1.00  0.00    -0.341 OA
BRANCH  25  27
HETATM   27  O1  UNL     1       2.437 -38.524  -9.224  1.00  0.00    -0.357 OA
HETATM   28  C1  UNL     1       2.484 -39.684  -8.476  1.00  0.00     0.205 C 
ENDBRANCH  25  27
BRANCH  25  29
HETATM   29  C3  UNL     1       2.587 -36.425  -7.982  1.00  0.00     0.051 C 
HETATM   30  C4  UNL     1       2.768 -36.591  -6.506  1.00  0.00     0.010 C 
HETATM   31  C5  UNL     1       3.969 -35.820  -5.959  1.00  0.00     0.001 C 
HETATM   32  C6  UNL     1       5.269 -36.267  -6.564  1.00  0.00     0.000 C 
HETATM   33  C7  UNL     1       4.979 -37.126  -7.782  1.00  0.00     0.001 C 
HETATM   34  C8  UNL     1       3.956 -36.347  -8.626  1.00  0.00     0.010 C 
ENDBRANCH  25  29
ENDBRANCH   1  24
BRANCH   4  35
HETATM   35  O4  UNL     1      -3.869 -37.355  -7.652  1.00  0.00    -0.393 OA
ATOM     36  H4  UNL     1      -4.800 -37.345  -7.845  1.00  0.00     0.210 HD
ENDBRANCH   4  35
BRANCH   3  37
HETATM   37  O3  UNL     1      -3.197 -40.110  -8.627  1.00  0.00    -0.393 OA
ATOM     38  H3  UNL     1      -3.218 -40.574  -7.798  1.00  0.00     0.210 HD
ENDBRANCH   3  37
TORSDOF 13
ENDMDL
MODEL 5
REMARK VINA RESULT: -5.937718785      1.003      1.875
REMARK  13 active torsions:
REMARK  status: ('A' for Active; 'I' for Inactive)
REMARK    1  A    between atoms: O1_2  and  C2_3 
REMARK    2  A    between atoms: C2_3  and  C3_4 
REMARK    3  A    between atoms: C9_11  and  C10_12 
REMARK    4  A    between atoms: C12_14  and  O3_15 
REMARK    5  A    between atoms: C13_17  and  O4_18 
REMARK    6  A    between atoms: C15_21  and  C16_22 
REMARK    7  A    between atoms: C16_22  and  O5_23 
REMARK    8  A    between atoms: O5_23  and  C17_24 
REMARK    9  A    between atoms: C18_26  and  C19_27 
REMARK   10  A    between atoms: C19_27  and  O7_28 
REMARK   11  A    between atoms: C20_30  and  O8_31 
REMARK   12  A    between atoms: C21_33  and  O9_34 
REMARK   13  A    between atoms: C22_36  and  O10_37 
ROOT
HETATM    1  C10 UNL     1      -1.008 -36.497 -11.456  1.00  0.00     0.029 C 
HETATM    2  C11 UNL     1       0.038 -36.764 -10.449  1.00  0.00     0.042 C 
HETATM    3  C12 UNL     1       0.594 -35.608  -9.701  1.00  0.00     0.147 C 
HETATM    4  C13 UNL     1      -0.324 -34.438  -9.533  1.00  0.00     0.147 C 
HETATM    5  C14 UNL     1      -1.248 -34.239 -10.695  1.00  0.00     0.041 C 
HETATM    6  C15 UNL     1      -2.045 -35.508 -10.909  1.00  0.00     0.019 C 
ENDROOT
BRANCH   6   7
HETATM    7  C16 UNL     1      -2.687 -36.003  -9.677  1.00  0.00     0.176 C 
BRANCH   7   8
HETATM    8  O5  UNL     1      -3.249 -37.223  -9.796  1.00  0.00    -0.358 OA
BRANCH   8   9
HETATM    9  C17 UNL     1      -3.366 -38.015  -8.676  1.00  0.00     0.291 C 
HETATM   10  O6  UNL     1      -4.734 -38.309  -8.547  1.00  0.00    -0.348 OA
HETATM   11  C18 UNL     1      -5.043 -39.024  -7.426  1.00  0.00     0.179 C 
HETATM   12  C20 UNL     1      -4.052 -40.129  -7.120  1.00  0.00     0.180 C 
HETATM   13  C21 UNL     1      -3.211 -40.499  -8.299  1.00  0.00     0.183 C 
HETATM   14  C22 UNL     1      -2.531 -39.233  -8.800  1.00  0.00     0.204 C 
BRANCH  11  15
HETATM   15  C19 UNL     1      -5.339 -38.231  -6.194  1.00  0.00     0.198 C 
BRANCH  15  16
HETATM   16  O7  UNL     1      -6.181 -37.164  -6.334  1.00  0.00    -0.398 OA
ATOM     17  H7  UNL     1      -7.107 -37.328  -6.200  1.00  0.00     0.209 HD
ENDBRANCH  15  16
ENDBRANCH  11  15
BRANCH  12  18
HETATM   18  O8  UNL     1      -3.215 -39.825  -6.048  1.00  0.00    -0.390 OA
ATOM     19  H8  UNL     1      -2.422 -39.374  -6.314  1.00  0.00     0.210 HD
ENDBRANCH  12  18
BRANCH  13  20
HETATM   20  O9  UNL     1      -3.985 -41.079  -9.308  1.00  0.00    -0.390 OA
ATOM     21  H9  UNL     1      -4.410 -40.415  -9.839  1.00  0.00     0.210 HD
ENDBRANCH  13  20
BRANCH  14  22
HETATM   22  O10 UNL     1      -2.230 -39.525 -10.155  1.00  0.00    -0.388 OA
ATOM     23  H10 UNL     1      -1.369 -39.917 -10.246  1.00  0.00     0.210 HD
ENDBRANCH  14  22
ENDBRANCH   8   9
ENDBRANCH   7   8
ENDBRANCH   6   7
BRANCH   1  24
HETATM   24  C9  UNL     1      -0.542 -35.982 -12.784  1.00  0.00     0.192 A 
HETATM   25  C2  UNL     1      -1.261 -36.185 -14.034  1.00  0.00     0.194 A 
HETATM   26  O2  UNL     1      -0.207 -37.044 -13.664  1.00  0.00    -0.341 OA
BRANCH  25  27
HETATM   27  O1  UNL     1      -2.525 -36.761 -14.086  1.00  0.00    -0.357 OA
HETATM   28  C1  UNL     1      -2.488 -38.136 -14.202  1.00  0.00     0.205 C 
ENDBRANCH  25  27
BRANCH  25  29
HETATM   29  C3  UNL     1      -0.905 -35.314 -15.208  1.00  0.00     0.051 C 
HETATM   30  C4  UNL     1      -0.612 -36.093 -16.451  1.00  0.00     0.010 C 
HETATM   31  C5  UNL     1      -0.712 -35.251 -17.723  1.00  0.00     0.001 C 
HETATM   32  C6  UNL     1      -2.087 -34.683 -17.934  1.00  0.00     0.000 C 
HETATM   33  C7  UNL     1      -2.888 -34.837 -16.653  1.00  0.00     0.001 C 
HETATM   34  C8  UNL     1      -1.995 -34.309 -15.519  1.00  0.00     0.010 C 
ENDBRANCH  25  29
ENDBRANCH   1  24
BRANCH   4  35
HETATM   35  O4  UNL     1       0.485 -33.278  -9.448  1.00  0.00    -0.393 OA
ATOM     36  H4  UNL     1       1.209 -33.480  -8.867  1.00  0.00     0.210 HD
ENDBRANCH   4  35
BRANCH   3  37
HETATM   37  O3  UNL     1       0.956 -36.055  -8.420  1.00  0.00    -0.393 OA
ATOM     38  H3  UNL     1       0.158 -36.210  -7.927  1.00  0.00     0.210 HD
ENDBRANCH   3  37
TORSDOF 13
ENDMDL
