MODEL 1
REMARK VINA RESULT: -6.931632573      0.000      0.000
REMARK  12 active torsions:
REMARK  status: ('A' for Active; 'I' for Inactive)
REMARK    1  A    between atoms: C2_2  and  N1_4 
REMARK    2  A    between atoms: N1_4  and  C4_6 
REMARK    3  A    between atoms: C4_6  and  C5_7 
REMARK    4  A    between atoms: C6_9  and  O2_10 
REMARK    5  A    between atoms: O2_10  and  C7_11 
REMARK    6  A    between atoms: C10_14  and  N2_15 
REMARK    7  A    between atoms: C11_19  and  O3_20 
REMARK    8  A    between atoms: O3_20  and  C12_21 
REMARK    9  A    between atoms: C13_22  and  N3_23 
REMARK   10  A    between atoms: C19_33  and  O5_34 
REMARK   11  A    between atoms: C21_37  and  O6_38 
REMARK   12  A    between atoms: C22_40  and  O7_41 
ROOT
HETATM    1  C7  UNL     1      -1.687 -35.178 -14.239  1.00  0.00     0.155 C 
HETATM    2  C8  UNL     1      -1.359 -35.221 -15.721  1.00  0.00     0.037 C 
HETATM    3  C9  UNL     1      -2.524 -34.512 -16.348  1.00  0.00     0.038 C 
HETATM    4  C10 UNL     1      -3.551 -34.269 -15.261  1.00  0.00     0.215 C 
HETATM    5  C11 UNL     1      -3.163 -35.384 -14.267  1.00  0.00     0.181 C 
ENDROOT
BRANCH   1   6
HETATM    6  O2  UNL     1      -0.975 -36.073 -13.501  1.00  0.00    -0.353 OA
BRANCH   6   7
HETATM    7  C6  UNL     1      -1.424 -36.113 -12.170  1.00  0.00     0.263 C 
HETATM    8  O1  UNL     1      -1.909 -34.887 -11.886  1.00  0.00    -0.348 OA
HETATM    9  C5  UNL     1      -2.094 -34.530 -10.561  1.00  0.00     0.193 C 
HETATM   10  C22 UNL     1      -2.003 -35.673  -9.611  1.00  0.00     0.181 C 
HETATM   11  C21 UNL     1      -0.939 -36.674  -9.860  1.00  0.00     0.154 C 
HETATM   12  C20 UNL     1      -0.320 -36.520 -11.233  1.00  0.00     0.095 C 
BRANCH   9  13
HETATM   13  C4  UNL     1      -1.136 -33.405 -10.278  1.00  0.00     0.090 C 
BRANCH  13  14
HETATM   14  N1  UNL     1      -1.625 -32.100 -10.191  1.00  0.00    -0.396 N 
ATOM     15  H1  UNL     1      -2.573 -31.904 -10.515  1.00  0.00     0.159 HD
BRANCH  14  16
HETATM   16  C2  UNL     1      -0.850 -31.044  -9.669  1.00  0.00     0.072 C 
HETATM   17  C1  UNL     1      -1.531 -29.913  -8.984  1.00  0.00     0.031 C 
HETATM   18  C3  UNL     1       0.198 -31.579  -8.674  1.00  0.00     0.031 C 
ENDBRANCH  14  16
ENDBRANCH  13  14
ENDBRANCH   9  13
BRANCH  10  19
HETATM   19  O7  UNL     1      -3.281 -36.263  -9.483  1.00  0.00    -0.390 OA
ATOM     20  H7  UNL     1      -3.181 -37.136  -9.124  1.00  0.00     0.210 HD
ENDBRANCH  10  19
BRANCH  11  21
HETATM   21  O6  UNL     1      -1.555 -37.949  -9.828  1.00  0.00    -0.393 OA
ATOM     22  H6  UNL     1      -2.478 -37.805  -9.652  1.00  0.00     0.210 HD
ENDBRANCH  11  21
ENDBRANCH   6   7
ENDBRANCH   1   6
BRANCH   5  23
HETATM   23  O3  UNL     1      -3.466 -36.569 -14.956  1.00  0.00    -0.371 OA
BRANCH  23  24
HETATM   24  C12 UNL     1      -3.986 -37.556 -14.119  1.00  0.00     0.181 C 
HETATM   25  C13 UNL     1      -5.428 -37.852 -14.569  1.00  0.00     0.217 C 
HETATM   26  C14 UNL     1      -6.215 -38.506 -13.444  1.00  0.00     0.070 C 
HETATM   27  C15 UNL     1      -5.437 -39.681 -12.996  1.00  0.00     0.153 A 
HETATM   28  O4  UNL     1      -5.307 -40.110 -11.704  1.00  0.00    -0.375 OA
HETATM   29  C16 UNL     1      -4.394 -39.152 -12.013  1.00  0.00     0.157 A 
HETATM   30  C17 UNL     1      -3.072 -39.374 -12.651  1.00  0.00     0.044 C 
HETATM   31  C18 UNL     1      -2.791 -40.853 -12.751  1.00  0.00     0.015 C 
HETATM   32  C19 UNL     1      -3.179 -38.818 -14.081  1.00  0.00     0.155 C 
BRANCH  25  33
HETATM   33  N3  UNL     1      -5.349 -38.814 -15.674  1.00  0.00    -0.072 N 
ATOM     34  H33 UNL     1      -5.765 -38.465 -16.537  1.00  0.00     0.274 HD
ATOM     35  H32 UNL     1      -4.401 -38.940 -16.027  1.00  0.00     0.274 HD
ATOM     36  H31 UNL     1      -5.773 -39.683 -15.348  1.00  0.00     0.274 HD
ENDBRANCH  25  33
BRANCH  32  37
HETATM   37  O5  UNL     1      -1.916 -38.588 -14.621  1.00  0.00    -0.392 OA
ATOM     38  H5  UNL     1      -2.000 -38.231 -15.497  1.00  0.00     0.210 HD
ENDBRANCH  32  37
ENDBRANCH  23  24
ENDBRANCH   5  23
BRANCH   4  39
HETATM   39  N2  UNL     1      -3.366 -32.987 -14.610  1.00  0.00    -0.072 N 
ATOM     40  H23 UNL     1      -3.449 -32.219 -15.276  1.00  0.00     0.274 HD
ATOM     41  H22 UNL     1      -4.156 -32.762 -14.005  1.00  0.00     0.274 HD
ATOM     42  H21 UNL     1      -2.484 -32.939 -14.099  1.00  0.00     0.274 HD
ENDBRANCH   4  39
TORSDOF 12
ENDMDL
MODEL 2
REMARK VINA RESULT: -6.902332404      3.104      6.494
REMARK  12 active torsions:
REMARK  status: ('A' for Active; 'I' for Inactive)
REMARK    1  A    between atoms: C2_2  and  N1_4 
REMARK    2  A    between atoms: N1_4  and  C4_6 
REMARK    3  A    between atoms: C4_6  and  C5_7 
REMARK    4  A    between atoms: C6_9  and  O2_10 
REMARK    5  A    between atoms: O2_10  and  C7_11 
REMARK    6  A    between atoms: C10_14  and  N2_15 
REMARK    7  A    between atoms: C11_19  and  O3_20 
REMARK    8  A    between atoms: O3_20  and  C12_21 
REMARK    9  A    between atoms: C13_22  and  N3_23 
REMARK   10  A    between atoms: C19_33  and  O5_34 
REMARK   11  A    between atoms: C21_37  and  O6_38 
REMARK   12  A    between atoms: C22_40  and  O7_41 
ROOT
HETATM    1  C7  UNL     1      -1.686 -37.667 -11.160  1.00  0.00     0.155 C 
HETATM    2  C8  UNL     1      -0.313 -37.396 -10.572  1.00  0.00     0.037 C 
HETATM    3  C9  UNL     1      -0.592 -36.369  -9.514  1.00  0.00     0.038 C 
HETATM    4  C10 UNL     1      -2.040 -35.946  -9.657  1.00  0.00     0.215 C 
HETATM    5  C11 UNL     1      -2.280 -36.299 -11.140  1.00  0.00     0.181 C 
ENDROOT
BRANCH   1   6
HETATM    6  O2  UNL     1      -1.644 -38.279 -12.375  1.00  0.00    -0.353 OA
BRANCH   6   7
HETATM    7  C6  UNL     1      -0.679 -39.300 -12.403  1.00  0.00     0.263 C 
HETATM    8  O1  UNL     1       0.397 -38.799 -13.044  1.00  0.00    -0.348 OA
HETATM    9  C5  UNL     1       1.357 -39.673 -13.526  1.00  0.00     0.193 C 
HETATM   10  C22 UNL     1       1.218 -41.063 -13.012  1.00  0.00     0.181 C 
HETATM   11  C21 UNL     1      -0.156 -41.612 -12.917  1.00  0.00     0.154 C 
HETATM   12  C20 UNL     1      -1.211 -40.538 -13.069  1.00  0.00     0.095 C 
BRANCH   9  13
HETATM   13  C4  UNL     1       1.335 -39.556 -15.025  1.00  0.00     0.090 C 
BRANCH  13  14
HETATM   14  N1  UNL     1       1.138 -38.302 -15.609  1.00  0.00    -0.396 N 
ATOM     15  H1  UNL     1       0.201 -37.899 -15.610  1.00  0.00     0.159 HD
BRANCH  14  16
HETATM   16  C2  UNL     1       2.194 -37.576 -16.196  1.00  0.00     0.072 C 
HETATM   17  C1  UNL     1       3.593 -37.866 -15.781  1.00  0.00     0.031 C 
HETATM   18  C3  UNL     1       2.164 -37.718 -17.729  1.00  0.00     0.031 C 
ENDBRANCH  14  16
ENDBRANCH  13  14
ENDBRANCH   9  13
BRANCH  10  19
HETATM   19  O7  UNL     1       1.930 -41.175 -11.797  1.00  0.00    -0.390 OA
ATOM     20  H7  UNL     1       1.491 -41.807 -11.241  1.00  0.00     0.210 HD
ENDBRANCH  10  19
BRANCH  11  21
HETATM   21  O6  UNL     1      -0.298 -42.146 -11.612  1.00  0.00    -0.393 OA
ATOM     22  H6  UNL     1       0.353 -42.832 -11.523  1.00  0.00     0.210 HD
ENDBRANCH  11  21
ENDBRANCH   6   7
ENDBRANCH   1   6
BRANCH   5  23
HETATM   23  O3  UNL     1      -1.449 -35.408 -11.837  1.00  0.00    -0.371 OA
BRANCH  23  24
HETATM   24  C12 UNL     1      -1.959 -35.072 -13.092  1.00  0.00     0.181 C 
HETATM   25  C13 UNL     1      -2.454 -33.616 -13.030  1.00  0.00     0.217 C 
HETATM   26  C14 UNL     1      -3.454 -33.345 -14.143  1.00  0.00     0.070 C 
HETATM   27  C15 UNL     1      -2.809 -33.743 -15.413  1.00  0.00     0.153 A 
HETATM   28  O4  UNL     1      -3.429 -34.350 -16.470  1.00  0.00    -0.375 OA
HETATM   29  C16 UNL     1      -3.014 -35.251 -15.541  1.00  0.00     0.157 A 
HETATM   30  C17 UNL     1      -1.665 -35.862 -15.454  1.00  0.00     0.044 C 
HETATM   31  C18 UNL     1      -0.849 -35.482 -16.665  1.00  0.00     0.015 C 
HETATM   32  C19 UNL     1      -0.987 -35.249 -14.218  1.00  0.00     0.155 C 
BRANCH  25  33
HETATM   33  N3  UNL     1      -1.289 -32.752 -13.259  1.00  0.00    -0.072 N 
ATOM     34  H33 UNL     1      -0.603 -32.800 -12.506  1.00  0.00     0.274 HD
ATOM     35  H32 UNL     1      -0.685 -33.087 -14.009  1.00  0.00     0.274 HD
ATOM     36  H31 UNL     1      -1.642 -31.808 -13.420  1.00  0.00     0.274 HD
ENDBRANCH  25  33
BRANCH  32  37
HETATM   37  O5  UNL     1       0.086 -36.033 -13.798  1.00  0.00    -0.392 OA
ATOM     38  H5  UNL     1       0.315 -35.814 -12.903  1.00  0.00     0.210 HD
ENDBRANCH  32  37
ENDBRANCH  23  24
ENDBRANCH   5  23
BRANCH   4  39
HETATM   39  N2  UNL     1      -2.928 -36.751  -8.842  1.00  0.00    -0.072 N 
ATOM     40  H23 UNL     1      -3.905 -36.525  -9.028  1.00  0.00     0.274 HD
ATOM     41  H22 UNL     1      -2.928 -37.725  -9.146  1.00  0.00     0.274 HD
ATOM     42  H21 UNL     1      -2.714 -36.674  -7.848  1.00  0.00     0.274 HD
ENDBRANCH   4  39
TORSDOF 12
ENDMDL
MODEL 3
REMARK VINA RESULT: -6.706839188      2.400      6.706
REMARK  12 active torsions:
REMARK  status: ('A' for Active; 'I' for Inactive)
REMARK    1  A    between atoms: C2_2  and  N1_4 
REMARK    2  A    between atoms: N1_4  and  C4_6 
REMARK    3  A    between atoms: C4_6  and  C5_7 
REMARK    4  A    between atoms: C6_9  and  O2_10 
REMARK    5  A    between atoms: O2_10  and  C7_11 
REMARK    6  A    between atoms: C10_14  and  N2_15 
REMARK    7  A    between atoms: C11_19  and  O3_20 
REMARK    8  A    between atoms: O3_20  and  C12_21 
REMARK    9  A    between atoms: C13_22  and  N3_23 
REMARK   10  A    between atoms: C19_33  and  O5_34 
REMARK   11  A    between atoms: C21_37  and  O6_38 
REMARK   12  A    between atoms: C22_40  and  O7_41 
ROOT
HETATM    1  C7  UNL     1      -1.722 -37.505 -11.228  1.00  0.00     0.155 C 
HETATM    2  C8  UNL     1      -0.317 -37.277 -10.700  1.00  0.00     0.037 C 
HETATM    3  C9  UNL     1      -0.521 -36.258  -9.618  1.00  0.00     0.038 C 
HETATM    4  C10 UNL     1      -1.961 -35.796  -9.689  1.00  0.00     0.215 C 
HETATM    5  C11 UNL     1      -2.279 -36.123 -11.163  1.00  0.00     0.181 C 
ENDROOT
BRANCH   1   6
HETATM    6  O2  UNL     1      -1.751 -38.102 -12.451  1.00  0.00    -0.353 OA
BRANCH   6   7
HETATM    7  C6  UNL     1      -3.063 -38.431 -12.831  1.00  0.00     0.263 C 
HETATM    8  O1  UNL     1      -3.552 -39.244 -11.873  1.00  0.00    -0.348 OA
HETATM    9  C5  UNL     1      -4.679 -40.001 -12.146  1.00  0.00     0.193 C 
HETATM   10  C22 UNL     1      -5.389 -39.595 -13.390  1.00  0.00     0.181 C 
HETATM   11  C21 UNL     1      -4.550 -39.250 -14.563  1.00  0.00     0.154 C 
HETATM   12  C20 UNL     1      -3.094 -39.072 -14.191  1.00  0.00     0.095 C 
BRANCH   9  13
HETATM   13  C4  UNL     1      -4.252 -41.442 -12.113  1.00  0.00     0.090 C 
BRANCH  13  14
HETATM   14  N1  UNL     1      -3.019 -41.775 -11.548  1.00  0.00    -0.396 N 
ATOM     15  H1  UNL     1      -2.865 -41.596 -10.556  1.00  0.00     0.159 HD
BRANCH  14  16
HETATM   16  C2  UNL     1      -1.980 -42.350 -12.307  1.00  0.00     0.072 C 
HETATM   17  C1  UNL     1      -2.218 -42.667 -13.741  1.00  0.00     0.031 C 
HETATM   18  C3  UNL     1      -0.722 -41.462 -12.268  1.00  0.00     0.031 C 
ENDBRANCH  14  16
ENDBRANCH  13  14
ENDBRANCH   9  13
BRANCH  10  19
HETATM   19  O7  UNL     1      -6.320 -38.580 -13.075  1.00  0.00    -0.390 OA
ATOM     20  H7  UNL     1      -6.901 -38.456 -13.816  1.00  0.00     0.210 HD
ENDBRANCH  10  19
BRANCH  11  21
HETATM   21  O6  UNL     1      -5.008 -37.999 -15.045  1.00  0.00    -0.393 OA
ATOM     22  H6  UNL     1      -4.780 -37.959 -15.966  1.00  0.00     0.210 HD
ENDBRANCH  11  21
ENDBRANCH   6   7
ENDBRANCH   1   6
BRANCH   5  23
HETATM   23  O3  UNL     1      -1.457 -35.244 -11.887  1.00  0.00    -0.371 OA
BRANCH  23  24
HETATM   24  C12 UNL     1      -1.968 -34.955 -13.152  1.00  0.00     0.181 C 
HETATM   25  C13 UNL     1      -2.494 -33.509 -13.135  1.00  0.00     0.217 C 
HETATM   26  C14 UNL     1      -3.495 -33.291 -14.259  1.00  0.00     0.070 C 
HETATM   27  C15 UNL     1      -2.835 -33.712 -15.515  1.00  0.00     0.153 A 
HETATM   28  O4  UNL     1      -3.437 -34.362 -16.557  1.00  0.00    -0.375 OA
HETATM   29  C16 UNL     1      -3.008 -35.227 -15.601  1.00  0.00     0.157 A 
HETATM   30  C17 UNL     1      -1.645 -35.806 -15.490  1.00  0.00     0.044 C 
HETATM   31  C18 UNL     1      -0.832 -35.443 -16.707  1.00  0.00     0.015 C 
HETATM   32  C19 UNL     1      -0.987 -35.143 -14.269  1.00  0.00     0.155 C 
BRANCH  25  33
HETATM   33  N3  UNL     1      -1.348 -32.627 -13.383  1.00  0.00    -0.072 N 
ATOM     34  H33 UNL     1      -1.175 -31.973 -12.620  1.00  0.00     0.274 HD
ATOM     35  H32 UNL     1      -0.453 -33.115 -13.345  1.00  0.00     0.274 HD
ATOM     36  H31 UNL     1      -1.513 -32.163 -14.277  1.00  0.00     0.274 HD
ENDBRANCH  25  33
BRANCH  32  37
HETATM   37  O5  UNL     1       0.100 -35.892 -13.822  1.00  0.00    -0.392 OA
ATOM     38  H5  UNL     1      -0.156 -36.800 -13.718  1.00  0.00     0.210 HD
ENDBRANCH  32  37
ENDBRANCH  23  24
ENDBRANCH   5  23
BRANCH   4  39
HETATM   39  N2  UNL     1      -2.833 -36.589  -8.844  1.00  0.00    -0.072 N 
ATOM     40  H23 UNL     1      -3.166 -37.419  -9.334  1.00  0.00     0.274 HD
ATOM     41  H22 UNL     1      -2.309 -37.044  -8.096  1.00  0.00     0.274 HD
ATOM     42  H21 UNL     1      -3.610 -36.043  -8.472  1.00  0.00     0.274 HD
ENDBRANCH   4  39
TORSDOF 12
ENDMDL
MODEL 4
REMARK VINA RESULT: -6.588010477      2.205      6.368
REMARK  12 active torsions:
REMARK  status: ('A' for Active; 'I' for Inactive)
REMARK    1  A    between atoms: C2_2  and  N1_4 
REMARK    2  A    between atoms: N1_4  and  C4_6 
REMARK    3  A    between atoms: C4_6  and  C5_7 
REMARK    4  A    between atoms: C6_9  and  O2_10 
REMARK    5  A    between atoms: O2_10  and  C7_11 
REMARK    6  A    between atoms: C10_14  and  N2_15 
REMARK    7  A    between atoms: C11_19  and  O3_20 
REMARK    8  A    between atoms: O3_20  and  C12_21 
REMARK    9  A    between atoms: C13_22  and  N3_23 
REMARK   10  A    between atoms: C19_33  and  O5_34 
REMARK   11  A    between atoms: C21_37  and  O6_38 
REMARK   12  A    between atoms: C22_40  and  O7_41 
ROOT
HETATM    1  C7  UNL     1      -1.221 -37.459 -11.102  1.00  0.00     0.155 C 
HETATM    2  C8  UNL     1       0.009 -36.886 -10.422  1.00  0.00     0.037 C 
HETATM    3  C9  UNL     1      -0.568 -35.881  -9.467  1.00  0.00     0.038 C 
HETATM    4  C10 UNL     1      -2.049 -35.767  -9.762  1.00  0.00     0.215 C 
HETATM    5  C11 UNL     1      -2.071 -36.241 -11.230  1.00  0.00     0.181 C 
ENDROOT
BRANCH   1   6
HETATM    6  O2  UNL     1      -0.942 -38.115 -12.263  1.00  0.00    -0.353 OA
BRANCH   6   7
HETATM    7  C6  UNL     1      -1.922 -39.077 -12.557  1.00  0.00     0.263 C 
HETATM    8  O1  UNL     1      -2.632 -38.603 -13.601  1.00  0.00    -0.348 OA
HETATM    9  C5  UNL     1      -3.867 -39.162 -13.881  1.00  0.00     0.193 C 
HETATM   10  C22 UNL     1      -4.130 -40.435 -13.155  1.00  0.00     0.181 C 
HETATM   11  C21 UNL     1      -3.705 -40.503 -11.737  1.00  0.00     0.154 C 
HETATM   12  C20 UNL     1      -2.788 -39.359 -11.361  1.00  0.00     0.095 C 
BRANCH   9  13
HETATM   13  C4  UNL     1      -4.893 -38.087 -13.648  1.00  0.00     0.090 C 
BRANCH  13  14
HETATM   14  N1  UNL     1      -6.092 -38.123 -14.362  1.00  0.00    -0.396 N 
ATOM     15  H1  UNL     1      -6.095 -37.830 -15.339  1.00  0.00     0.159 HD
BRANCH  14  16
HETATM   16  C2  UNL     1      -7.300 -38.551 -13.775  1.00  0.00     0.072 C 
HETATM   17  C1  UNL     1      -7.379 -38.690 -12.296  1.00  0.00     0.031 C 
HETATM   18  C3  UNL     1      -8.461 -37.624 -14.180  1.00  0.00     0.031 C 
ENDBRANCH  14  16
ENDBRANCH  13  14
ENDBRANCH   9  13
BRANCH  10  19
HETATM   19  O7  UNL     1      -3.627 -41.510 -13.921  1.00  0.00    -0.390 OA
ATOM     20  H7  UNL     1      -2.835 -41.229 -14.364  1.00  0.00     0.210 HD
ENDBRANCH  10  19
BRANCH  11  21
HETATM   21  O6  UNL     1      -2.956 -41.696 -11.586  1.00  0.00    -0.393 OA
ATOM     22  H6  UNL     1      -2.207 -41.626 -12.166  1.00  0.00     0.210 HD
ENDBRANCH  11  21
ENDBRANCH   6   7
ENDBRANCH   1   6
BRANCH   5  23
HETATM   23  O3  UNL     1      -1.368 -35.238 -11.917  1.00  0.00    -0.371 OA
BRANCH  23  24
HETATM   24  C12 UNL     1      -1.915 -34.964 -13.171  1.00  0.00     0.181 C 
HETATM   25  C13 UNL     1      -2.486 -33.536 -13.139  1.00  0.00     0.217 C 
HETATM   26  C14 UNL     1      -3.517 -33.349 -14.241  1.00  0.00     0.070 C 
HETATM   27  C15 UNL     1      -2.873 -33.747 -15.512  1.00  0.00     0.153 A 
HETATM   28  O4  UNL     1      -3.476 -34.415 -16.541  1.00  0.00    -0.375 OA
HETATM   29  C16 UNL     1      -2.999 -35.266 -15.596  1.00  0.00     0.157 A 
HETATM   30  C17 UNL     1      -1.618 -35.803 -15.517  1.00  0.00     0.044 C 
HETATM   31  C18 UNL     1      -0.843 -35.413 -16.751  1.00  0.00     0.015 C 
HETATM   32  C19 UNL     1      -0.954 -35.121 -14.309  1.00  0.00     0.155 C 
BRANCH  25  33
HETATM   33  N3  UNL     1      -1.373 -32.618 -13.411  1.00  0.00    -0.072 N 
ATOM     34  H33 UNL     1      -0.615 -32.699 -12.735  1.00  0.00     0.274 HD
ATOM     35  H32 UNL     1      -0.838 -32.874 -14.240  1.00  0.00     0.274 HD
ATOM     36  H31 UNL     1      -1.765 -31.677 -13.463  1.00  0.00     0.274 HD
ENDBRANCH  25  33
BRANCH  32  37
HETATM   37  O5  UNL     1       0.166 -35.835 -13.888  1.00  0.00    -0.392 OA
ATOM     38  H5  UNL     1       0.089 -36.039 -12.963  1.00  0.00     0.210 HD
ENDBRANCH  32  37
ENDBRANCH  23  24
ENDBRANCH   5  23
BRANCH   4  39
HETATM   39  N2  UNL     1      -2.838 -36.691  -8.969  1.00  0.00    -0.072 N 
ATOM     40  H23 UNL     1      -2.300 -37.524  -8.730  1.00  0.00     0.274 HD
ATOM     41  H22 UNL     1      -2.999 -36.327  -8.030  1.00  0.00     0.274 HD
ATOM     42  H21 UNL     1      -3.716 -36.937  -9.425  1.00  0.00     0.274 HD
ENDBRANCH   4  39
TORSDOF 12
ENDMDL
MODEL 5
REMARK VINA RESULT: -6.497882603      2.311      6.502
REMARK  12 active torsions:
REMARK  status: ('A' for Active; 'I' for Inactive)
REMARK    1  A    between atoms: C2_2  and  N1_4 
REMARK    2  A    between atoms: N1_4  and  C4_6 
REMARK    3  A    between atoms: C4_6  and  C5_7 
REMARK    4  A    between atoms: C6_9  and  O2_10 
REMARK    5  A    between atoms: O2_10  and  C7_11 
REMARK    6  A    between atoms: C10_14  and  N2_15 
REMARK    7  A    between atoms: C11_19  and  O3_20 
REMARK    8  A    between atoms: O3_20  and  C12_21 
REMARK    9  A    between atoms: C13_22  and  N3_23 
REMARK   10  A    between atoms: C19_33  and  O5_34 
REMARK   11  A    between atoms: C21_37  and  O6_38 
REMARK   12  A    between atoms: C22_40  and  O7_41 
ROOT
HETATM    1  C7  UNL     1      -1.576 -37.580 -11.309  1.00  0.00     0.155 C 
HETATM    2  C8  UNL     1      -0.207 -37.273 -10.731  1.00  0.00     0.037 C 
HETATM    3  C9  UNL     1      -0.507 -36.261  -9.664  1.00  0.00     0.038 C 
HETATM    4  C10 UNL     1      -1.967 -35.880  -9.792  1.00  0.00     0.215 C 
HETATM    5  C11 UNL     1      -2.210 -36.231 -11.275  1.00  0.00     0.181 C 
ENDROOT
BRANCH   1   6
HETATM    6  O2  UNL     1      -1.527 -38.183 -12.529  1.00  0.00    -0.353 OA
BRANCH   6   7
HETATM    7  C6  UNL     1      -1.757 -39.565 -12.429  1.00  0.00     0.263 C 
HETATM    8  O1  UNL     1      -1.980 -40.014 -13.681  1.00  0.00    -0.348 OA
HETATM    9  C5  UNL     1      -2.576 -41.252 -13.853  1.00  0.00     0.193 C 
HETATM   10  C22 UNL     1      -2.632 -42.071 -12.611  1.00  0.00     0.181 C 
HETATM   11  C21 UNL     1      -2.976 -41.366 -11.353  1.00  0.00     0.154 C 
HETATM   12  C20 UNL     1      -2.906 -39.861 -11.505  1.00  0.00     0.095 C 
BRANCH   9  13
HETATM   13  C4  UNL     1      -3.911 -41.005 -14.499  1.00  0.00     0.090 C 
BRANCH  13  14
HETATM   14  N1  UNL     1      -4.209 -39.729 -14.982  1.00  0.00    -0.396 N 
ATOM     15  H1  UNL     1      -3.645 -39.344 -15.740  1.00  0.00     0.159 HD
BRANCH  14  16
HETATM   16  C2  UNL     1      -5.263 -38.957 -14.455  1.00  0.00     0.072 C 
HETATM   17  C1  UNL     1      -6.155 -39.553 -13.424  1.00  0.00     0.031 C 
HETATM   18  C3  UNL     1      -4.727 -37.645 -13.850  1.00  0.00     0.031 C 
ENDBRANCH  14  16
ENDBRANCH  13  14
ENDBRANCH   9  13
BRANCH  10  19
HETATM   19  O7  UNL     1      -1.437 -42.818 -12.501  1.00  0.00    -0.390 OA
ATOM     20  H7  UNL     1      -0.924 -42.473 -11.780  1.00  0.00     0.210 HD
ENDBRANCH  10  19
BRANCH  11  21
HETATM   21  O6  UNL     1      -1.998 -41.728 -10.395  1.00  0.00    -0.393 OA
ATOM     22  H6  UNL     1      -2.413 -41.673  -9.543  1.00  0.00     0.210 HD
ENDBRANCH  11  21
ENDBRANCH   6   7
ENDBRANCH   1   6
BRANCH   5  23
HETATM   23  O3  UNL     1      -1.412 -35.311 -11.973  1.00  0.00    -0.371 OA
BRANCH  23  24
HETATM   24  C12 UNL     1      -1.938 -34.987 -13.224  1.00  0.00     0.181 C 
HETATM   25  C13 UNL     1      -2.483 -33.550 -13.154  1.00  0.00     0.217 C 
HETATM   26  C14 UNL     1      -3.497 -33.309 -14.261  1.00  0.00     0.070 C 
HETATM   27  C15 UNL     1      -2.844 -33.679 -15.536  1.00  0.00     0.153 A 
HETATM   28  O4  UNL     1      -3.447 -34.303 -16.593  1.00  0.00    -0.375 OA
HETATM   29  C16 UNL     1      -2.997 -35.192 -15.670  1.00  0.00     0.157 A 
HETATM   30  C17 UNL     1      -1.626 -35.757 -15.591  1.00  0.00     0.044 C 
HETATM   31  C18 UNL     1      -0.829 -35.342 -16.803  1.00  0.00     0.015 C 
HETATM   32  C19 UNL     1      -0.965 -35.125 -14.355  1.00  0.00     0.155 C 
BRANCH  25  33
HETATM   33  N3  UNL     1      -1.351 -32.645 -13.383  1.00  0.00    -0.072 N 
ATOM     34  H33 UNL     1      -0.775 -32.508 -12.553  1.00  0.00     0.274 HD
ATOM     35  H32 UNL     1      -0.629 -33.051 -13.978  1.00  0.00     0.274 HD
ATOM     36  H31 UNL     1      -1.732 -31.774 -13.754  1.00  0.00     0.274 HD
ENDBRANCH  25  33
BRANCH  32  37
HETATM   37  O5  UNL     1       0.136 -35.873 -13.943  1.00  0.00    -0.392 OA
ATOM     38  H5  UNL     1       0.449 -36.408 -14.663  1.00  0.00     0.210 HD
ENDBRANCH  32  37
ENDBRANCH  23  24
ENDBRANCH   5  23
BRANCH   4  39
HETATM   39  N2  UNL     1      -2.825 -36.716  -8.975  1.00  0.00    -0.072 N 
ATOM     40  H23 UNL     1      -2.714 -36.502  -7.984  1.00  0.00     0.274 HD
ATOM     41  H22 UNL     1      -3.806 -36.460  -9.087  1.00  0.00     0.274 HD
ATOM     42  H21 UNL     1      -2.680 -37.709  -9.156  1.00  0.00     0.274 HD
ENDBRANCH   4  39
TORSDOF 12
ENDMDL
