MODEL 1
REMARK VINA RESULT: -6.554551362      0.000      0.000
REMARK  6 active torsions:
REMARK  status: ('A' for Active; 'I' for Inactive)
REMARK    1  A    between atoms: C2_2  and  C3_3 
REMARK    2  A    between atoms: C3_3  and  O1_4 
REMARK    3  A    between atoms: O1_4  and  C4_5 
REMARK    4  A    between atoms: C9_12  and  C10_13 
REMARK    5  A    between atoms: C10_13  and  O4_15 
REMARK    6  A    between atoms: C15_21  and  O6_22 
ROOT
HETATM    1  C4  UNL     1      -2.324   4.204  13.028  1.00  0.00     0.279 C 
HETATM    2  O2  UNL     1      -1.036   4.401  12.522  1.00  0.00    -0.289 OA
HETATM    3  C5  UNL     1      -0.764   3.992  11.234  1.00  0.00     0.268 C 
HETATM    4  O3  UNL     1       0.206   4.484  10.617  1.00  0.00    -0.265 OA
HETATM    5  C6  UNL     1      -1.605   2.990  10.601  1.00  0.00     0.121 C 
HETATM    6  C7  UNL     1      -1.158   1.591  11.047  1.00  0.00     0.018 C 
HETATM    7  C8  UNL     1      -2.401   0.764  10.738  1.00  0.00     0.011 C 
HETATM    8  C9  UNL     1      -3.503   1.682  11.225  1.00  0.00     0.050 C 
HETATM    9  C12 UNL     1      -3.059   3.048  10.925  1.00  0.00     0.091 C 
HETATM   10  O5  UNL     1      -3.696   3.569   9.783  1.00  0.00    -0.371 OA
HETATM   11  C13 UNL     1      -3.400   4.907   9.752  1.00  0.00     0.148 C 
HETATM   12  C14 UNL     1      -4.337   5.673   8.855  1.00  0.00     0.042 C 
HETATM   13  C15 UNL     1      -3.604   5.332  11.191  1.00  0.00     0.161 C 
HETATM   14  C17 UNL     1      -3.386   4.082  11.968  1.00  0.00     0.109 C 
ENDROOT
BRANCH   1  15
HETATM   15  O1  UNL     1      -2.718   5.166  13.933  1.00  0.00    -0.357 OA
BRANCH  15  16
HETATM   16  C3  UNL     1      -3.680   4.689  14.787  1.00  0.00     0.197 C 
BRANCH  16  17
HETATM   17  C2  UNL     1      -4.927   5.468  14.782  1.00  0.00    -0.011 C 
HETATM   18  C1  UNL     1      -6.088   4.945  15.130  1.00  0.00     0.009 C 
ENDBRANCH  16  17
ENDBRANCH  15  16
ENDBRANCH   1  15
BRANCH  13  19
HETATM   19  O6  UNL     1      -2.788   6.377  11.545  1.00  0.00    -0.387 OA
HETATM   20  C16 UNL     1      -3.512   7.551  11.714  1.00  0.00     0.202 C 
ENDBRANCH  13  19
BRANCH   8  21
HETATM   21  C10 UNL     1      -4.819   1.252  10.614  1.00  0.00     0.121 C 
HETATM   22  C11 UNL     1      -4.951  -0.238  10.667  1.00  0.00     0.040 C 
BRANCH  21  23
HETATM   23  O4  UNL     1      -5.894   1.931  11.114  1.00  0.00    -0.395 OA
ATOM     24  H4  UNL     1      -6.076   2.740  10.651  1.00  0.00     0.210 HD
ENDBRANCH  21  23
ENDBRANCH   8  21
TORSDOF 6
ENDMDL
MODEL 2
REMARK VINA RESULT: -6.542793215      1.605      4.402
REMARK  6 active torsions:
REMARK  status: ('A' for Active; 'I' for Inactive)
REMARK    1  A    between atoms: C2_2  and  C3_3 
REMARK    2  A    between atoms: C3_3  and  O1_4 
REMARK    3  A    between atoms: O1_4  and  C4_5 
REMARK    4  A    between atoms: C9_12  and  C10_13 
REMARK    5  A    between atoms: C10_13  and  O4_15 
REMARK    6  A    between atoms: C15_21  and  O6_22 
ROOT
HETATM    1  C4  UNL     1      -4.596   4.100  10.710  1.00  0.00     0.279 C 
HETATM    2  O2  UNL     1      -5.249   2.864  10.722  1.00  0.00    -0.289 OA
HETATM    3  C5  UNL     1      -4.636   1.800  11.351  1.00  0.00     0.268 C 
HETATM    4  O3  UNL     1      -5.319   0.824  11.728  1.00  0.00    -0.265 OA
HETATM    5  C6  UNL     1      -3.200   1.822  11.571  1.00  0.00     0.121 C 
HETATM    6  C7  UNL     1      -2.480   1.369  10.294  1.00  0.00     0.018 C 
HETATM    7  C8  UNL     1      -1.082   1.933  10.518  1.00  0.00     0.011 C 
HETATM    8  C9  UNL     1      -1.396   3.306  11.075  1.00  0.00     0.050 C 
HETATM    9  C12 UNL     1      -2.600   3.147  11.898  1.00  0.00     0.091 C 
HETATM   10  O5  UNL     1      -2.298   3.113  13.272  1.00  0.00    -0.371 OA
HETATM   11  C13 UNL     1      -3.493   3.218  13.934  1.00  0.00     0.148 C 
HETATM   12  C14 UNL     1      -3.310   3.622  15.373  1.00  0.00     0.042 C 
HETATM   13  C15 UNL     1      -4.205   4.319  13.177  1.00  0.00     0.161 C 
HETATM   14  C17 UNL     1      -3.595   4.275  11.821  1.00  0.00     0.109 C 
ENDROOT
BRANCH   1  15
HETATM   15  O1  UNL     1      -5.452   5.180  10.720  1.00  0.00    -0.357 OA
BRANCH  15  16
HETATM   16  C3  UNL     1      -4.803   6.340  10.380  1.00  0.00     0.197 C 
BRANCH  16  17
HETATM   17  C2  UNL     1      -5.405   7.554  10.951  1.00  0.00    -0.011 C 
HETATM   18  C1  UNL     1      -6.664   7.600  11.344  1.00  0.00     0.009 C 
ENDBRANCH  16  17
ENDBRANCH  15  16
ENDBRANCH   1  15
BRANCH  13  19
HETATM   19  O6  UNL     1      -5.568   4.168  13.198  1.00  0.00    -0.387 OA
HETATM   20  C16 UNL     1      -6.161   5.038  14.106  1.00  0.00     0.202 C 
ENDBRANCH  13  19
BRANCH   8  21
HETATM   21  C10 UNL     1      -0.171   3.856  11.773  1.00  0.00     0.121 C 
HETATM   22  C11 UNL     1       0.964   3.976  10.805  1.00  0.00     0.040 C 
BRANCH  21  23
HETATM   23  O4  UNL     1      -0.422   4.991  12.491  1.00  0.00    -0.395 OA
ATOM     24  H4  UNL     1      -0.026   5.768  12.116  1.00  0.00     0.210 HD
ENDBRANCH  21  23
ENDBRANCH   8  21
TORSDOF 6
ENDMDL
MODEL 3
REMARK VINA RESULT: -6.499952495      2.059      3.789
REMARK  6 active torsions:
REMARK  status: ('A' for Active; 'I' for Inactive)
REMARK    1  A    between atoms: C2_2  and  C3_3 
REMARK    2  A    between atoms: C3_3  and  O1_4 
REMARK    3  A    between atoms: O1_4  and  C4_5 
REMARK    4  A    between atoms: C9_12  and  C10_13 
REMARK    5  A    between atoms: C10_13  and  O4_15 
REMARK    6  A    between atoms: C15_21  and  O6_22 
ROOT
HETATM    1  C4  UNL     1      -4.708   5.052  11.589  1.00  0.00     0.279 C 
HETATM    2  O2  UNL     1      -3.921   6.077  12.120  1.00  0.00    -0.289 OA
HETATM    3  C5  UNL     1      -2.866   5.741  12.943  1.00  0.00     0.268 C 
HETATM    4  O3  UNL     1      -1.928   6.550  13.112  1.00  0.00    -0.265 OA
HETATM    5  C6  UNL     1      -2.852   4.450  13.608  1.00  0.00     0.121 C 
HETATM    6  C7  UNL     1      -3.709   4.520  14.879  1.00  0.00     0.018 C 
HETATM    7  C8  UNL     1      -3.997   3.045  15.132  1.00  0.00     0.011 C 
HETATM    8  C9  UNL     1      -4.298   2.552  13.732  1.00  0.00     0.050 C 
HETATM    9  C12 UNL     1      -3.410   3.302  12.837  1.00  0.00     0.091 C 
HETATM   10  O5  UNL     1      -2.305   2.532  12.425  1.00  0.00    -0.371 OA
HETATM   11  C13 UNL     1      -1.700   3.233  11.415  1.00  0.00     0.148 C 
HETATM   12  C14 UNL     1      -0.781   2.366  10.596  1.00  0.00     0.042 C 
HETATM   13  C15 UNL     1      -2.870   3.686  10.568  1.00  0.00     0.161 C 
HETATM   14  C17 UNL     1      -4.012   3.718  11.521  1.00  0.00     0.109 C 
ENDROOT
BRANCH   1  15
HETATM   15  O1  UNL     1      -5.227   5.337  10.345  1.00  0.00    -0.357 OA
BRANCH  15  16
HETATM   16  C3  UNL     1      -5.443   6.682  10.185  1.00  0.00     0.197 C 
BRANCH  16  17
HETATM   17  C2  UNL     1      -6.840   7.093  10.383  1.00  0.00    -0.011 C 
HETATM   18  C1  UNL     1      -7.253   7.686  11.488  1.00  0.00     0.009 C 
ENDBRANCH  16  17
ENDBRANCH  15  16
ENDBRANCH   1  15
BRANCH  13  19
HETATM   19  O6  UNL     1      -2.621   4.875   9.930  1.00  0.00    -0.387 OA
HETATM   20  C16 UNL     1      -2.396   4.685   8.572  1.00  0.00     0.202 C 
ENDBRANCH  13  19
BRANCH   8  21
HETATM   21  C10 UNL     1      -4.176   1.045  13.694  1.00  0.00     0.121 C 
HETATM   22  C11 UNL     1      -4.598   0.460  15.005  1.00  0.00     0.040 C 
BRANCH  21  23
HETATM   23  O4  UNL     1      -4.778   0.481  12.605  1.00  0.00    -0.395 OA
ATOM     24  H4  UNL     1      -5.532  -0.053  12.827  1.00  0.00     0.210 HD
ENDBRANCH  21  23
ENDBRANCH   8  21
TORSDOF 6
ENDMDL
MODEL 4
REMARK VINA RESULT: -6.322109925      2.054      3.430
REMARK  6 active torsions:
REMARK  status: ('A' for Active; 'I' for Inactive)
REMARK    1  A    between atoms: C2_2  and  C3_3 
REMARK    2  A    between atoms: C3_3  and  O1_4 
REMARK    3  A    between atoms: O1_4  and  C4_5 
REMARK    4  A    between atoms: C9_12  and  C10_13 
REMARK    5  A    between atoms: C10_13  and  O4_15 
REMARK    6  A    between atoms: C15_21  and  O6_22 
ROOT
HETATM    1  C4  UNL     1      -4.696   4.026  11.427  1.00  0.00     0.279 C 
HETATM    2  O2  UNL     1      -4.505   4.485  12.733  1.00  0.00    -0.289 OA
HETATM    3  C5  UNL     1      -3.650   3.786  13.560  1.00  0.00     0.268 C 
HETATM    4  O3  UNL     1      -3.152   4.351  14.557  1.00  0.00    -0.265 OA
HETATM    5  C6  UNL     1      -3.334   2.399  13.266  1.00  0.00     0.121 C 
HETATM    6  C7  UNL     1      -4.452   1.496  13.803  1.00  0.00     0.018 C 
HETATM    7  C8  UNL     1      -4.234   0.226  12.987  1.00  0.00     0.011 C 
HETATM    8  C9  UNL     1      -3.962   0.796  11.610  1.00  0.00     0.050 C 
HETATM    9  C12 UNL     1      -3.213   2.039  11.824  1.00  0.00     0.091 C 
HETATM   10  O5  UNL     1      -1.837   1.875  11.575  1.00  0.00    -0.371 OA
HETATM   11  C13 UNL     1      -1.294   3.133  11.558  1.00  0.00     0.148 C 
HETATM   12  C14 UNL     1       0.056   3.157  10.892  1.00  0.00     0.042 C 
HETATM   13  C15 UNL     1      -2.289   3.921  10.732  1.00  0.00     0.161 C 
HETATM   14  C17 UNL     1      -3.566   3.178  10.905  1.00  0.00     0.109 C 
ENDROOT
BRANCH   1  15
HETATM   15  O1  UNL     1      -4.945   5.029  10.516  1.00  0.00    -0.357 OA
BRANCH  15  16
HETATM   16  C3  UNL     1      -5.247   6.213  11.140  1.00  0.00     0.197 C 
BRANCH  16  17
HETATM   17  C2  UNL     1      -6.371   6.942  10.533  1.00  0.00    -0.011 C 
HETATM   18  C1  UNL     1      -7.140   7.760  11.228  1.00  0.00     0.009 C 
ENDBRANCH  16  17
ENDBRANCH  15  16
ENDBRANCH   1  15
BRANCH  13  19
HETATM   19  O6  UNL     1      -2.339   5.242  11.100  1.00  0.00    -0.387 OA
HETATM   20  C16 UNL     1      -1.686   6.050  10.178  1.00  0.00     0.202 C 
ENDBRANCH  13  19
BRANCH   8  21
HETATM   21  C10 UNL     1      -3.290  -0.257  10.756  1.00  0.00     0.121 C 
HETATM   22  C11 UNL     1      -3.287  -1.574  11.467  1.00  0.00     0.040 C 
BRANCH  21  23
HETATM   23  O4  UNL     1      -3.773  -0.307   9.479  1.00  0.00    -0.395 OA
ATOM     24  H4  UNL     1      -4.190  -1.134   9.268  1.00  0.00     0.210 HD
ENDBRANCH  21  23
ENDBRANCH   8  21
TORSDOF 6
ENDMDL
MODEL 5
REMARK VINA RESULT: -6.306367938      1.922      4.808
REMARK  6 active torsions:
REMARK  status: ('A' for Active; 'I' for Inactive)
REMARK    1  A    between atoms: C2_2  and  C3_3 
REMARK    2  A    between atoms: C3_3  and  O1_4 
REMARK    3  A    between atoms: O1_4  and  C4_5 
REMARK    4  A    between atoms: C9_12  and  C10_13 
REMARK    5  A    between atoms: C10_13  and  O4_15 
REMARK    6  A    between atoms: C15_21  and  O6_22 
ROOT
HETATM    1  C4  UNL     1      -4.025   1.845  11.022  1.00  0.00     0.279 C 
HETATM    2  O2  UNL     1      -2.651   1.597  11.076  1.00  0.00    -0.289 OA
HETATM    3  C5  UNL     1      -1.795   2.664  11.253  1.00  0.00     0.268 C 
HETATM    4  O3  UNL     1      -0.641   2.468  11.693  1.00  0.00    -0.265 OA
HETATM    5  C6  UNL     1      -2.238   4.008  10.926  1.00  0.00     0.121 C 
HETATM    6  C7  UNL     1      -2.083   4.244   9.417  1.00  0.00     0.018 C 
HETATM    7  C8  UNL     1      -3.031   5.417   9.196  1.00  0.00     0.011 C 
HETATM    8  C9  UNL     1      -4.219   5.008  10.042  1.00  0.00     0.050 C 
HETATM    9  C12 UNL     1      -3.666   4.322  11.215  1.00  0.00     0.091 C 
HETATM   10  O5  UNL     1      -3.663   5.148  12.355  1.00  0.00    -0.371 OA
HETATM   11  C13 UNL     1      -3.372   4.336  13.421  1.00  0.00     0.148 C 
HETATM   12  C14 UNL     1      -3.747   4.970  14.734  1.00  0.00     0.042 C 
HETATM   13  C15 UNL     1      -4.240   3.122  13.169  1.00  0.00     0.161 C 
HETATM   14  C17 UNL     1      -4.444   3.125  11.696  1.00  0.00     0.109 C 
ENDROOT
BRANCH   1  15
HETATM   15  O1  UNL     1      -4.795   0.817  11.523  1.00  0.00    -0.357 OA
BRANCH  15  16
HETATM   16  C3  UNL     1      -4.500  -0.376  10.914  1.00  0.00     0.197 C 
BRANCH  16  17
HETATM   17  C2  UNL     1      -3.963  -1.398  11.825  1.00  0.00    -0.011 C 
HETATM   18  C1  UNL     1      -2.998  -2.225  11.467  1.00  0.00     0.009 C 
ENDBRANCH  16  17
ENDBRANCH  15  16
ENDBRANCH   1  15
BRANCH  13  19
HETATM   19  O6  UNL     1      -3.683   1.972  13.669  1.00  0.00    -0.387 OA
HETATM   20  C16 UNL     1      -4.412   1.483  14.747  1.00  0.00     0.202 C 
ENDBRANCH  13  19
BRANCH   8  21
HETATM   21  C10 UNL     1      -5.081   6.222  10.315  1.00  0.00     0.121 C 
HETATM   22  C11 UNL     1      -4.439   7.449   9.749  1.00  0.00     0.040 C 
BRANCH  21  23
HETATM   23  O4  UNL     1      -6.387   6.049   9.952  1.00  0.00    -0.395 OA
ATOM     24  H4  UNL     1      -6.854   6.868   9.833  1.00  0.00     0.210 HD
ENDBRANCH  21  23
ENDBRANCH   8  21
TORSDOF 6
ENDMDL
