MODEL 1
REMARK VINA RESULT: -7.672384471      0.000      0.000
REMARK  5 active torsions:
REMARK  status: ('A' for Active; 'I' for Inactive)
REMARK    1  A    between atoms: C2_2  and  O1_3 
REMARK    2  A    between atoms: O1_3  and  C3_4 
REMARK    3  A    between atoms: C6_7  and  C7_8 
REMARK       I    between atoms: C7_8  and  N1_10 
REMARK    4  A    between atoms: N1_10  and  C8_12 
REMARK    5  A    between atoms: N3_20  and  C14_21 
ROOT
HETATM    1  C8  UNL     1      -2.427   4.554  11.331  1.00  0.00     0.126 C 
HETATM    2  C9  UNL     1      -2.273   4.315   9.916  1.00  0.00     0.091 C 
HETATM    3  N2  UNL     1      -2.157   4.148   8.782  1.00  0.00    -0.195 NA
HETATM    4  C10 UNL     1      -1.116   4.811  12.059  1.00  0.00     0.073 C 
HETATM    5  C11 UNL     1      -0.829   6.281  12.096  1.00  0.00     0.171 C 
HETATM    6  O3  UNL     1      -1.193   6.836  10.886  1.00  0.00    -0.391 OA
HETATM    7  C12 UNL     1      -2.567   6.940  10.789  1.00  0.00     0.171 C 
HETATM    8  C13 UNL     1      -3.257   5.836  11.553  1.00  0.00     0.073 C 
ENDROOT
BRANCH   1   9
HETATM    9  N1  UNL     1      -3.076   3.445  12.011  1.00  0.00    -0.338 N 
HETATM   10  C7  UNL     1      -4.353   2.980  11.596  1.00  0.00     0.239 C 
HETATM   11  O2  UNL     1      -4.970   3.503  10.655  1.00  0.00    -0.272 OA
ATOM     12  H1  UNL     1      -2.609   2.994  12.797  1.00  0.00     0.164 HD
BRANCH  10  13
HETATM   13  C6  UNL     1      -4.939   1.826  12.327  1.00  0.00     0.178 C 
HETATM   14  C5  UNL     1      -5.337   2.416  13.700  1.00  0.00     0.036 C 
HETATM   15  C4  UNL     1      -4.325   1.935  14.733  1.00  0.00     0.064 C 
HETATM   16  C3  UNL     1      -4.350   0.412  14.774  1.00  0.00     0.281 C 
HETATM   17  O4  UNL     1      -4.565  -0.086  13.481  1.00  0.00    -0.270 OA
HETATM   18  N3  UNL     1      -3.983   0.792  12.634  1.00  0.00    -0.177 NA
BRANCH  16  19
HETATM   19  O1  UNL     1      -5.301  -0.015  15.678  1.00  0.00    -0.360 OA
BRANCH  19  20
HETATM   20  C2  UNL     1      -5.369   0.885  16.732  1.00  0.00     0.166 C 
HETATM   21  C1  UNL     1      -6.800   0.903  17.247  1.00  0.00     0.033 C 
ENDBRANCH  19  20
ENDBRANCH  16  19
BRANCH  18  22
HETATM   22  C14 UNL     1      -3.566   0.054  11.465  1.00  0.00     0.079 C 
HETATM   23  C15 UNL     1      -2.080   0.319  11.289  1.00  0.00     0.028 C 
HETATM   24  C16 UNL     1      -3.758  -1.426  11.556  1.00  0.00     0.028 C 
ENDBRANCH  18  22
ENDBRANCH  10  13
ENDBRANCH   1   9
TORSDOF 5
ENDMDL
MODEL 2
REMARK VINA RESULT: -7.576377968      0.883      1.453
REMARK  5 active torsions:
REMARK  status: ('A' for Active; 'I' for Inactive)
REMARK    1  A    between atoms: C2_2  and  O1_3 
REMARK    2  A    between atoms: O1_3  and  C3_4 
REMARK    3  A    between atoms: C6_7  and  C7_8 
REMARK       I    between atoms: C7_8  and  N1_10 
REMARK    4  A    between atoms: N1_10  and  C8_12 
REMARK    5  A    between atoms: N3_20  and  C14_21 
ROOT
HETATM    1  C8  UNL     1      -2.471   4.812  11.632  1.00  0.00     0.126 C 
HETATM    2  C9  UNL     1      -3.318   5.981  11.616  1.00  0.00     0.091 C 
HETATM    3  N2  UNL     1      -3.973   6.929  11.610  1.00  0.00    -0.195 NA
HETATM    4  C10 UNL     1      -2.010   4.366  10.253  1.00  0.00     0.073 C 
HETATM    5  C11 UNL     1      -0.696   5.005   9.920  1.00  0.00     0.171 C 
HETATM    6  O3  UNL     1      -0.706   6.307  10.378  1.00  0.00    -0.391 OA
HETATM    7  C12 UNL     1      -0.563   6.344  11.751  1.00  0.00     0.171 C 
HETATM    8  C13 UNL     1      -1.169   5.123  12.400  1.00  0.00     0.073 C 
ENDROOT
BRANCH   1   9
HETATM    9  N1  UNL     1      -3.123   3.667  12.248  1.00  0.00    -0.338 N 
HETATM   10  C7  UNL     1      -4.324   3.132  11.708  1.00  0.00     0.239 C 
HETATM   11  O2  UNL     1      -4.871   3.621  10.708  1.00  0.00    -0.272 OA
ATOM     12  H1  UNL     1      -2.713   3.242  13.079  1.00  0.00     0.164 HD
BRANCH  10  13
HETATM   13  C6  UNL     1      -4.916   1.946  12.382  1.00  0.00     0.178 C 
HETATM   14  C5  UNL     1      -5.326   2.474  13.777  1.00  0.00     0.036 C 
HETATM   15  C4  UNL     1      -4.322   1.948  14.796  1.00  0.00     0.064 C 
HETATM   16  C3  UNL     1      -4.347   0.425  14.769  1.00  0.00     0.281 C 
HETATM   17  O4  UNL     1      -4.550  -0.015  13.454  1.00  0.00    -0.270 OA
HETATM   18  N3  UNL     1      -3.962   0.900  12.651  1.00  0.00    -0.177 NA
BRANCH  16  19
HETATM   19  O1  UNL     1      -5.306  -0.042  15.645  1.00  0.00    -0.360 OA
BRANCH  19  20
HETATM   20  C2  UNL     1      -5.364   0.794  16.750  1.00  0.00     0.166 C 
HETATM   21  C1  UNL     1      -6.798   0.807  17.259  1.00  0.00     0.033 C 
ENDBRANCH  19  20
ENDBRANCH  16  19
BRANCH  18  22
HETATM   22  C14 UNL     1      -3.534   0.215  11.454  1.00  0.00     0.079 C 
HETATM   23  C15 UNL     1      -2.042   0.472  11.314  1.00  0.00     0.028 C 
HETATM   24  C16 UNL     1      -3.742  -1.265  11.470  1.00  0.00     0.028 C 
ENDBRANCH  18  22
ENDBRANCH  10  13
ENDBRANCH   1   9
TORSDOF 5
ENDMDL
MODEL 3
REMARK VINA RESULT: -7.333855487      2.028      2.409
REMARK  5 active torsions:
REMARK  status: ('A' for Active; 'I' for Inactive)
REMARK    1  A    between atoms: C2_2  and  O1_3 
REMARK    2  A    between atoms: O1_3  and  C3_4 
REMARK    3  A    between atoms: C6_7  and  C7_8 
REMARK       I    between atoms: C7_8  and  N1_10 
REMARK    4  A    between atoms: N1_10  and  C8_12 
REMARK    5  A    between atoms: N3_20  and  C14_21 
ROOT
HETATM    1  C8  UNL     1      -2.330   6.375  12.978  1.00  0.00     0.126 C 
HETATM    2  C9  UNL     1      -1.125   5.912  12.332  1.00  0.00     0.091 C 
HETATM    3  N2  UNL     1      -0.162   5.564  11.804  1.00  0.00    -0.195 NA
HETATM    4  C10 UNL     1      -2.108   6.922  14.380  1.00  0.00     0.073 C 
HETATM    5  C11 UNL     1      -1.869   8.400  14.323  1.00  0.00     0.171 C 
HETATM    6  O3  UNL     1      -1.086   8.681  13.221  1.00  0.00    -0.391 OA
HETATM    7  C12 UNL     1      -1.827   8.590  12.058  1.00  0.00     0.171 C 
HETATM    8  C13 UNL     1      -2.922   7.559  12.184  1.00  0.00     0.073 C 
ENDROOT
BRANCH   1   9
HETATM    9  N1  UNL     1      -3.334   5.328  13.089  1.00  0.00    -0.338 N 
HETATM   10  C7  UNL     1      -3.049   4.110  13.763  1.00  0.00     0.239 C 
HETATM   11  O2  UNL     1      -1.939   3.882  14.269  1.00  0.00    -0.272 OA
ATOM     12  H1  UNL     1      -4.256   5.471  12.677  1.00  0.00     0.164 HD
BRANCH  10  13
HETATM   13  C6  UNL     1      -4.136   3.100  13.853  1.00  0.00     0.178 C 
HETATM   14  C5  UNL     1      -4.403   2.970  15.371  1.00  0.00     0.036 C 
HETATM   15  C4  UNL     1      -3.799   1.653  15.845  1.00  0.00     0.064 C 
HETATM   16  C3  UNL     1      -4.456   0.509  15.084  1.00  0.00     0.281 C 
HETATM   17  O4  UNL     1      -4.714   0.912  13.767  1.00  0.00    -0.270 OA
HETATM   18  N3  UNL     1      -3.733   1.781  13.436  1.00  0.00    -0.177 NA
BRANCH  16  19
HETATM   19  O1  UNL     1      -5.591   0.095  15.751  1.00  0.00    -0.360 OA
BRANCH  19  20
HETATM   20  C2  UNL     1      -5.636   0.701  16.998  1.00  0.00     0.166 C 
HETATM   21  C1  UNL     1      -7.078   1.098  17.279  1.00  0.00     0.033 C 
ENDBRANCH  19  20
ENDBRANCH  16  19
BRANCH  18  22
HETATM   22  C14 UNL     1      -3.533   1.685  12.009  1.00  0.00     0.079 C 
HETATM   23  C15 UNL     1      -2.958   0.304  11.741  1.00  0.00     0.028 C 
HETATM   24  C16 UNL     1      -4.776   1.828  11.190  1.00  0.00     0.028 C 
ENDBRANCH  18  22
ENDBRANCH  10  13
ENDBRANCH   1   9
TORSDOF 5
ENDMDL
MODEL 4
REMARK VINA RESULT: -7.270622235      0.890      1.501
REMARK  5 active torsions:
REMARK  status: ('A' for Active; 'I' for Inactive)
REMARK    1  A    between atoms: C2_2  and  O1_3 
REMARK    2  A    between atoms: O1_3  and  C3_4 
REMARK    3  A    between atoms: C6_7  and  C7_8 
REMARK       I    between atoms: C7_8  and  N1_10 
REMARK    4  A    between atoms: N1_10  and  C8_12 
REMARK    5  A    between atoms: N3_20  and  C14_21 
ROOT
HETATM    1  C8  UNL     1      -2.564   4.727  11.323  1.00  0.00     0.126 C 
HETATM    2  C9  UNL     1      -1.213   4.972  11.770  1.00  0.00     0.091 C 
HETATM    3  N2  UNL     1      -0.129   5.172  12.103  1.00  0.00    -0.195 NA
HETATM    4  C10 UNL     1      -3.503   5.907  11.521  1.00  0.00     0.073 C 
HETATM    5  C11 UNL     1      -3.518   6.764  10.292  1.00  0.00     0.171 C 
HETATM    6  O3  UNL     1      -2.235   6.838   9.786  1.00  0.00    -0.391 OA
HETATM    7  C12 UNL     1      -1.887   5.657   9.159  1.00  0.00     0.171 C 
HETATM    8  C13 UNL     1      -2.569   4.473   9.801  1.00  0.00     0.073 C 
ENDROOT
BRANCH   1   9
HETATM    9  N1  UNL     1      -3.170   3.589  11.996  1.00  0.00    -0.338 N 
HETATM   10  C7  UNL     1      -4.408   3.052  11.552  1.00  0.00     0.239 C 
HETATM   11  O2  UNL     1      -5.028   3.534  10.590  1.00  0.00    -0.272 OA
ATOM     12  H1  UNL     1      -2.700   3.171  12.798  1.00  0.00     0.164 HD
BRANCH  10  13
HETATM   13  C6  UNL     1      -4.951   1.874  12.278  1.00  0.00     0.178 C 
HETATM   14  C5  UNL     1      -5.374   2.443  13.653  1.00  0.00     0.036 C 
HETATM   15  C4  UNL     1      -4.345   1.999  14.686  1.00  0.00     0.064 C 
HETATM   16  C3  UNL     1      -4.311   0.476  14.722  1.00  0.00     0.281 C 
HETATM   17  O4  UNL     1      -4.504  -0.026  13.427  1.00  0.00    -0.270 OA
HETATM   18  N3  UNL     1      -3.956   0.878  12.584  1.00  0.00    -0.177 NA
BRANCH  16  19
HETATM   19  O1  UNL     1      -5.247   0.009  15.623  1.00  0.00    -0.360 OA
BRANCH  19  20
HETATM   20  C2  UNL     1      -5.335   0.891  16.690  1.00  0.00     0.166 C 
HETATM   21  C1  UNL     1      -6.763   0.855  17.217  1.00  0.00     0.033 C 
ENDBRANCH  19  20
ENDBRANCH  16  19
BRANCH  18  22
HETATM   22  C14 UNL     1      -3.508   0.160  11.413  1.00  0.00     0.079 C 
HETATM   23  C15 UNL     1      -2.031   0.478  11.246  1.00  0.00     0.028 C 
HETATM   24  C16 UNL     1      -3.648  -1.326  11.496  1.00  0.00     0.028 C 
ENDBRANCH  18  22
ENDBRANCH  10  13
ENDBRANCH   1   9
TORSDOF 5
ENDMDL
MODEL 5
REMARK VINA RESULT: -7.263069008      1.341      2.126
REMARK  5 active torsions:
REMARK  status: ('A' for Active; 'I' for Inactive)
REMARK    1  A    between atoms: C2_2  and  O1_3 
REMARK    2  A    between atoms: O1_3  and  C3_4 
REMARK    3  A    between atoms: C6_7  and  C7_8 
REMARK       I    between atoms: C7_8  and  N1_10 
REMARK    4  A    between atoms: N1_10  and  C8_12 
REMARK    5  A    between atoms: N3_20  and  C14_21 
ROOT
HETATM    1  C8  UNL     1      -1.498   3.821  11.458  1.00  0.00     0.126 C 
HETATM    2  C9  UNL     1      -1.469   5.071  12.178  1.00  0.00     0.091 C 
HETATM    3  N2  UNL     1      -1.421   6.070  12.751  1.00  0.00    -0.195 NA
HETATM    4  C10 UNL     1      -1.918   3.957  10.002  1.00  0.00     0.073 C 
HETATM    5  C11 UNL     1      -0.710   4.142   9.135  1.00  0.00     0.171 C 
HETATM    6  O3  UNL     1       0.186   4.963   9.789  1.00  0.00    -0.391 OA
HETATM    7  C12 UNL     1       0.820   4.280  10.810  1.00  0.00     0.171 C 
HETATM    8  C13 UNL     1      -0.077   3.221  11.402  1.00  0.00     0.073 C 
ENDROOT
BRANCH   1   9
HETATM    9  N1  UNL     1      -2.398   2.854  12.066  1.00  0.00    -0.338 N 
HETATM   10  C7  UNL     1      -3.801   3.076  12.092  1.00  0.00     0.239 C 
HETATM   11  O2  UNL     1      -4.314   4.101  11.616  1.00  0.00    -0.272 OA
ATOM     12  H1  UNL     1      -2.016   2.003  12.480  1.00  0.00     0.164 HD
BRANCH  10  13
HETATM   13  C6  UNL     1      -4.655   2.029  12.712  1.00  0.00     0.178 C 
HETATM   14  C5  UNL     1      -4.880   2.535  14.156  1.00  0.00     0.036 C 
HETATM   15  C4  UNL     1      -4.015   1.698  15.090  1.00  0.00     0.064 C 
HETATM   16  C3  UNL     1      -4.425   0.236  14.963  1.00  0.00     0.281 C 
HETATM   17  O4  UNL     1      -4.768  -0.038  13.632  1.00  0.00    -0.270 OA
HETATM   18  N3  UNL     1      -3.990   0.760  12.866  1.00  0.00    -0.177 NA
BRANCH  16  19
HETATM   19  O1  UNL     1      -5.446  -0.041  15.848  1.00  0.00    -0.360 OA
BRANCH  19  20
HETATM   20  C2  UNL     1      -5.387   0.850  16.910  1.00  0.00     0.166 C 
HETATM   21  C1  UNL     1      -6.807   1.097  17.400  1.00  0.00     0.033 C 
ENDBRANCH  19  20
ENDBRANCH  16  19
BRANCH  18  22
HETATM   22  C14 UNL     1      -3.782   0.083  11.608  1.00  0.00     0.079 C 
HETATM   23  C15 UNL     1      -3.633  -1.395  11.927  1.00  0.00     0.028 C 
HETATM   24  C16 UNL     1      -4.901   0.227  10.626  1.00  0.00     0.028 C 
ENDBRANCH  18  22
ENDBRANCH  10  13
ENDBRANCH   1   9
TORSDOF 5
ENDMDL
