MODEL 1
REMARK VINA RESULT: -7.200593020      0.000      0.000
REMARK  6 active torsions:
REMARK  status: ('A' for Active; 'I' for Inactive)
REMARK    1  A    between atoms: C4_5  and  C5_6 
REMARK    2  A    between atoms: C5_6  and  N1_7 
REMARK    3  A    between atoms: N1_7  and  C6_8 
REMARK    4  A    between atoms: N1_7  and  C12_16 
REMARK    5  A    between atoms: C6_8  and  C7_9 
REMARK    6  A    between atoms: C15_19  and  O2_20 
ROOT
HETATM    1  N1  UNL     1      -5.042   2.987  14.502  1.00  0.00    -0.360 N 
ENDROOT
BRANCH   1   2
HETATM    2  C5  UNL     1      -5.656   4.229  14.256  1.00  0.00     0.127 C 
BRANCH   2   3
HETATM    3  C4  UNL     1      -4.695   5.288  13.773  1.00  0.00     0.089 A 
HETATM    4  S1  UNL     1      -4.384   5.919  12.218  1.00  0.00    -0.081 SA
HETATM    5  C3  UNL     1      -3.164   7.041  12.626  1.00  0.00     0.076 A 
HETATM    6  C2  UNL     1      -3.070   6.852  13.982  1.00  0.00     0.012 A 
HETATM    7  C1  UNL     1      -2.071   7.670  14.783  1.00  0.00     0.068 C 
HETATM    8  N3  UNL     1      -3.841   5.977  14.528  1.00  0.00    -0.353 N 
ATOM      9  H3  UNL     1      -3.798   5.811  15.533  1.00  0.00     0.166 HD
ENDBRANCH   2   3
ENDBRANCH   1   2
BRANCH   1  10
HETATM   10  C6  UNL     1      -3.830   2.666  13.935  1.00  0.00     0.097 C 
BRANCH  10  11
HETATM   11  C7  UNL     1      -3.763   1.633  12.864  1.00  0.00     0.188 C 
HETATM   12  C8  UNL     1      -3.642   2.103  11.454  1.00  0.00     0.309 C 
HETATM   13  N2  UNL     1      -2.943   1.030  10.712  1.00  0.00     0.089 N 
HETATM   14  C9  UNL     1      -1.541   1.007  10.978  1.00  0.00     0.310 C 
HETATM   15  C10 UNL     1      -3.615  -0.216  10.910  1.00  0.00     0.298 C 
HETATM   16  C11 UNL     1      -4.235  -0.449  12.215  1.00  0.00     0.199 C 
HETATM   17  O1  UNL     1      -4.723   0.656  12.886  1.00  0.00    -0.377 OA
ENDBRANCH  10  11
ENDBRANCH   1  10
BRANCH   1  18
HETATM   18  C12 UNL     1      -5.329   2.626  15.851  1.00  0.00     0.091 C 
HETATM   19  C13 UNL     1      -6.741   2.067  15.935  1.00  0.00     0.028 C 
HETATM   20  C14 UNL     1      -6.650   1.029  17.004  1.00  0.00     0.034 C 
HETATM   21  C15 UNL     1      -5.257   0.443  16.741  1.00  0.00     0.120 C 
HETATM   22  C16 UNL     1      -4.444   1.752  16.616  1.00  0.00     0.057 C 
BRANCH  21  23
HETATM   23  O2  UNL     1      -5.237  -0.273  15.575  1.00  0.00    -0.396 OA
ATOM     24  H2  UNL     1      -5.216  -1.207  15.749  1.00  0.00     0.210 HD
ENDBRANCH  21  23
ENDBRANCH   1  18
TORSDOF 6
ENDMDL
MODEL 2
REMARK VINA RESULT: -7.042024608      1.996      4.512
REMARK  6 active torsions:
REMARK  status: ('A' for Active; 'I' for Inactive)
REMARK    1  A    between atoms: C4_5  and  C5_6 
REMARK    2  A    between atoms: C5_6  and  N1_7 
REMARK    3  A    between atoms: N1_7  and  C6_8 
REMARK    4  A    between atoms: N1_7  and  C12_16 
REMARK    5  A    between atoms: C6_8  and  C7_9 
REMARK    6  A    between atoms: C15_19  and  O2_20 
ROOT
HETATM    1  N1  UNL     1      -4.742   2.128  14.693  1.00  0.00    -0.360 N 
ENDROOT
BRANCH   1   2
HETATM    2  C5  UNL     1      -4.501   0.783  14.354  1.00  0.00     0.127 C 
BRANCH   2   3
HETATM    3  C4  UNL     1      -3.937   0.607  12.964  1.00  0.00     0.089 A 
HETATM    4  S1  UNL     1      -4.345  -0.460  11.697  1.00  0.00    -0.081 SA
HETATM    5  C3  UNL     1      -3.197   0.048  10.541  1.00  0.00     0.076 A 
HETATM    6  C2  UNL     1      -2.548   1.042  11.229  1.00  0.00     0.012 A 
HETATM    7  C1  UNL     1      -1.409   1.794  10.560  1.00  0.00     0.068 C 
HETATM    8  N3  UNL     1      -2.934   1.302  12.430  1.00  0.00    -0.353 N 
ATOM      9  H3  UNL     1      -2.475   2.036  12.970  1.00  0.00     0.166 HD
ENDBRANCH   2   3
ENDBRANCH   1   2
BRANCH   1  10
HETATM   10  C6  UNL     1      -5.467   2.953  13.864  1.00  0.00     0.097 C 
BRANCH  10  11
HETATM   11  C7  UNL     1      -4.787   4.066  13.146  1.00  0.00     0.188 C 
HETATM   12  C8  UNL     1      -5.225   5.458  13.452  1.00  0.00     0.309 C 
HETATM   13  N2  UNL     1      -4.058   6.331  13.195  1.00  0.00     0.089 N 
HETATM   14  C9  UNL     1      -3.081   6.255  14.233  1.00  0.00     0.310 C 
HETATM   15  C10 UNL     1      -3.556   6.100  11.877  1.00  0.00     0.298 C 
HETATM   16  C11 UNL     1      -3.636   4.735  11.355  1.00  0.00     0.199 C 
HETATM   17  O1  UNL     1      -4.696   3.959  11.783  1.00  0.00    -0.377 OA
ENDBRANCH  10  11
ENDBRANCH   1  10
BRANCH   1  18
HETATM   18  C12 UNL     1      -4.909   2.192  16.106  1.00  0.00     0.091 C 
HETATM   19  C13 UNL     1      -6.198   2.930  16.432  1.00  0.00     0.028 C 
HETATM   20  C14 UNL     1      -6.691   2.258  17.670  1.00  0.00     0.034 C 
HETATM   21  C15 UNL     1      -6.307   0.797  17.396  1.00  0.00     0.120 C 
HETATM   22  C16 UNL     1      -4.843   0.995  16.941  1.00  0.00     0.057 C 
BRANCH  21  23
HETATM   23  O2  UNL     1      -7.076   0.267  16.397  1.00  0.00    -0.396 OA
ATOM     24  H2  UNL     1      -6.989  -0.679  16.365  1.00  0.00     0.210 HD
ENDBRANCH  21  23
ENDBRANCH   1  18
TORSDOF 6
ENDMDL
MODEL 3
REMARK VINA RESULT: -7.009450845      1.595      1.833
REMARK  6 active torsions:
REMARK  status: ('A' for Active; 'I' for Inactive)
REMARK    1  A    between atoms: C4_5  and  C5_6 
REMARK    2  A    between atoms: C5_6  and  N1_7 
REMARK    3  A    between atoms: N1_7  and  C6_8 
REMARK    4  A    between atoms: N1_7  and  C12_16 
REMARK    5  A    between atoms: C6_8  and  C7_9 
REMARK    6  A    between atoms: C15_19  and  O2_20 
ROOT
HETATM    1  N1  UNL     1      -4.363   2.014  15.255  1.00  0.00    -0.360 N 
ENDROOT
BRANCH   1   2
HETATM    2  C5  UNL     1      -3.223   2.766  15.594  1.00  0.00     0.127 C 
BRANCH   2   3
HETATM    3  C4  UNL     1      -2.974   3.929  14.664  1.00  0.00     0.089 A 
HETATM    4  S1  UNL     1      -3.973   5.218  14.161  1.00  0.00    -0.081 SA
HETATM    5  C3  UNL     1      -2.875   6.018  13.128  1.00  0.00     0.076 A 
HETATM    6  C2  UNL     1      -1.769   5.212  13.239  1.00  0.00     0.012 A 
HETATM    7  C1  UNL     1      -0.510   5.558  12.460  1.00  0.00     0.068 C 
HETATM    8  N3  UNL     1      -1.842   4.182  14.009  1.00  0.00    -0.353 N 
ATOM      9  H3  UNL     1      -1.039   3.563  14.115  1.00  0.00     0.166 HD
ENDBRANCH   2   3
ENDBRANCH   1   2
BRANCH   1  10
HETATM   10  C6  UNL     1      -4.251   0.768  14.681  1.00  0.00     0.097 C 
BRANCH  10  11
HETATM   11  C7  UNL     1      -4.253   0.633  13.198  1.00  0.00     0.188 C 
HETATM   12  C8  UNL     1      -4.964   1.677  12.407  1.00  0.00     0.309 C 
HETATM   13  N2  UNL     1      -4.297   1.731  11.087  1.00  0.00     0.089 N 
HETATM   14  C9  UNL     1      -3.045   2.414  11.136  1.00  0.00     0.310 C 
HETATM   15  C10 UNL     1      -4.248   0.423  10.511  1.00  0.00     0.298 C 
HETATM   16  C11 UNL     1      -4.079  -0.709  11.424  1.00  0.00     0.199 C 
HETATM   17  O1  UNL     1      -4.620  -0.585  12.688  1.00  0.00    -0.377 OA
ENDBRANCH  10  11
ENDBRANCH   1  10
BRANCH   1  18
HETATM   18  C12 UNL     1      -5.356   2.269  16.245  1.00  0.00     0.091 C 
HETATM   19  C13 UNL     1      -6.727   1.917  15.690  1.00  0.00     0.028 C 
HETATM   20  C14 UNL     1      -7.474   1.411  16.880  1.00  0.00     0.034 C 
HETATM   21  C15 UNL     1      -6.371   0.654  17.632  1.00  0.00     0.120 C 
HETATM   22  C16 UNL     1      -5.253   1.721  17.594  1.00  0.00     0.057 C 
BRANCH  21  23
HETATM   23  O2  UNL     1      -6.006  -0.479  16.959  1.00  0.00    -0.396 OA
ATOM     24  H2  UNL     1      -5.098  -0.435  16.684  1.00  0.00     0.210 HD
ENDBRANCH  21  23
ENDBRANCH   1  18
TORSDOF 6
ENDMDL
MODEL 4
REMARK VINA RESULT: -6.869964851      0.949      1.044
REMARK  6 active torsions:
REMARK  status: ('A' for Active; 'I' for Inactive)
REMARK    1  A    between atoms: C4_5  and  C5_6 
REMARK    2  A    between atoms: C5_6  and  N1_7 
REMARK    3  A    between atoms: N1_7  and  C6_8 
REMARK    4  A    between atoms: N1_7  and  C12_16 
REMARK    5  A    between atoms: C6_8  and  C7_9 
REMARK    6  A    between atoms: C15_19  and  O2_20 
ROOT
HETATM    1  N1  UNL     1      -4.483   3.212  14.037  1.00  0.00    -0.360 N 
ENDROOT
BRANCH   1   2
HETATM    2  C5  UNL     1      -3.131   3.577  13.896  1.00  0.00     0.127 C 
BRANCH   2   3
HETATM    3  C4  UNL     1      -2.935   5.043  13.590  1.00  0.00     0.089 A 
HETATM    4  S1  UNL     1      -3.154   5.946  12.158  1.00  0.00    -0.081 SA
HETATM    5  C3  UNL     1      -2.693   7.483  12.740  1.00  0.00     0.076 A 
HETATM    6  C2  UNL     1      -2.388   7.193  14.047  1.00  0.00     0.012 A 
HETATM    7  C1  UNL     1      -1.913   8.304  14.968  1.00  0.00     0.068 C 
HETATM    8  N3  UNL     1      -2.516   5.974  14.445  1.00  0.00    -0.353 N 
ATOM      9  H3  UNL     1      -2.299   5.724  15.409  1.00  0.00     0.166 HD
ENDBRANCH   2   3
ENDBRANCH   1   2
BRANCH   1  10
HETATM   10  C6  UNL     1      -5.136   2.502  13.057  1.00  0.00     0.097 C 
BRANCH  10  11
HETATM   11  C7  UNL     1      -4.407   1.455  12.289  1.00  0.00     0.188 C 
HETATM   12  C8  UNL     1      -4.039   1.762  10.877  1.00  0.00     0.309 C 
HETATM   13  N2  UNL     1      -2.831   0.962  10.575  1.00  0.00     0.089 N 
HETATM   14  C9  UNL     1      -1.651   1.517  11.156  1.00  0.00     0.310 C 
HETATM   15  C10 UNL     1      -3.065  -0.413  10.885  1.00  0.00     0.298 C 
HETATM   16  C11 UNL     1      -3.928  -0.709  12.030  1.00  0.00     0.199 C 
HETATM   17  O1  UNL     1      -4.938   0.192  12.307  1.00  0.00    -0.377 OA
ENDBRANCH  10  11
ENDBRANCH   1  10
BRANCH   1  18
HETATM   18  C12 UNL     1      -4.708   2.924  15.415  1.00  0.00     0.091 C 
HETATM   19  C13 UNL     1      -6.179   2.606  15.632  1.00  0.00     0.028 C 
HETATM   20  C14 UNL     1      -6.166   1.583  16.719  1.00  0.00     0.034 C 
HETATM   21  C15 UNL     1      -4.914   0.772  16.359  1.00  0.00     0.120 C 
HETATM   22  C16 UNL     1      -3.914   1.928  16.129  1.00  0.00     0.057 C 
BRANCH  21  23
HETATM   23  O2  UNL     1      -5.112   0.046  15.217  1.00  0.00    -0.396 OA
ATOM     24  H2  UNL     1      -4.353   0.093  14.647  1.00  0.00     0.210 HD
ENDBRANCH  21  23
ENDBRANCH   1  18
TORSDOF 6
ENDMDL
MODEL 5
REMARK VINA RESULT: -6.843488261      0.870      1.277
REMARK  6 active torsions:
REMARK  status: ('A' for Active; 'I' for Inactive)
REMARK    1  A    between atoms: C4_5  and  C5_6 
REMARK    2  A    between atoms: C5_6  and  N1_7 
REMARK    3  A    between atoms: N1_7  and  C6_8 
REMARK    4  A    between atoms: N1_7  and  C12_16 
REMARK    5  A    between atoms: C6_8  and  C7_9 
REMARK    6  A    between atoms: C15_19  and  O2_20 
ROOT
HETATM    1  N1  UNL     1      -5.077   2.965  14.483  1.00  0.00    -0.360 N 
ENDROOT
BRANCH   1   2
HETATM    2  C5  UNL     1      -5.733   4.186  14.241  1.00  0.00     0.127 C 
BRANCH   2   3
HETATM    3  C4  UNL     1      -4.823   5.254  13.682  1.00  0.00     0.089 A 
HETATM    4  S1  UNL     1      -3.484   6.073  14.352  1.00  0.00    -0.081 SA
HETATM    5  C3  UNL     1      -3.101   7.082  13.030  1.00  0.00     0.076 A 
HETATM    6  C2  UNL     1      -4.064   6.712  12.124  1.00  0.00     0.012 A 
HETATM    7  C1  UNL     1      -4.103   7.380  10.760  1.00  0.00     0.068 C 
HETATM    8  N3  UNL     1      -4.906   5.802  12.471  1.00  0.00    -0.353 N 
ATOM      9  H3  UNL     1      -5.634   5.502  11.822  1.00  0.00     0.166 HD
ENDBRANCH   2   3
ENDBRANCH   1   2
BRANCH   1  10
HETATM   10  C6  UNL     1      -3.866   2.677  13.896  1.00  0.00     0.097 C 
BRANCH  10  11
HETATM   11  C7  UNL     1      -3.783   1.631  12.840  1.00  0.00     0.188 C 
HETATM   12  C8  UNL     1      -3.648   2.083  11.426  1.00  0.00     0.309 C 
HETATM   13  N2  UNL     1      -2.938   1.003  10.705  1.00  0.00     0.089 N 
HETATM   14  C9  UNL     1      -1.539   0.989  10.987  1.00  0.00     0.310 C 
HETATM   15  C10 UNL     1      -3.607  -0.243  10.912  1.00  0.00     0.298 C 
HETATM   16  C11 UNL     1      -4.241  -0.461  12.213  1.00  0.00     0.199 C 
HETATM   17  O1  UNL     1      -4.740   0.650  12.864  1.00  0.00    -0.377 OA
ENDBRANCH  10  11
ENDBRANCH   1  10
BRANCH   1  18
HETATM   18  C12 UNL     1      -5.331   2.602  15.837  1.00  0.00     0.091 C 
HETATM   19  C13 UNL     1      -6.736   2.031  15.954  1.00  0.00     0.028 C 
HETATM   20  C14 UNL     1      -6.612   0.994  17.021  1.00  0.00     0.034 C 
HETATM   21  C15 UNL     1      -5.219   0.420  16.727  1.00  0.00     0.120 C 
HETATM   22  C16 UNL     1      -4.421   1.737  16.583  1.00  0.00     0.057 C 
BRANCH  21  23
HETATM   23  O2  UNL     1      -5.220  -0.296  15.562  1.00  0.00    -0.396 OA
ATOM     24  H2  UNL     1      -4.381  -0.229  15.120  1.00  0.00     0.210 HD
ENDBRANCH  21  23
ENDBRANCH   1  18
TORSDOF 6
ENDMDL
