MODEL 1
REMARK VINA RESULT: -6.820195757      0.000      0.000
REMARK  7 active torsions:
REMARK  status: ('A' for Active; 'I' for Inactive)
REMARK    1  A    between atoms: O1_2  and  C2_3 
REMARK    2  A    between atoms: C2_3  and  C3_5 
REMARK    3  A    between atoms: C3_5  and  O3_6 
REMARK    4  A    between atoms: O3_6  and  C4_7 
REMARK    5  A    between atoms: N1_15  and  C12_16 
REMARK    6  A    between atoms: C15_19  and  O4_20 
REMARK    7  A    between atoms: C16_22  and  O5_23 
ROOT
HETATM    1  C4  UNL     1      -4.911   2.906  13.504  1.00  0.00     0.122 C 
HETATM    2  C5  UNL     1      -5.296   3.701  14.749  1.00  0.00     0.033 C 
HETATM    3  C6  UNL     1      -5.256   5.158  14.373  1.00  0.00     0.014 C 
HETATM    4  C7  UNL     1      -3.904   5.482  13.803  1.00  0.00    -0.012 C 
HETATM    5  C8  UNL     1      -2.913   4.351  13.967  1.00  0.00     0.014 C 
HETATM    6  C9  UNL     1      -3.421   3.092  13.321  1.00  0.00     0.033 C 
HETATM    7  C10 UNL     1      -3.945   5.850  12.354  1.00  0.00     0.041 C 
HETATM    8  C11 UNL     1      -2.776   6.819  12.233  1.00  0.00     0.274 C 
HETATM    9  N1  UNL     1      -2.841   7.576  13.435  1.00  0.00     0.096 N 
HETATM   10  C18 UNL     1      -3.396   6.723  14.466  1.00  0.00     0.282 C 
ENDROOT
BRANCH   9  11
HETATM   11  C12 UNL     1      -1.599   8.088  13.905  1.00  0.00     0.254 C 
HETATM   12  C13 UNL     1      -1.852   8.708  15.287  1.00  0.00     0.041 C 
HETATM   13  C14 UNL     1      -0.556   9.462  15.498  1.00  0.00     0.036 C 
HETATM   14  C15 UNL     1      -0.049   9.831  14.136  1.00  0.00     0.149 C 
HETATM   15  C16 UNL     1      -1.090   9.285  13.147  1.00  0.00     0.182 C 
BRANCH  14  16
HETATM   16  O4  UNL     1       1.175   9.152  13.950  1.00  0.00    -0.393 OA
ATOM     17  H4  UNL     1       1.846   9.815  13.829  1.00  0.00     0.210 HD
ENDBRANCH  14  16
BRANCH  15  18
HETATM   18  O5  UNL     1      -2.029  10.279  12.982  1.00  0.00    -0.386 OA
HETATM   19  C17 UNL     1      -2.081  10.676  11.661  1.00  0.00     0.202 C 
ENDBRANCH  15  18
ENDBRANCH   9  11
BRANCH   1  20
HETATM   20  O3  UNL     1      -5.285   1.587  13.581  1.00  0.00    -0.376 OA
BRANCH  20  21
HETATM   21  C3  UNL     1      -4.222   0.805  14.037  1.00  0.00     0.279 C 
BRANCH  21  22
HETATM   22  C2  UNL     1      -4.349   0.518  15.485  1.00  0.00     0.282 C 
HETATM   23  O2  UNL     1      -3.410   0.838  16.248  1.00  0.00    -0.263 OA
BRANCH  22  24
HETATM   24  O1  UNL     1      -5.459  -0.092  16.052  1.00  0.00    -0.325 OA
HETATM   25  C1  UNL     1      -6.035   0.462  17.237  1.00  0.00     0.213 C 
ENDBRANCH  22  24
ENDBRANCH  21  22
ENDBRANCH  20  21
ENDBRANCH   1  20
TORSDOF 7
ENDMDL
MODEL 2
REMARK VINA RESULT: -6.772918794      1.064      1.357
REMARK  7 active torsions:
REMARK  status: ('A' for Active; 'I' for Inactive)
REMARK    1  A    between atoms: O1_2  and  C2_3 
REMARK    2  A    between atoms: C2_3  and  C3_5 
REMARK    3  A    between atoms: C3_5  and  O3_6 
REMARK    4  A    between atoms: O3_6  and  C4_7 
REMARK    5  A    between atoms: N1_15  and  C12_16 
REMARK    6  A    between atoms: C15_19  and  O4_20 
REMARK    7  A    between atoms: C16_22  and  O5_23 
ROOT
HETATM    1  C4  UNL     1      -5.051   2.536  14.464  1.00  0.00     0.122 C 
HETATM    2  C5  UNL     1      -5.676   3.708  15.218  1.00  0.00     0.033 C 
HETATM    3  C6  UNL     1      -5.484   4.934  14.369  1.00  0.00     0.014 C 
HETATM    4  C7  UNL     1      -4.023   5.089  14.050  1.00  0.00    -0.012 C 
HETATM    5  C8  UNL     1      -3.150   4.132  14.832  1.00  0.00     0.014 C 
HETATM    6  C9  UNL     1      -3.552   2.706  14.577  1.00  0.00     0.033 C 
HETATM    7  C10 UNL     1      -3.712   4.913  12.598  1.00  0.00     0.041 C 
HETATM    8  C11 UNL     1      -2.503   5.822  12.414  1.00  0.00     0.274 C 
HETATM    9  N1  UNL     1      -2.809   6.955  13.217  1.00  0.00     0.096 N 
HETATM   10  C18 UNL     1      -3.626   6.504  14.326  1.00  0.00     0.282 C 
ENDROOT
BRANCH   9  11
HETATM   11  C12 UNL     1      -1.687   7.651  13.748  1.00  0.00     0.254 C 
HETATM   12  C13 UNL     1      -2.124   8.276  15.080  1.00  0.00     0.041 C 
HETATM   13  C14 UNL     1      -0.963   9.211  15.346  1.00  0.00     0.036 C 
HETATM   14  C15 UNL     1      -0.412   9.601  14.007  1.00  0.00     0.149 C 
HETATM   15  C16 UNL     1      -1.292   8.880  12.974  1.00  0.00     0.182 C 
BRANCH  14  16
HETATM   16  O4  UNL     1       0.904   9.094  13.936  1.00  0.00    -0.393 OA
ATOM     17  H4  UNL     1       0.860   8.267  13.469  1.00  0.00     0.210 HD
ENDBRANCH  14  16
BRANCH  15  18
HETATM   18  O5  UNL     1      -2.344   9.727  12.702  1.00  0.00    -0.386 OA
HETATM   19  C17 UNL     1      -1.884  10.894  12.125  1.00  0.00     0.202 C 
ENDBRANCH  15  18
ENDBRANCH   9  11
BRANCH   1  20
HETATM   20  O3  UNL     1      -5.493   1.318  14.918  1.00  0.00    -0.376 OA
BRANCH  20  21
HETATM   21  C3  UNL     1      -4.926   1.026  16.159  1.00  0.00     0.279 C 
BRANCH  21  22
HETATM   22  C2  UNL     1      -5.948   0.538  17.115  1.00  0.00     0.282 C 
HETATM   23  O2  UNL     1      -5.991  -0.685  17.380  1.00  0.00    -0.263 OA
BRANCH  22  24
HETATM   24  O1  UNL     1      -6.870   1.364  17.741  1.00  0.00    -0.325 OA
HETATM   25  C1  UNL     1      -6.420   2.308  18.715  1.00  0.00     0.213 C 
ENDBRANCH  22  24
ENDBRANCH  21  22
ENDBRANCH  20  21
ENDBRANCH   1  20
TORSDOF 7
ENDMDL
MODEL 3
REMARK VINA RESULT: -6.761837804      4.592      5.853
REMARK  7 active torsions:
REMARK  status: ('A' for Active; 'I' for Inactive)
REMARK    1  A    between atoms: O1_2  and  C2_3 
REMARK    2  A    between atoms: C2_3  and  C3_5 
REMARK    3  A    between atoms: C3_5  and  O3_6 
REMARK    4  A    between atoms: O3_6  and  C4_7 
REMARK    5  A    between atoms: N1_15  and  C12_16 
REMARK    6  A    between atoms: C15_19  and  O4_20 
REMARK    7  A    between atoms: C16_22  and  O5_23 
ROOT
HETATM    1  C4  UNL     1      -3.651   1.421  12.725  1.00  0.00     0.122 C 
HETATM    2  C5  UNL     1      -3.391   0.590  11.471  1.00  0.00     0.033 C 
HETATM    3  C6  UNL     1      -1.954   0.811  11.085  1.00  0.00     0.014 C 
HETATM    4  C7  UNL     1      -1.704   2.285  10.935  1.00  0.00    -0.012 C 
HETATM    5  C8  UNL     1      -2.977   3.101  10.988  1.00  0.00     0.014 C 
HETATM    6  C9  UNL     1      -3.715   2.864  12.276  1.00  0.00     0.033 C 
HETATM    7  C10 UNL     1      -0.763   2.834  11.959  1.00  0.00     0.041 C 
HETATM    8  C11 UNL     1      -0.095   3.977  11.205  1.00  0.00     0.274 C 
HETATM    9  N1  UNL     1       0.083   3.456   9.894  1.00  0.00     0.096 N 
HETATM   10  C18 UNL     1      -0.990   2.515   9.641  1.00  0.00     0.282 C 
ENDROOT
BRANCH   9  11
HETATM   11  C12 UNL     1       0.084   4.418   8.846  1.00  0.00     0.254 C 
HETATM   12  C13 UNL     1      -0.735   3.834   7.686  1.00  0.00     0.041 C 
HETATM   13  C14 UNL     1      -0.380   4.801   6.577  1.00  0.00     0.036 C 
HETATM   14  C15 UNL     1       0.994   5.317   6.882  1.00  0.00     0.149 C 
HETATM   15  C16 UNL     1       1.420   4.613   8.179  1.00  0.00     0.182 C 
BRANCH  14  16
HETATM   16  O4  UNL     1       0.874   6.704   7.120  1.00  0.00    -0.393 OA
ATOM     17  H4  UNL     1       1.739   7.081   7.013  1.00  0.00     0.210 HD
ENDBRANCH  14  16
BRANCH  15  18
HETATM   18  O5  UNL     1       2.029   3.437   7.801  1.00  0.00    -0.386 OA
HETATM   19  C17 UNL     1       3.117   3.698   6.993  1.00  0.00     0.202 C 
ENDBRANCH  15  18
ENDBRANCH   9  11
BRANCH   1  20
HETATM   20  O3  UNL     1      -4.773   1.017  13.405  1.00  0.00    -0.376 OA
BRANCH  20  21
HETATM   21  C3  UNL     1      -4.879   1.697  14.619  1.00  0.00     0.279 C 
BRANCH  21  22
HETATM   22  C2  UNL     1      -4.860   0.757  15.765  1.00  0.00     0.282 C 
HETATM   23  O2  UNL     1      -3.769   0.511  16.326  1.00  0.00    -0.263 OA
BRANCH  22  24
HETATM   24  O1  UNL     1      -5.994   0.127  16.259  1.00  0.00    -0.325 OA
HETATM   25  C1  UNL     1      -6.968   0.892  16.972  1.00  0.00     0.213 C 
ENDBRANCH  22  24
ENDBRANCH  21  22
ENDBRANCH  20  21
ENDBRANCH   1  20
TORSDOF 7
ENDMDL
MODEL 4
REMARK VINA RESULT: -6.760577890      2.959      4.139
REMARK  7 active torsions:
REMARK  status: ('A' for Active; 'I' for Inactive)
REMARK    1  A    between atoms: O1_2  and  C2_3 
REMARK    2  A    between atoms: C2_3  and  C3_5 
REMARK    3  A    between atoms: C3_5  and  O3_6 
REMARK    4  A    between atoms: O3_6  and  C4_7 
REMARK    5  A    between atoms: N1_15  and  C12_16 
REMARK    6  A    between atoms: C15_19  and  O4_20 
REMARK    7  A    between atoms: C16_22  and  O5_23 
ROOT
HETATM    1  C4  UNL     1      -3.355   2.540  14.688  1.00  0.00     0.122 C 
HETATM    2  C5  UNL     1      -4.122   2.155  13.426  1.00  0.00     0.033 C 
HETATM    3  C6  UNL     1      -3.651   3.066  12.325  1.00  0.00     0.014 C 
HETATM    4  C7  UNL     1      -3.820   4.494  12.762  1.00  0.00    -0.012 C 
HETATM    5  C8  UNL     1      -4.602   4.622  14.051  1.00  0.00     0.014 C 
HETATM    6  C9  UNL     1      -3.941   3.852  15.160  1.00  0.00     0.033 C 
HETATM    7  C10 UNL     1      -2.523   5.218  12.937  1.00  0.00     0.041 C 
HETATM    8  C11 UNL     1      -2.905   6.653  12.596  1.00  0.00     0.274 C 
HETATM    9  N1  UNL     1      -3.804   6.511  11.504  1.00  0.00     0.096 N 
HETATM   10  C18 UNL     1      -4.498   5.248  11.662  1.00  0.00     0.282 C 
ENDROOT
BRANCH   9  11
HETATM   11  C12 UNL     1      -4.780   7.538  11.375  1.00  0.00     0.254 C 
HETATM   12  C13 UNL     1      -6.151   6.906  11.652  1.00  0.00     0.041 C 
HETATM   13  C14 UNL     1      -7.071   8.011  11.177  1.00  0.00     0.036 C 
HETATM   14  C15 UNL     1      -6.331   8.752  10.104  1.00  0.00     0.149 C 
HETATM   15  C16 UNL     1      -4.978   8.038   9.969  1.00  0.00     0.182 C 
BRANCH  14  16
HETATM   16  O4  UNL     1      -6.122  10.066  10.576  1.00  0.00    -0.393 OA
ATOM     17  H4  UNL     1      -6.914  10.328  11.032  1.00  0.00     0.210 HD
ENDBRANCH  14  16
BRANCH  15  18
HETATM   18  O5  UNL     1      -5.159   7.035   9.043  1.00  0.00    -0.386 OA
HETATM   19  C17 UNL     1      -5.508   7.568   7.818  1.00  0.00     0.202 C 
ENDBRANCH  15  18
ENDBRANCH   9  11
BRANCH   1  20
HETATM   20  O3  UNL     1      -3.385   1.559  15.647  1.00  0.00    -0.376 OA
BRANCH  20  21
HETATM   21  C3  UNL     1      -4.573   1.627  16.376  1.00  0.00     0.279 C 
BRANCH  21  22
HETATM   22  C2  UNL     1      -5.348   0.370  16.260  1.00  0.00     0.282 C 
HETATM   23  O2  UNL     1      -4.890  -0.559  15.557  1.00  0.00    -0.263 OA
BRANCH  22  24
HETATM   24  O1  UNL     1      -6.567   0.157  16.891  1.00  0.00    -0.325 OA
HETATM   25  C1  UNL     1      -7.487   1.242  17.024  1.00  0.00     0.213 C 
ENDBRANCH  22  24
ENDBRANCH  21  22
ENDBRANCH  20  21
ENDBRANCH   1  20
TORSDOF 7
ENDMDL
MODEL 5
REMARK VINA RESULT: -6.559842672      4.333      5.057
REMARK  7 active torsions:
REMARK  status: ('A' for Active; 'I' for Inactive)
REMARK    1  A    between atoms: O1_2  and  C2_3 
REMARK    2  A    between atoms: C2_3  and  C3_5 
REMARK    3  A    between atoms: C3_5  and  O3_6 
REMARK    4  A    between atoms: O3_6  and  C4_7 
REMARK    5  A    between atoms: N1_15  and  C12_16 
REMARK    6  A    between atoms: C15_19  and  O4_20 
REMARK    7  A    between atoms: C16_22  and  O5_23 
ROOT
HETATM    1  C4  UNL     1      -4.122   2.763  13.038  1.00  0.00     0.122 C 
HETATM    2  C5  UNL     1      -3.033   3.580  13.731  1.00  0.00     0.033 C 
HETATM    3  C6  UNL     1      -2.510   4.566  12.723  1.00  0.00     0.014 C 
HETATM    4  C7  UNL     1      -2.065   3.825  11.493  1.00  0.00    -0.012 C 
HETATM    5  C8  UNL     1      -2.052   2.325  11.688  1.00  0.00     0.014 C 
HETATM    6  C9  UNL     1      -3.412   1.823  12.090  1.00  0.00     0.033 C 
HETATM    7  C10 UNL     1      -2.896   4.125  10.287  1.00  0.00     0.041 C 
HETATM    8  C11 UNL     1      -1.893   3.958   9.153  1.00  0.00     0.274 C 
HETATM    9  N1  UNL     1      -0.696   4.518   9.678  1.00  0.00     0.096 N 
HETATM   10  C18 UNL     1      -0.704   4.314  11.113  1.00  0.00     0.282 C 
ENDROOT
BRANCH   9  11
HETATM   11  C12 UNL     1       0.513   3.975   9.161  1.00  0.00     0.254 C 
HETATM   12  C13 UNL     1       1.575   4.088  10.264  1.00  0.00     0.041 C 
HETATM   13  C14 UNL     1       2.831   3.778   9.477  1.00  0.00     0.036 C 
HETATM   14  C15 UNL     1       2.572   4.217   8.067  1.00  0.00     0.149 C 
HETATM   15  C16 UNL     1       1.149   4.795   8.070  1.00  0.00     0.182 C 
BRANCH  14  16
HETATM   16  O4  UNL     1       2.605   3.059   7.259  1.00  0.00    -0.393 OA
ATOM     17  H4  UNL     1       3.120   3.270   6.489  1.00  0.00     0.210 HD
ENDBRANCH  14  16
BRANCH  15  18
HETATM   18  O5  UNL     1       1.274   6.131   8.381  1.00  0.00    -0.386 OA
HETATM   19  C17 UNL     1       1.990   6.788   7.400  1.00  0.00     0.202 C 
ENDBRANCH  15  18
ENDBRANCH   9  11
BRANCH   1  20
HETATM   20  O3  UNL     1      -4.944   2.116  13.927  1.00  0.00    -0.376 OA
BRANCH  20  21
HETATM   21  C3  UNL     1      -4.475   0.824  14.172  1.00  0.00     0.279 C 
BRANCH  21  22
HETATM   22  C2  UNL     1      -4.397   0.548  15.626  1.00  0.00     0.282 C 
HETATM   23  O2  UNL     1      -3.397   0.947  16.263  1.00  0.00    -0.263 OA
BRANCH  22  24
HETATM   24  O1  UNL     1      -5.379  -0.134  16.331  1.00  0.00    -0.325 OA
HETATM   25  C1  UNL     1      -6.070   0.530  17.392  1.00  0.00     0.213 C 
ENDBRANCH  22  24
ENDBRANCH  21  22
ENDBRANCH  20  21
ENDBRANCH   1  20
TORSDOF 7
ENDMDL
