MODEL 1
REMARK VINA RESULT: -7.098275377      0.000      0.000
REMARK  6 active torsions:
REMARK  status: ('A' for Active; 'I' for Inactive)
REMARK    1  A    between atoms: C5_5  and  C6_6 
REMARK    2  A    between atoms: C6_6  and  N1_7 
REMARK    3  A    between atoms: C9_12  and  C10_13 
REMARK    4  A    between atoms: C10_13  and  N3_14 
REMARK    5  A    between atoms: C14_19  and  C15_20 
REMARK    6  A    between atoms: C15_20  and  O2_21 
ROOT
HETATM    1  N1  UNL     1      -3.848   4.580  13.364  1.00  0.00    -0.384 N 
HETATM    2  C7  UNL     1      -4.266   5.927  13.392  1.00  0.00     0.181 C 
HETATM    3  C8  UNL     1      -5.029   6.170  12.107  1.00  0.00     0.059 A 
HETATM    4  N2  UNL     1      -5.971   7.060  11.756  1.00  0.00    -0.339 N 
ATOM      5  H2  UNL     1      -6.346   7.785  12.369  1.00  0.00     0.167 HD
HETATM    6  C9  UNL     1      -6.348   6.858  10.485  1.00  0.00     0.152 A 
HETATM    7  O1  UNL     1      -5.624   5.839  10.075  1.00  0.00    -0.298 OA
HETATM    8  C13 UNL     1      -4.826   5.392  10.989  1.00  0.00     0.087 A 
HETATM    9  C14 UNL     1      -3.847   4.277  10.959  1.00  0.00     0.086 C 
HETATM   10  C16 UNL     1      -3.039   4.231  12.222  1.00  0.00     0.136 C 
ENDROOT
BRANCH   1  11
HETATM   11  C6  UNL     1      -3.630   3.858  14.525  1.00  0.00     0.090 C 
BRANCH  11  12
HETATM   12  C5  UNL     1      -4.330   2.585  14.786  1.00  0.00     0.159 C 
HETATM   13  C4  UNL     1      -3.957   1.865  16.042  1.00  0.00     0.038 C 
HETATM   14  C3  UNL     1      -5.136   1.069  16.599  1.00  0.00     0.009 C 
HETATM   15  C2  UNL     1      -6.296   2.010  16.881  1.00  0.00     0.005 C 
HETATM   16  C1  UNL     1      -7.540   1.171  16.993  1.00  0.00     0.012 C 
HETATM   17  C17 UNL     1      -6.379   3.072  15.803  1.00  0.00     0.172 C 
HETATM   18  O3  UNL     1      -5.723   2.705  14.654  1.00  0.00    -0.380 OA
ENDBRANCH  11  12
ENDBRANCH   1  11
BRANCH   9  19
HETATM   19  C15 UNL     1      -3.007   4.310   9.717  1.00  0.00     0.177 C 
BRANCH  19  20
HETATM   20  O2  UNL     1      -3.807   4.320   8.567  1.00  0.00    -0.400 OA
ATOM     21  H2  UNL     1      -3.880   3.449   8.193  1.00  0.00     0.209 HD
ENDBRANCH  19  20
ENDBRANCH   9  19
BRANCH   6  22
HETATM   22  C10 UNL     1      -7.365   7.633   9.730  1.00  0.00     0.355 C 
BRANCH  22  23
HETATM   23  N3  UNL     1      -7.672   7.040   8.466  1.00  0.00     0.087 N 
HETATM   24  C11 UNL     1      -8.990   7.560   8.065  1.00  0.00     0.309 C 
HETATM   25  C12 UNL     1      -6.771   7.420   7.407  1.00  0.00     0.309 C 
ENDBRANCH  22  23
ENDBRANCH   6  22
TORSDOF 6
ENDMDL
MODEL 2
REMARK VINA RESULT: -6.842802081      2.034      7.449
REMARK  6 active torsions:
REMARK  status: ('A' for Active; 'I' for Inactive)
REMARK    1  A    between atoms: C5_5  and  C6_6 
REMARK    2  A    between atoms: C6_6  and  N1_7 
REMARK    3  A    between atoms: C9_12  and  C10_13 
REMARK    4  A    between atoms: C10_13  and  N3_14 
REMARK    5  A    between atoms: C14_19  and  C15_20 
REMARK    6  A    between atoms: C15_20  and  O2_21 
ROOT
HETATM    1  N1  UNL     1      -4.182   4.667  11.745  1.00  0.00    -0.384 N 
HETATM    2  C7  UNL     1      -4.443   3.290  11.912  1.00  0.00     0.181 C 
HETATM    3  C8  UNL     1      -4.439   3.026  13.403  1.00  0.00     0.059 A 
HETATM    4  N2  UNL     1      -5.001   2.075  14.165  1.00  0.00    -0.339 N 
ATOM      5  H2  UNL     1      -5.569   1.304  13.812  1.00  0.00     0.167 HD
HETATM    6  C9  UNL     1      -4.709   2.284  15.457  1.00  0.00     0.152 A 
HETATM    7  O1  UNL     1      -3.965   3.370  15.464  1.00  0.00    -0.298 OA
HETATM    8  C13 UNL     1      -3.771   3.851  14.279  1.00  0.00     0.087 A 
HETATM    9  C14 UNL     1      -3.005   5.041  13.831  1.00  0.00     0.086 C 
HETATM   10  C16 UNL     1      -2.944   5.113  12.334  1.00  0.00     0.136 C 
ENDROOT
BRANCH   1  11
HETATM   11  C6  UNL     1      -4.634   5.368  10.641  1.00  0.00     0.090 C 
BRANCH  11  12
HETATM   12  C5  UNL     1      -5.768   6.308  10.735  1.00  0.00     0.159 C 
HETATM   13  C4  UNL     1      -5.426   7.739  11.004  1.00  0.00     0.038 C 
HETATM   14  C3  UNL     1      -6.444   8.684  10.369  1.00  0.00     0.009 C 
HETATM   15  C2  UNL     1      -6.490   8.448   8.868  1.00  0.00     0.005 C 
HETATM   16  C1  UNL     1      -7.772   9.047   8.356  1.00  0.00     0.012 C 
HETATM   17  C17 UNL     1      -6.354   6.968   8.570  1.00  0.00     0.172 C 
HETATM   18  O3  UNL     1      -6.657   6.184   9.655  1.00  0.00    -0.380 OA
ENDBRANCH  11  12
ENDBRANCH   1  11
BRANCH   9  19
HETATM   19  C15 UNL     1      -1.659   5.113  14.486  1.00  0.00     0.177 C 
BRANCH  19  20
HETATM   20  O2  UNL     1      -1.339   3.903  15.117  1.00  0.00    -0.400 OA
ATOM     21  H2  UNL     1      -0.447   3.640  14.920  1.00  0.00     0.209 HD
ENDBRANCH  19  20
ENDBRANCH   9  19
BRANCH   6  22
HETATM   22  C10 UNL     1      -5.144   1.454  16.608  1.00  0.00     0.355 C 
BRANCH  22  23
HETATM   23  N3  UNL     1      -6.319   1.971  17.238  1.00  0.00     0.087 N 
HETATM   24  C11 UNL     1      -7.386   0.981  17.017  1.00  0.00     0.309 C 
HETATM   25  C12 UNL     1      -6.207   2.101  18.669  1.00  0.00     0.309 C 
ENDBRANCH  22  23
ENDBRANCH   6  22
TORSDOF 6
ENDMDL
MODEL 3
REMARK VINA RESULT: -6.734602387      0.875      1.248
REMARK  6 active torsions:
REMARK  status: ('A' for Active; 'I' for Inactive)
REMARK    1  A    between atoms: C5_5  and  C6_6 
REMARK    2  A    between atoms: C6_6  and  N1_7 
REMARK    3  A    between atoms: C9_12  and  C10_13 
REMARK    4  A    between atoms: C10_13  and  N3_14 
REMARK    5  A    between atoms: C14_19  and  C15_20 
REMARK    6  A    between atoms: C15_20  and  O2_21 
ROOT
HETATM    1  N1  UNL     1      -3.871   4.407  12.661  1.00  0.00    -0.384 N 
HETATM    2  C7  UNL     1      -4.281   5.740  12.879  1.00  0.00     0.181 C 
HETATM    3  C8  UNL     1      -5.041   6.167  11.642  1.00  0.00     0.059 A 
HETATM    4  N2  UNL     1      -5.977   7.104  11.422  1.00  0.00    -0.339 N 
ATOM      5  H2  UNL     1      -6.347   7.738  12.131  1.00  0.00     0.167 HD
HETATM    6  C9  UNL     1      -6.356   7.087  10.136  1.00  0.00     0.152 A 
HETATM    7  O1  UNL     1      -5.638   6.132   9.584  1.00  0.00    -0.298 OA
HETATM    8  C13 UNL     1      -4.844   5.554  10.426  1.00  0.00     0.087 A 
HETATM    9  C14 UNL     1      -3.872   4.448  10.237  1.00  0.00     0.086 C 
HETATM   10  C16 UNL     1      -3.065   4.218  11.480  1.00  0.00     0.136 C 
ENDROOT
BRANCH   1  11
HETATM   11  C6  UNL     1      -3.659   3.527  13.708  1.00  0.00     0.090 C 
BRANCH  11  12
HETATM   12  C5  UNL     1      -4.400   3.646  14.979  1.00  0.00     0.159 C 
HETATM   13  C4  UNL     1      -5.885   3.487  14.902  1.00  0.00     0.038 C 
HETATM   14  C3  UNL     1      -6.449   2.890  16.189  1.00  0.00     0.009 C 
HETATM   15  C2  UNL     1      -5.808   1.536  16.444  1.00  0.00     0.005 C 
HETATM   16  C1  UNL     1      -6.036   1.194  17.892  1.00  0.00     0.012 C 
HETATM   17  C17 UNL     1      -4.343   1.572  16.056  1.00  0.00     0.172 C 
HETATM   18  O3  UNL     1      -3.848   2.850  15.995  1.00  0.00    -0.380 OA
ENDBRANCH  11  12
ENDBRANCH   1  11
BRANCH   9  19
HETATM   19  C15 UNL     1      -3.033   4.650   9.012  1.00  0.00     0.177 C 
BRANCH  19  20
HETATM   20  O2  UNL     1      -3.819   4.635   7.852  1.00  0.00    -0.400 OA
ATOM     21  H2  UNL     1      -3.495   3.999   7.226  1.00  0.00     0.209 HD
ENDBRANCH  19  20
ENDBRANCH   9  19
BRANCH   6  22
HETATM   22  C10 UNL     1      -7.367   7.969   9.499  1.00  0.00     0.355 C 
BRANCH  22  23
HETATM   23  N3  UNL     1      -7.798   7.472   8.229  1.00  0.00     0.087 N 
HETATM   24  C11 UNL     1      -9.203   7.882   8.071  1.00  0.00     0.309 C 
HETATM   25  C12 UNL     1      -7.102   8.050   7.108  1.00  0.00     0.309 C 
ENDBRANCH  22  23
ENDBRANCH   6  22
TORSDOF 6
ENDMDL
MODEL 4
REMARK VINA RESULT: -6.725547133      0.816      1.035
REMARK  6 active torsions:
REMARK  status: ('A' for Active; 'I' for Inactive)
REMARK    1  A    between atoms: C5_5  and  C6_6 
REMARK    2  A    between atoms: C6_6  and  N1_7 
REMARK    3  A    between atoms: C9_12  and  C10_13 
REMARK    4  A    between atoms: C10_13  and  N3_14 
REMARK    5  A    between atoms: C14_19  and  C15_20 
REMARK    6  A    between atoms: C15_20  and  O2_21 
ROOT
HETATM    1  N1  UNL     1      -3.865   4.855  13.273  1.00  0.00    -0.384 N 
HETATM    2  C7  UNL     1      -4.497   6.097  13.048  1.00  0.00     0.181 C 
HETATM    3  C8  UNL     1      -4.887   6.126  11.586  1.00  0.00     0.059 A 
HETATM    4  N2  UNL     1      -5.826   6.800  10.903  1.00  0.00    -0.339 N 
ATOM      5  H2  UNL     1      -6.479   7.468  11.313  1.00  0.00     0.167 HD
HETATM    6  C9  UNL     1      -5.782   6.468   9.604  1.00  0.00     0.152 A 
HETATM    7  O1  UNL     1      -4.807   5.588   9.513  1.00  0.00    -0.298 OA
HETATM    8  C13 UNL     1      -4.242   5.348  10.651  1.00  0.00     0.087 A 
HETATM    9  C14 UNL     1      -3.120   4.442  11.003  1.00  0.00     0.086 C 
HETATM   10  C16 UNL     1      -2.715   4.613  12.437  1.00  0.00     0.136 C 
ENDROOT
BRANCH   1  11
HETATM   11  C6  UNL     1      -3.871   4.246  14.516  1.00  0.00     0.090 C 
BRANCH  11  12
HETATM   12  C5  UNL     1      -4.479   2.916  14.721  1.00  0.00     0.159 C 
HETATM   13  C4  UNL     1      -3.979   2.128  15.889  1.00  0.00     0.038 C 
HETATM   14  C3  UNL     1      -5.068   1.223  16.458  1.00  0.00     0.009 C 
HETATM   15  C2  UNL     1      -6.257   2.067  16.889  1.00  0.00     0.005 C 
HETATM   16  C1  UNL     1      -7.442   1.147  17.016  1.00  0.00     0.012 C 
HETATM   17  C17 UNL     1      -6.475   3.199  15.904  1.00  0.00     0.172 C 
HETATM   18  O3  UNL     1      -5.882   2.959  14.690  1.00  0.00    -0.380 OA
ENDBRANCH  11  12
ENDBRANCH   1  11
BRANCH   9  19
HETATM   19  C15 UNL     1      -1.978   4.575  10.042  1.00  0.00     0.177 C 
BRANCH  19  20
HETATM   20  O2  UNL     1      -2.355   4.180   8.751  1.00  0.00    -0.400 OA
ATOM     21  H2  UNL     1      -2.101   4.830   8.107  1.00  0.00     0.209 HD
ENDBRANCH  19  20
ENDBRANCH   9  19
BRANCH   6  22
HETATM   22  C10 UNL     1      -6.655   6.996   8.526  1.00  0.00     0.355 C 
BRANCH  22  23
HETATM   23  N3  UNL     1      -7.657   7.885   9.025  1.00  0.00     0.087 N 
HETATM   24  C11 UNL     1      -7.203   9.251   8.714  1.00  0.00     0.309 C 
HETATM   25  C12 UNL     1      -8.937   7.750   8.375  1.00  0.00     0.309 C 
ENDBRANCH  22  23
ENDBRANCH   6  22
TORSDOF 6
ENDMDL
MODEL 5
REMARK VINA RESULT: -6.644009616      2.188      7.104
REMARK  6 active torsions:
REMARK  status: ('A' for Active; 'I' for Inactive)
REMARK    1  A    between atoms: C5_5  and  C6_6 
REMARK    2  A    between atoms: C6_6  and  N1_7 
REMARK    3  A    between atoms: C9_12  and  C10_13 
REMARK    4  A    between atoms: C10_13  and  N3_14 
REMARK    5  A    between atoms: C14_19  and  C15_20 
REMARK    6  A    between atoms: C15_20  and  O2_21 
ROOT
HETATM    1  N1  UNL     1      -3.993   4.858  11.030  1.00  0.00    -0.384 N 
HETATM    2  C7  UNL     1      -4.249   3.481  11.204  1.00  0.00     0.181 C 
HETATM    3  C8  UNL     1      -4.401   3.253  12.693  1.00  0.00     0.059 A 
HETATM    4  N2  UNL     1      -5.027   2.311  13.415  1.00  0.00    -0.339 N 
ATOM      5  H2  UNL     1      -5.541   1.521  13.024  1.00  0.00     0.167 HD
HETATM    6  C9  UNL     1      -4.879   2.557  14.725  1.00  0.00     0.152 A 
HETATM    7  O1  UNL     1      -4.158   3.656  14.784  1.00  0.00    -0.298 OA
HETATM    8  C13 UNL     1      -3.845   4.112  13.614  1.00  0.00     0.087 A 
HETATM    9  C14 UNL     1      -3.055   5.305  13.220  1.00  0.00     0.086 C 
HETATM   10  C16 UNL     1      -2.834   5.341  11.737  1.00  0.00     0.136 C 
ENDROOT
BRANCH   1  11
HETATM   11  C6  UNL     1      -4.336   5.523   9.866  1.00  0.00     0.090 C 
BRANCH  11  12
HETATM   12  C5  UNL     1      -5.484   6.449   9.815  1.00  0.00     0.159 C 
HETATM   13  C4  UNL     1      -6.007   6.934  11.129  1.00  0.00     0.038 C 
HETATM   14  C3  UNL     1      -6.597   8.338  11.010  1.00  0.00     0.009 C 
HETATM   15  C2  UNL     1      -5.531   9.296  10.505  1.00  0.00     0.005 C 
HETATM   16  C1  UNL     1      -6.234  10.521   9.986  1.00  0.00     0.012 C 
HETATM   17  C17 UNL     1      -4.666   8.611   9.465  1.00  0.00     0.172 C 
HETATM   18  O3  UNL     1      -5.276   7.509   8.919  1.00  0.00    -0.380 OA
ENDBRANCH  11  12
ENDBRANCH   1  11
BRANCH   9  19
HETATM   19  C15 UNL     1      -1.788   5.418  14.014  1.00  0.00     0.177 C 
BRANCH  19  20
HETATM   20  O2  UNL     1      -1.346   4.159  14.442  1.00  0.00    -0.400 OA
ATOM     21  H2  UNL     1      -1.989   3.744  15.006  1.00  0.00     0.209 HD
ENDBRANCH  19  20
ENDBRANCH   9  19
BRANCH   6  22
HETATM   22  C10 UNL     1      -5.422   1.746  15.845  1.00  0.00     0.355 C 
BRANCH  22  23
HETATM   23  N3  UNL     1      -6.775   2.090  16.157  1.00  0.00     0.087 N 
HETATM   24  C11 UNL     1      -7.267   1.059  17.086  1.00  0.00     0.309 C 
HETATM   25  C12 UNL     1      -6.914   3.339  16.863  1.00  0.00     0.309 C 
ENDBRANCH  22  23
ENDBRANCH   6  22
TORSDOF 6
ENDMDL
