MODEL 1
REMARK VINA RESULT: -5.582939111      0.000      0.000
REMARK  9 active torsions:
REMARK  status: ('A' for Active; 'I' for Inactive)
REMARK    1  A    between atoms: C2_2  and  C3_3 
REMARK    2  A    between atoms: C3_3  and  S1_4 
REMARK    3  A    between atoms: S1_4  and  C4_5 
REMARK    4  A    between atoms: C4_5  and  N1_7 
REMARK    5  A    between atoms: N1_7  and  C5_9 
REMARK    6  A    between atoms: C5_9  and  N2_11 
REMARK    7  A    between atoms: N3_14  and  C8_15 
REMARK    8  A    between atoms: C8_15  and  C9_16 
REMARK    9  A    between atoms: C9_16  and  O1_17 
ROOT
HETATM    1  N2  UNL     1      -4.108   3.331  12.640  1.00  0.00    -0.348 N 
HETATM    2  C6  UNL     1      -4.612   1.965  12.702  1.00  0.00     0.145 C 
HETATM    3  C7  UNL     1      -4.561   1.417  14.095  1.00  0.00     0.145 C 
HETATM    4  N3  UNL     1      -5.085   2.416  15.044  1.00  0.00    -0.347 N 
HETATM    5  C11 UNL     1      -5.512   3.652  14.538  1.00  0.00     0.237 C 
HETATM    6  O2  UNL     1      -6.576   4.126  15.005  1.00  0.00    -0.272 OA
HETATM    7  C12 UNL     1      -4.707   4.342  13.488  1.00  0.00     0.228 C 
ENDROOT
BRANCH   1   8
HETATM    8  C5  UNL     1      -3.048   3.710  11.779  1.00  0.00     0.175 C 
HETATM    9  S3  UNL     1      -3.489   4.274  10.290  1.00  0.00    -0.041 SA
BRANCH   8  10
HETATM   10  N1  UNL     1      -1.710   3.606  12.184  1.00  0.00    -0.319 N 
ATOM     11  H1  UNL     1      -1.453   2.793  12.744  1.00  0.00     0.169 HD
BRANCH  10  12
HETATM   12  C4  UNL     1      -0.694   4.524  11.884  1.00  0.00     0.140 C 
HETATM   13  S2  UNL     1       0.649   4.073  11.042  1.00  0.00    -0.052 SA
BRANCH  12  14
HETATM   14  S1  UNL     1      -0.770   6.227  12.378  1.00  0.00    -0.100 SA
BRANCH  14  15
HETATM   15  C3  UNL     1      -1.619   6.340  13.966  1.00  0.00     0.081 C 
BRANCH  15  16
HETATM   16  C2  UNL     1      -2.369   7.654  14.003  1.00  0.00     0.006 C 
HETATM   17  C1  UNL     1      -1.938   8.337  15.302  1.00  0.00     0.006 C 
ENDBRANCH  15  16
ENDBRANCH  14  15
ENDBRANCH  12  14
ENDBRANCH  10  12
ENDBRANCH   8  10
ENDBRANCH   1   8
BRANCH   4  18
HETATM   18  C8  UNL     1      -5.105   2.033  16.447  1.00  0.00     0.152 C 
BRANCH  18  19
HETATM   19  C9  UNL     1      -5.313   0.544  16.514  1.00  0.00     0.186 C 
BRANCH  19  20
HETATM   20  O1  UNL     1      -6.604   0.128  16.680  1.00  0.00    -0.394 OA
HETATM   21  C10 UNL     1      -7.488   1.110  17.036  1.00  0.00     0.201 C 
ENDBRANCH  19  20
ENDBRANCH  18  19
ENDBRANCH   4  18
TORSDOF 9
ENDMDL
MODEL 2
REMARK VINA RESULT: -5.479888733      3.609      6.942
REMARK  9 active torsions:
REMARK  status: ('A' for Active; 'I' for Inactive)
REMARK    1  A    between atoms: C2_2  and  C3_3 
REMARK    2  A    between atoms: C3_3  and  S1_4 
REMARK    3  A    between atoms: S1_4  and  C4_5 
REMARK    4  A    between atoms: C4_5  and  N1_7 
REMARK    5  A    between atoms: N1_7  and  C5_9 
REMARK    6  A    between atoms: C5_9  and  N2_11 
REMARK    7  A    between atoms: N3_14  and  C8_15 
REMARK    8  A    between atoms: C8_15  and  C9_16 
REMARK    9  A    between atoms: C9_16  and  O1_17 
ROOT
HETATM    1  N2  UNL     1      -3.772   4.327  12.252  1.00  0.00    -0.348 N 
HETATM    2  C6  UNL     1      -3.285   5.697  12.149  1.00  0.00     0.145 C 
HETATM    3  C7  UNL     1      -2.041   5.783  11.319  1.00  0.00     0.145 C 
HETATM    4  N3  UNL     1      -2.206   4.990  10.088  1.00  0.00    -0.347 N 
HETATM    5  C11 UNL     1      -3.416   4.306   9.897  1.00  0.00     0.237 C 
HETATM    6  O2  UNL     1      -3.916   4.338   8.745  1.00  0.00    -0.272 OA
HETATM    7  C12 UNL     1      -4.050   3.585  11.038  1.00  0.00     0.228 C 
ENDROOT
BRANCH   1   8
HETATM    8  C5  UNL     1      -3.983   3.689  13.499  1.00  0.00     0.175 C 
HETATM    9  S3  UNL     1      -3.083   4.253  14.765  1.00  0.00    -0.041 SA
BRANCH   8  10
HETATM   10  N1  UNL     1      -4.905   2.640  13.633  1.00  0.00    -0.319 N 
ATOM     11  H1  UNL     1      -5.893   2.872  13.529  1.00  0.00     0.169 HD
BRANCH  10  12
HETATM   12  C4  UNL     1      -4.584   1.302  13.896  1.00  0.00     0.140 C 
HETATM   13  S2  UNL     1      -4.192   0.259  12.681  1.00  0.00    -0.052 SA
BRANCH  12  14
HETATM   14  S1  UNL     1      -4.571   0.628  15.537  1.00  0.00    -0.100 SA
BRANCH  14  15
HETATM   15  C3  UNL     1      -5.102   1.902  16.699  1.00  0.00     0.081 C 
BRANCH  15  16
HETATM   16  C2  UNL     1      -6.012   1.255  17.720  1.00  0.00     0.006 C 
HETATM   17  C1  UNL     1      -7.362   1.087  17.020  1.00  0.00     0.006 C 
ENDBRANCH  15  16
ENDBRANCH  14  15
ENDBRANCH  12  14
ENDBRANCH  10  12
ENDBRANCH   8  10
ENDBRANCH   1   8
BRANCH   4  18
HETATM   18  C8  UNL     1      -1.080   4.973   9.169  1.00  0.00     0.152 C 
BRANCH  18  19
HETATM   19  C9  UNL     1       0.177   4.817   9.983  1.00  0.00     0.186 C 
BRANCH  19  20
HETATM   20  O1  UNL     1       0.808   3.610   9.880  1.00  0.00    -0.394 OA
HETATM   21  C10 UNL     1       2.078   3.660   9.373  1.00  0.00     0.201 C 
ENDBRANCH  19  20
ENDBRANCH  18  19
ENDBRANCH   4  18
TORSDOF 9
ENDMDL
MODEL 3
REMARK VINA RESULT: -5.469181061      2.376      3.217
REMARK  9 active torsions:
REMARK  status: ('A' for Active; 'I' for Inactive)
REMARK    1  A    between atoms: C2_2  and  C3_3 
REMARK    2  A    between atoms: C3_3  and  S1_4 
REMARK    3  A    between atoms: S1_4  and  C4_5 
REMARK    4  A    between atoms: C4_5  and  N1_7 
REMARK    5  A    between atoms: N1_7  and  C5_9 
REMARK    6  A    between atoms: C5_9  and  N2_11 
REMARK    7  A    between atoms: N3_14  and  C8_15 
REMARK    8  A    between atoms: C8_15  and  C9_16 
REMARK    9  A    between atoms: C9_16  and  O1_17 
ROOT
HETATM    1  N2  UNL     1      -4.263   3.503  12.507  1.00  0.00    -0.348 N 
HETATM    2  C6  UNL     1      -4.773   2.138  12.527  1.00  0.00     0.145 C 
HETATM    3  C7  UNL     1      -4.619   1.508  13.877  1.00  0.00     0.145 C 
HETATM    4  N3  UNL     1      -5.060   2.451  14.921  1.00  0.00    -0.347 N 
HETATM    5  C11 UNL     1      -5.514   3.717  14.523  1.00  0.00     0.237 C 
HETATM    6  O2  UNL     1      -6.535   4.167  15.098  1.00  0.00    -0.272 OA
HETATM    7  C12 UNL     1      -4.785   4.465  13.457  1.00  0.00     0.228 C 
ENDROOT
BRANCH   1   8
HETATM    8  C5  UNL     1      -3.269   3.928  11.591  1.00  0.00     0.175 C 
HETATM    9  S3  UNL     1      -1.755   4.153  12.213  1.00  0.00    -0.041 SA
BRANCH   8  10
HETATM   10  N1  UNL     1      -3.571   4.142  10.238  1.00  0.00    -0.319 N 
ATOM     11  H1  UNL     1      -3.583   3.324   9.628  1.00  0.00     0.169 HD
BRANCH  10  12
HETATM   12  C4  UNL     1      -3.858   5.383   9.654  1.00  0.00     0.140 C 
HETATM   13  S2  UNL     1      -3.153   5.848   8.239  1.00  0.00    -0.052 SA
BRANCH  12  14
HETATM   14  S1  UNL     1      -4.991   6.541  10.378  1.00  0.00    -0.100 SA
BRANCH  14  15
HETATM   15  C3  UNL     1      -6.309   6.890   9.196  1.00  0.00     0.081 C 
BRANCH  15  16
HETATM   16  C2  UNL     1      -7.409   7.630   9.926  1.00  0.00     0.006 C 
HETATM   17  C1  UNL     1      -7.059   7.526  11.412  1.00  0.00     0.006 C 
ENDBRANCH  15  16
ENDBRANCH  14  15
ENDBRANCH  12  14
ENDBRANCH  10  12
ENDBRANCH   8  10
ENDBRANCH   1   8
BRANCH   4  18
HETATM   18  C8  UNL     1      -4.976   1.985  16.296  1.00  0.00     0.152 C 
BRANCH  18  19
HETATM   19  C9  UNL     1      -5.207   0.497  16.293  1.00  0.00     0.186 C 
BRANCH  19  20
HETATM   20  O1  UNL     1      -6.461   0.088  16.650  1.00  0.00    -0.394 OA
HETATM   21  C10 UNL     1      -7.292   1.080  17.092  1.00  0.00     0.201 C 
ENDBRANCH  19  20
ENDBRANCH  18  19
ENDBRANCH   4  18
TORSDOF 9
ENDMDL
MODEL 4
REMARK VINA RESULT: -5.460336026      0.941      1.130
REMARK  9 active torsions:
REMARK  status: ('A' for Active; 'I' for Inactive)
REMARK    1  A    between atoms: C2_2  and  C3_3 
REMARK    2  A    between atoms: C3_3  and  S1_4 
REMARK    3  A    between atoms: S1_4  and  C4_5 
REMARK    4  A    between atoms: C4_5  and  N1_7 
REMARK    5  A    between atoms: N1_7  and  C5_9 
REMARK    6  A    between atoms: C5_9  and  N2_11 
REMARK    7  A    between atoms: N3_14  and  C8_15 
REMARK    8  A    between atoms: C8_15  and  C9_16 
REMARK    9  A    between atoms: C9_16  and  O1_17 
ROOT
HETATM    1  N2  UNL     1      -4.018   3.914  13.081  1.00  0.00    -0.348 N 
HETATM    2  C6  UNL     1      -4.577   2.578  12.911  1.00  0.00     0.145 C 
HETATM    3  C7  UNL     1      -4.536   1.794  14.186  1.00  0.00     0.145 C 
HETATM    4  N3  UNL     1      -5.010   2.630  15.303  1.00  0.00    -0.347 N 
HETATM    5  C11 UNL     1      -5.391   3.951  15.027  1.00  0.00     0.237 C 
HETATM    6  O2  UNL     1      -6.431   4.377  15.586  1.00  0.00    -0.272 OA
HETATM    7  C12 UNL     1      -4.567   4.783  14.102  1.00  0.00     0.228 C 
ENDROOT
BRANCH   1   8
HETATM    8  C5  UNL     1      -2.952   4.397  12.282  1.00  0.00     0.175 C 
HETATM    9  S3  UNL     1      -3.220   4.425  10.652  1.00  0.00    -0.041 SA
BRANCH   8  10
HETATM   10  N1  UNL     1      -1.746   4.822  12.859  1.00  0.00    -0.319 N 
ATOM     11  H1  UNL     1      -1.314   4.204  13.546  1.00  0.00     0.169 HD
BRANCH  10  12
HETATM   12  C4  UNL     1      -1.085   6.024  12.572  1.00  0.00     0.140 C 
HETATM   13  S2  UNL     1       0.366   6.039  11.790  1.00  0.00    -0.052 SA
BRANCH  12  14
HETATM   14  S1  UNL     1      -1.747   7.608  13.019  1.00  0.00    -0.100 SA
BRANCH  14  15
HETATM   15  C3  UNL     1      -2.309   7.547  14.734  1.00  0.00     0.081 C 
BRANCH  15  16
HETATM   16  C2  UNL     1      -1.622   8.662  15.492  1.00  0.00     0.006 C 
HETATM   17  C1  UNL     1      -1.518   9.826  14.505  1.00  0.00     0.006 C 
ENDBRANCH  15  16
ENDBRANCH  14  15
ENDBRANCH  12  14
ENDBRANCH  10  12
ENDBRANCH   8  10
ENDBRANCH   1   8
BRANCH   4  18
HETATM   18  C8  UNL     1      -5.033   2.009  16.617  1.00  0.00     0.152 C 
BRANCH  18  19
HETATM   19  C9  UNL     1      -5.275   0.535  16.425  1.00  0.00     0.186 C 
BRANCH  19  20
HETATM   20  O1  UNL     1      -6.558   0.110  16.623  1.00  0.00    -0.394 OA
HETATM   21  C10 UNL     1      -7.431   1.076  17.045  1.00  0.00     0.201 C 
ENDBRANCH  19  20
ENDBRANCH  18  19
ENDBRANCH   4  18
TORSDOF 9
ENDMDL
MODEL 5
REMARK VINA RESULT: -5.348677062      3.406      4.431
REMARK  9 active torsions:
REMARK  status: ('A' for Active; 'I' for Inactive)
REMARK    1  A    between atoms: C2_2  and  C3_3 
REMARK    2  A    between atoms: C3_3  and  S1_4 
REMARK    3  A    between atoms: S1_4  and  C4_5 
REMARK    4  A    between atoms: C4_5  and  N1_7 
REMARK    5  A    between atoms: N1_7  and  C5_9 
REMARK    6  A    between atoms: C5_9  and  N2_11 
REMARK    7  A    between atoms: N3_14  and  C8_15 
REMARK    8  A    between atoms: C8_15  and  C9_16 
REMARK    9  A    between atoms: C9_16  and  O1_17 
ROOT
HETATM    1  N2  UNL     1      -3.800   3.591  11.431  1.00  0.00    -0.348 N 
HETATM    2  C6  UNL     1      -2.857   3.690  12.538  1.00  0.00     0.145 C 
HETATM    3  C7  UNL     1      -3.544   3.583  13.864  1.00  0.00     0.145 C 
HETATM    4  N3  UNL     1      -4.504   2.465  13.841  1.00  0.00    -0.347 N 
HETATM    5  C11 UNL     1      -4.632   1.725  12.656  1.00  0.00     0.237 C 
HETATM    6  O2  UNL     1      -4.717   0.477  12.766  1.00  0.00    -0.272 OA
HETATM    7  C12 UNL     1      -4.662   2.429  11.341  1.00  0.00     0.228 C 
ENDROOT
BRANCH   1   8
HETATM    8  C5  UNL     1      -3.909   4.593  10.435  1.00  0.00     0.175 C 
HETATM    9  S3  UNL     1      -2.671   4.670   9.344  1.00  0.00    -0.041 SA
BRANCH   8  10
HETATM   10  N1  UNL     1      -5.010   5.460  10.394  1.00  0.00    -0.319 N 
ATOM     11  H1  UNL     1      -5.813   5.169   9.837  1.00  0.00     0.169 HD
BRANCH  10  12
HETATM   12  C4  UNL     1      -5.100   6.694  11.053  1.00  0.00     0.140 C 
HETATM   13  S2  UNL     1      -3.802   7.349  11.829  1.00  0.00    -0.052 SA
BRANCH  12  14
HETATM   14  S1  UNL     1      -6.600   7.642  11.105  1.00  0.00    -0.100 SA
BRANCH  14  15
HETATM   15  C3  UNL     1      -6.969   8.248   9.446  1.00  0.00     0.081 C 
BRANCH  15  16
HETATM   16  C2  UNL     1      -7.823   7.210   8.748  1.00  0.00     0.006 C 
HETATM   17  C1  UNL     1      -8.981   7.987   8.120  1.00  0.00     0.006 C 
ENDBRANCH  15  16
ENDBRANCH  14  15
ENDBRANCH  12  14
ENDBRANCH  10  12
ENDBRANCH   8  10
ENDBRANCH   1   8
BRANCH   4  18
HETATM   18  C8  UNL     1      -5.255   2.226  15.063  1.00  0.00     0.152 C 
BRANCH  18  19
HETATM   19  C9  UNL     1      -4.293   1.713  16.101  1.00  0.00     0.186 C 
BRANCH  19  20
HETATM   20  O1  UNL     1      -4.653   0.553  16.728  1.00  0.00    -0.394 OA
HETATM   21  C10 UNL     1      -5.860   0.592  17.371  1.00  0.00     0.201 C 
ENDBRANCH  19  20
ENDBRANCH  18  19
ENDBRANCH   4  18
TORSDOF 9
ENDMDL
