MODEL 1
REMARK VINA RESULT: -7.644624916      0.000      0.000
REMARK  8 active torsions:
REMARK  status: ('A' for Active; 'I' for Inactive)
REMARK    1  A    between atoms: C2_2  and  O1_4 
REMARK    2  A    between atoms: O1_4  and  C4_5 
REMARK    3  A    between atoms: C4_5  and  C5_6 
REMARK    4  A    between atoms: C5_6  and  O3_8 
REMARK    5  A    between atoms: O3_8  and  C6_9 
REMARK    6  A    between atoms: C9_12  and  C10_13 
REMARK    7  A    between atoms: C13_17  and  C14_18 
REMARK    8  A    between atoms: C14_18  and  O5_21 
ROOT
HETATM    1  C6  UNL     1      -4.795   3.232  14.318  1.00  0.00     0.270 C 
HETATM    2  C7  UNL     1      -3.557   4.131  14.545  1.00  0.00     0.071 C 
HETATM    3  C8  UNL     1      -4.141   5.446  14.261  1.00  0.00     0.051 C 
HETATM    4  C9  UNL     1      -3.360   6.526  13.674  1.00  0.00     0.132 C 
HETATM    5  O4  UNL     1      -3.311   6.335  12.294  1.00  0.00    -0.374 OA
HETATM    6  C13 UNL     1      -4.435   5.616  11.938  1.00  0.00     0.185 C 
HETATM    7  C17 UNL     1      -5.144   5.130  13.156  1.00  0.00     0.163 C 
HETATM    8  O6  UNL     1      -5.374   3.781  13.177  1.00  0.00    -0.352 OA
ENDROOT
BRANCH   1   9
HETATM    9  O3  UNL     1      -4.396   1.913  13.996  1.00  0.00    -0.288 OA
BRANCH   9  10
HETATM   10  C5  UNL     1      -4.455   0.869  14.903  1.00  0.00     0.285 C 
HETATM   11  O2  UNL     1      -4.808  -0.242  14.442  1.00  0.00    -0.263 OA
BRANCH  10  12
HETATM   12  C4  UNL     1      -4.127   1.023  16.336  1.00  0.00     0.279 C 
BRANCH  12  13
HETATM   13  O1  UNL     1      -5.121   0.717  17.214  1.00  0.00    -0.377 OA
BRANCH  13  14
HETATM   14  C2  UNL     1      -6.133   1.623  17.366  1.00  0.00     0.114 C 
HETATM   15  C1  UNL     1      -7.495   1.025  17.000  1.00  0.00     0.039 C 
HETATM   16  C3  UNL     1      -6.223   2.039  18.809  1.00  0.00     0.039 C 
ENDBRANCH  13  14
ENDBRANCH  12  13
ENDBRANCH  10  12
ENDBRANCH   9  10
ENDBRANCH   1   9
BRANCH   4  17
HETATM   17  C10 UNL     1      -2.028   6.872  14.193  1.00  0.00     0.007 C 
HETATM   18  C11 UNL     1      -1.051   7.296  13.123  1.00  0.00     0.012 C 
HETATM   19  C12 UNL     1      -2.151   8.090  15.127  1.00  0.00     0.012 C 
ENDBRANCH   4  17
BRANCH   6  20
HETATM   20  C14 UNL     1      -5.298   6.481  11.053  1.00  0.00     0.079 C 
HETATM   21  C15 UNL     1      -6.473   7.080  11.764  1.00  0.00     0.048 C 
HETATM   22  C16 UNL     1      -4.470   7.600  10.457  1.00  0.00     0.048 C 
BRANCH  20  23
HETATM   23  O5  UNL     1      -5.787   5.668  10.020  1.00  0.00    -0.388 OA
ATOM     24  H5  UNL     1      -5.779   4.772  10.337  1.00  0.00     0.210 HD
ENDBRANCH  20  23
ENDBRANCH   6  20
TORSDOF 8
ENDMDL
MODEL 2
REMARK VINA RESULT: -7.505461244      0.769      1.124
REMARK  8 active torsions:
REMARK  status: ('A' for Active; 'I' for Inactive)
REMARK    1  A    between atoms: C2_2  and  O1_4 
REMARK    2  A    between atoms: O1_4  and  C4_5 
REMARK    3  A    between atoms: C4_5  and  C5_6 
REMARK    4  A    between atoms: C5_6  and  O3_8 
REMARK    5  A    between atoms: O3_8  and  C6_9 
REMARK    6  A    between atoms: C9_12  and  C10_13 
REMARK    7  A    between atoms: C13_17  and  C14_18 
REMARK    8  A    between atoms: C14_18  and  O5_21 
ROOT
HETATM    1  C6  UNL     1      -4.570   3.657  14.634  1.00  0.00     0.270 C 
HETATM    2  C7  UNL     1      -3.343   4.595  14.736  1.00  0.00     0.071 C 
HETATM    3  C8  UNL     1      -3.933   5.841  14.234  1.00  0.00     0.051 C 
HETATM    4  C9  UNL     1      -3.148   6.820  13.494  1.00  0.00     0.132 C 
HETATM    5  O4  UNL     1      -3.071   6.410  12.164  1.00  0.00    -0.374 OA
HETATM    6  C13 UNL     1      -4.182   5.630  11.909  1.00  0.00     0.185 C 
HETATM    7  C17 UNL     1      -4.911   5.339  13.176  1.00  0.00     0.163 C 
HETATM    8  O6  UNL     1      -5.130   4.008  13.410  1.00  0.00    -0.352 OA
ENDROOT
BRANCH   1   9
HETATM    9  O3  UNL     1      -4.154   2.308  14.537  1.00  0.00    -0.288 OA
BRANCH   9  10
HETATM   10  C5  UNL     1      -4.099   1.458  15.628  1.00  0.00     0.285 C 
HETATM   11  O2  UNL     1      -3.063   1.529  16.330  1.00  0.00    -0.263 OA
BRANCH  10  12
HETATM   12  C4  UNL     1      -5.182   0.514  15.973  1.00  0.00     0.279 C 
BRANCH  12  13
HETATM   13  O1  UNL     1      -5.392   0.302  17.301  1.00  0.00    -0.377 OA
BRANCH  13  14
HETATM   14  C2  UNL     1      -6.514   0.845  17.859  1.00  0.00     0.114 C 
HETATM   15  C1  UNL     1      -6.217   2.171  18.566  1.00  0.00     0.039 C 
HETATM   16  C3  UNL     1      -7.516   1.151  16.779  1.00  0.00     0.039 C 
ENDBRANCH  13  14
ENDBRANCH  12  13
ENDBRANCH  10  12
ENDBRANCH   9  10
ENDBRANCH   1   9
BRANCH   4  17
HETATM   17  C10 UNL     1      -1.830   7.260  13.975  1.00  0.00     0.007 C 
HETATM   18  C11 UNL     1      -1.029   8.016  12.943  1.00  0.00     0.012 C 
HETATM   19  C12 UNL     1      -2.022   8.251  15.138  1.00  0.00     0.012 C 
ENDBRANCH   4  17
BRANCH   6  20
HETATM   20  C14 UNL     1      -5.035   6.333  10.881  1.00  0.00     0.079 C 
HETATM   21  C15 UNL     1      -6.144   7.145  11.476  1.00  0.00     0.048 C 
HETATM   22  C16 UNL     1      -4.174   7.239  10.026  1.00  0.00     0.048 C 
BRANCH  20  23
HETATM   23  O5  UNL     1      -5.610   5.344  10.069  1.00  0.00    -0.388 OA
ATOM     24  H5  UNL     1      -6.475   5.650   9.820  1.00  0.00     0.210 HD
ENDBRANCH  20  23
ENDBRANCH   6  20
TORSDOF 8
ENDMDL
MODEL 3
REMARK VINA RESULT: -7.244111561      1.433      1.715
REMARK  8 active torsions:
REMARK  status: ('A' for Active; 'I' for Inactive)
REMARK    1  A    between atoms: C2_2  and  O1_4 
REMARK    2  A    between atoms: O1_4  and  C4_5 
REMARK    3  A    between atoms: C4_5  and  C5_6 
REMARK    4  A    between atoms: C5_6  and  O3_8 
REMARK    5  A    between atoms: O3_8  and  C6_9 
REMARK    6  A    between atoms: C9_12  and  C10_13 
REMARK    7  A    between atoms: C13_17  and  C14_18 
REMARK    8  A    between atoms: C14_18  and  O5_21 
ROOT
HETATM    1  C6  UNL     1      -4.365   2.815  14.819  1.00  0.00     0.270 C 
HETATM    2  C7  UNL     1      -3.290   3.917  14.972  1.00  0.00     0.071 C 
HETATM    3  C8  UNL     1      -3.786   4.893  13.996  1.00  0.00     0.051 C 
HETATM    4  C9  UNL     1      -2.885   5.757  13.244  1.00  0.00     0.132 C 
HETATM    5  O4  UNL     1      -2.390   5.038  12.158  1.00  0.00    -0.374 OA
HETATM    6  C13 UNL     1      -3.321   4.065  11.849  1.00  0.00     0.185 C 
HETATM    7  C17 UNL     1      -4.371   4.002  12.905  1.00  0.00     0.163 C 
HETATM    8  O6  UNL     1      -4.560   2.757  13.442  1.00  0.00    -0.352 OA
ENDROOT
BRANCH   1   9
HETATM    9  O3  UNL     1      -3.849   1.561  15.225  1.00  0.00    -0.288 OA
BRANCH   9  10
HETATM   10  C5  UNL     1      -4.644   0.439  15.388  1.00  0.00     0.285 C 
HETATM   11  O2  UNL     1      -4.674  -0.361  14.424  1.00  0.00    -0.263 OA
BRANCH  10  12
HETATM   12  C4  UNL     1      -5.424   0.173  16.616  1.00  0.00     0.279 C 
BRANCH  12  13
HETATM   13  O1  UNL     1      -6.747   0.485  16.564  1.00  0.00    -0.377 OA
BRANCH  13  14
HETATM   14  C2  UNL     1      -7.187   1.512  17.352  1.00  0.00     0.114 C 
HETATM   15  C1  UNL     1      -6.211   1.815  18.492  1.00  0.00     0.039 C 
HETATM   16  C3  UNL     1      -7.288   2.768  16.530  1.00  0.00     0.039 C 
ENDBRANCH  13  14
ENDBRANCH  12  13
ENDBRANCH  10  12
ENDBRANCH   9  10
ENDBRANCH   1   9
BRANCH   4  17
HETATM   17  C10 UNL     1      -1.801   6.493  13.912  1.00  0.00     0.007 C 
HETATM   18  C11 UNL     1      -0.858   7.182  12.957  1.00  0.00     0.012 C 
HETATM   19  C12 UNL     1      -2.408   7.625  14.762  1.00  0.00     0.012 C 
ENDBRANCH   4  17
BRANCH   6  20
HETATM   20  C14 UNL     1      -3.875   4.350  10.475  1.00  0.00     0.079 C 
HETATM   21  C15 UNL     1      -4.833   5.501  10.443  1.00  0.00     0.048 C 
HETATM   22  C16 UNL     1      -2.744   4.633   9.509  1.00  0.00     0.048 C 
BRANCH  20  23
HETATM   23  O5  UNL     1      -4.563   3.202  10.055  1.00  0.00    -0.388 OA
ATOM     24  H5  UNL     1      -5.297   3.080  10.646  1.00  0.00     0.210 HD
ENDBRANCH  20  23
ENDBRANCH   6  20
TORSDOF 8
ENDMDL
MODEL 4
REMARK VINA RESULT: -6.923275028      2.076      3.105
REMARK  8 active torsions:
REMARK  status: ('A' for Active; 'I' for Inactive)
REMARK    1  A    between atoms: C2_2  and  O1_4 
REMARK    2  A    between atoms: O1_4  and  C4_5 
REMARK    3  A    between atoms: C4_5  and  C5_6 
REMARK    4  A    between atoms: C5_6  and  O3_8 
REMARK    5  A    between atoms: O3_8  and  C6_9 
REMARK    6  A    between atoms: C9_12  and  C10_13 
REMARK    7  A    between atoms: C13_17  and  C14_18 
REMARK    8  A    between atoms: C14_18  and  O5_21 
ROOT
HETATM    1  C6  UNL     1      -4.228   4.072  14.525  1.00  0.00     0.270 C 
HETATM    2  C7  UNL     1      -3.864   5.570  14.649  1.00  0.00     0.071 C 
HETATM    3  C8  UNL     1      -3.427   5.841  13.275  1.00  0.00     0.051 C 
HETATM    4  C9  UNL     1      -2.389   6.819  12.976  1.00  0.00     0.132 C 
HETATM    5  O4  UNL     1      -1.147   6.217  13.172  1.00  0.00    -0.374 OA
HETATM    6  C13 UNL     1      -1.314   4.858  12.988  1.00  0.00     0.185 C 
HETATM    7  C17 UNL     1      -2.763   4.527  12.876  1.00  0.00     0.163 C 
HETATM    8  O6  UNL     1      -3.192   3.563  13.747  1.00  0.00    -0.352 OA
ENDROOT
BRANCH   1   9
HETATM    9  O3  UNL     1      -4.158   3.439  15.788  1.00  0.00    -0.288 OA
BRANCH   9  10
HETATM   10  C5  UNL     1      -4.085   2.065  15.937  1.00  0.00     0.285 C 
HETATM   11  O2  UNL     1      -2.994   1.611  16.354  1.00  0.00    -0.263 OA
BRANCH  10  12
HETATM   12  C4  UNL     1      -5.213   1.159  15.632  1.00  0.00     0.279 C 
BRANCH  12  13
HETATM   13  O1  UNL     1      -5.521   0.242  16.590  1.00  0.00    -0.377 OA
BRANCH  13  14
HETATM   14  C2  UNL     1      -6.489   0.574  17.496  1.00  0.00     0.114 C 
HETATM   15  C1  UNL     1      -6.006   1.640  18.483  1.00  0.00     0.039 C 
HETATM   16  C3  UNL     1      -7.671   1.162  16.775  1.00  0.00     0.039 C 
ENDBRANCH  13  14
ENDBRANCH  12  13
ENDBRANCH  10  12
ENDBRANCH   9  10
ENDBRANCH   1   9
BRANCH   4  17
HETATM   17  C10 UNL     1      -2.412   8.161  13.576  1.00  0.00     0.007 C 
HETATM   18  C11 UNL     1      -1.590   8.276  14.837  1.00  0.00     0.012 C 
HETATM   19  C12 UNL     1      -1.779   9.164  12.594  1.00  0.00     0.012 C 
ENDBRANCH   4  17
BRANCH   6  20
HETATM   20  C14 UNL     1      -0.512   4.436  11.781  1.00  0.00     0.079 C 
HETATM   21  C15 UNL     1      -1.286   4.489  10.500  1.00  0.00     0.048 C 
HETATM   22  C16 UNL     1       0.716   5.311  11.643  1.00  0.00     0.048 C 
BRANCH  20  23
HETATM   23  O5  UNL     1      -0.111   3.108  11.989  1.00  0.00    -0.388 OA
ATOM     24  H5  UNL     1      -0.863   2.634  12.325  1.00  0.00     0.210 HD
ENDBRANCH  20  23
ENDBRANCH   6  20
TORSDOF 8
ENDMDL
MODEL 5
REMARK VINA RESULT: -6.874262213      1.207      1.401
REMARK  8 active torsions:
REMARK  status: ('A' for Active; 'I' for Inactive)
REMARK    1  A    between atoms: C2_2  and  O1_4 
REMARK    2  A    between atoms: O1_4  and  C4_5 
REMARK    3  A    between atoms: C4_5  and  C5_6 
REMARK    4  A    between atoms: C5_6  and  O3_8 
REMARK    5  A    between atoms: O3_8  and  C6_9 
REMARK    6  A    between atoms: C9_12  and  C10_13 
REMARK    7  A    between atoms: C13_17  and  C14_18 
REMARK    8  A    between atoms: C14_18  and  O5_21 
ROOT
HETATM    1  C6  UNL     1      -4.700   3.152  14.053  1.00  0.00     0.270 C 
HETATM    2  C7  UNL     1      -3.216   3.481  13.767  1.00  0.00     0.071 C 
HETATM    3  C8  UNL     1      -3.331   4.904  13.427  1.00  0.00     0.051 C 
HETATM    4  C9  UNL     1      -2.442   5.540  12.465  1.00  0.00     0.132 C 
HETATM    5  O4  UNL     1      -2.917   5.273  11.182  1.00  0.00    -0.374 OA
HETATM    6  C13 UNL     1      -4.277   5.055  11.283  1.00  0.00     0.185 C 
HETATM    7  C17 UNL     1      -4.680   4.964  12.716  1.00  0.00     0.163 C 
HETATM    8  O6  UNL     1      -5.371   3.828  13.038  1.00  0.00    -0.352 OA
ENDROOT
BRANCH   1   9
HETATM    9  O3  UNL     1      -4.944   1.770  13.873  1.00  0.00    -0.288 OA
BRANCH   9  10
HETATM   10  C5  UNL     1      -4.602   0.818  14.818  1.00  0.00     0.285 C 
HETATM   11  O2  UNL     1      -4.684  -0.378  14.452  1.00  0.00    -0.263 OA
BRANCH  10  12
HETATM   12  C4  UNL     1      -4.160   1.160  16.187  1.00  0.00     0.279 C 
BRANCH  12  13
HETATM   13  O1  UNL     1      -5.035   0.869  17.188  1.00  0.00    -0.377 OA
BRANCH  13  14
HETATM   14  C2  UNL     1      -6.115   1.691  17.343  1.00  0.00     0.114 C 
HETATM   15  C1  UNL     1      -7.428   0.980  17.003  1.00  0.00     0.039 C 
HETATM   16  C3  UNL     1      -6.220   2.118  18.782  1.00  0.00     0.039 C 
ENDBRANCH  13  14
ENDBRANCH  12  13
ENDBRANCH  10  12
ENDBRANCH   9  10
ENDBRANCH   1   9
BRANCH   4  17
HETATM   17  C10 UNL     1      -0.986   5.342  12.527  1.00  0.00     0.007 C 
HETATM   18  C11 UNL     1      -0.449   4.443  11.439  1.00  0.00     0.012 C 
HETATM   19  C12 UNL     1      -0.283   6.695  12.311  1.00  0.00     0.012 C 
ENDBRANCH   4  17
BRANCH   6  20
HETATM   20  C14 UNL     1      -4.996   6.149  10.532  1.00  0.00     0.079 C 
HETATM   21  C15 UNL     1      -5.431   7.287  11.403  1.00  0.00     0.048 C 
HETATM   22  C16 UNL     1      -4.107   6.692   9.433  1.00  0.00     0.048 C 
BRANCH  20  23
HETATM   23  O5  UNL     1      -6.142   5.579   9.959  1.00  0.00    -0.388 OA
ATOM     24  H5  UNL     1      -6.700   6.293   9.672  1.00  0.00     0.210 HD
ENDBRANCH  20  23
ENDBRANCH   6  20
TORSDOF 8
ENDMDL
