MODEL 1
REMARK VINA RESULT: -7.289329724      0.000      0.000
REMARK  7 active torsions:
REMARK  status: ('A' for Active; 'I' for Inactive)
REMARK       I    between atoms: C2_2  and  N1_4 
REMARK    1  A    between atoms: N1_4  and  C3_6 
REMARK    2  A    between atoms: C6_9  and  O2_10 
REMARK    3  A    between atoms: O2_10  and  C7_11 
REMARK    4  A    between atoms: C9_14  and  O4_15 
REMARK    5  A    between atoms: O4_15  and  C10_16 
REMARK    6  A    between atoms: C12_19  and  S1_20 
REMARK    7  A    between atoms: S1_20  and  C13_21 
ROOT
HETATM    1  C3  UNL     1      -5.064   5.249  13.272  1.00  0.00     0.100 C 
HETATM    2  C4  UNL     1      -5.323   5.371  14.762  1.00  0.00     0.029 C 
HETATM    3  C5  UNL     1      -6.257   4.208  15.093  1.00  0.00     0.037 C 
HETATM    4  C6  UNL     1      -5.598   2.886  14.827  1.00  0.00     0.162 C 
HETATM    5  C9  UNL     1      -4.804   2.803  13.582  1.00  0.00     0.177 C 
HETATM    6  C12 UNL     1      -4.145   4.050  13.115  1.00  0.00     0.102 C 
ENDROOT
BRANCH   1   7
HETATM    7  N1  UNL     1      -4.532   6.443  12.704  1.00  0.00    -0.356 N 
HETATM    8  C2  UNL     1      -4.900   6.893  11.411  1.00  0.00     0.213 C 
HETATM    9  C1  UNL     1      -4.335   8.149  10.826  1.00  0.00     0.117 C 
HETATM   10  O1  UNL     1      -5.723   6.208  10.750  1.00  0.00    -0.274 OA
ATOM     11  H1  UNL     1      -3.865   6.992  13.245  1.00  0.00     0.162 HD
ENDBRANCH   1   7
BRANCH   6  12
HETATM   12  S1  UNL     1      -2.543   4.368  13.883  1.00  0.00    -0.155 SA
BRANCH  12  13
HETATM   13  C13 UNL     1      -1.331   4.649  12.586  1.00  0.00     0.039 C 
HETATM   14  C14 UNL     1      -1.948   4.324  11.226  1.00  0.00     0.021 C 
HETATM   15  C15 UNL     1      -0.909   6.102  12.548  1.00  0.00     0.021 C 
ENDBRANCH  12  13
ENDBRANCH   6  12
BRANCH   5  16
HETATM   16  O4  UNL     1      -5.599   2.316  12.489  1.00  0.00    -0.312 OA
BRANCH  16  17
HETATM   17  C10 UNL     1      -5.038   1.553  11.501  1.00  0.00     0.255 C 
HETATM   18  C11 UNL     1      -4.604   0.163  11.799  1.00  0.00     0.126 C 
HETATM   19  O5  UNL     1      -4.909   2.075  10.351  1.00  0.00    -0.266 OA
ENDBRANCH  16  17
ENDBRANCH   5  16
BRANCH   4  20
HETATM   20  O2  UNL     1      -4.854   2.573  16.014  1.00  0.00    -0.314 OA
BRANCH  20  21
HETATM   21  C7  UNL     1      -4.761   1.300  16.509  1.00  0.00     0.255 C 
HETATM   22  C8  UNL     1      -5.818   0.568  17.238  1.00  0.00     0.126 C 
HETATM   23  O3  UNL     1      -3.662   0.693  16.324  1.00  0.00    -0.266 OA
ENDBRANCH  20  21
ENDBRANCH   4  20
TORSDOF 7
ENDMDL
MODEL 2
REMARK VINA RESULT: -6.652265691      1.014      1.172
REMARK  7 active torsions:
REMARK  status: ('A' for Active; 'I' for Inactive)
REMARK       I    between atoms: C2_2  and  N1_4 
REMARK    1  A    between atoms: N1_4  and  C3_6 
REMARK    2  A    between atoms: C6_9  and  O2_10 
REMARK    3  A    between atoms: O2_10  and  C7_11 
REMARK    4  A    between atoms: C9_14  and  O4_15 
REMARK    5  A    between atoms: O4_15  and  C10_16 
REMARK    6  A    between atoms: C12_19  and  S1_20 
REMARK    7  A    between atoms: S1_20  and  C13_21 
ROOT
HETATM    1  C3  UNL     1      -4.970   5.208  12.743  1.00  0.00     0.100 C 
HETATM    2  C4  UNL     1      -5.626   5.064  14.103  1.00  0.00     0.029 C 
HETATM    3  C5  UNL     1      -5.940   3.574  14.231  1.00  0.00     0.037 C 
HETATM    4  C6  UNL     1      -4.686   2.749  14.212  1.00  0.00     0.162 C 
HETATM    5  C9  UNL     1      -3.662   3.159  13.228  1.00  0.00     0.177 C 
HETATM    6  C12 UNL     1      -3.585   4.604  12.891  1.00  0.00     0.102 C 
ENDROOT
BRANCH   1   7
HETATM    7  N1  UNL     1      -4.948   6.555  12.279  1.00  0.00    -0.356 N 
HETATM    8  C2  UNL     1      -5.546   6.942  11.053  1.00  0.00     0.213 C 
HETATM    9  C1  UNL     1      -5.517   8.361  10.578  1.00  0.00     0.117 C 
HETATM   10  O1  UNL     1      -6.111   6.059  10.358  1.00  0.00    -0.274 OA
ATOM     11  H1  UNL     1      -4.488   7.265  12.848  1.00  0.00     0.162 HD
ENDBRANCH   1   7
BRANCH   6  12
HETATM   12  S1  UNL     1      -2.585   5.573  14.040  1.00  0.00    -0.155 SA
BRANCH  12  13
HETATM   13  C13 UNL     1      -1.409   6.549  13.095  1.00  0.00     0.039 C 
HETATM   14  C14 UNL     1      -1.415   6.091  11.637  1.00  0.00     0.021 C 
HETATM   15  C15 UNL     1      -1.792   8.013  13.103  1.00  0.00     0.021 C 
ENDBRANCH  12  13
ENDBRANCH   6  12
BRANCH   5  16
HETATM   16  O4  UNL     1      -3.819   2.450  11.987  1.00  0.00    -0.312 OA
BRANCH  16  17
HETATM   17  C10 UNL     1      -4.689   1.398  11.887  1.00  0.00     0.255 C 
HETATM   18  C11 UNL     1      -4.280   0.055  12.373  1.00  0.00     0.126 C 
HETATM   19  O5  UNL     1      -5.829   1.620  11.374  1.00  0.00    -0.266 OA
ENDBRANCH  16  17
ENDBRANCH   5  16
BRANCH   4  20
HETATM   20  O2  UNL     1      -4.214   2.723  15.567  1.00  0.00    -0.314 OA
BRANCH  20  21
HETATM   21  C7  UNL     1      -4.432   1.660  16.402  1.00  0.00     0.255 C 
HETATM   22  C8  UNL     1      -5.542   1.524  17.369  1.00  0.00     0.126 C 
HETATM   23  O3  UNL     1      -3.602   0.703  16.339  1.00  0.00    -0.266 OA
ENDBRANCH  20  21
ENDBRANCH   4  20
TORSDOF 7
ENDMDL
MODEL 3
REMARK VINA RESULT: -6.483742890      1.193      1.375
REMARK  7 active torsions:
REMARK  status: ('A' for Active; 'I' for Inactive)
REMARK       I    between atoms: C2_2  and  N1_4 
REMARK    1  A    between atoms: N1_4  and  C3_6 
REMARK    2  A    between atoms: C6_9  and  O2_10 
REMARK    3  A    between atoms: O2_10  and  C7_11 
REMARK    4  A    between atoms: C9_14  and  O4_15 
REMARK    5  A    between atoms: O4_15  and  C10_16 
REMARK    6  A    between atoms: C12_19  and  S1_20 
REMARK    7  A    between atoms: S1_20  and  C13_21 
ROOT
HETATM    1  C3  UNL     1      -3.939   5.915  13.141  1.00  0.00     0.100 C 
HETATM    2  C4  UNL     1      -3.922   5.839  14.657  1.00  0.00     0.029 C 
HETATM    3  C5  UNL     1      -4.973   4.787  15.007  1.00  0.00     0.037 C 
HETATM    4  C6  UNL     1      -4.605   3.441  14.454  1.00  0.00     0.162 C 
HETATM    5  C9  UNL     1      -4.055   3.440  13.082  1.00  0.00     0.177 C 
HETATM    6  C12 UNL     1      -3.279   4.635  12.661  1.00  0.00     0.102 C 
ENDROOT
BRANCH   1   7
HETATM    7  N1  UNL     1      -3.313   7.093  12.640  1.00  0.00    -0.356 N 
HETATM    8  C2  UNL     1      -3.772   7.754  11.474  1.00  0.00     0.213 C 
HETATM    9  C1  UNL     1      -3.106   8.992  10.958  1.00  0.00     0.117 C 
HETATM   10  O1  UNL     1      -4.766   7.278  10.867  1.00  0.00    -0.274 OA
ATOM     11  H1  UNL     1      -2.507   7.472  13.136  1.00  0.00     0.162 HD
ENDBRANCH   1   7
BRANCH   6  12
HETATM   12  S1  UNL     1      -1.541   4.591  13.145  1.00  0.00    -0.155 SA
BRANCH  12  13
HETATM   13  C13 UNL     1      -0.530   4.849  11.681  1.00  0.00     0.039 C 
HETATM   14  C14 UNL     1       0.344   3.620  11.438  1.00  0.00     0.021 C 
HETATM   15  C15 UNL     1      -1.396   5.031  10.454  1.00  0.00     0.021 C 
ENDBRANCH  12  13
ENDBRANCH   6  12
BRANCH   5  16
HETATM   16  O4  UNL     1      -5.093   3.251  12.105  1.00  0.00    -0.312 OA
BRANCH  16  17
HETATM   17  C10 UNL     1      -4.904   2.419  11.034  1.00  0.00     0.255 C 
HETATM   18  C11 UNL     1      -5.143   0.961  11.183  1.00  0.00     0.126 C 
HETATM   19  O5  UNL     1      -4.524   2.941   9.941  1.00  0.00    -0.266 OA
ENDBRANCH  16  17
ENDBRANCH   5  16
BRANCH   4  20
HETATM   20  O2  UNL     1      -3.738   2.841  15.429  1.00  0.00    -0.314 OA
BRANCH  20  21
HETATM   21  C7  UNL     1      -4.144   1.816  16.242  1.00  0.00     0.255 C 
HETATM   22  C8  UNL     1      -5.364   1.796  17.076  1.00  0.00     0.126 C 
HETATM   23  O3  UNL     1      -3.401   0.789  16.281  1.00  0.00    -0.266 OA
ENDBRANCH  20  21
ENDBRANCH   4  20
TORSDOF 7
ENDMDL
MODEL 4
REMARK VINA RESULT: -6.446993069      2.039      2.847
REMARK  7 active torsions:
REMARK  status: ('A' for Active; 'I' for Inactive)
REMARK       I    between atoms: C2_2  and  N1_4 
REMARK    1  A    between atoms: N1_4  and  C3_6 
REMARK    2  A    between atoms: C6_9  and  O2_10 
REMARK    3  A    between atoms: O2_10  and  C7_11 
REMARK    4  A    between atoms: C9_14  and  O4_15 
REMARK    5  A    between atoms: O4_15  and  C10_16 
REMARK    6  A    between atoms: C12_19  and  S1_20 
REMARK    7  A    between atoms: S1_20  and  C13_21 
ROOT
HETATM    1  C3  UNL     1      -4.755   5.323  12.668  1.00  0.00     0.100 C 
HETATM    2  C4  UNL     1      -5.574   4.672  13.767  1.00  0.00     0.029 C 
HETATM    3  C5  UNL     1      -5.189   3.195  13.721  1.00  0.00     0.037 C 
HETATM    4  C6  UNL     1      -3.732   3.001  14.029  1.00  0.00     0.162 C 
HETATM    5  C9  UNL     1      -2.810   3.977  13.411  1.00  0.00     0.177 C 
HETATM    6  C12 UNL     1      -3.327   5.351  13.186  1.00  0.00     0.102 C 
ENDROOT
BRANCH   1   7
HETATM    7  N1  UNL     1      -5.244   6.609  12.300  1.00  0.00    -0.356 N 
HETATM    8  C2  UNL     1      -5.951   6.831  11.092  1.00  0.00     0.213 C 
HETATM    9  C1  UNL     1      -6.462   8.187  10.717  1.00  0.00     0.117 C 
HETATM   10  O1  UNL     1      -6.147   5.853  10.324  1.00  0.00    -0.274 OA
ATOM     11  H1  UNL     1      -5.081   7.396  12.926  1.00  0.00     0.162 HD
ENDBRANCH   1   7
BRANCH   6  12
HETATM   12  S1  UNL     1      -3.191   6.432  14.625  1.00  0.00    -0.155 SA
BRANCH  12  13
HETATM   13  C13 UNL     1      -1.827   7.572  14.360  1.00  0.00     0.039 C 
HETATM   14  C14 UNL     1      -2.024   8.310  13.036  1.00  0.00     0.021 C 
HETATM   15  C15 UNL     1      -1.778   8.619  15.451  1.00  0.00     0.021 C 
ENDBRANCH  12  13
ENDBRANCH   6  12
BRANCH   5  16
HETATM   16  O4  UNL     1      -2.322   3.502  12.144  1.00  0.00    -0.312 OA
BRANCH  16  17
HETATM   17  C10 UNL     1      -0.990   3.569  11.837  1.00  0.00     0.255 C 
HETATM   18  C11 UNL     1      -0.399   4.861  11.402  1.00  0.00     0.126 C 
HETATM   19  O5  UNL     1      -0.305   2.506  11.940  1.00  0.00    -0.266 OA
ENDBRANCH  16  17
ENDBRANCH   5  16
BRANCH   4  20
HETATM   20  O2  UNL     1      -3.640   2.938  15.461  1.00  0.00    -0.314 OA
BRANCH  20  21
HETATM   21  C7  UNL     1      -4.151   1.896  16.186  1.00  0.00     0.255 C 
HETATM   22  C8  UNL     1      -5.375   1.927  17.014  1.00  0.00     0.126 C 
HETATM   23  O3  UNL     1      -3.512   0.801  16.142  1.00  0.00    -0.266 OA
ENDBRANCH  20  21
ENDBRANCH   4  20
TORSDOF 7
ENDMDL
MODEL 5
REMARK VINA RESULT: -6.192943285      2.380      5.806
REMARK  7 active torsions:
REMARK  status: ('A' for Active; 'I' for Inactive)
REMARK       I    between atoms: C2_2  and  N1_4 
REMARK    1  A    between atoms: N1_4  and  C3_6 
REMARK    2  A    between atoms: C6_9  and  O2_10 
REMARK    3  A    between atoms: O2_10  and  C7_11 
REMARK    4  A    between atoms: C9_14  and  O4_15 
REMARK    5  A    between atoms: O4_15  and  C10_16 
REMARK    6  A    between atoms: C12_19  and  S1_20 
REMARK    7  A    between atoms: S1_20  and  C13_21 
ROOT
HETATM    1  C3  UNL     1      -3.481   3.533  12.625  1.00  0.00     0.100 C 
HETATM    2  C4  UNL     1      -2.210   4.153  13.176  1.00  0.00     0.029 C 
HETATM    3  C5  UNL     1      -2.168   5.558  12.578  1.00  0.00     0.037 C 
HETATM    4  C6  UNL     1      -3.340   6.379  13.031  1.00  0.00     0.162 C 
HETATM    5  C9  UNL     1      -4.642   5.679  13.063  1.00  0.00     0.177 C 
HETATM    6  C12 UNL     1      -4.621   4.222  13.353  1.00  0.00     0.102 C 
ENDROOT
BRANCH   1   7
HETATM    7  N1  UNL     1      -3.506   2.114  12.756  1.00  0.00    -0.356 N 
HETATM    8  C2  UNL     1      -4.451   1.309  12.071  1.00  0.00     0.213 C 
HETATM    9  C1  UNL     1      -4.466  -0.180  12.216  1.00  0.00     0.117 C 
HETATM   10  O1  UNL     1      -5.291   1.875  11.326  1.00  0.00    -0.274 OA
ATOM     11  H1  UNL     1      -2.822   1.663  13.362  1.00  0.00     0.162 HD
ENDBRANCH   1   7
BRANCH   6  12
HETATM   12  S1  UNL     1      -4.587   3.824  15.114  1.00  0.00    -0.155 SA
BRANCH  12  13
HETATM   13  C13 UNL     1      -5.879   2.623  15.456  1.00  0.00     0.039 C 
HETATM   14  C14 UNL     1      -5.249   1.293  15.866  1.00  0.00     0.021 C 
HETATM   15  C15 UNL     1      -6.748   3.078  16.607  1.00  0.00     0.021 C 
ENDBRANCH  12  13
ENDBRANCH   6  12
BRANCH   5  16
HETATM   16  O4  UNL     1      -5.354   5.848  11.826  1.00  0.00    -0.312 OA
BRANCH  16  17
HETATM   17  C10 UNL     1      -6.186   6.918  11.637  1.00  0.00     0.255 C 
HETATM   18  C11 UNL     1      -5.738   8.061  10.800  1.00  0.00     0.126 C 
HETATM   19  O5  UNL     1      -7.325   6.887  12.196  1.00  0.00    -0.266 OA
ENDBRANCH  16  17
ENDBRANCH   5  16
BRANCH   4  20
HETATM   20  O2  UNL     1      -2.954   6.949  14.291  1.00  0.00    -0.314 OA
BRANCH  20  21
HETATM   21  C7  UNL     1      -2.196   8.086  14.383  1.00  0.00     0.255 C 
HETATM   22  C8  UNL     1      -1.568   8.618  15.611  1.00  0.00     0.126 C 
HETATM   23  O3  UNL     1      -2.017   8.742  13.313  1.00  0.00    -0.266 OA
ENDBRANCH  20  21
ENDBRANCH   4  20
TORSDOF 7
ENDMDL
