MODEL 1
REMARK VINA RESULT: -6.531721451      0.000      0.000
REMARK  6 active torsions:
REMARK  status: ('A' for Active; 'I' for Inactive)
REMARK    1  A    between atoms: C4_6  and  N2_7 
REMARK    2  A    between atoms: C8_11  and  C9_12 
REMARK    3  A    between atoms: C8_11  and  C10_15 
REMARK    4  A    between atoms: C9_12  and  O1_13 
REMARK    5  A    between atoms: C10_15  and  C11_16 
REMARK    6  A    between atoms: C11_16  and  N3_17 
ROOT
HETATM    1  N2  UNL     1      -3.561   4.181  14.148  1.00  0.00    -0.361 N 
HETATM    2  C5  UNL     1      -3.522   5.583  14.449  1.00  0.00     0.125 C 
HETATM    3  C6  UNL     1      -3.647   6.411  13.227  1.00  0.00     0.021 C 
HETATM    4  C7  UNL     1      -3.951   5.701  11.954  1.00  0.00     0.015 C 
HETATM    5  C8  UNL     1      -3.243   4.417  11.731  1.00  0.00    -0.001 C 
HETATM    6  C16 UNL     1      -2.857   3.688  12.999  1.00  0.00     0.136 C 
ENDROOT
BRANCH   5   7
HETATM    7  C9  UNL     1      -4.245   3.479  11.034  1.00  0.00     0.175 C 
BRANCH   7   8
HETATM    8  O1  UNL     1      -4.195   3.641   9.660  1.00  0.00    -0.400 OA
ATOM      9  H1  UNL     1      -4.985   3.305   9.252  1.00  0.00     0.209 HD
ENDBRANCH   7   8
ENDBRANCH   5   7
BRANCH   5  10
HETATM   10  C10 UNL     1      -1.986   4.545  10.922  1.00  0.00     0.043 C 
BRANCH  10  11
HETATM   11  C11 UNL     1      -0.711   4.599  11.673  1.00  0.00     0.273 C 
BRANCH  11  12
HETATM   12  N3  UNL     1       0.250   5.460  11.026  1.00  0.00     0.092 N 
HETATM   13  C12 UNL     1       1.260   5.977  11.879  1.00  0.00     0.298 C 
HETATM   14  C13 UNL     1       2.599   5.289  11.700  1.00  0.00     0.198 C 
HETATM   15  O2  UNL     1       2.473   3.987  11.225  1.00  0.00    -0.388 OA
HETATM   16  C14 UNL     1       1.869   3.913   9.986  1.00  0.00     0.198 C 
HETATM   17  C15 UNL     1       0.785   4.955   9.804  1.00  0.00     0.298 C 
ENDBRANCH  11  12
ENDBRANCH  10  11
ENDBRANCH   5  10
BRANCH   1  18
HETATM   18  C4  UNL     1      -4.287   3.253  14.998  1.00  0.00     0.146 A 
HETATM   19  N1  UNL     1      -3.850   2.277  15.772  1.00  0.00    -0.346 N 
HETATM   20  C3  UNL     1      -4.682   1.558  16.451  1.00  0.00     0.104 A 
ATOM     21  H1  UNL     1      -2.850   2.090  15.834  1.00  0.00     0.167 HD
HETATM   22  C2  UNL     1      -6.020   1.853  16.331  1.00  0.00    -0.003 A 
HETATM   23  C1  UNL     1      -7.177   1.172  17.008  1.00  0.00     0.058 C 
HETATM   24  S1  UNL     1      -5.993   3.161  15.236  1.00  0.00    -0.058 SA
ENDBRANCH   1  18
TORSDOF 6
ENDMDL
MODEL 2
REMARK VINA RESULT: -6.502856709      3.519      7.192
REMARK  6 active torsions:
REMARK  status: ('A' for Active; 'I' for Inactive)
REMARK    1  A    between atoms: C4_6  and  N2_7 
REMARK    2  A    between atoms: C8_11  and  C9_12 
REMARK    3  A    between atoms: C8_11  and  C10_15 
REMARK    4  A    between atoms: C9_12  and  O1_13 
REMARK    5  A    between atoms: C10_15  and  C11_16 
REMARK    6  A    between atoms: C11_16  and  N3_17 
ROOT
HETATM    1  N2  UNL     1      -3.918   6.193  12.169  1.00  0.00    -0.361 N 
HETATM    2  C5  UNL     1      -2.982   6.874  13.015  1.00  0.00     0.125 C 
HETATM    3  C6  UNL     1      -2.601   6.053  14.187  1.00  0.00     0.021 C 
HETATM    4  C7  UNL     1      -3.090   4.647  14.218  1.00  0.00     0.015 C 
HETATM    5  C8  UNL     1      -4.485   4.425  13.766  1.00  0.00    -0.001 C 
HETATM    6  C16 UNL     1      -4.986   5.441  12.763  1.00  0.00     0.136 C 
ENDROOT
BRANCH   5   7
HETATM    7  C9  UNL     1      -4.492   3.089  13.002  1.00  0.00     0.175 C 
BRANCH   7   8
HETATM    8  O1  UNL     1      -3.207   2.587  12.879  1.00  0.00    -0.400 OA
ATOM      9  H1  UNL     1      -3.020   2.356  11.977  1.00  0.00     0.209 HD
ENDBRANCH   7   8
ENDBRANCH   5   7
BRANCH   5  10
HETATM   10  C10 UNL     1      -5.491   4.404  14.879  1.00  0.00     0.043 C 
BRANCH  10  11
HETATM   11  C11 UNL     1      -6.009   3.077  15.286  1.00  0.00     0.273 C 
BRANCH  11  12
HETATM   12  N3  UNL     1      -5.355   2.595  16.479  1.00  0.00     0.092 N 
HETATM   13  C12 UNL     1      -6.204   1.928  17.400  1.00  0.00     0.298 C 
HETATM   14  C13 UNL     1      -6.037   0.421  17.379  1.00  0.00     0.198 C 
HETATM   15  O2  UNL     1      -5.578  -0.049  16.152  1.00  0.00    -0.388 OA
HETATM   16  C14 UNL     1      -4.339   0.447  15.805  1.00  0.00     0.198 C 
HETATM   17  C15 UNL     1      -4.140   1.881  16.253  1.00  0.00     0.298 C 
ENDBRANCH  11  12
ENDBRANCH  10  11
ENDBRANCH   5  10
BRANCH   1  18
HETATM   18  C4  UNL     1      -3.812   6.268  10.722  1.00  0.00     0.146 A 
HETATM   19  N1  UNL     1      -3.909   7.301   9.907  1.00  0.00    -0.346 N 
HETATM   20  C3  UNL     1      -3.784   7.142   8.630  1.00  0.00     0.104 A 
ATOM     21  H1  UNL     1      -4.084   8.231  10.287  1.00  0.00     0.167 HD
HETATM   22  C2  UNL     1      -3.548   5.867   8.170  1.00  0.00    -0.003 A 
HETATM   23  C1  UNL     1      -3.367   5.421   6.746  1.00  0.00     0.058 C 
HETATM   24  S1  UNL     1      -3.521   4.971   9.622  1.00  0.00    -0.058 SA
ENDBRANCH   1  18
TORSDOF 6
ENDMDL
MODEL 3
REMARK VINA RESULT: -6.463737192      3.145      7.370
REMARK  6 active torsions:
REMARK  status: ('A' for Active; 'I' for Inactive)
REMARK    1  A    between atoms: C4_6  and  N2_7 
REMARK    2  A    between atoms: C8_11  and  C9_12 
REMARK    3  A    between atoms: C8_11  and  C10_15 
REMARK    4  A    between atoms: C9_12  and  O1_13 
REMARK    5  A    between atoms: C10_15  and  C11_16 
REMARK    6  A    between atoms: C11_16  and  N3_17 
ROOT
HETATM    1  N2  UNL     1      -3.338   5.593  11.803  1.00  0.00    -0.361 N 
HETATM    2  C5  UNL     1      -2.455   6.298  12.687  1.00  0.00     0.125 C 
HETATM    3  C6  UNL     1      -2.342   5.626  14.002  1.00  0.00     0.021 C 
HETATM    4  C7  UNL     1      -2.993   4.295  14.142  1.00  0.00     0.015 C 
HETATM    5  C8  UNL     1      -4.328   4.146  13.513  1.00  0.00    -0.001 C 
HETATM    6  C16 UNL     1      -4.560   5.045  12.318  1.00  0.00     0.136 C 
ENDROOT
BRANCH   5   7
HETATM    7  C9  UNL     1      -4.386   2.718  12.940  1.00  0.00     0.175 C 
BRANCH   7   8
HETATM    8  O1  UNL     1      -3.114   2.185  12.822  1.00  0.00    -0.400 OA
ATOM      9  H1  UNL     1      -2.480   2.864  12.622  1.00  0.00     0.209 HD
ENDBRANCH   7   8
ENDBRANCH   5   7
BRANCH   5  10
HETATM   10  C10 UNL     1      -5.475   4.388  14.449  1.00  0.00     0.043 C 
BRANCH  10  11
HETATM   11  C11 UNL     1      -6.227   3.196  14.906  1.00  0.00     0.273 C 
BRANCH  11  12
HETATM   12  N3  UNL     1      -5.937   2.883  16.285  1.00  0.00     0.092 N 
HETATM   13  C12 UNL     1      -7.052   2.446  17.047  1.00  0.00     0.298 C 
HETATM   14  C13 UNL     1      -7.054   0.950  17.295  1.00  0.00     0.198 C 
HETATM   15  O2  UNL     1      -6.368   0.244  16.311  1.00  0.00    -0.388 OA
HETATM   16  C14 UNL     1      -5.034   0.585  16.221  1.00  0.00     0.198 C 
HETATM   17  C15 UNL     1      -4.791   2.057  16.486  1.00  0.00     0.298 C 
ENDBRANCH  11  12
ENDBRANCH  10  11
ENDBRANCH   5  10
BRANCH   1  18
HETATM   18  C4  UNL     1      -3.022   5.441  10.394  1.00  0.00     0.146 A 
HETATM   19  N1  UNL     1      -2.062   4.759   9.799  1.00  0.00    -0.346 N 
HETATM   20  C3  UNL     1      -1.957   4.764   8.510  1.00  0.00     0.104 A 
ATOM     21  H1  UNL     1      -1.399   4.224  10.359  1.00  0.00     0.167 HD
HETATM   22  C2  UNL     1      -2.878   5.500   7.802  1.00  0.00    -0.003 A 
HETATM   23  C1  UNL     1      -2.972   5.668   6.311  1.00  0.00     0.058 C 
HETATM   24  S1  UNL     1      -3.845   6.145   9.051  1.00  0.00    -0.058 SA
ENDBRANCH   1  18
TORSDOF 6
ENDMDL
MODEL 4
REMARK VINA RESULT: -6.402309495      2.937      7.500
REMARK  6 active torsions:
REMARK  status: ('A' for Active; 'I' for Inactive)
REMARK    1  A    between atoms: C4_6  and  N2_7 
REMARK    2  A    between atoms: C8_11  and  C9_12 
REMARK    3  A    between atoms: C8_11  and  C10_15 
REMARK    4  A    between atoms: C9_12  and  O1_13 
REMARK    5  A    between atoms: C10_15  and  C11_16 
REMARK    6  A    between atoms: C11_16  and  N3_17 
ROOT
HETATM    1  N2  UNL     1      -2.233   4.175  11.315  1.00  0.00    -0.361 N 
HETATM    2  C5  UNL     1      -3.320   4.563  10.464  1.00  0.00     0.125 C 
HETATM    3  C6  UNL     1      -4.532   4.906  11.242  1.00  0.00     0.021 C 
HETATM    4  C7  UNL     1      -4.396   4.958  12.724  1.00  0.00     0.015 C 
HETATM    5  C8  UNL     1      -3.573   3.893  13.346  1.00  0.00    -0.001 C 
HETATM    6  C16 UNL     1      -2.493   3.332  12.447  1.00  0.00     0.136 C 
ENDROOT
BRANCH   5   7
HETATM    7  C9  UNL     1      -2.807   4.553  14.507  1.00  0.00     0.175 C 
BRANCH   7   8
HETATM    8  O1  UNL     1      -1.492   4.122  14.536  1.00  0.00    -0.400 OA
ATOM      9  H1  UNL     1      -0.894   4.857  14.457  1.00  0.00     0.209 HD
ENDBRANCH   7   8
ENDBRANCH   5   7
BRANCH   5  10
HETATM   10  C10 UNL     1      -4.364   2.716  13.836  1.00  0.00     0.043 C 
BRANCH  10  11
HETATM   11  C11 UNL     1      -5.662   3.008  14.487  1.00  0.00     0.273 C 
BRANCH  11  12
HETATM   12  N3  UNL     1      -5.571   2.900  15.924  1.00  0.00     0.092 N 
HETATM   13  C12 UNL     1      -6.817   2.827  16.599  1.00  0.00     0.298 C 
HETATM   14  C13 UNL     1      -7.154   1.428  17.078  1.00  0.00     0.198 C 
HETATM   15  O2  UNL     1      -6.543   0.439  16.312  1.00  0.00    -0.388 OA
HETATM   16  C14 UNL     1      -5.165   0.499  16.339  1.00  0.00     0.198 C 
HETATM   17  C15 UNL     1      -4.646   1.921  16.396  1.00  0.00     0.298 C 
ENDBRANCH  11  12
ENDBRANCH  10  11
ENDBRANCH   5  10
BRANCH   1  18
HETATM   18  C4  UNL     1      -0.874   4.606  11.039  1.00  0.00     0.146 A 
HETATM   19  N1  UNL     1       0.160   4.752  11.846  1.00  0.00    -0.346 N 
HETATM   20  C3  UNL     1       1.297   5.160  11.386  1.00  0.00     0.104 A 
ATOM     21  H1  UNL     1       0.061   4.543  12.839  1.00  0.00     0.167 HD
HETATM   22  C2  UNL     1       1.377   5.427  10.039  1.00  0.00    -0.003 A 
HETATM   23  C1  UNL     1       2.573   5.909   9.265  1.00  0.00     0.058 C 
HETATM   24  S1  UNL     1      -0.208   5.072   9.518  1.00  0.00    -0.058 SA
ENDBRANCH   1  18
TORSDOF 6
ENDMDL
MODEL 5
REMARK VINA RESULT: -6.369734622      2.841      7.020
REMARK  6 active torsions:
REMARK  status: ('A' for Active; 'I' for Inactive)
REMARK    1  A    between atoms: C4_6  and  N2_7 
REMARK    2  A    between atoms: C8_11  and  C9_12 
REMARK    3  A    between atoms: C8_11  and  C10_15 
REMARK    4  A    between atoms: C9_12  and  O1_13 
REMARK    5  A    between atoms: C10_15  and  C11_16 
REMARK    6  A    between atoms: C11_16  and  N3_17 
ROOT
HETATM    1  N2  UNL     1      -1.875   4.364  12.277  1.00  0.00    -0.361 N 
HETATM    2  C5  UNL     1      -2.875   3.922  11.349  1.00  0.00     0.125 C 
HETATM    3  C6  UNL     1      -4.171   4.603  11.572  1.00  0.00     0.021 C 
HETATM    4  C7  UNL     1      -4.193   5.713  12.563  1.00  0.00     0.015 C 
HETATM    5  C8  UNL     1      -3.414   5.500  13.807  1.00  0.00    -0.001 C 
HETATM    6  C16 UNL     1      -2.231   4.568  13.652  1.00  0.00     0.136 C 
ENDROOT
BRANCH   5   7
HETATM    7  C9  UNL     1      -2.791   6.859  14.173  1.00  0.00     0.175 C 
BRANCH   7   8
HETATM    8  O1  UNL     1      -2.659   7.657  13.049  1.00  0.00    -0.400 OA
ATOM      9  H1  UNL     1      -1.848   8.151  13.080  1.00  0.00     0.209 HD
ENDBRANCH   7   8
ENDBRANCH   5   7
BRANCH   5  10
HETATM   10  C10 UNL     1      -4.223   4.963  14.951  1.00  0.00     0.043 C 
BRANCH  10  11
HETATM   11  C11 UNL     1      -3.930   3.578  15.385  1.00  0.00     0.273 C 
BRANCH  11  12
HETATM   12  N3  UNL     1      -4.962   2.661  14.965  1.00  0.00     0.092 N 
HETATM   13  C12 UNL     1      -4.500   1.528  14.245  1.00  0.00     0.298 C 
HETATM   14  C13 UNL     1      -4.494   0.258  15.074  1.00  0.00     0.198 C 
HETATM   15  O2  UNL     1      -4.364   0.510  16.437  1.00  0.00    -0.388 OA
HETATM   16  C14 UNL     1      -5.397   1.264  16.955  1.00  0.00     0.198 C 
HETATM   17  C15 UNL     1      -5.902   2.307  15.979  1.00  0.00     0.298 C 
ENDBRANCH  11  12
ENDBRANCH  10  11
ENDBRANCH   5  10
BRANCH   1  18
HETATM   18  C4  UNL     1      -0.505   4.591  11.850  1.00  0.00     0.146 A 
HETATM   19  N1  UNL     1       0.410   3.744  11.418  1.00  0.00    -0.346 N 
HETATM   20  C3  UNL     1       1.588   4.164  11.089  1.00  0.00     0.104 A 
ATOM     21  H1  UNL     1       0.187   2.752  11.342  1.00  0.00     0.167 HD
HETATM   22  C2  UNL     1       1.837   5.512  11.208  1.00  0.00    -0.003 A 
HETATM   23  C1  UNL     1       3.111   6.244  10.895  1.00  0.00     0.058 C 
HETATM   24  S1  UNL     1       0.343   6.093  11.793  1.00  0.00    -0.058 SA
ENDBRANCH   1  18
TORSDOF 6
ENDMDL
