MODEL 1
REMARK VINA RESULT: -7.772595403      0.000      0.000
REMARK  6 active torsions:
REMARK  status: ('A' for Active; 'I' for Inactive)
REMARK    1  A    between atoms: C4_4  and  C6_6 
REMARK    2  A    between atoms: C6_6  and  O2_8 
REMARK    3  A    between atoms: O2_8  and  C7_9 
REMARK    4  A    between atoms: C8_11  and  C9_12 
REMARK    5  A    between atoms: C9_12  and  C10_13 
REMARK    6  A    between atoms: C11_15  and  C12_16 
ROOT
HETATM    1  C7  UNL     1      -3.998   5.157  12.672  1.00  0.00     0.303 C 
HETATM    2  O3  UNL     1      -5.044   5.204  13.524  1.00  0.00    -0.350 OA
HETATM    3  C8  UNL     1      -4.836   4.870  14.821  1.00  0.00     0.151 C 
HETATM    4  C13 UNL     1      -3.599   4.010  14.915  1.00  0.00     0.201 C 
HETATM    5  O7  UNL     1      -2.532   4.857  14.574  1.00  0.00    -0.373 OA
HETATM    6  C14 UNL     1      -2.633   5.180  13.254  1.00  0.00     0.103 C 
HETATM    7  C15 UNL     1      -2.045   6.577  13.076  1.00  0.00     0.051 C 
HETATM    8  C16 UNL     1      -1.697   4.245  12.472  1.00  0.00     0.051 C 
ENDROOT
BRANCH   1   9
HETATM    9  O2  UNL     1      -4.133   6.203  11.723  1.00  0.00    -0.283 OA
BRANCH   9  10
HETATM   10  C6  UNL     1      -5.217   6.340  10.873  1.00  0.00     0.291 C 
HETATM   11  O1  UNL     1      -5.512   5.346  10.173  1.00  0.00    -0.260 OA
BRANCH  10  12
HETATM   12  C4  UNL     1      -5.932   7.606  10.846  1.00  0.00     0.015 C 
HETATM   13  C2  UNL     1      -5.500   8.700  10.283  1.00  0.00    -0.076 C 
HETATM   14  C1  UNL     1      -6.308   9.924  10.318  1.00  0.00     0.044 C 
HETATM   15  C3  UNL     1      -4.192   8.701   9.612  1.00  0.00     0.044 C 
HETATM   16  C5  UNL     1      -7.283   7.665  11.521  1.00  0.00     0.055 C 
ENDBRANCH  10  12
ENDBRANCH   9  10
ENDBRANCH   1   9
BRANCH   3  17
HETATM   17  C9  UNL     1      -6.041   4.216  15.412  1.00  0.00     0.069 C 
BRANCH  17  18
HETATM   18  C10 UNL     1      -5.687   3.011  16.261  1.00  0.00     0.165 A 
HETATM   19  O4  UNL     1      -6.963   2.431  16.758  1.00  0.00    -0.364 OA
HETATM   20  C11 UNL     1      -6.141   1.663  15.937  1.00  0.00     0.251 A 
BRANCH  20  21
HETATM   21  C12 UNL     1      -5.406   0.545  16.590  1.00  0.00     0.205 C 
HETATM   22  O5  UNL     1      -6.022  -0.318  17.259  1.00  0.00    -0.646 OA
HETATM   23  O6  UNL     1      -4.028   0.434  16.474  1.00  0.00    -0.646 OA
ENDBRANCH  20  21
ENDBRANCH  17  18
ENDBRANCH   3  17
TORSDOF 6
ENDMDL
MODEL 2
REMARK VINA RESULT: -7.593769840      0.435      1.182
REMARK  6 active torsions:
REMARK  status: ('A' for Active; 'I' for Inactive)
REMARK    1  A    between atoms: C4_4  and  C6_6 
REMARK    2  A    between atoms: C6_6  and  O2_8 
REMARK    3  A    between atoms: O2_8  and  C7_9 
REMARK    4  A    between atoms: C8_11  and  C9_12 
REMARK    5  A    between atoms: C9_12  and  C10_13 
REMARK    6  A    between atoms: C11_15  and  C12_16 
ROOT
HETATM    1  C7  UNL     1      -3.936   5.134  12.667  1.00  0.00     0.303 C 
HETATM    2  O3  UNL     1      -4.986   5.204  13.513  1.00  0.00    -0.350 OA
HETATM    3  C8  UNL     1      -4.788   4.888  14.815  1.00  0.00     0.151 C 
HETATM    4  C13 UNL     1      -3.560   4.017  14.930  1.00  0.00     0.201 C 
HETATM    5  O7  UNL     1      -2.483   4.848  14.581  1.00  0.00    -0.373 OA
HETATM    6  C14 UNL     1      -2.574   5.151  13.256  1.00  0.00     0.103 C 
HETATM    7  C15 UNL     1      -1.971   6.540  13.060  1.00  0.00     0.051 C 
HETATM    8  C16 UNL     1      -1.644   4.196  12.494  1.00  0.00     0.051 C 
ENDROOT
BRANCH   1   9
HETATM    9  O2  UNL     1      -4.055   6.166  11.702  1.00  0.00    -0.283 OA
BRANCH   9  10
HETATM   10  C6  UNL     1      -4.941   6.131  10.639  1.00  0.00     0.291 C 
HETATM   11  O1  UNL     1      -5.349   5.004  10.283  1.00  0.00    -0.260 OA
BRANCH  10  12
HETATM   12  C4  UNL     1      -5.337   7.384  10.013  1.00  0.00     0.015 C 
HETATM   13  C2  UNL     1      -6.369   8.101  10.358  1.00  0.00    -0.076 C 
HETATM   14  C1  UNL     1      -6.675   9.352   9.655  1.00  0.00     0.044 C 
HETATM   15  C3  UNL     1      -7.231   7.648  11.460  1.00  0.00     0.044 C 
HETATM   16  C5  UNL     1      -4.488   7.899   8.875  1.00  0.00     0.055 C 
ENDBRANCH  10  12
ENDBRANCH   9  10
ENDBRANCH   1   9
BRANCH   3  17
HETATM   17  C9  UNL     1      -6.003   4.255  15.410  1.00  0.00     0.069 C 
BRANCH  17  18
HETATM   18  C10 UNL     1      -5.668   3.041  16.254  1.00  0.00     0.165 A 
HETATM   19  O4  UNL     1      -6.955   2.460  16.721  1.00  0.00    -0.364 OA
HETATM   20  C11 UNL     1      -6.119   1.697  15.908  1.00  0.00     0.251 A 
BRANCH  20  21
HETATM   21  C12 UNL     1      -5.400   0.571  16.563  1.00  0.00     0.205 C 
HETATM   22  O5  UNL     1      -6.031  -0.299  17.210  1.00  0.00    -0.646 OA
HETATM   23  O6  UNL     1      -4.020   0.458  16.475  1.00  0.00    -0.646 OA
ENDBRANCH  20  21
ENDBRANCH  17  18
ENDBRANCH   3  17
TORSDOF 6
ENDMDL
MODEL 3
REMARK VINA RESULT: -7.434378016      1.204      1.331
REMARK  6 active torsions:
REMARK  status: ('A' for Active; 'I' for Inactive)
REMARK    1  A    between atoms: C4_4  and  C6_6 
REMARK    2  A    between atoms: C6_6  and  O2_8 
REMARK    3  A    between atoms: O2_8  and  C7_9 
REMARK    4  A    between atoms: C8_11  and  C9_12 
REMARK    5  A    between atoms: C9_12  and  C10_13 
REMARK    6  A    between atoms: C11_15  and  C12_16 
ROOT
HETATM    1  C7  UNL     1      -4.098   5.533  12.588  1.00  0.00     0.303 C 
HETATM    2  O3  UNL     1      -5.139   5.374  13.434  1.00  0.00    -0.350 OA
HETATM    3  C8  UNL     1      -4.879   5.196  14.751  1.00  0.00     0.151 C 
HETATM    4  C13 UNL     1      -3.467   4.685  14.910  1.00  0.00     0.201 C 
HETATM    5  O7  UNL     1      -2.642   5.749  14.509  1.00  0.00    -0.373 OA
HETATM    6  C14 UNL     1      -2.795   5.942  13.170  1.00  0.00     0.103 C 
HETATM    7  C15 UNL     1      -2.575   7.426  12.891  1.00  0.00     0.051 C 
HETATM    8  C16 UNL     1      -1.638   5.222  12.459  1.00  0.00     0.051 C 
ENDROOT
BRANCH   1   9
HETATM    9  O2  UNL     1      -4.474   6.441  11.566  1.00  0.00    -0.283 OA
BRANCH   9  10
HETATM   10  C6  UNL     1      -5.360   6.135  10.548  1.00  0.00     0.291 C 
HETATM   11  O1  UNL     1      -5.201   5.034   9.976  1.00  0.00    -0.260 OA
BRANCH  10  12
HETATM   12  C4  UNL     1      -6.401   7.093  10.210  1.00  0.00     0.015 C 
HETATM   13  C2  UNL     1      -6.659   7.529   9.009  1.00  0.00    -0.076 C 
HETATM   14  C1  UNL     1      -7.736   8.499   8.785  1.00  0.00     0.044 C 
HETATM   15  C3  UNL     1      -5.860   7.042   7.874  1.00  0.00     0.044 C 
HETATM   16  C5  UNL     1      -7.255   7.628  11.336  1.00  0.00     0.055 C 
ENDBRANCH  10  12
ENDBRANCH   9  10
ENDBRANCH   1   9
BRANCH   3  17
HETATM   17  C9  UNL     1      -5.891   4.300  15.387  1.00  0.00     0.069 C 
BRANCH  17  18
HETATM   18  C10 UNL     1      -5.279   3.017  15.912  1.00  0.00     0.165 A 
HETATM   19  O4  UNL     1      -6.400   2.099  16.248  1.00  0.00    -0.364 OA
HETATM   20  C11 UNL     1      -5.488   1.726  15.264  1.00  0.00     0.251 A 
BRANCH  20  21
HETATM   21  C12 UNL     1      -4.528   0.646  15.621  1.00  0.00     0.205 C 
HETATM   22  O5  UNL     1      -3.500   0.902  16.292  1.00  0.00    -0.646 OA
HETATM   23  O6  UNL     1      -4.747  -0.663  15.219  1.00  0.00    -0.646 OA
ENDBRANCH  20  21
ENDBRANCH  17  18
ENDBRANCH   3  17
TORSDOF 6
ENDMDL
MODEL 4
REMARK VINA RESULT: -7.324749630      2.227      3.058
REMARK  6 active torsions:
REMARK  status: ('A' for Active; 'I' for Inactive)
REMARK    1  A    between atoms: C4_4  and  C6_6 
REMARK    2  A    between atoms: C6_6  and  O2_8 
REMARK    3  A    between atoms: O2_8  and  C7_9 
REMARK    4  A    between atoms: C8_11  and  C9_12 
REMARK    5  A    between atoms: C9_12  and  C10_13 
REMARK    6  A    between atoms: C11_15  and  C12_16 
ROOT
HETATM    1  C7  UNL     1      -3.774   5.183  12.215  1.00  0.00     0.303 C 
HETATM    2  O3  UNL     1      -4.951   4.871  12.797  1.00  0.00    -0.350 OA
HETATM    3  C8  UNL     1      -5.180   5.300  14.061  1.00  0.00     0.151 C 
HETATM    4  C13 UNL     1      -3.858   5.582  14.733  1.00  0.00     0.201 C 
HETATM    5  O7  UNL     1      -3.327   6.691  14.055  1.00  0.00    -0.373 OA
HETATM    6  C14 UNL     1      -3.002   6.315  12.786  1.00  0.00     0.103 C 
HETATM    7  C15 UNL     1      -3.176   7.535  11.886  1.00  0.00     0.051 C 
HETATM    8  C16 UNL     1      -1.497   6.007  12.763  1.00  0.00     0.051 C 
ENDROOT
BRANCH   1   9
HETATM    9  O2  UNL     1      -3.991   5.402  10.831  1.00  0.00    -0.283 OA
BRANCH   9  10
HETATM   10  C6  UNL     1      -3.616   4.511   9.840  1.00  0.00     0.291 C 
HETATM   11  O1  UNL     1      -4.223   3.418   9.806  1.00  0.00    -0.260 OA
BRANCH  10  12
HETATM   12  C4  UNL     1      -2.559   4.892   8.916  1.00  0.00     0.015 C 
HETATM   13  C2  UNL     1      -2.745   5.322   7.699  1.00  0.00    -0.076 C 
HETATM   14  C1  UNL     1      -1.601   5.679   6.853  1.00  0.00     0.044 C 
HETATM   15  C3  UNL     1      -4.114   5.447   7.176  1.00  0.00     0.044 C 
HETATM   16  C5  UNL     1      -1.131   4.785   9.398  1.00  0.00     0.055 C 
ENDBRANCH  10  12
ENDBRANCH   9  10
ENDBRANCH   1   9
BRANCH   3  17
HETATM   17  C9  UNL     1      -6.018   4.325  14.822  1.00  0.00     0.069 C 
BRANCH  17  18
HETATM   18  C10 UNL     1      -5.193   3.217  15.445  1.00  0.00     0.165 A 
HETATM   19  O4  UNL     1      -6.002   2.631  16.547  1.00  0.00    -0.364 OA
HETATM   20  C11 UNL     1      -5.637   1.828  15.469  1.00  0.00     0.251 A 
BRANCH  20  21
HETATM   21  C12 UNL     1      -4.588   0.804  15.727  1.00  0.00     0.205 C 
HETATM   22  O5  UNL     1      -3.495   1.128  16.250  1.00  0.00    -0.646 OA
HETATM   23  O6  UNL     1      -4.793  -0.527  15.394  1.00  0.00    -0.646 OA
ENDBRANCH  20  21
ENDBRANCH  17  18
ENDBRANCH   3  17
TORSDOF 6
ENDMDL
MODEL 5
REMARK VINA RESULT: -7.311792354      1.705      2.279
REMARK  6 active torsions:
REMARK  status: ('A' for Active; 'I' for Inactive)
REMARK    1  A    between atoms: C4_4  and  C6_6 
REMARK    2  A    between atoms: C6_6  and  O2_8 
REMARK    3  A    between atoms: O2_8  and  C7_9 
REMARK    4  A    between atoms: C8_11  and  C9_12 
REMARK    5  A    between atoms: C9_12  and  C10_13 
REMARK    6  A    between atoms: C11_15  and  C12_16 
ROOT
HETATM    1  C7  UNL     1      -4.606   5.510  12.074  1.00  0.00     0.303 C 
HETATM    2  O3  UNL     1      -4.472   5.428  13.415  1.00  0.00    -0.350 OA
HETATM    3  C8  UNL     1      -3.552   4.573  13.921  1.00  0.00     0.151 C 
HETATM    4  C13 UNL     1      -3.245   3.512  12.892  1.00  0.00     0.201 C 
HETATM    5  O7  UNL     1      -2.591   4.188  11.848  1.00  0.00    -0.373 OA
HETATM    6  C14 UNL     1      -3.481   5.020  11.239  1.00  0.00     0.103 C 
HETATM    7  C15 UNL     1      -2.700   6.221  10.712  1.00  0.00     0.051 C 
HETATM    8  C16 UNL     1      -4.010   4.303   9.988  1.00  0.00     0.051 C 
ENDROOT
BRANCH   1   9
HETATM    9  O2  UNL     1      -4.915   6.849  11.726  1.00  0.00    -0.283 OA
BRANCH   9  10
HETATM   10  C6  UNL     1      -6.186   7.288  11.397  1.00  0.00     0.291 C 
HETATM   11  O1  UNL     1      -7.132   6.829  12.074  1.00  0.00    -0.260 OA
BRANCH  10  12
HETATM   12  C4  UNL     1      -6.341   8.239  10.307  1.00  0.00     0.015 C 
HETATM   13  C2  UNL     1      -6.875   7.970   9.148  1.00  0.00    -0.076 C 
HETATM   14  C1  UNL     1      -6.980   9.010   8.118  1.00  0.00     0.044 C 
HETATM   15  C3  UNL     1      -7.373   6.613   8.876  1.00  0.00     0.044 C 
HETATM   16  C5  UNL     1      -5.848   9.649  10.529  1.00  0.00     0.055 C 
ENDBRANCH  10  12
ENDBRANCH   9  10
ENDBRANCH   1   9
BRANCH   3  17
HETATM   17  C9  UNL     1      -4.004   3.999  15.225  1.00  0.00     0.069 C 
BRANCH  17  18
HETATM   18  C10 UNL     1      -4.179   2.495  15.164  1.00  0.00     0.165 A 
HETATM   19  O4  UNL     1      -3.227   1.900  16.140  1.00  0.00    -0.364 OA
HETATM   20  C11 UNL     1      -4.594   1.707  16.319  1.00  0.00     0.251 A 
BRANCH  20  21
HETATM   21  C12 UNL     1      -5.116   0.342  16.033  1.00  0.00     0.205 C 
HETATM   22  O5  UNL     1      -4.874  -0.217  14.938  1.00  0.00    -0.646 OA
HETATM   23  O6  UNL     1      -5.882  -0.339  16.969  1.00  0.00    -0.646 OA
ENDBRANCH  20  21
ENDBRANCH  17  18
ENDBRANCH   3  17
TORSDOF 6
ENDMDL
