MODEL 1
REMARK VINA RESULT: -8.269917900      0.000      0.000
REMARK  8 active torsions:
REMARK  status: ('A' for Active; 'I' for Inactive)
REMARK    1  A    between atoms: C2_2  and  C3_3 
REMARK    2  A    between atoms: C3_3  and  C5_5 
REMARK    3  A    between atoms: C3_3  and  C6_8 
REMARK    4  A    between atoms: C5_5  and  O1_6 
REMARK    5  A    between atoms: C6_8  and  C7_9 
REMARK    6  A    between atoms: C7_9  and  C8_10 
REMARK       I    between atoms: N2_18  and  C15_19 
REMARK    7  A    between atoms: C15_19  and  C16_21 
REMARK    8  A    between atoms: C17_26  and  C18_27 
ROOT
HETATM    1  C8  UNL     1      -1.513   4.768  12.289  1.00  0.00     0.043 C 
HETATM    2  C9  UNL     1      -0.808   6.065  12.280  1.00  0.00     0.330 C 
HETATM    3  N1  UNL     1      -1.719   6.997  13.003  1.00  0.00     0.100 N 
HETATM    4  C10 UNL     1      -1.282   8.340  13.004  1.00  0.00     0.273 C 
HETATM    5  C11 UNL     1      -1.874   8.937  14.252  1.00  0.00     0.032 C 
HETATM    6  C12 UNL     1      -1.888   7.779  15.225  1.00  0.00     0.039 C 
HETATM    7  C13 UNL     1      -1.579   6.584  14.370  1.00  0.00     0.241 C 
HETATM    8  C14 UNL     1      -2.509   5.412  14.572  1.00  0.00     0.168 C 
HETATM    9  N2  UNL     1      -2.285   4.470  13.494  1.00  0.00    -0.311 N 
HETATM   10  C15 UNL     1      -2.799   3.162  13.665  1.00  0.00     0.293 C 
HETATM   11  O2  UNL     1      -2.532   2.282  12.809  1.00  0.00    -0.264 OA
ENDROOT
BRANCH   1  12
HETATM   12  C7  UNL     1      -2.128   4.373  11.026  1.00  0.00     0.024 C 
BRANCH  12  13
HETATM   13  C6  UNL     1      -3.112   5.143  10.303  1.00  0.00    -0.009 C 
BRANCH  13  14
HETATM   14  C3  UNL     1      -4.536   5.315  10.561  1.00  0.00     0.012 C 
HETATM   15  C4  UNL     1      -5.402   5.586   9.335  1.00  0.00     0.026 C 
BRANCH  14  16
HETATM   16  C2  UNL     1      -4.928   6.097  11.741  1.00  0.00    -0.022 C 
HETATM   17  C1  UNL     1      -5.731   5.625  12.652  1.00  0.00     0.008 C 
ENDBRANCH  14  16
BRANCH  14  18
HETATM   18  C5  UNL     1      -5.006   3.850  10.967  1.00  0.00     0.181 C 
BRANCH  18  19
HETATM   19  O1  UNL     1      -5.080   3.184   9.729  1.00  0.00    -0.400 OA
ATOM     20  H1  UNL     1      -4.931   2.276   9.964  1.00  0.00     0.209 HD
ENDBRANCH  18  19
ENDBRANCH  14  18
ENDBRANCH  13  14
ENDBRANCH  12  13
ENDBRANCH   1  12
BRANCH  10  21
HETATM   21  C16 UNL     1      -3.621   2.767  14.762  1.00  0.00     0.191 A 
HETATM   22  N3  UNL     1      -3.222   1.933  15.774  1.00  0.00    -0.279 N 
HETATM   23  N4  UNL     1      -4.193   1.760  16.640  1.00  0.00    -0.280 N 
ATOM     24  H3  UNL     1      -2.298   1.505  15.845  1.00  0.00     0.189 HD
HETATM   25  C17 UNL     1      -5.257   2.459  16.244  1.00  0.00     0.207 A 
ATOM     26  H4  UNL     1      -4.142   1.183  17.480  1.00  0.00     0.188 HD
HETATM   27  N5  UNL     1      -4.909   3.059  15.118  1.00  0.00    -0.318 N 
ATOM     28  H5  UNL     1      -5.526   3.666  14.580  1.00  0.00     0.169 HD
BRANCH  25  29
HETATM   29  C18 UNL     1      -6.565   2.521  16.978  1.00  0.00     0.450 C 
HETATM   30  F1  UNL     1      -6.334   2.442  18.360  1.00  0.00    -0.163 F 
HETATM   31  F2  UNL     1      -7.383   1.486  16.663  1.00  0.00    -0.163 F 
HETATM   32  F3  UNL     1      -7.222   3.718  16.750  1.00  0.00    -0.163 F 
ENDBRANCH  25  29
ENDBRANCH  10  21
TORSDOF 8
ENDMDL
MODEL 2
REMARK VINA RESULT: -8.266949123      4.541      6.879
REMARK  8 active torsions:
REMARK  status: ('A' for Active; 'I' for Inactive)
REMARK    1  A    between atoms: C2_2  and  C3_3 
REMARK    2  A    between atoms: C3_3  and  C5_5 
REMARK    3  A    between atoms: C3_3  and  C6_8 
REMARK    4  A    between atoms: C5_5  and  O1_6 
REMARK    5  A    between atoms: C6_8  and  C7_9 
REMARK    6  A    between atoms: C7_9  and  C8_10 
REMARK       I    between atoms: N2_18  and  C15_19 
REMARK    7  A    between atoms: C15_19  and  C16_21 
REMARK    8  A    between atoms: C17_26  and  C18_27 
ROOT
HETATM    1  C8  UNL     1      -5.408   3.565  13.705  1.00  0.00     0.043 C 
HETATM    2  C9  UNL     1      -6.702   4.157  13.313  1.00  0.00     0.330 C 
HETATM    3  N1  UNL     1      -6.362   5.527  12.832  1.00  0.00     0.100 N 
HETATM    4  C10 UNL     1      -7.488   6.318  12.515  1.00  0.00     0.273 C 
HETATM    5  C11 UNL     1      -6.995   7.291  11.479  1.00  0.00     0.032 C 
HETATM    6  C12 UNL     1      -5.952   6.502  10.721  1.00  0.00     0.039 C 
HETATM    7  C13 UNL     1      -5.745   5.275  11.562  1.00  0.00     0.241 C 
HETATM    8  C14 UNL     1      -4.298   4.940  11.836  1.00  0.00     0.168 C 
HETATM    9  N2  UNL     1      -4.260   3.938  12.881  1.00  0.00    -0.311 N 
HETATM   10  C15 UNL     1      -3.041   3.241  13.060  1.00  0.00     0.293 C 
HETATM   11  O2  UNL     1      -2.994   2.287  13.876  1.00  0.00    -0.264 OA
ENDROOT
BRANCH   1  12
HETATM   12  C7  UNL     1      -5.161   3.481  15.141  1.00  0.00     0.024 C 
BRANCH  12  13
HETATM   13  C6  UNL     1      -6.129   3.071  16.130  1.00  0.00    -0.009 C 
BRANCH  13  14
HETATM   14  C3  UNL     1      -6.235   1.821  16.871  1.00  0.00     0.012 C 
HETATM   15  C4  UNL     1      -7.576   1.102  16.766  1.00  0.00     0.026 C 
BRANCH  14  16
HETATM   16  C2  UNL     1      -5.645   1.770  18.214  1.00  0.00    -0.022 C 
HETATM   17  C1  UNL     1      -6.182   2.380  19.233  1.00  0.00     0.008 C 
ENDBRANCH  14  16
BRANCH  14  18
HETATM   18  C5  UNL     1      -5.281   0.840  16.056  1.00  0.00     0.181 C 
BRANCH  18  19
HETATM   19  O1  UNL     1      -4.152   0.728  16.889  1.00  0.00    -0.400 OA
ATOM     20  H1  UNL     1      -3.589   0.132  16.409  1.00  0.00     0.209 HD
ENDBRANCH  18  19
ENDBRANCH  14  18
ENDBRANCH  13  14
ENDBRANCH  12  13
ENDBRANCH   1  12
BRANCH  10  21
HETATM   21  C16 UNL     1      -1.834   3.556  12.366  1.00  0.00     0.191 A 
HETATM   22  N3  UNL     1      -0.689   4.014  12.964  1.00  0.00    -0.279 N 
HETATM   23  N4  UNL     1       0.252   4.209  12.070  1.00  0.00    -0.280 N 
ATOM     24  H3  UNL     1      -0.582   4.180  13.965  1.00  0.00     0.189 HD
HETATM   25  C17 UNL     1      -0.223   3.895  10.864  1.00  0.00     0.207 A 
ATOM     26  H4  UNL     1       1.195   4.547  12.266  1.00  0.00     0.188 HD
HETATM   27  N5  UNL     1      -1.474   3.506  11.048  1.00  0.00    -0.318 N 
ATOM     28  H5  UNL     1      -2.094   3.205  10.297  1.00  0.00     0.169 HD
BRANCH  25  29
HETATM   29  C18 UNL     1       0.558   3.980   9.585  1.00  0.00     0.450 C 
HETATM   30  F1  UNL     1       1.657   3.108   9.646  1.00  0.00    -0.163 F 
HETATM   31  F2  UNL     1       1.061   5.221   9.368  1.00  0.00    -0.163 F 
HETATM   32  F3  UNL     1      -0.202   3.589   8.497  1.00  0.00    -0.163 F 
ENDBRANCH  25  29
ENDBRANCH  10  21
TORSDOF 8
ENDMDL
MODEL 3
REMARK VINA RESULT: -8.234664189      1.709      2.131
REMARK  8 active torsions:
REMARK  status: ('A' for Active; 'I' for Inactive)
REMARK    1  A    between atoms: C2_2  and  C3_3 
REMARK    2  A    between atoms: C3_3  and  C5_5 
REMARK    3  A    between atoms: C3_3  and  C6_8 
REMARK    4  A    between atoms: C5_5  and  O1_6 
REMARK    5  A    between atoms: C6_8  and  C7_9 
REMARK    6  A    between atoms: C7_9  and  C8_10 
REMARK       I    between atoms: N2_18  and  C15_19 
REMARK    7  A    between atoms: C15_19  and  C16_21 
REMARK    8  A    between atoms: C17_26  and  C18_27 
ROOT
HETATM    1  C8  UNL     1      -3.643   4.335  11.374  1.00  0.00     0.043 C 
HETATM    2  C9  UNL     1      -2.801   5.536  11.218  1.00  0.00     0.330 C 
HETATM    3  N1  UNL     1      -2.988   6.299  12.485  1.00  0.00     0.100 N 
HETATM    4  C10 UNL     1      -2.353   7.560  12.494  1.00  0.00     0.273 C 
HETATM    5  C11 UNL     1      -2.069   7.838  13.946  1.00  0.00     0.032 C 
HETATM    6  C12 UNL     1      -1.807   6.465  14.523  1.00  0.00     0.039 C 
HETATM    7  C13 UNL     1      -2.241   5.526  13.436  1.00  0.00     0.241 C 
HETATM    8  C14 UNL     1      -3.143   4.406  13.897  1.00  0.00     0.168 C 
HETATM    9  N2  UNL     1      -3.712   3.775  12.723  1.00  0.00    -0.311 N 
HETATM   10  C15 UNL     1      -4.314   2.507  12.903  1.00  0.00     0.293 C 
HETATM   11  O2  UNL     1      -4.720   1.873  11.897  1.00  0.00    -0.264 OA
ENDROOT
BRANCH   1  12
HETATM   12  C7  UNL     1      -4.893   4.335  10.621  1.00  0.00     0.024 C 
BRANCH  12  13
HETATM   13  C6  UNL     1      -5.339   5.396   9.750  1.00  0.00    -0.009 C 
BRANCH  13  14
HETATM   14  C3  UNL     1      -5.953   6.676  10.077  1.00  0.00     0.012 C 
HETATM   15  C4  UNL     1      -5.110   7.910   9.774  1.00  0.00     0.026 C 
BRANCH  14  16
HETATM   16  C2  UNL     1      -6.704   6.773  11.335  1.00  0.00    -0.022 C 
HETATM   17  C1  UNL     1      -7.564   7.726  11.560  1.00  0.00     0.008 C 
ENDBRANCH  14  16
BRANCH  14  18
HETATM   18  C5  UNL     1      -7.112   6.806   8.993  1.00  0.00     0.181 C 
BRANCH  18  19
HETATM   19  O1  UNL     1      -6.965   5.633   8.228  1.00  0.00    -0.400 OA
ATOM     20  H1  UNL     1      -7.420   5.845   7.421  1.00  0.00     0.209 HD
ENDBRANCH  18  19
ENDBRANCH  14  18
ENDBRANCH  13  14
ENDBRANCH  12  13
ENDBRANCH   1  12
BRANCH  10  21
HETATM   21  C16 UNL     1      -4.502   1.888  14.175  1.00  0.00     0.191 A 
HETATM   22  N3  UNL     1      -3.636   0.984  14.736  1.00  0.00    -0.279 N 
HETATM   23  N4  UNL     1      -4.073   0.595  15.911  1.00  0.00    -0.280 N 
ATOM     24  H3  UNL     1      -2.772   0.659  14.301  1.00  0.00     0.189 HD
HETATM   25  C17 UNL     1      -5.226   1.213  16.172  1.00  0.00     0.207 A 
ATOM     26  H4  UNL     1      -3.606  -0.072  16.526  1.00  0.00     0.188 HD
HETATM   27  N5  UNL     1      -5.477   1.984  15.127  1.00  0.00    -0.318 N 
ATOM     28  H5  UNL     1      -6.301   2.580  15.042  1.00  0.00     0.169 HD
BRANCH  25  29
HETATM   29  C18 UNL     1      -6.031   1.034  17.426  1.00  0.00     0.450 C 
HETATM   30  F1  UNL     1      -5.702  -0.191  18.027  1.00  0.00    -0.163 F 
HETATM   31  F2  UNL     1      -7.365   0.999  17.181  1.00  0.00    -0.163 F 
HETATM   32  F3  UNL     1      -5.755   2.023  18.355  1.00  0.00    -0.163 F 
ENDBRANCH  25  29
ENDBRANCH  10  21
TORSDOF 8
ENDMDL
MODEL 4
REMARK VINA RESULT: -8.136143957      0.915      1.448
REMARK  8 active torsions:
REMARK  status: ('A' for Active; 'I' for Inactive)
REMARK    1  A    between atoms: C2_2  and  C3_3 
REMARK    2  A    between atoms: C3_3  and  C5_5 
REMARK    3  A    between atoms: C3_3  and  C6_8 
REMARK    4  A    between atoms: C5_5  and  O1_6 
REMARK    5  A    between atoms: C6_8  and  C7_9 
REMARK    6  A    between atoms: C7_9  and  C8_10 
REMARK       I    between atoms: N2_18  and  C15_19 
REMARK    7  A    between atoms: C15_19  and  C16_21 
REMARK    8  A    between atoms: C17_26  and  C18_27 
ROOT
HETATM    1  C8  UNL     1      -1.542   4.330  12.609  1.00  0.00     0.043 C 
HETATM    2  C9  UNL     1      -0.690   5.534  12.650  1.00  0.00     0.330 C 
HETATM    3  N1  UNL     1      -1.602   6.630  13.090  1.00  0.00     0.100 N 
HETATM    4  C10 UNL     1      -1.006   7.909  13.080  1.00  0.00     0.273 C 
HETATM    5  C11 UNL     1      -1.756   8.691  14.124  1.00  0.00     0.032 C 
HETATM    6  C12 UNL     1      -2.114   7.647  15.158  1.00  0.00     0.039 C 
HETATM    7  C13 UNL     1      -1.794   6.345  14.483  1.00  0.00     0.241 C 
HETATM    8  C14 UNL     1      -2.887   5.308  14.572  1.00  0.00     0.168 C 
HETATM    9  N2  UNL     1      -2.572   4.242  13.642  1.00  0.00    -0.311 N 
HETATM   10  C15 UNL     1      -3.273   3.022  13.800  1.00  0.00     0.293 C 
HETATM   11  O2  UNL     1      -2.954   2.036  13.091  1.00  0.00    -0.264 OA
ENDROOT
BRANCH   1  12
HETATM   12  C7  UNL     1      -1.935   3.878  11.279  1.00  0.00     0.024 C 
BRANCH  12  13
HETATM   13  C6  UNL     1      -2.675   4.662  10.318  1.00  0.00    -0.009 C 
BRANCH  13  14
HETATM   14  C3  UNL     1      -4.101   4.951  10.251  1.00  0.00     0.012 C 
HETATM   15  C4  UNL     1      -4.627   5.368   8.882  1.00  0.00     0.026 C 
BRANCH  14  16
HETATM   16  C2  UNL     1      -4.700   5.701  11.363  1.00  0.00    -0.022 C 
HETATM   17  C1  UNL     1      -4.617   6.998  11.452  1.00  0.00     0.008 C 
ENDBRANCH  14  16
BRANCH  14  18
HETATM   18  C5  UNL     1      -4.767   3.516  10.426  1.00  0.00     0.181 C 
BRANCH  18  19
HETATM   19  O1  UNL     1      -5.736   3.734  11.424  1.00  0.00    -0.400 OA
ATOM     20  H1  UNL     1      -6.340   4.339  11.009  1.00  0.00     0.209 HD
ENDBRANCH  18  19
ENDBRANCH  14  18
ENDBRANCH  13  14
ENDBRANCH  12  13
ENDBRANCH   1  12
BRANCH  10  21
HETATM   21  C16 UNL     1      -4.344   2.833  14.725  1.00  0.00     0.191 A 
HETATM   22  N3  UNL     1      -5.612   3.329  14.559  1.00  0.00    -0.279 N 
HETATM   23  N4  UNL     1      -6.376   2.986  15.570  1.00  0.00    -0.280 N 
ATOM     24  H3  UNL     1      -5.919   3.886  13.761  1.00  0.00     0.189 HD
HETATM   25  C17 UNL     1      -5.659   2.264  16.432  1.00  0.00     0.207 A 
ATOM     26  H4  UNL     1      -7.360   3.233  15.679  1.00  0.00     0.188 HD
HETATM   27  N5  UNL     1      -4.442   2.178  15.920  1.00  0.00    -0.318 N 
ATOM     28  H5  UNL     1      -3.670   1.682  16.364  1.00  0.00     0.169 HD
BRANCH  25  29
HETATM   29  C18 UNL     1      -6.185   1.683  17.712  1.00  0.00     0.450 C 
HETATM   30  F1  UNL     1      -7.470   1.160  17.498  1.00  0.00    -0.163 F 
HETATM   31  F2  UNL     1      -6.304   2.615  18.691  1.00  0.00    -0.163 F 
HETATM   32  F3  UNL     1      -5.396   0.637  18.159  1.00  0.00    -0.163 F 
ENDBRANCH  25  29
ENDBRANCH  10  21
TORSDOF 8
ENDMDL
MODEL 5
REMARK VINA RESULT: -8.070458319      1.047      1.509
REMARK  8 active torsions:
REMARK  status: ('A' for Active; 'I' for Inactive)
REMARK    1  A    between atoms: C2_2  and  C3_3 
REMARK    2  A    between atoms: C3_3  and  C5_5 
REMARK    3  A    between atoms: C3_3  and  C6_8 
REMARK    4  A    between atoms: C5_5  and  O1_6 
REMARK    5  A    between atoms: C6_8  and  C7_9 
REMARK    6  A    between atoms: C7_9  and  C8_10 
REMARK       I    between atoms: N2_18  and  C15_19 
REMARK    7  A    between atoms: C15_19  and  C16_21 
REMARK    8  A    between atoms: C17_26  and  C18_27 
ROOT
HETATM    1  C8  UNL     1      -2.205   5.795  11.947  1.00  0.00     0.043 C 
HETATM    2  C9  UNL     1      -1.422   7.042  12.052  1.00  0.00     0.330 C 
HETATM    3  N1  UNL     1      -2.061   7.798  13.168  1.00  0.00     0.100 N 
HETATM    4  C10 UNL     1      -1.531   9.093  13.359  1.00  0.00     0.273 C 
HETATM    5  C11 UNL     1      -1.763   9.393  14.815  1.00  0.00     0.032 C 
HETATM    6  C12 UNL     1      -1.639   8.040  15.478  1.00  0.00     0.039 C 
HETATM    7  C13 UNL     1      -1.636   7.073  14.330  1.00  0.00     0.241 C 
HETATM    8  C14 UNL     1      -2.581   5.907  14.490  1.00  0.00     0.168 C 
HETATM    9  N2  UNL     1      -2.692   5.239  13.208  1.00  0.00    -0.311 N 
HETATM   10  C15 UNL     1      -3.253   3.940  13.206  1.00  0.00     0.293 C 
HETATM   11  O2  UNL     1      -3.266   3.280  12.138  1.00  0.00    -0.264 OA
ENDROOT
BRANCH   1  12
HETATM   12  C7  UNL     1      -3.130   5.722  10.821  1.00  0.00     0.024 C 
BRANCH  12  13
HETATM   13  C6  UNL     1      -4.135   6.709  10.503  1.00  0.00    -0.009 C 
BRANCH  13  14
HETATM   14  C3  UNL     1      -5.577   6.672  10.710  1.00  0.00     0.012 C 
HETATM   15  C4  UNL     1      -6.228   8.006  11.059  1.00  0.00     0.026 C 
BRANCH  14  16
HETATM   16  C2  UNL     1      -6.132   5.535  11.455  1.00  0.00    -0.022 C 
HETATM   17  C1  UNL     1      -6.660   5.670  12.639  1.00  0.00     0.008 C 
ENDBRANCH  14  16
BRANCH  14  18
HETATM   18  C5  UNL     1      -6.143   6.413   9.245  1.00  0.00     0.181 C 
BRANCH  18  19
HETATM   19  O1  UNL     1      -6.071   5.013   9.118  1.00  0.00    -0.400 OA
ATOM     20  H1  UNL     1      -5.193   4.872   8.781  1.00  0.00     0.209 HD
ENDBRANCH  18  19
ENDBRANCH  14  18
ENDBRANCH  13  14
ENDBRANCH  12  13
ENDBRANCH   1  12
BRANCH  10  21
HETATM   21  C16 UNL     1      -3.823   3.317  14.357  1.00  0.00     0.191 A 
HETATM   22  N3  UNL     1      -3.147   2.471  15.199  1.00  0.00    -0.279 N 
HETATM   23  N4  UNL     1      -3.932   2.062  16.169  1.00  0.00    -0.280 N 
ATOM     24  H3  UNL     1      -2.170   2.198  15.088  1.00  0.00     0.189 HD
HETATM   25  C17 UNL     1      -5.138   2.609  16.011  1.00  0.00     0.207 A 
ATOM     26  H4  UNL     1      -3.662   1.428  16.921  1.00  0.00     0.188 HD
HETATM   27  N5  UNL     1      -5.066   3.358  14.923  1.00  0.00    -0.318 N 
ATOM     28  H5  UNL     1      -5.845   3.901  14.552  1.00  0.00     0.169 HD
BRANCH  25  29
HETATM   29  C18 UNL     1      -6.307   2.387  16.926  1.00  0.00     0.450 C 
HETATM   30  F1  UNL     1      -7.166   3.496  16.869  1.00  0.00    -0.163 F 
HETATM   31  F2  UNL     1      -5.930   2.256  18.223  1.00  0.00    -0.163 F 
HETATM   32  F3  UNL     1      -7.051   1.284  16.544  1.00  0.00    -0.163 F 
ENDBRANCH  25  29
ENDBRANCH  10  21
TORSDOF 8
ENDMDL
