MODEL 1
REMARK VINA RESULT: -7.213488487      0.000      0.000
REMARK  9 active torsions:
REMARK  status: ('A' for Active; 'I' for Inactive)
REMARK       I    between atoms: C2_2  and  N1_4 
REMARK    1  A    between atoms: C3_5  and  C4_6 
REMARK    2  A    between atoms: C4_6  and  N3_12 
REMARK    3  A    between atoms: N2_7  and  C5_9 
REMARK    4  A    between atoms: N3_12  and  C8_14 
REMARK    5  A    between atoms: C8_14  and  C11_17 
REMARK    6  A    between atoms: C15_25  and  O3_26 
REMARK    7  A    between atoms: O3_26  and  C16_27 
REMARK    8  A    between atoms: C16_27  and  C17_28 
REMARK    9  A    between atoms: C17_28  and  O4_29 
ROOT
HETATM    1  C1  UNL     1      -1.284   4.104  11.512  1.00  0.00     0.117 C 
HETATM    2  C2  UNL     1      -2.389   3.592  12.359  1.00  0.00     0.218 C 
HETATM    3  O1  UNL     1      -2.086   3.479  13.593  1.00  0.00    -0.274 OA
HETATM    4  N1  UNL     1      -3.665   3.256  11.858  1.00  0.00    -0.309 N 
HETATM    5  C3  UNL     1      -4.013   3.444  10.437  1.00  0.00     0.295 C 
HETATM    6  O2  UNL     1      -5.130   2.619  10.206  1.00  0.00    -0.352 OA
HETATM    7  C12 UNL     1      -5.354   1.854  11.304  1.00  0.00     0.150 C 
HETATM    8  C13 UNL     1      -4.391   0.697  11.284  1.00  0.00     0.037 C 
HETATM    9  C14 UNL     1      -3.722   0.631  12.643  1.00  0.00     0.036 C 
HETATM   10  C15 UNL     1      -4.570   1.569  13.465  1.00  0.00     0.147 C 
HETATM   11  C18 UNL     1      -4.821   2.695  12.477  1.00  0.00     0.148 C 
ENDROOT
BRANCH   5  12
HETATM   12  C4  UNL     1      -4.494   4.800  10.137  1.00  0.00     0.124 C 
HETATM   13  N2  UNL     1      -3.872   5.605   9.395  1.00  0.00    -0.372 N 
ATOM     14  H2  UNL     1      -4.338   6.506   9.289  1.00  0.00     0.161 HD
BRANCH  13  15
HETATM   15  C5  UNL     1      -2.660   5.508   8.682  1.00  0.00     0.074 C 
HETATM   16  C6  UNL     1      -1.787   6.747   8.918  1.00  0.00     0.031 C 
HETATM   17  C7  UNL     1      -2.893   5.477   7.164  1.00  0.00     0.031 C 
ENDBRANCH  13  15
BRANCH  12  18
HETATM   18  N3  UNL     1      -5.744   5.205  10.670  1.00  0.00    -0.359 N 
ATOM     19  H3  UNL     1      -6.579   4.733  10.325  1.00  0.00     0.162 HD
BRANCH  18  20
HETATM   20  C8  UNL     1      -5.923   6.230  11.657  1.00  0.00     0.122 C 
HETATM   21  C9  UNL     1      -4.548   6.518  12.278  1.00  0.00     0.047 C 
HETATM   22  C10 UNL     1      -6.764   5.688  12.804  1.00  0.00     0.047 C 
BRANCH  20  23
HETATM   23  C11 UNL     1      -6.515   7.513  11.149  1.00  0.00     0.411 C 
HETATM   24  F1  UNL     1      -7.595   7.931  11.873  1.00  0.00    -0.168 F 
HETATM   25  F2  UNL     1      -5.541   8.473  10.973  1.00  0.00    -0.168 F 
HETATM   26  F3  UNL     1      -7.022   7.199   9.873  1.00  0.00    -0.168 F 
ENDBRANCH  20  23
ENDBRANCH  18  20
ENDBRANCH  12  18
ENDBRANCH   5  12
BRANCH  10  27
HETATM   27  O3  UNL     1      -4.120   1.916  14.671  1.00  0.00    -0.382 OA
BRANCH  27  28
HETATM   28  C16 UNL     1      -4.062   0.988  15.661  1.00  0.00     0.194 C 
BRANCH  28  29
HETATM   29  C17 UNL     1      -5.223   0.886  16.594  1.00  0.00     0.190 C 
BRANCH  29  30
HETATM   30  O4  UNL     1      -5.642  -0.373  16.932  1.00  0.00    -0.399 OA
ATOM     31  H4  UNL     1      -6.336  -0.439  17.577  1.00  0.00     0.209 HD
ENDBRANCH  29  30
ENDBRANCH  28  29
ENDBRANCH  27  28
ENDBRANCH  10  27
TORSDOF 9
ENDMDL
MODEL 2
REMARK VINA RESULT: -7.197329327      1.126      1.554
REMARK  9 active torsions:
REMARK  status: ('A' for Active; 'I' for Inactive)
REMARK       I    between atoms: C2_2  and  N1_4 
REMARK    1  A    between atoms: C3_5  and  C4_6 
REMARK    2  A    between atoms: C4_6  and  N3_12 
REMARK    3  A    between atoms: N2_7  and  C5_9 
REMARK    4  A    between atoms: N3_12  and  C8_14 
REMARK    5  A    between atoms: C8_14  and  C11_17 
REMARK    6  A    between atoms: C15_25  and  O3_26 
REMARK    7  A    between atoms: O3_26  and  C16_27 
REMARK    8  A    between atoms: C16_27  and  C17_28 
REMARK    9  A    between atoms: C17_28  and  O4_29 
ROOT
HETATM    1  C1  UNL     1      -1.211   3.826  11.100  1.00  0.00     0.117 C 
HETATM    2  C2  UNL     1      -2.197   3.337  12.096  1.00  0.00     0.218 C 
HETATM    3  O1  UNL     1      -1.716   3.188  13.269  1.00  0.00    -0.274 OA
HETATM    4  N1  UNL     1      -3.545   3.058  11.788  1.00  0.00    -0.309 N 
HETATM    5  C3  UNL     1      -4.095   3.288  10.438  1.00  0.00     0.295 C 
HETATM    6  O2  UNL     1      -5.266   2.508  10.367  1.00  0.00    -0.352 OA
HETATM    7  C12 UNL     1      -5.351   1.730  11.474  1.00  0.00     0.150 C 
HETATM    8  C13 UNL     1      -4.448   0.539  11.292  1.00  0.00     0.037 C 
HETATM    9  C14 UNL     1      -3.586   0.421  12.534  1.00  0.00     0.036 C 
HETATM   10  C15 UNL     1      -4.263   1.372  13.488  1.00  0.00     0.147 C 
HETATM   11  C18 UNL     1      -4.616   2.527  12.566  1.00  0.00     0.148 C 
ENDROOT
BRANCH   5  12
HETATM   12  C4  UNL     1      -4.562   4.666  10.235  1.00  0.00     0.124 C 
HETATM   13  N2  UNL     1      -3.954   5.503   9.518  1.00  0.00    -0.372 N 
ATOM     14  H2  UNL     1      -4.407   6.416   9.480  1.00  0.00     0.161 HD
BRANCH  13  15
HETATM   15  C5  UNL     1      -2.770   5.428   8.755  1.00  0.00     0.074 C 
HETATM   16  C6  UNL     1      -1.903   6.676   8.969  1.00  0.00     0.031 C 
HETATM   17  C7  UNL     1      -3.063   5.409   7.248  1.00  0.00     0.031 C 
ENDBRANCH  13  15
BRANCH  12  18
HETATM   18  N3  UNL     1      -5.784   5.060  10.836  1.00  0.00    -0.359 N 
ATOM     19  H3  UNL     1      -6.647   4.692  10.436  1.00  0.00     0.162 HD
BRANCH  18  20
HETATM   20  C8  UNL     1      -5.900   5.936  11.965  1.00  0.00     0.122 C 
HETATM   21  C9  UNL     1      -6.459   7.273  11.457  1.00  0.00     0.047 C 
HETATM   22  C10 UNL     1      -4.511   6.268  12.493  1.00  0.00     0.047 C 
BRANCH  20  23
HETATM   23  C11 UNL     1      -6.766   5.431  13.083  1.00  0.00     0.411 C 
HETATM   24  F1  UNL     1      -7.291   4.193  12.839  1.00  0.00    -0.168 F 
HETATM   25  F2  UNL     1      -6.125   5.548  14.299  1.00  0.00    -0.168 F 
HETATM   26  F3  UNL     1      -7.870   6.304  13.111  1.00  0.00    -0.168 F 
ENDBRANCH  20  23
ENDBRANCH  18  20
ENDBRANCH  12  18
ENDBRANCH   5  12
BRANCH  10  27
HETATM   27  O3  UNL     1      -3.625   1.678  14.617  1.00  0.00    -0.382 OA
BRANCH  27  28
HETATM   28  C16 UNL     1      -3.854   0.947  15.739  1.00  0.00     0.194 C 
BRANCH  28  29
HETATM   29  C17 UNL     1      -5.250   0.889  16.263  1.00  0.00     0.190 C 
BRANCH  29  30
HETATM   30  O4  UNL     1      -5.619  -0.249  16.930  1.00  0.00    -0.399 OA
ATOM     31  H4  UNL     1      -4.921  -0.821  17.227  1.00  0.00     0.209 HD
ENDBRANCH  29  30
ENDBRANCH  28  29
ENDBRANCH  27  28
ENDBRANCH  10  27
TORSDOF 9
ENDMDL
MODEL 3
REMARK VINA RESULT: -7.115294461      1.241      1.470
REMARK  9 active torsions:
REMARK  status: ('A' for Active; 'I' for Inactive)
REMARK       I    between atoms: C2_2  and  N1_4 
REMARK    1  A    between atoms: C3_5  and  C4_6 
REMARK    2  A    between atoms: C4_6  and  N3_12 
REMARK    3  A    between atoms: N2_7  and  C5_9 
REMARK    4  A    between atoms: N3_12  and  C8_14 
REMARK    5  A    between atoms: C8_14  and  C11_17 
REMARK    6  A    between atoms: C15_25  and  O3_26 
REMARK    7  A    between atoms: O3_26  and  C16_27 
REMARK    8  A    between atoms: C16_27  and  C17_28 
REMARK    9  A    between atoms: C17_28  and  O4_29 
ROOT
HETATM    1  C1  UNL     1      -1.080   3.821  10.233  1.00  0.00     0.117 C 
HETATM    2  C2  UNL     1      -1.935   3.575  11.420  1.00  0.00     0.218 C 
HETATM    3  O1  UNL     1      -1.282   3.308  12.483  1.00  0.00    -0.274 OA
HETATM    4  N1  UNL     1      -3.346   3.626  11.389  1.00  0.00    -0.309 N 
HETATM    5  C3  UNL     1      -4.081   3.988  10.163  1.00  0.00     0.295 C 
HETATM    6  O2  UNL     1      -5.392   3.511  10.351  1.00  0.00    -0.352 OA
HETATM    7  C12 UNL     1      -5.438   2.769  11.485  1.00  0.00     0.150 C 
HETATM    8  C13 UNL     1      -4.894   1.398  11.180  1.00  0.00     0.037 C 
HETATM    9  C14 UNL     1      -3.856   1.071  12.237  1.00  0.00     0.036 C 
HETATM   10  C15 UNL     1      -4.089   2.149  13.264  1.00  0.00     0.147 C 
HETATM   11  C18 UNL     1      -4.336   3.360  12.381  1.00  0.00     0.148 C 
ENDROOT
BRANCH   5  12
HETATM   12  C4  UNL     1      -4.243   5.440   9.997  1.00  0.00     0.124 C 
HETATM   13  N2  UNL     1      -3.775   6.080   9.019  1.00  0.00    -0.372 N 
ATOM     14  H2  UNL     1      -3.972   7.080   9.052  1.00  0.00     0.161 HD
BRANCH  13  15
HETATM   15  C5  UNL     1      -3.032   5.688   7.886  1.00  0.00     0.074 C 
HETATM   16  C6  UNL     1      -1.833   6.621   7.670  1.00  0.00     0.031 C 
HETATM   17  C7  UNL     1      -3.857   5.804   6.596  1.00  0.00     0.031 C 
ENDBRANCH  13  15
BRANCH  12  18
HETATM   18  N3  UNL     1      -5.005   6.148  10.961  1.00  0.00    -0.359 N 
ATOM     19  H3  UNL     1      -4.765   6.013  11.942  1.00  0.00     0.162 HD
BRANCH  18  20
HETATM   20  C8  UNL     1      -6.086   7.040  10.659  1.00  0.00     0.122 C 
HETATM   21  C9  UNL     1      -7.136   6.886  11.770  1.00  0.00     0.047 C 
HETATM   22  C10 UNL     1      -6.788   6.575   9.391  1.00  0.00     0.047 C 
BRANCH  20  23
HETATM   23  C11 UNL     1      -5.708   8.487  10.534  1.00  0.00     0.411 C 
HETATM   24  F1  UNL     1      -6.642   9.335  11.058  1.00  0.00    -0.168 F 
HETATM   25  F2  UNL     1      -4.423   8.705  10.987  1.00  0.00    -0.168 F 
HETATM   26  F3  UNL     1      -5.707   8.745   9.149  1.00  0.00    -0.168 F 
ENDBRANCH  20  23
ENDBRANCH  18  20
ENDBRANCH  12  18
ENDBRANCH   5  12
BRANCH  10  27
HETATM   27  O3  UNL     1      -3.187   2.287  14.235  1.00  0.00    -0.382 OA
BRANCH  27  28
HETATM   28  C16 UNL     1      -3.576   2.740  15.455  1.00  0.00     0.194 C 
BRANCH  28  29
HETATM   29  C17 UNL     1      -4.125   1.748  16.427  1.00  0.00     0.190 C 
BRANCH  29  30
HETATM   30  O4  UNL     1      -3.548   0.506  16.443  1.00  0.00    -0.399 OA
ATOM     31  H4  UNL     1      -4.132  -0.242  16.405  1.00  0.00     0.209 HD
ENDBRANCH  29  30
ENDBRANCH  28  29
ENDBRANCH  27  28
ENDBRANCH  10  27
TORSDOF 9
ENDMDL
MODEL 4
REMARK VINA RESULT: -6.839415356      1.193      1.615
REMARK  9 active torsions:
REMARK  status: ('A' for Active; 'I' for Inactive)
REMARK       I    between atoms: C2_2  and  N1_4 
REMARK    1  A    between atoms: C3_5  and  C4_6 
REMARK    2  A    between atoms: C4_6  and  N3_12 
REMARK    3  A    between atoms: N2_7  and  C5_9 
REMARK    4  A    between atoms: N3_12  and  C8_14 
REMARK    5  A    between atoms: C8_14  and  C11_17 
REMARK    6  A    between atoms: C15_25  and  O3_26 
REMARK    7  A    between atoms: O3_26  and  C16_27 
REMARK    8  A    between atoms: C16_27  and  C17_28 
REMARK    9  A    between atoms: C17_28  and  O4_29 
ROOT
HETATM    1  C1  UNL     1      -1.075   3.931  10.999  1.00  0.00     0.117 C 
HETATM    2  C2  UNL     1      -2.165   3.735  11.987  1.00  0.00     0.218 C 
HETATM    3  O1  UNL     1      -1.755   3.572  13.184  1.00  0.00    -0.274 OA
HETATM    4  N1  UNL     1      -3.535   3.726  11.646  1.00  0.00    -0.309 N 
HETATM    5  C3  UNL     1      -3.990   3.969  10.264  1.00  0.00     0.295 C 
HETATM    6  O2  UNL     1      -5.299   3.452  10.199  1.00  0.00    -0.352 OA
HETATM    7  C12 UNL     1      -5.575   2.791  11.351  1.00  0.00     0.150 C 
HETATM    8  C13 UNL     1      -4.943   1.426  11.281  1.00  0.00     0.037 C 
HETATM    9  C14 UNL     1      -4.156   1.218  12.560  1.00  0.00     0.036 C 
HETATM   10  C15 UNL     1      -4.636   2.357  13.423  1.00  0.00     0.147 C 
HETATM   11  C18 UNL     1      -4.712   3.491  12.415  1.00  0.00     0.148 C 
ENDROOT
BRANCH   5  12
HETATM   12  C4  UNL     1      -4.148   5.397   9.953  1.00  0.00     0.124 C 
HETATM   13  N2  UNL     1      -3.512   5.978   9.035  1.00  0.00    -0.372 N 
ATOM     14  H2  UNL     1      -3.733   6.970   8.948  1.00  0.00     0.161 HD
BRANCH  13  15
HETATM   15  C5  UNL     1      -2.555   5.529   8.101  1.00  0.00     0.074 C 
HETATM   16  C6  UNL     1      -1.327   6.449   8.093  1.00  0.00     0.031 C 
HETATM   17  C7  UNL     1      -3.093   5.581   6.664  1.00  0.00     0.031 C 
ENDBRANCH  13  15
BRANCH  12  18
HETATM   18  N3  UNL     1      -5.097   6.148  10.692  1.00  0.00    -0.359 N 
ATOM     19  H3  UNL     1      -5.137   5.995  11.699  1.00  0.00     0.162 HD
BRANCH  18  20
HETATM   20  C8  UNL     1      -6.004   7.105  10.130  1.00  0.00     0.122 C 
HETATM   21  C9  UNL     1      -6.579   6.497   8.842  1.00  0.00     0.047 C 
HETATM   22  C10 UNL     1      -5.228   8.331   9.672  1.00  0.00     0.047 C 
BRANCH  20  23
HETATM   23  C11 UNL     1      -7.135   7.520  11.028  1.00  0.00     0.411 C 
HETATM   24  F1  UNL     1      -8.332   7.613  10.377  1.00  0.00    -0.168 F 
HETATM   25  F2  UNL     1      -7.167   6.751  12.172  1.00  0.00    -0.168 F 
HETATM   26  F3  UNL     1      -6.823   8.835  11.422  1.00  0.00    -0.168 F 
ENDBRANCH  20  23
ENDBRANCH  18  20
ENDBRANCH  12  18
ENDBRANCH   5  12
BRANCH  10  27
HETATM   27  O3  UNL     1      -3.974   2.601  14.554  1.00  0.00    -0.382 OA
BRANCH  27  28
HETATM   28  C16 UNL     1      -4.640   2.597  15.738  1.00  0.00     0.194 C 
BRANCH  28  29
HETATM   29  C17 UNL     1      -4.582   1.358  16.569  1.00  0.00     0.190 C 
BRANCH  29  30
HETATM   30  O4  UNL     1      -3.493   0.546  16.402  1.00  0.00    -0.399 OA
ATOM     31  H4  UNL     1      -3.385   0.136  15.552  1.00  0.00     0.209 HD
ENDBRANCH  29  30
ENDBRANCH  28  29
ENDBRANCH  27  28
ENDBRANCH  10  27
TORSDOF 9
ENDMDL
MODEL 5
REMARK VINA RESULT: -6.833339565      1.554      1.953
REMARK  9 active torsions:
REMARK  status: ('A' for Active; 'I' for Inactive)
REMARK       I    between atoms: C2_2  and  N1_4 
REMARK    1  A    between atoms: C3_5  and  C4_6 
REMARK    2  A    between atoms: C4_6  and  N3_12 
REMARK    3  A    between atoms: N2_7  and  C5_9 
REMARK    4  A    between atoms: N3_12  and  C8_14 
REMARK    5  A    between atoms: C8_14  and  C11_17 
REMARK    6  A    between atoms: C15_25  and  O3_26 
REMARK    7  A    between atoms: O3_26  and  C16_27 
REMARK    8  A    between atoms: C16_27  and  C17_28 
REMARK    9  A    between atoms: C17_28  and  O4_29 
ROOT
HETATM    1  C1  UNL     1      -1.439   4.474  13.551  1.00  0.00     0.117 C 
HETATM    2  C2  UNL     1      -2.750   3.920  13.971  1.00  0.00     0.218 C 
HETATM    3  O1  UNL     1      -3.012   4.092  15.208  1.00  0.00    -0.274 OA
HETATM    4  N1  UNL     1      -3.636   3.261  13.093  1.00  0.00    -0.309 N 
HETATM    5  C3  UNL     1      -3.339   3.119  11.655  1.00  0.00     0.295 C 
HETATM    6  O2  UNL     1      -4.157   2.066  11.200  1.00  0.00    -0.352 OA
HETATM    7  C12 UNL     1      -4.766   1.484  12.262  1.00  0.00     0.150 C 
HETATM    8  C13 UNL     1      -3.787   0.549  12.921  1.00  0.00     0.037 C 
HETATM    9  C14 UNL     1      -3.783   0.859  14.405  1.00  0.00     0.036 C 
HETATM   10  C15 UNL     1      -4.991   1.750  14.553  1.00  0.00     0.147 C 
HETATM   11  C18 UNL     1      -4.887   2.609  13.305  1.00  0.00     0.148 C 
ENDROOT
BRANCH   5  12
HETATM   12  C4  UNL     1      -3.766   4.280  10.863  1.00  0.00     0.124 C 
HETATM   13  N2  UNL     1      -2.987   4.933  10.120  1.00  0.00    -0.372 N 
ATOM     14  H2  UNL     1      -3.438   5.712   9.639  1.00  0.00     0.161 HD
BRANCH  13  15
HETATM   15  C5  UNL     1      -1.615   4.802   9.821  1.00  0.00     0.074 C 
HETATM   16  C6  UNL     1      -0.824   6.007  10.346  1.00  0.00     0.031 C 
HETATM   17  C7  UNL     1      -1.361   4.797   8.306  1.00  0.00     0.031 C 
ENDBRANCH  13  15
BRANCH  12  18
HETATM   18  N3  UNL     1      -5.133   4.656  10.898  1.00  0.00    -0.359 N 
ATOM     19  H3  UNL     1      -5.798   4.061  10.404  1.00  0.00     0.162 HD
BRANCH  18  20
HETATM   20  C8  UNL     1      -5.651   5.808  11.576  1.00  0.00     0.122 C 
HETATM   21  C9  UNL     1      -6.429   6.640  10.545  1.00  0.00     0.047 C 
HETATM   22  C10 UNL     1      -4.499   6.701  12.011  1.00  0.00     0.047 C 
BRANCH  20  23
HETATM   23  C11 UNL     1      -6.543   5.515  12.748  1.00  0.00     0.411 C 
HETATM   24  F1  UNL     1      -7.185   4.313  12.648  1.00  0.00    -0.168 F 
HETATM   25  F2  UNL     1      -5.875   5.707  13.939  1.00  0.00    -0.168 F 
HETATM   26  F3  UNL     1      -7.561   6.486  12.683  1.00  0.00    -0.168 F 
ENDBRANCH  20  23
ENDBRANCH  18  20
ENDBRANCH  12  18
ENDBRANCH   5  12
BRANCH  10  27
HETATM   27  O3  UNL     1      -5.153   2.388  15.711  1.00  0.00    -0.382 OA
BRANCH  27  28
HETATM   28  C16 UNL     1      -4.971   1.720  16.880  1.00  0.00     0.194 C 
BRANCH  28  29
HETATM   29  C17 UNL     1      -6.048   0.789  17.329  1.00  0.00     0.190 C 
BRANCH  29  30
HETATM   30  O4  UNL     1      -5.751  -0.547  17.344  1.00  0.00    -0.399 OA
ATOM     31  H4  UNL     1      -6.481  -1.152  17.390  1.00  0.00     0.209 HD
ENDBRANCH  29  30
ENDBRANCH  28  29
ENDBRANCH  27  28
ENDBRANCH  10  27
TORSDOF 9
ENDMDL
