MODEL 1
REMARK VINA RESULT: -7.975306202      0.000      0.000
REMARK  8 active torsions:
REMARK  status: ('A' for Active; 'I' for Inactive)
REMARK    1  A    between atoms: O1_2  and  C2_3 
REMARK    2  A    between atoms: C2_3  and  C3_5 
REMARK    3  A    between atoms: C3_5  and  N1_6 
REMARK    4  A    between atoms: C3_5  and  C11_16 
REMARK       I    between atoms: N1_6  and  C4_8 
REMARK    5  A    between atoms: C4_8  and  C5_10 
REMARK       I    between atoms: C11_16  and  N2_18 
REMARK    6  A    between atoms: N2_18  and  C12_20 
REMARK    7  A    between atoms: C12_20  and  C13_21 
REMARK    8  A    between atoms: C16_24  and  C17_25 
ROOT
HETATM    1  C3  UNL     1      -5.017   2.314  11.954  1.00  0.00     0.277 C 
ENDROOT
BRANCH   1   2
HETATM    2  C2  UNL     1      -4.664   0.972  11.442  1.00  0.00     0.290 C 
HETATM    3  O2  UNL     1      -4.473   0.814  10.213  1.00  0.00    -0.262 OA
BRANCH   2   4
HETATM    4  O1  UNL     1      -4.536  -0.121  12.275  1.00  0.00    -0.324 OA
HETATM    5  C1  UNL     1      -4.122  -1.365  11.758  1.00  0.00     0.213 C 
ENDBRANCH   2   4
ENDBRANCH   1   2
BRANCH   1   6
HETATM    6  N1  UNL     1      -4.834   2.378  13.404  1.00  0.00    -0.339 N 
HETATM    7  C4  UNL     1      -5.680   3.111  14.247  1.00  0.00     0.222 C 
HETATM    8  O3  UNL     1      -6.672   3.775  13.787  1.00  0.00    -0.273 OA
ATOM      9  H1  UNL     1      -4.056   1.865  13.819  1.00  0.00     0.163 HD
BRANCH   7  10
HETATM   10  C5  UNL     1      -5.433   3.128  15.708  1.00  0.00     0.078 C 
HETATM   11  C6  UNL     1      -4.392   2.123  16.124  1.00  0.00     0.014 C 
HETATM   12  C7  UNL     1      -4.973   0.768  16.445  1.00  0.00     0.001 C 
HETATM   13  C8  UNL     1      -6.131   0.860  17.411  1.00  0.00     0.000 C 
HETATM   14  C9  UNL     1      -6.433   2.300  17.775  1.00  0.00     0.001 C 
HETATM   15  C10 UNL     1      -6.717   3.021  16.461  1.00  0.00     0.014 C 
ENDBRANCH   7  10
ENDBRANCH   1   6
BRANCH   1  16
HETATM   16  C11 UNL     1      -4.214   3.397  11.341  1.00  0.00     0.250 C 
HETATM   17  O4  UNL     1      -4.787   4.348  10.751  1.00  0.00    -0.271 OA
HETATM   18  N2  UNL     1      -2.806   3.368  11.415  1.00  0.00    -0.356 N 
ATOM     19  H2  UNL     1      -2.326   2.603  11.890  1.00  0.00     0.162 HD
BRANCH  18  20
HETATM   20  C12 UNL     1      -2.055   4.446  10.804  1.00  0.00     0.154 C 
BRANCH  20  21
HETATM   21  C13 UNL     1      -1.556   5.420  11.873  1.00  0.00     0.139 C 
HETATM   22  C14 UNL     1      -1.675   4.728  13.198  1.00  0.00     0.034 C 
HETATM   23  C15 UNL     1      -1.740   5.669  14.366  1.00  0.00     0.018 C 
HETATM   24  C16 UNL     1      -2.591   6.875  14.130  1.00  0.00     0.117 C 
HETATM   25  C18 UNL     1      -3.202   6.782  12.749  1.00  0.00     0.181 C 
HETATM   26  O5  UNL     1      -2.192   6.628  11.806  1.00  0.00    -0.384 OA
BRANCH  24  27
HETATM   27  C17 UNL     1      -1.718   8.105  14.272  1.00  0.00     0.393 C 
HETATM   28  F1  UNL     1      -2.149   9.122  13.458  1.00  0.00    -0.171 F 
HETATM   29  F2  UNL     1      -0.406   7.766  14.007  1.00  0.00    -0.171 F 
HETATM   30  F3  UNL     1      -1.775   8.493  15.599  1.00  0.00    -0.171 F 
ENDBRANCH  24  27
ENDBRANCH  20  21
ENDBRANCH  18  20
ENDBRANCH   1  16
TORSDOF 8
ENDMDL
MODEL 2
REMARK VINA RESULT: -7.950262366      3.753      6.318
REMARK  8 active torsions:
REMARK  status: ('A' for Active; 'I' for Inactive)
REMARK    1  A    between atoms: O1_2  and  C2_3 
REMARK    2  A    between atoms: C2_3  and  C3_5 
REMARK    3  A    between atoms: C3_5  and  N1_6 
REMARK    4  A    between atoms: C3_5  and  C11_16 
REMARK       I    between atoms: N1_6  and  C4_8 
REMARK    5  A    between atoms: C4_8  and  C5_10 
REMARK       I    between atoms: C11_16  and  N2_18 
REMARK    6  A    between atoms: N2_18  and  C12_20 
REMARK    7  A    between atoms: C12_20  and  C13_21 
REMARK    8  A    between atoms: C16_24  and  C17_25 
ROOT
HETATM    1  C3  UNL     1      -4.115   3.755  10.778  1.00  0.00     0.277 C 
ENDROOT
BRANCH   1   2
HETATM    2  C2  UNL     1      -4.949   2.538  10.869  1.00  0.00     0.290 C 
HETATM    3  O2  UNL     1      -6.095   2.615  11.373  1.00  0.00    -0.262 OA
BRANCH   2   4
HETATM    4  O1  UNL     1      -4.511   1.311  10.413  1.00  0.00    -0.324 OA
HETATM    5  C1  UNL     1      -4.544   0.185  11.260  1.00  0.00     0.213 C 
ENDBRANCH   2   4
ENDBRANCH   1   2
BRANCH   1   6
HETATM    6  N1  UNL     1      -4.912   4.895  10.325  1.00  0.00    -0.339 N 
HETATM    7  C4  UNL     1      -4.754   5.481   9.061  1.00  0.00     0.222 C 
HETATM    8  O3  UNL     1      -3.890   5.045   8.224  1.00  0.00    -0.273 OA
ATOM      9  H1  UNL     1      -5.615   5.280  10.956  1.00  0.00     0.163 HD
BRANCH   7  10
HETATM   10  C5  UNL     1      -5.600   6.633   8.670  1.00  0.00     0.078 C 
HETATM   11  C6  UNL     1      -5.159   7.915   9.324  1.00  0.00     0.014 C 
HETATM   12  C7  UNL     1      -5.815   8.151  10.662  1.00  0.00     0.001 C 
HETATM   13  C8  UNL     1      -7.317   8.003  10.593  1.00  0.00     0.000 C 
HETATM   14  C9  UNL     1      -7.771   7.615   9.200  1.00  0.00     0.001 C 
HETATM   15  C10 UNL     1      -7.045   6.316   8.863  1.00  0.00     0.014 C 
ENDBRANCH   7  10
ENDBRANCH   1   6
BRANCH   1  16
HETATM   16  C11 UNL     1      -3.482   4.121  12.067  1.00  0.00     0.250 C 
HETATM   17  O4  UNL     1      -3.098   5.301  12.267  1.00  0.00    -0.271 OA
HETATM   18  N2  UNL     1      -3.306   3.149  13.073  1.00  0.00    -0.356 N 
ATOM     19  H2  UNL     1      -3.611   2.187  12.927  1.00  0.00     0.162 HD
BRANCH  18  20
HETATM   20  C12 UNL     1      -2.683   3.546  14.321  1.00  0.00     0.154 C 
BRANCH  20  21
HETATM   21  C13 UNL     1      -3.519   3.068  15.509  1.00  0.00     0.139 C 
HETATM   22  C14 UNL     1      -3.511   1.568  15.487  1.00  0.00     0.034 C 
HETATM   23  C15 UNL     1      -4.665   0.947  16.219  1.00  0.00     0.018 C 
HETATM   24  C16 UNL     1      -5.970   1.640  15.997  1.00  0.00     0.117 C 
HETATM   25  C18 UNL     1      -5.760   2.784  15.030  1.00  0.00     0.181 C 
HETATM   26  O5  UNL     1      -4.767   3.626  15.518  1.00  0.00    -0.384 OA
BRANCH  24  27
HETATM   27  C17 UNL     1      -6.480   2.129  17.337  1.00  0.00     0.393 C 
HETATM   28  F1  UNL     1      -6.958   3.413  17.254  1.00  0.00    -0.171 F 
HETATM   29  F2  UNL     1      -5.471   2.024  18.275  1.00  0.00    -0.171 F 
HETATM   30  F3  UNL     1      -7.488   1.265  17.729  1.00  0.00    -0.171 F 
ENDBRANCH  24  27
ENDBRANCH  20  21
ENDBRANCH  18  20
ENDBRANCH   1  16
TORSDOF 8
ENDMDL
MODEL 3
REMARK VINA RESULT: -7.899179634      3.405      6.429
REMARK  8 active torsions:
REMARK  status: ('A' for Active; 'I' for Inactive)
REMARK    1  A    between atoms: O1_2  and  C2_3 
REMARK    2  A    between atoms: C2_3  and  C3_5 
REMARK    3  A    between atoms: C3_5  and  N1_6 
REMARK    4  A    between atoms: C3_5  and  C11_16 
REMARK       I    between atoms: N1_6  and  C4_8 
REMARK    5  A    between atoms: C4_8  and  C5_10 
REMARK       I    between atoms: C11_16  and  N2_18 
REMARK    6  A    between atoms: N2_18  and  C12_20 
REMARK    7  A    between atoms: C12_20  and  C13_21 
REMARK    8  A    between atoms: C16_24  and  C17_25 
ROOT
HETATM    1  C3  UNL     1      -1.641   4.001  11.090  1.00  0.00     0.277 C 
ENDROOT
BRANCH   1   2
HETATM    2  C2  UNL     1      -1.332   4.222   9.661  1.00  0.00     0.290 C 
HETATM    3  O2  UNL     1      -1.742   5.265   9.098  1.00  0.00    -0.262 OA
BRANCH   2   4
HETATM    4  O1  UNL     1      -0.601   3.316   8.919  1.00  0.00    -0.324 OA
HETATM    5  C1  UNL     1       0.081   3.733   7.759  1.00  0.00     0.213 C 
ENDBRANCH   2   4
ENDBRANCH   1   2
BRANCH   1   6
HETATM    6  N1  UNL     1      -2.154   5.227  11.702  1.00  0.00    -0.339 N 
HETATM    7  C4  UNL     1      -1.916   5.568  13.041  1.00  0.00     0.222 C 
HETATM    8  O3  UNL     1      -1.228   4.814  13.812  1.00  0.00    -0.273 OA
ATOM      9  H1  UNL     1      -2.709   5.862  11.128  1.00  0.00     0.163 HD
BRANCH   7  10
HETATM   10  C5  UNL     1      -2.467   6.829  13.592  1.00  0.00     0.078 C 
HETATM   11  C6  UNL     1      -2.099   8.026  12.757  1.00  0.00     0.014 C 
HETATM   12  C7  UNL     1      -0.792   8.657  13.171  1.00  0.00     0.001 C 
HETATM   13  C8  UNL     1      -0.737   8.926  14.657  1.00  0.00     0.000 C 
HETATM   14  C9  UNL     1      -1.999   8.454  15.352  1.00  0.00     0.001 C 
HETATM   15  C10 UNL     1      -2.126   6.967  15.037  1.00  0.00     0.014 C 
ENDBRANCH   7  10
ENDBRANCH   1   6
BRANCH   1  16
HETATM   16  C11 UNL     1      -2.638   2.927  11.308  1.00  0.00     0.250 C 
HETATM   17  O4  UNL     1      -3.492   2.672  10.421  1.00  0.00    -0.271 OA
HETATM   18  N2  UNL     1      -2.634   2.187  12.509  1.00  0.00    -0.356 N 
ATOM     19  H2  UNL     1      -1.949   2.382  13.238  1.00  0.00     0.162 HD
BRANCH  18  20
HETATM   20  C12 UNL     1      -3.624   1.144  12.685  1.00  0.00     0.154 C 
BRANCH  20  21
HETATM   21  C13 UNL     1      -4.594   1.515  13.808  1.00  0.00     0.139 C 
HETATM   22  C14 UNL     1      -4.104   2.793  14.418  1.00  0.00     0.034 C 
HETATM   23  C15 UNL     1      -4.592   3.020  15.819  1.00  0.00     0.018 C 
HETATM   24  C16 UNL     1      -4.586   1.793  16.673  1.00  0.00     0.117 C 
HETATM   25  C18 UNL     1      -4.028   0.639  15.868  1.00  0.00     0.181 C 
HETATM   26  O5  UNL     1      -4.766   0.492  14.699  1.00  0.00    -0.384 OA
BRANCH  24  27
HETATM   27  C17 UNL     1      -6.007   1.524  17.124  1.00  0.00     0.393 C 
HETATM   28  F1  UNL     1      -6.232   0.180  17.296  1.00  0.00    -0.171 F 
HETATM   29  F2  UNL     1      -6.887   2.071  16.211  1.00  0.00    -0.171 F 
HETATM   30  F3  UNL     1      -6.190   2.199  18.318  1.00  0.00    -0.171 F 
ENDBRANCH  24  27
ENDBRANCH  20  21
ENDBRANCH  18  20
ENDBRANCH   1  16
TORSDOF 8
ENDMDL
MODEL 4
REMARK VINA RESULT: -7.891580676      1.177      1.624
REMARK  8 active torsions:
REMARK  status: ('A' for Active; 'I' for Inactive)
REMARK    1  A    between atoms: O1_2  and  C2_3 
REMARK    2  A    between atoms: C2_3  and  C3_5 
REMARK    3  A    between atoms: C3_5  and  N1_6 
REMARK    4  A    between atoms: C3_5  and  C11_16 
REMARK       I    between atoms: N1_6  and  C4_8 
REMARK    5  A    between atoms: C4_8  and  C5_10 
REMARK       I    between atoms: C11_16  and  N2_18 
REMARK    6  A    between atoms: N2_18  and  C12_20 
REMARK    7  A    between atoms: C12_20  and  C13_21 
REMARK    8  A    between atoms: C16_24  and  C17_25 
ROOT
HETATM    1  C3  UNL     1      -5.447   2.905  11.944  1.00  0.00     0.277 C 
ENDROOT
BRANCH   1   2
HETATM    2  C2  UNL     1      -4.857   1.759  11.220  1.00  0.00     0.290 C 
HETATM    3  O2  UNL     1      -4.125   1.973  10.224  1.00  0.00    -0.262 OA
BRANCH   2   4
HETATM    4  O1  UNL     1      -5.084   0.453  11.602  1.00  0.00    -0.324 OA
HETATM    5  C1  UNL     1      -4.058  -0.299  12.208  1.00  0.00     0.213 C 
ENDBRANCH   2   4
ENDBRANCH   1   2
BRANCH   1   6
HETATM    6  N1  UNL     1      -5.098   2.853  13.364  1.00  0.00    -0.339 N 
HETATM    7  C4  UNL     1      -5.937   3.342  14.374  1.00  0.00     0.222 C 
HETATM    8  O3  UNL     1      -7.072   3.870  14.105  1.00  0.00    -0.273 OA
ATOM      9  H1  UNL     1      -4.203   2.441  13.630  1.00  0.00     0.163 HD
BRANCH   7  10
HETATM   10  C5  UNL     1      -5.517   3.253  15.792  1.00  0.00     0.078 C 
HETATM   11  C6  UNL     1      -4.421   2.242  16.001  1.00  0.00     0.014 C 
HETATM   12  C7  UNL     1      -4.943   0.855  16.283  1.00  0.00     0.001 C 
HETATM   13  C8  UNL     1      -5.978   0.849  17.384  1.00  0.00     0.000 C 
HETATM   14  C9  UNL     1      -6.251   2.250  17.893  1.00  0.00     0.001 C 
HETATM   15  C10 UNL     1      -6.699   3.063  16.682  1.00  0.00     0.014 C 
ENDBRANCH   7  10
ENDBRANCH   1   6
BRANCH   1  16
HETATM   16  C11 UNL     1      -5.008   4.216  11.411  1.00  0.00     0.250 C 
HETATM   17  O4  UNL     1      -5.817   4.939  10.776  1.00  0.00    -0.271 OA
HETATM   18  N2  UNL     1      -3.684   4.658  11.612  1.00  0.00    -0.356 N 
ATOM     19  H2  UNL     1      -3.016   4.083  12.124  1.00  0.00     0.162 HD
BRANCH  18  20
HETATM   20  C12 UNL     1      -3.293   5.946  11.075  1.00  0.00     0.154 C 
BRANCH  20  21
HETATM   21  C13 UNL     1      -3.152   6.971  12.202  1.00  0.00     0.139 C 
HETATM   22  C14 UNL     1      -2.190   8.022  11.733  1.00  0.00     0.034 C 
HETATM   23  C15 UNL     1      -1.539   8.785  12.848  1.00  0.00     0.018 C 
HETATM   24  C16 UNL     1      -1.132   7.938  14.010  1.00  0.00     0.117 C 
HETATM   25  C18 UNL     1      -1.465   6.494  13.704  1.00  0.00     0.181 C 
HETATM   26  O5  UNL     1      -2.815   6.387  13.391  1.00  0.00    -0.384 OA
BRANCH  24  27
HETATM   27  C17 UNL     1      -1.870   8.432  15.238  1.00  0.00     0.393 C 
HETATM   28  F1  UNL     1      -2.888   7.580  15.588  1.00  0.00    -0.171 F 
HETATM   29  F2  UNL     1      -2.339   9.710  15.004  1.00  0.00    -0.171 F 
HETATM   30  F3  UNL     1      -0.944   8.522  16.261  1.00  0.00    -0.171 F 
ENDBRANCH  24  27
ENDBRANCH  20  21
ENDBRANCH  18  20
ENDBRANCH   1  16
TORSDOF 8
ENDMDL
MODEL 5
REMARK VINA RESULT: -7.818651447      3.888      6.553
REMARK  8 active torsions:
REMARK  status: ('A' for Active; 'I' for Inactive)
REMARK    1  A    between atoms: O1_2  and  C2_3 
REMARK    2  A    between atoms: C2_3  and  C3_5 
REMARK    3  A    between atoms: C3_5  and  N1_6 
REMARK    4  A    between atoms: C3_5  and  C11_16 
REMARK       I    between atoms: N1_6  and  C4_8 
REMARK    5  A    between atoms: C4_8  and  C5_10 
REMARK       I    between atoms: C11_16  and  N2_18 
REMARK    6  A    between atoms: N2_18  and  C12_20 
REMARK    7  A    between atoms: C12_20  and  C13_21 
REMARK    8  A    between atoms: C16_24  and  C17_25 
ROOT
HETATM    1  C3  UNL     1      -3.839   3.230  10.916  1.00  0.00     0.277 C 
ENDROOT
BRANCH   1   2
HETATM    2  C2  UNL     1      -4.878   2.180  10.851  1.00  0.00     0.290 C 
HETATM    3  O2  UNL     1      -6.047   2.449  11.219  1.00  0.00    -0.262 OA
BRANCH   2   4
HETATM    4  O1  UNL     1      -4.607   0.905  10.397  1.00  0.00    -0.324 OA
HETATM    5  C1  UNL     1      -4.454  -0.157  11.310  1.00  0.00     0.213 C 
ENDBRANCH   2   4
ENDBRANCH   1   2
BRANCH   1   6
HETATM    6  N1  UNL     1      -4.424   4.549  10.674  1.00  0.00    -0.339 N 
HETATM    7  C4  UNL     1      -4.356   5.198   9.433  1.00  0.00     0.222 C 
HETATM    8  O3  UNL     1      -3.769   4.663   8.430  1.00  0.00    -0.273 OA
ATOM      9  H1  UNL     1      -4.903   5.018  11.444  1.00  0.00     0.163 HD
BRANCH   7  10
HETATM   10  C5  UNL     1      -4.973   6.534   9.263  1.00  0.00     0.078 C 
HETATM   11  C6  UNL     1      -6.477   6.479   9.310  1.00  0.00     0.014 C 
HETATM   12  C7  UNL     1      -7.102   6.245   7.957  1.00  0.00     0.001 C 
HETATM   13  C8  UNL     1      -6.573   7.200   6.913  1.00  0.00     0.000 C 
HETATM   14  C9  UNL     1      -5.518   8.122   7.491  1.00  0.00     0.001 C 
HETATM   15  C10 UNL     1      -4.426   7.218   8.055  1.00  0.00     0.014 C 
ENDBRANCH   7  10
ENDBRANCH   1   6
BRANCH   1  16
HETATM   16  C11 UNL     1      -3.136   3.270  12.218  1.00  0.00     0.250 C 
HETATM   17  O4  UNL     1      -2.238   2.429  12.475  1.00  0.00    -0.271 OA
HETATM   18  N2  UNL     1      -3.469   4.250  13.176  1.00  0.00    -0.356 N 
ATOM     19  H2  UNL     1      -4.195   4.940  12.984  1.00  0.00     0.162 HD
BRANCH  18  20
HETATM   20  C12 UNL     1      -2.758   4.258  14.439  1.00  0.00     0.154 C 
BRANCH  20  21
HETATM   21  C13 UNL     1      -3.654   3.724  15.558  1.00  0.00     0.139 C 
HETATM   22  C14 UNL     1      -3.237   2.309  15.828  1.00  0.00     0.034 C 
HETATM   23  C15 UNL     1      -4.303   1.481  16.484  1.00  0.00     0.018 C 
HETATM   24  C16 UNL     1      -5.675   1.710  15.939  1.00  0.00     0.117 C 
HETATM   25  C18 UNL     1      -5.593   2.716  14.811  1.00  0.00     0.181 C 
HETATM   26  O5  UNL     1      -4.982   3.877  15.271  1.00  0.00    -0.384 OA
BRANCH  24  27
HETATM   27  C17 UNL     1      -6.555   2.208  17.067  1.00  0.00     0.393 C 
HETATM   28  F1  UNL     1      -7.147   3.406  16.751  1.00  0.00    -0.171 F 
HETATM   29  F2  UNL     1      -5.805   2.304  18.223  1.00  0.00    -0.171 F 
HETATM   30  F3  UNL     1      -7.519   1.240  17.290  1.00  0.00    -0.171 F 
ENDBRANCH  24  27
ENDBRANCH  20  21
ENDBRANCH  18  20
ENDBRANCH   1  16
TORSDOF 8
ENDMDL
