MODEL 1
REMARK VINA RESULT: -5.695634657      0.000      0.000
REMARK  6 active torsions:
REMARK  status: ('A' for Active; 'I' for Inactive)
REMARK    1  A    between atoms: N1_4  and  C4_5 
REMARK    2  A    between atoms: C4_5  and  C5_6 
REMARK    3  A    between atoms: C9_10  and  C10_11 
REMARK    4  A    between atoms: C10_11  and  N2_12 
REMARK    5  A    between atoms: N2_12  and  C11_14 
REMARK    6  A    between atoms: C11_14  and  C12_18 
ROOT
HETATM    1  C1  UNL     1      -4.575  -0.038  10.595  1.00  0.00     0.042 C 
HETATM    2  C2  UNL     1      -3.498   0.563  11.489  1.00  0.00     0.210 C 
HETATM    3  C3  UNL     1      -3.951   0.920  12.822  1.00  0.00     0.305 C 
HETATM    4  N1  UNL     1      -4.067   2.303  13.224  1.00  0.00     0.099 N 
HETATM    5  C9  UNL     1      -3.713   3.233  12.228  1.00  0.00     0.266 C 
HETATM    6  C13 UNL     1      -3.937   2.692  10.797  1.00  0.00     0.270 C 
HETATM    7  N4  UNL     1      -2.912   1.636  10.710  1.00  0.00    -0.068 N 
ATOM      8  H41 UNL     1      -2.642   1.378   9.761  1.00  0.00     0.277 HD
ATOM      9  H42 UNL     1      -1.978   1.919  11.007  1.00  0.00     0.277 HD
ENDROOT
BRANCH   5  10
HETATM   10  C10 UNL     1      -2.189   3.460  12.270  1.00  0.00     0.158 C 
BRANCH  10  11
HETATM   11  N2  UNL     1      -1.857   4.207  13.425  1.00  0.00    -0.373 N 
ATOM     12  H2  UNL     1      -1.995   3.805  14.352  1.00  0.00     0.161 HD
BRANCH  11  13
HETATM   13  C11 UNL     1      -1.324   5.536  13.284  1.00  0.00     0.143 C 
HETATM   14  N3  UNL     1      -0.195   5.705  12.744  1.00  0.00    -0.284 N 
HETATM   15 CL1  UNL     1       0.620   7.172  12.476  1.00  0.00     0.012 Cl
ATOM     16  H3  UNL     1       0.285   4.861  12.432  1.00  0.00     0.182 HD
BRANCH  13  17
HETATM   17  C12 UNL     1      -2.126   6.688  13.766  1.00  0.00     0.247 C 
HETATM   18 CL2  UNL     1      -1.206   7.728  14.851  1.00  0.00    -0.075 Cl
HETATM   19 CL3  UNL     1      -2.659   7.645  12.344  1.00  0.00    -0.075 Cl
HETATM   20 CL4  UNL     1      -3.585   6.073  14.589  1.00  0.00    -0.075 Cl
ENDBRANCH  13  17
ENDBRANCH  11  13
ENDBRANCH  10  11
ENDBRANCH   5  10
BRANCH   4  21
HETATM   21  C4  UNL     1      -5.274   2.458  13.940  1.00  0.00     0.281 C 
BRANCH  21  22
HETATM   22  C5  UNL     1      -5.341   2.505  15.397  1.00  0.00    -0.025 C 
HETATM   23  C6  UNL     1      -5.866   1.376  16.185  1.00  0.00     0.016 C 
HETATM   24  C7  UNL     1      -3.877   2.740  15.881  1.00  0.00     0.016 C 
HETATM   25  C8  UNL     1      -6.062   3.773  15.895  1.00  0.00     0.016 C 
ENDBRANCH  21  22
ENDBRANCH   4  21
TORSDOF 6
ENDMDL
MODEL 2
REMARK VINA RESULT: -5.588914851      1.408      1.870
REMARK  6 active torsions:
REMARK  status: ('A' for Active; 'I' for Inactive)
REMARK    1  A    between atoms: N1_4  and  C4_5 
REMARK    2  A    between atoms: C4_5  and  C5_6 
REMARK    3  A    between atoms: C9_10  and  C10_11 
REMARK    4  A    between atoms: C10_11  and  N2_12 
REMARK    5  A    between atoms: N2_12  and  C11_14 
REMARK    6  A    between atoms: C11_14  and  C12_18 
ROOT
HETATM    1  C1  UNL     1      -4.580   1.092  11.532  1.00  0.00     0.042 C 
HETATM    2  C2  UNL     1      -3.704   1.416  12.735  1.00  0.00     0.210 C 
HETATM    3  C3  UNL     1      -4.390   1.360  14.015  1.00  0.00     0.305 C 
HETATM    4  N1  UNL     1      -4.656   2.561  14.771  1.00  0.00     0.099 N 
HETATM    5  C9  UNL     1      -4.203   3.747  14.163  1.00  0.00     0.266 C 
HETATM    6  C13 UNL     1      -4.156   3.650  12.620  1.00  0.00     0.270 C 
HETATM    7  N4  UNL     1      -3.067   2.678  12.414  1.00  0.00    -0.068 N 
ATOM      8  H41 UNL     1      -2.629   2.714  11.493  1.00  0.00     0.277 HD
ATOM      9  H42 UNL     1      -2.213   2.872  12.938  1.00  0.00     0.277 HD
ENDROOT
BRANCH   5  10
HETATM   10  C10 UNL     1      -2.724   3.970  14.534  1.00  0.00     0.158 C 
BRANCH  10  11
HETATM   11  N2  UNL     1      -2.470   5.358  14.639  1.00  0.00    -0.373 N 
ATOM     12  H2  UNL     1      -2.963   5.918  15.334  1.00  0.00     0.161 HD
BRANCH  11  13
HETATM   13  C11 UNL     1      -1.512   5.975  13.761  1.00  0.00     0.143 C 
HETATM   14  N3  UNL     1      -0.725   5.255  13.085  1.00  0.00    -0.284 N 
HETATM   15 CL1  UNL     1       0.473   5.765  11.994  1.00  0.00     0.012 Cl
ATOM     16  H3  UNL     1      -0.821   4.246  13.208  1.00  0.00     0.182 HD
BRANCH  13  17
HETATM   17  C12 UNL     1      -1.479   7.455  13.658  1.00  0.00     0.247 C 
HETATM   18 CL2  UNL     1       0.165   8.074  13.519  1.00  0.00    -0.075 Cl
HETATM   19 CL3  UNL     1      -2.417   7.946  12.207  1.00  0.00    -0.075 Cl
HETATM   20 CL4  UNL     1      -2.283   8.153  15.090  1.00  0.00    -0.075 Cl
ENDBRANCH  13  17
ENDBRANCH  11  13
ENDBRANCH  10  11
ENDBRANCH   5  10
BRANCH   4  21
HETATM   21  C4  UNL     1      -5.971   2.484  15.279  1.00  0.00     0.281 C 
BRANCH  21  22
HETATM   22  C5  UNL     1      -6.276   2.123  16.660  1.00  0.00    -0.025 C 
HETATM   23  C6  UNL     1      -5.236   1.630  17.580  1.00  0.00     0.016 C 
HETATM   24  C7  UNL     1      -6.874   3.407  17.312  1.00  0.00     0.016 C 
HETATM   25  C8  UNL     1      -7.454   1.130  16.743  1.00  0.00     0.016 C 
ENDBRANCH  21  22
ENDBRANCH   4  21
TORSDOF 6
ENDMDL
MODEL 3
REMARK VINA RESULT: -5.460324841      1.271      1.742
REMARK  6 active torsions:
REMARK  status: ('A' for Active; 'I' for Inactive)
REMARK    1  A    between atoms: N1_4  and  C4_5 
REMARK    2  A    between atoms: C4_5  and  C5_6 
REMARK    3  A    between atoms: C9_10  and  C10_11 
REMARK    4  A    between atoms: C10_11  and  N2_12 
REMARK    5  A    between atoms: N2_12  and  C11_14 
REMARK    6  A    between atoms: C11_14  and  C12_18 
ROOT
HETATM    1  C1  UNL     1      -4.515  -0.161  10.582  1.00  0.00     0.042 C 
HETATM    2  C2  UNL     1      -3.443   0.453  11.472  1.00  0.00     0.210 C 
HETATM    3  C3  UNL     1      -3.932   0.968  12.740  1.00  0.00     0.305 C 
HETATM    4  N1  UNL     1      -3.969   2.388  13.003  1.00  0.00     0.099 N 
HETATM    5  C9  UNL     1      -3.504   3.191  11.944  1.00  0.00     0.266 C 
HETATM    6  C13 UNL     1      -3.697   2.529  10.560  1.00  0.00     0.270 C 
HETATM    7  N4  UNL     1      -2.746   1.404  10.629  1.00  0.00    -0.068 N 
ATOM      8  H41 UNL     1      -2.450   1.038   9.724  1.00  0.00     0.277 HD
ATOM      9  H42 UNL     1      -1.810   1.654  10.947  1.00  0.00     0.277 HD
ENDROOT
BRANCH   5  10
HETATM   10  C10 UNL     1      -1.971   3.321  12.046  1.00  0.00     0.158 C 
BRANCH  10  11
HETATM   11  N2  UNL     1      -1.590   4.648  11.736  1.00  0.00    -0.373 N 
ATOM     12  H2  UNL     1      -0.867   4.823  11.038  1.00  0.00     0.161 HD
BRANCH  11  13
HETATM   13  C11 UNL     1      -2.227   5.747  12.411  1.00  0.00     0.143 C 
HETATM   14  N3  UNL     1      -2.116   5.864  13.664  1.00  0.00    -0.284 N 
HETATM   15 CL1  UNL     1      -2.777   7.073  14.658  1.00  0.00     0.012 Cl
ATOM     16  H3  UNL     1      -1.564   5.146  14.135  1.00  0.00     0.182 HD
BRANCH  13  17
HETATM   17  C12 UNL     1      -2.993   6.735  11.612  1.00  0.00     0.247 C 
HETATM   18 CL2  UNL     1      -2.413   8.380  11.858  1.00  0.00    -0.075 Cl
HETATM   19 CL3  UNL     1      -2.834   6.309   9.875  1.00  0.00    -0.075 Cl
HETATM   20 CL4  UNL     1      -4.720   6.618  12.047  1.00  0.00    -0.075 Cl
ENDBRANCH  13  17
ENDBRANCH  11  13
ENDBRANCH  10  11
ENDBRANCH   5  10
BRANCH   4  21
HETATM   21  C4  UNL     1      -5.195   2.691  13.634  1.00  0.00     0.281 C 
BRANCH  21  22
HETATM   22  C5  UNL     1      -5.284   3.279  14.967  1.00  0.00    -0.025 C 
HETATM   23  C6  UNL     1      -6.101   2.668  16.030  1.00  0.00     0.016 C 
HETATM   24  C7  UNL     1      -3.823   3.334  15.506  1.00  0.00     0.016 C 
HETATM   25  C8  UNL     1      -5.671   4.771  14.907  1.00  0.00     0.016 C 
ENDBRANCH  21  22
ENDBRANCH   4  21
TORSDOF 6
ENDMDL
MODEL 4
REMARK VINA RESULT: -5.443071767      2.462      4.521
REMARK  6 active torsions:
REMARK  status: ('A' for Active; 'I' for Inactive)
REMARK    1  A    between atoms: N1_4  and  C4_5 
REMARK    2  A    between atoms: C4_5  and  C5_6 
REMARK    3  A    between atoms: C9_10  and  C10_11 
REMARK    4  A    between atoms: C10_11  and  N2_12 
REMARK    5  A    between atoms: N2_12  and  C11_14 
REMARK    6  A    between atoms: C11_14  and  C12_18 
ROOT
HETATM    1  C1  UNL     1       1.232   3.265   9.904  1.00  0.00     0.042 C 
HETATM    2  C2  UNL     1       0.170   3.573  10.951  1.00  0.00     0.210 C 
HETATM    3  C3  UNL     1      -0.548   2.410  11.444  1.00  0.00     0.305 C 
HETATM    4  N1  UNL     1      -1.938   2.198  11.115  1.00  0.00     0.099 N 
HETATM    5  C9  UNL     1      -2.503   3.194  10.296  1.00  0.00     0.266 C 
HETATM    6  C13 UNL     1      -1.461   3.885   9.387  1.00  0.00     0.270 C 
HETATM    7  N4  UNL     1      -0.645   4.621  10.370  1.00  0.00    -0.068 N 
ATOM      8  H41 UNL     1      -0.122   5.409   9.988  1.00  0.00     0.277 HD
ATOM      9  H42 UNL     1      -1.178   5.172  11.043  1.00  0.00     0.277 HD
ENDROOT
BRANCH   5  10
HETATM   10  C10 UNL     1      -3.001   4.352  11.183  1.00  0.00     0.158 C 
BRANCH  10  11
HETATM   11  N2  UNL     1      -4.188   3.961  11.846  1.00  0.00    -0.373 N 
ATOM     12  H2  UNL     1      -4.995   3.646  11.308  1.00  0.00     0.161 HD
BRANCH  11  13
HETATM   13  C11 UNL     1      -4.249   4.009  13.283  1.00  0.00     0.143 C 
HETATM   14  N3  UNL     1      -3.803   3.044  13.963  1.00  0.00    -0.284 N 
HETATM   15 CL1  UNL     1      -3.772   2.890  15.655  1.00  0.00     0.012 Cl
ATOM     16  H3  UNL     1      -3.413   2.263  13.433  1.00  0.00     0.182 HD
BRANCH  13  17
HETATM   17  C12 UNL     1      -4.828   5.209  13.938  1.00  0.00     0.247 C 
HETATM   18 CL2  UNL     1      -6.058   4.786  15.127  1.00  0.00    -0.075 Cl
HETATM   19 CL3  UNL     1      -3.504   6.106  14.754  1.00  0.00    -0.075 Cl
HETATM   20 CL4  UNL     1      -5.519   6.275  12.686  1.00  0.00    -0.075 Cl
ENDBRANCH  13  17
ENDBRANCH  11  13
ENDBRANCH  10  11
ENDBRANCH   5  10
BRANCH   4  21
HETATM   21  C4  UNL     1      -2.116   0.835  10.796  1.00  0.00     0.281 C 
BRANCH  21  22
HETATM   22  C5  UNL     1      -3.340   0.096  11.091  1.00  0.00    -0.025 C 
HETATM   23  C6  UNL     1      -4.541   0.219  10.247  1.00  0.00     0.016 C 
HETATM   24  C7  UNL     1      -2.941  -1.411  11.076  1.00  0.00     0.016 C 
HETATM   25  C8  UNL     1      -3.795   0.304  12.550  1.00  0.00     0.016 C 
ENDBRANCH  21  22
ENDBRANCH   4  21
TORSDOF 6
ENDMDL
MODEL 5
REMARK VINA RESULT: -5.402404151      2.561      4.852
REMARK  6 active torsions:
REMARK  status: ('A' for Active; 'I' for Inactive)
REMARK    1  A    between atoms: N1_4  and  C4_5 
REMARK    2  A    between atoms: C4_5  and  C5_6 
REMARK    3  A    between atoms: C9_10  and  C10_11 
REMARK    4  A    between atoms: C10_11  and  N2_12 
REMARK    5  A    between atoms: N2_12  and  C11_14 
REMARK    6  A    between atoms: C11_14  and  C12_18 
ROOT
HETATM    1  C1  UNL     1       0.583   4.153  10.014  1.00  0.00     0.042 C 
HETATM    2  C2  UNL     1       0.214   3.670  11.411  1.00  0.00     0.210 C 
HETATM    3  C3  UNL     1      -0.792   2.622  11.441  1.00  0.00     0.305 C 
HETATM    4  N1  UNL     1      -2.122   2.881  11.943  1.00  0.00     0.099 N 
HETATM    5  C9  UNL     1      -2.334   4.202  12.381  1.00  0.00     0.266 C 
HETATM    6  C13 UNL     1      -1.435   5.227  11.651  1.00  0.00     0.270 C 
HETATM    7  N4  UNL     1      -0.098   4.870  12.160  1.00  0.00    -0.068 N 
ATOM      8  H41 UNL     1       0.599   5.612  12.090  1.00  0.00     0.277 HD
ATOM      9  H42 UNL     1      -0.038   4.771  13.173  1.00  0.00     0.277 HD
ENDROOT
BRANCH   5  10
HETATM   10  C10 UNL     1      -1.872   4.329  13.846  1.00  0.00     0.158 C 
BRANCH  10  11
HETATM   11  N2  UNL     1      -2.990   4.598  14.670  1.00  0.00    -0.373 N 
ATOM     12  H2  UNL     1      -3.184   5.552  14.974  1.00  0.00     0.161 HD
BRANCH  11  13
HETATM   13  C11 UNL     1      -3.851   3.520  15.077  1.00  0.00     0.143 C 
HETATM   14  N3  UNL     1      -3.354   2.480  15.592  1.00  0.00    -0.284 N 
HETATM   15 CL1  UNL     1      -4.175   1.097  16.141  1.00  0.00     0.012 Cl
ATOM     16  H3  UNL     1      -2.338   2.469  15.690  1.00  0.00     0.182 HD
BRANCH  13  17
HETATM   17  C12 UNL     1      -5.317   3.661  14.893  1.00  0.00     0.247 C 
HETATM   18 CL2  UNL     1      -6.215   3.177  16.330  1.00  0.00    -0.075 Cl
HETATM   19 CL3  UNL     1      -5.681   5.380  14.523  1.00  0.00    -0.075 Cl
HETATM   20 CL4  UNL     1      -5.822   2.682  13.490  1.00  0.00    -0.075 Cl
ENDBRANCH  13  17
ENDBRANCH  11  13
ENDBRANCH  10  11
ENDBRANCH   5  10
BRANCH   4  21
HETATM   21  C4  UNL     1      -3.051   2.264  11.079  1.00  0.00     0.281 C 
BRANCH  21  22
HETATM   22  C5  UNL     1      -3.562   0.912  11.286  1.00  0.00    -0.025 C 
HETATM   23  C6  UNL     1      -3.762   0.358  12.636  1.00  0.00     0.016 C 
HETATM   24  C7  UNL     1      -4.952   0.872  10.580  1.00  0.00     0.016 C 
HETATM   25  C8  UNL     1      -2.755  -0.132  10.488  1.00  0.00     0.016 C 
ENDBRANCH  21  22
ENDBRANCH   4  21
TORSDOF 6
ENDMDL
