MODEL 1
REMARK VINA RESULT: -7.250068806      0.000      0.000
REMARK  6 active torsions:
REMARK  status: ('A' for Active; 'I' for Inactive)
REMARK    1  A    between atoms: C5_6  and  C6_7 
REMARK    2  A    between atoms: C6_7  and  N1_8 
REMARK    3  A    between atoms: C6_7  and  C11_20 
REMARK    4  A    between atoms: N1_8  and  C7_10 
REMARK    5  A    between atoms: C7_10  and  N2_12 
REMARK    6  A    between atoms: N2_12  and  C8_14 
ROOT
HETATM    1  C6  UNL     1      -4.268   2.800  13.567  1.00  0.00     0.076 C 
ENDROOT
BRANCH   1   2
HETATM    2  C5  UNL     1      -4.890   2.422  14.842  1.00  0.00    -0.006 A 
HETATM    3  C4  UNL     1      -4.526   1.233  15.494  1.00  0.00     0.014 A 
HETATM    4  C3  UNL     1      -5.094   0.858  16.687  1.00  0.00     0.004 A 
HETATM    5  C2  UNL     1      -6.048   1.663  17.265  1.00  0.00     0.042 A 
HETATM    6  C1  UNL     1      -6.436   2.828  16.670  1.00  0.00     0.117 A 
HETATM    7  F1  UNL     1      -7.369   3.615  17.238  1.00  0.00    -0.206 F 
HETATM    8  C12 UNL     1      -5.841   3.191  15.453  1.00  0.00     0.055 A 
ENDBRANCH   1   2
BRANCH   1   9
HETATM    9  N1  UNL     1      -3.356   1.852  13.077  1.00  0.00    -0.332 N 
ATOM     10  H1  UNL     1      -2.673   1.563  13.778  1.00  0.00     0.168 HD
BRANCH   9  11
HETATM   11  C7  UNL     1      -3.171   1.217  11.852  1.00  0.00     0.178 C 
HETATM   12  S1  UNL     1      -4.363   0.650  10.922  1.00  0.00    -0.040 SA
BRANCH  11  13
HETATM   13  N2  UNL     1      -1.836   0.988  11.340  1.00  0.00    -0.313 N 
ATOM     14  H2  UNL     1      -1.484   0.041  11.198  1.00  0.00     0.170 HD
BRANCH  13  15
HETATM   15  C8  UNL     1      -1.087   2.034  11.063  1.00  0.00     0.150 A 
HETATM   16  N3  UNL     1      -0.354   2.733  11.933  1.00  0.00    -0.346 N 
HETATM   17  C9  UNL     1       0.331   3.745  11.490  1.00  0.00     0.097 A 
ATOM     18  H3  UNL     1      -0.333   2.479  12.920  1.00  0.00     0.167 HD
HETATM   19  C10 UNL     1       0.264   4.040  10.155  1.00  0.00     0.070 A 
HETATM   20  S2  UNL     1      -0.799   2.830   9.583  1.00  0.00    -0.064 SA
ENDBRANCH  13  15
ENDBRANCH  11  13
ENDBRANCH   9  11
ENDBRANCH   1   9
BRANCH   1  21
HETATM   21  C11 UNL     1      -3.926   4.242  13.540  1.00  0.00     0.231 C 
HETATM   22 CL1  UNL     1      -2.490   4.623  14.530  1.00  0.00    -0.077 Cl
HETATM   23 CL2  UNL     1      -3.384   4.593  11.830  1.00  0.00    -0.077 Cl
HETATM   24 CL3  UNL     1      -5.238   5.368  13.827  1.00  0.00    -0.077 Cl
ENDBRANCH   1  21
TORSDOF 6
ENDMDL
MODEL 2
REMARK VINA RESULT: -7.138502196      1.070      1.482
REMARK  6 active torsions:
REMARK  status: ('A' for Active; 'I' for Inactive)
REMARK    1  A    between atoms: C5_6  and  C6_7 
REMARK    2  A    between atoms: C6_7  and  N1_8 
REMARK    3  A    between atoms: C6_7  and  C11_20 
REMARK    4  A    between atoms: N1_8  and  C7_10 
REMARK    5  A    between atoms: C7_10  and  N2_12 
REMARK    6  A    between atoms: N2_12  and  C8_14 
ROOT
HETATM    1  C6  UNL     1      -4.112   3.251  13.888  1.00  0.00     0.076 C 
ENDROOT
BRANCH   1   2
HETATM    2  C5  UNL     1      -4.915   2.929  15.074  1.00  0.00    -0.006 A 
HETATM    3  C4  UNL     1      -6.048   3.690  15.402  1.00  0.00     0.014 A 
HETATM    4  C3  UNL     1      -6.815   3.408  16.506  1.00  0.00     0.004 A 
HETATM    5  C2  UNL     1      -6.470   2.353  17.319  1.00  0.00     0.042 A 
HETATM    6  C1  UNL     1      -5.377   1.585  17.042  1.00  0.00     0.117 A 
HETATM    7  F1  UNL     1      -5.041   0.553  17.839  1.00  0.00    -0.206 F 
HETATM    8  C12 UNL     1      -4.609   1.891  15.909  1.00  0.00     0.055 A 
ENDBRANCH   1   2
BRANCH   1   9
HETATM    9  N1  UNL     1      -3.455   2.144  13.328  1.00  0.00    -0.332 N 
ATOM     10  H1  UNL     1      -2.940   1.601  14.020  1.00  0.00     0.168 HD
BRANCH   9  11
HETATM   11  C7  UNL     1      -3.347   1.619  12.043  1.00  0.00     0.178 C 
HETATM   12  S1  UNL     1      -4.598   1.284  11.079  1.00  0.00    -0.040 SA
BRANCH  11  13
HETATM   13  N2  UNL     1      -2.047   1.298  11.491  1.00  0.00    -0.313 N 
ATOM     14  H2  UNL     1      -1.760   0.328  11.357  1.00  0.00     0.170 HD
BRANCH  13  15
HETATM   15  C8  UNL     1      -1.246   2.289  11.166  1.00  0.00     0.150 A 
HETATM   16  N3  UNL     1      -0.327   2.852  11.953  1.00  0.00    -0.346 N 
HETATM   17  C9  UNL     1       0.385   3.828  11.472  1.00  0.00     0.097 A 
ATOM     18  H3  UNL     1      -0.187   2.524  12.909  1.00  0.00     0.167 HD
HETATM   19  C10 UNL     1       0.153   4.225  10.183  1.00  0.00     0.070 A 
HETATM   20  S2  UNL     1      -1.099   3.163   9.709  1.00  0.00    -0.064 SA
ENDBRANCH  13  15
ENDBRANCH  11  13
ENDBRANCH   9  11
ENDBRANCH   1   9
BRANCH   1  21
HETATM   21  C11 UNL     1      -3.391   4.535  14.056  1.00  0.00     0.231 C 
HETATM   22 CL1  UNL     1      -1.764   4.318  14.761  1.00  0.00    -0.077 Cl
HETATM   23 CL2  UNL     1      -3.058   5.146  12.367  1.00  0.00    -0.077 Cl
HETATM   24 CL3  UNL     1      -4.272   5.837  14.831  1.00  0.00    -0.077 Cl
ENDBRANCH   1  21
TORSDOF 6
ENDMDL
MODEL 3
REMARK VINA RESULT: -6.970922632      2.021      3.303
REMARK  6 active torsions:
REMARK  status: ('A' for Active; 'I' for Inactive)
REMARK    1  A    between atoms: C5_6  and  C6_7 
REMARK    2  A    between atoms: C6_7  and  N1_8 
REMARK    3  A    between atoms: C6_7  and  C11_20 
REMARK    4  A    between atoms: N1_8  and  C7_10 
REMARK    5  A    between atoms: C7_10  and  N2_12 
REMARK    6  A    between atoms: N2_12  and  C8_14 
ROOT
HETATM    1  C6  UNL     1      -3.994   5.022  13.302  1.00  0.00     0.076 C 
ENDROOT
BRANCH   1   2
HETATM    2  C5  UNL     1      -4.545   4.150  14.346  1.00  0.00    -0.006 A 
HETATM    3  C4  UNL     1      -5.846   4.350  14.835  1.00  0.00     0.014 A 
HETATM    4  C3  UNL     1      -6.383   3.547  15.812  1.00  0.00     0.004 A 
HETATM    5  C2  UNL     1      -5.633   2.518  16.331  1.00  0.00     0.042 A 
HETATM    6  C1  UNL     1      -4.364   2.284  15.889  1.00  0.00     0.117 A 
HETATM    7  F1  UNL     1      -3.631   1.276  16.399  1.00  0.00    -0.206 F 
HETATM    8  C12 UNL     1      -3.836   3.116  14.891  1.00  0.00     0.055 A 
ENDBRANCH   1   2
BRANCH   1   9
HETATM    9  N1  UNL     1      -3.796   4.379  12.070  1.00  0.00    -0.332 N 
ATOM     10  H1  UNL     1      -4.653   4.303  11.523  1.00  0.00     0.168 HD
BRANCH   9  11
HETATM   11  C7  UNL     1      -2.696   3.820  11.426  1.00  0.00     0.178 C 
HETATM   12  S1  UNL     1      -1.999   4.429  10.103  1.00  0.00    -0.040 SA
BRANCH  11  13
HETATM   13  N2  UNL     1      -2.113   2.585  11.910  1.00  0.00    -0.313 N 
ATOM     14  H2  UNL     1      -1.271   2.593  12.486  1.00  0.00     0.170 HD
BRANCH  13  15
HETATM   15  C8  UNL     1      -2.698   1.452  11.587  1.00  0.00     0.150 A 
HETATM   16  N3  UNL     1      -2.306   0.604  10.635  1.00  0.00    -0.346 N 
HETATM   17  C9  UNL     1      -3.002  -0.478  10.445  1.00  0.00     0.097 A 
ATOM     18  H3  UNL     1      -1.479   0.799  10.070  1.00  0.00     0.167 HD
HETATM   19  C10 UNL     1      -4.101  -0.688  11.233  1.00  0.00     0.070 A 
HETATM   20  S2  UNL     1      -4.088   0.701  12.229  1.00  0.00    -0.064 SA
ENDBRANCH  13  15
ENDBRANCH  11  13
ENDBRANCH   9  11
ENDBRANCH   1   9
BRANCH   1  21
HETATM   21  C11 UNL     1      -2.950   5.922  13.845  1.00  0.00     0.231 C 
HETATM   22 CL1  UNL     1      -1.368   5.111  14.014  1.00  0.00    -0.077 Cl
HETATM   23 CL2  UNL     1      -2.659   7.185  12.557  1.00  0.00    -0.077 Cl
HETATM   24 CL3  UNL     1      -3.371   6.842  15.277  1.00  0.00    -0.077 Cl
ENDBRANCH   1  21
TORSDOF 6
ENDMDL
MODEL 4
REMARK VINA RESULT: -6.909985071      1.074      1.800
REMARK  6 active torsions:
REMARK  status: ('A' for Active; 'I' for Inactive)
REMARK    1  A    between atoms: C5_6  and  C6_7 
REMARK    2  A    between atoms: C6_7  and  N1_8 
REMARK    3  A    between atoms: C6_7  and  C11_20 
REMARK    4  A    between atoms: N1_8  and  C7_10 
REMARK    5  A    between atoms: C7_10  and  N2_12 
REMARK    6  A    between atoms: N2_12  and  C8_14 
ROOT
HETATM    1  C6  UNL     1      -4.630   2.926  13.842  1.00  0.00     0.076 C 
ENDROOT
BRANCH   1   2
HETATM    2  C5  UNL     1      -5.267   2.608  15.126  1.00  0.00    -0.006 A 
HETATM    3  C4  UNL     1      -6.237   3.462  15.676  1.00  0.00     0.014 A 
HETATM    4  C3  UNL     1      -6.847   3.186  16.875  1.00  0.00     0.004 A 
HETATM    5  C2  UNL     1      -6.504   2.045  17.563  1.00  0.00     0.042 A 
HETATM    6  C1  UNL     1      -5.567   1.185  17.070  1.00  0.00     0.117 A 
HETATM    7  F1  UNL     1      -5.233   0.068  17.744  1.00  0.00    -0.206 F 
HETATM    8  C12 UNL     1      -4.958   1.487  15.843  1.00  0.00     0.055 A 
ENDBRANCH   1   2
BRANCH   1   9
HETATM    9  N1  UNL     1      -3.816   1.898  13.342  1.00  0.00    -0.332 N 
ATOM     10  H1  UNL     1      -3.346   1.373  14.080  1.00  0.00     0.168 HD
BRANCH   9  11
HETATM   11  C7  UNL     1      -3.504   1.431  12.068  1.00  0.00     0.178 C 
HETATM   12  S1  UNL     1      -4.591   0.973  10.966  1.00  0.00    -0.040 SA
BRANCH  11  13
HETATM   13  N2  UNL     1      -2.122   1.290  11.658  1.00  0.00    -0.313 N 
ATOM     14  H2  UNL     1      -1.680   0.372  11.614  1.00  0.00     0.170 HD
BRANCH  13  15
HETATM   15  C8  UNL     1      -1.453   2.378  11.343  1.00  0.00     0.150 A 
HETATM   16  N3  UNL     1      -0.624   3.053  12.141  1.00  0.00    -0.346 N 
HETATM   17  C9  UNL     1      -0.038   4.114  11.668  1.00  0.00     0.097 A 
ATOM     18  H3  UNL     1      -0.453   2.745  13.098  1.00  0.00     0.167 HD
HETATM   19  C10 UNL     1      -0.305   4.481  10.377  1.00  0.00     0.070 A 
HETATM   20  S2  UNL     1      -1.403   3.266   9.888  1.00  0.00    -0.064 SA
ENDBRANCH  13  15
ENDBRANCH  11  13
ENDBRANCH   9  11
ENDBRANCH   1   9
BRANCH   1  21
HETATM   21  C11 UNL     1      -4.157   4.330  13.807  1.00  0.00     0.231 C 
HETATM   22 CL1  UNL     1      -5.242   5.439  14.693  1.00  0.00    -0.077 Cl
HETATM   23 CL2  UNL     1      -2.611   4.361  14.781  1.00  0.00    -0.077 Cl
HETATM   24 CL3  UNL     1      -3.704   4.970  12.240  1.00  0.00    -0.077 Cl
ENDBRANCH   1  21
TORSDOF 6
ENDMDL
MODEL 5
REMARK VINA RESULT: -6.858836595      1.734      2.829
REMARK  6 active torsions:
REMARK  status: ('A' for Active; 'I' for Inactive)
REMARK    1  A    between atoms: C5_6  and  C6_7 
REMARK    2  A    between atoms: C6_7  and  N1_8 
REMARK    3  A    between atoms: C6_7  and  C11_20 
REMARK    4  A    between atoms: N1_8  and  C7_10 
REMARK    5  A    between atoms: C7_10  and  N2_12 
REMARK    6  A    between atoms: N2_12  and  C8_14 
ROOT
HETATM    1  C6  UNL     1      -4.226   3.844  13.949  1.00  0.00     0.076 C 
ENDROOT
BRANCH   1   2
HETATM    2  C5  UNL     1      -4.680   2.923  14.999  1.00  0.00    -0.006 A 
HETATM    3  C4  UNL     1      -3.784   2.029  15.605  1.00  0.00     0.014 A 
HETATM    4  C3  UNL     1      -4.185   1.158  16.588  1.00  0.00     0.004 A 
HETATM    5  C2  UNL     1      -5.499   1.155  16.996  1.00  0.00     0.042 A 
HETATM    6  C1  UNL     1      -6.408   2.005  16.437  1.00  0.00     0.117 A 
HETATM    7  F1  UNL     1      -7.693   2.001  16.837  1.00  0.00    -0.206 F 
HETATM    8  C12 UNL     1      -5.975   2.885  15.434  1.00  0.00     0.055 A 
ENDBRANCH   1   2
BRANCH   1   9
HETATM    9  N1  UNL     1      -2.942   3.560  13.460  1.00  0.00    -0.332 N 
ATOM     10  H1  UNL     1      -2.350   3.101  14.153  1.00  0.00     0.168 HD
BRANCH   9  11
HETATM   11  C7  UNL     1      -2.291   3.763  12.246  1.00  0.00     0.178 C 
HETATM   12  S1  UNL     1      -0.947   4.636  12.059  1.00  0.00    -0.040 SA
BRANCH  11  13
HETATM   13  N2  UNL     1      -2.832   3.204  11.024  1.00  0.00    -0.313 N 
ATOM     14  H2  UNL     1      -2.939   3.779  10.188  1.00  0.00     0.170 HD
BRANCH  13  15
HETATM   15  C8  UNL     1      -3.181   1.936  11.020  1.00  0.00     0.150 A 
HETATM   16  N3  UNL     1      -2.359   0.891  10.908  1.00  0.00    -0.346 N 
HETATM   17  C9  UNL     1      -2.872  -0.303  10.923  1.00  0.00     0.097 A 
ATOM     18  H3  UNL     1      -1.353   1.026  10.812  1.00  0.00     0.167 HD
HETATM   19  C10 UNL     1      -4.229  -0.424  11.053  1.00  0.00     0.070 A 
HETATM   20  S2  UNL     1      -4.719   1.210  11.150  1.00  0.00    -0.064 SA
ENDBRANCH  13  15
ENDBRANCH  11  13
ENDBRANCH   9  11
ENDBRANCH   1   9
BRANCH   1  21
HETATM   21  C11 UNL     1      -4.613   5.242  14.253  1.00  0.00     0.231 C 
HETATM   22 CL1  UNL     1      -3.231   6.228  14.809  1.00  0.00    -0.077 Cl
HETATM   23 CL2  UNL     1      -5.069   5.994  12.651  1.00  0.00    -0.077 Cl
HETATM   24 CL3  UNL     1      -6.027   5.466  15.264  1.00  0.00    -0.077 Cl
ENDBRANCH   1  21
TORSDOF 6
ENDMDL
