MODEL 1
REMARK VINA RESULT: -6.534991236      0.000      0.000
REMARK  5 active torsions:
REMARK  status: ('A' for Active; 'I' for Inactive)
REMARK    1  A    between atoms: C1_2  and  C2_3 
REMARK    2  A    between atoms: C1_2  and  C9_12 
REMARK    3  A    between atoms: C2_3  and  N1_4 
REMARK    4  A    between atoms: N1_4  and  C3_6 
REMARK    5  A    between atoms: C9_12  and  N2_13 
ROOT
HETATM    1  C2  UNL     1      -4.962   2.971  13.535  1.00  0.00     0.194 C 
ENDROOT
BRANCH   1   2
HETATM    2  C1  UNL     1      -5.026   1.925  12.485  1.00  0.00     0.172 C 
HETATM    3  O1  UNL     1      -5.690   1.986  11.468  1.00  0.00    -0.294 OA
BRANCH   2   4
HETATM    4  C9  UNL     1      -4.188   0.702  12.725  1.00  0.00     0.352 C 
BRANCH   4   5
HETATM    5  N2  UNL     1      -3.989  -0.065  11.552  1.00  0.00     0.095 N 
HETATM    6  C10 UNL     1      -2.787   0.110  10.833  1.00  0.00     0.273 C 
HETATM    7  C11 UNL     1      -1.941  -1.079  11.135  1.00  0.00     0.032 C 
HETATM    8  C12 UNL     1      -2.997  -2.193  11.187  1.00  0.00     0.032 C 
HETATM    9  C13 UNL     1      -4.181  -1.451  11.764  1.00  0.00     0.273 C 
ENDBRANCH   4   5
ENDBRANCH   2   4
ENDBRANCH   1   2
BRANCH   1  10
HETATM   10  N1  UNL     1      -5.989   2.854  14.543  1.00  0.00    -0.410 N 
ATOM     11  H1  UNL     1      -6.966   2.676  14.313  1.00  0.00     0.154 HD
BRANCH  10  12
HETATM   12  C3  UNL     1      -5.533   3.009  15.890  1.00  0.00     0.077 C 
HETATM   13  C4  UNL     1      -4.485   1.989  16.286  1.00  0.00     0.024 C 
HETATM   14  C5  UNL     1      -5.016   0.602  16.410  1.00  0.00     0.002 C 
HETATM   15  C6  UNL     1      -6.273   0.508  17.202  1.00  0.00     0.000 C 
HETATM   16  C7  UNL     1      -7.298   1.534  16.746  1.00  0.00     0.002 C 
HETATM   17  C8  UNL     1      -6.687   2.897  16.843  1.00  0.00     0.024 C 
ENDBRANCH  10  12
ENDBRANCH   1  10
TORSDOF 5
ENDMDL
MODEL 2
REMARK VINA RESULT: -6.393568279      1.690      5.737
REMARK  5 active torsions:
REMARK  status: ('A' for Active; 'I' for Inactive)
REMARK    1  A    between atoms: C1_2  and  C2_3 
REMARK    2  A    between atoms: C1_2  and  C9_12 
REMARK    3  A    between atoms: C2_3  and  N1_4 
REMARK    4  A    between atoms: N1_4  and  C3_6 
REMARK    5  A    between atoms: C9_12  and  N2_13 
ROOT
HETATM    1  C2  UNL     1      -3.598   3.648  13.523  1.00  0.00     0.194 C 
ENDROOT
BRANCH   1   2
HETATM    2  C1  UNL     1      -5.003   3.742  13.993  1.00  0.00     0.172 C 
HETATM    3  O1  UNL     1      -5.676   4.754  14.006  1.00  0.00    -0.294 OA
BRANCH   2   4
HETATM    4  C9  UNL     1      -5.617   2.462  14.484  1.00  0.00     0.352 C 
BRANCH   4   5
HETATM    5  N2  UNL     1      -5.567   2.336  15.893  1.00  0.00     0.095 N 
HETATM    6  C10 UNL     1      -6.757   2.532  16.626  1.00  0.00     0.273 C 
HETATM    7  C11 UNL     1      -7.225   1.178  17.036  1.00  0.00     0.032 C 
HETATM    8  C12 UNL     1      -5.891   0.479  17.341  1.00  0.00     0.032 C 
HETATM    9  C13 UNL     1      -4.983   1.117  16.314  1.00  0.00     0.273 C 
ENDBRANCH   4   5
ENDBRANCH   2   4
ENDBRANCH   1   2
BRANCH   1  10
HETATM   10  N1  UNL     1      -3.290   2.417  12.835  1.00  0.00    -0.410 N 
ATOM     11  H1  UNL     1      -2.991   1.575  13.326  1.00  0.00     0.154 HD
BRANCH  10  12
HETATM   12  C3  UNL     1      -3.434   2.468  11.413  1.00  0.00     0.077 C 
HETATM   13  C4  UNL     1      -4.660   1.733  10.911  1.00  0.00     0.024 C 
HETATM   14  C5  UNL     1      -4.570   0.251  11.052  1.00  0.00     0.002 C 
HETATM   15  C6  UNL     1      -3.285  -0.322  10.564  1.00  0.00     0.000 C 
HETATM   16  C7  UNL     1      -2.089   0.436  11.119  1.00  0.00     0.002 C 
HETATM   17  C8  UNL     1      -2.223   1.880  10.749  1.00  0.00     0.024 C 
ENDBRANCH  10  12
ENDBRANCH   1  10
TORSDOF 5
ENDMDL
MODEL 3
REMARK VINA RESULT: -6.388620404      1.879      5.945
REMARK  5 active torsions:
REMARK  status: ('A' for Active; 'I' for Inactive)
REMARK    1  A    between atoms: C1_2  and  C2_3 
REMARK    2  A    between atoms: C1_2  and  C9_12 
REMARK    3  A    between atoms: C2_3  and  N1_4 
REMARK    4  A    between atoms: N1_4  and  C3_6 
REMARK    5  A    between atoms: C9_12  and  N2_13 
ROOT
HETATM    1  C2  UNL     1      -4.715   1.542  13.897  1.00  0.00     0.194 C 
ENDROOT
BRANCH   1   2
HETATM    2  C1  UNL     1      -4.479   0.655  15.062  1.00  0.00     0.172 C 
HETATM    3  O1  UNL     1      -4.581  -0.556  15.060  1.00  0.00    -0.294 OA
BRANCH   2   4
HETATM    4  C9  UNL     1      -4.081   1.341  16.338  1.00  0.00     0.352 C 
BRANCH   4   5
HETATM    5  N2  UNL     1      -5.167   1.515  17.229  1.00  0.00     0.095 N 
HETATM    6  C10 UNL     1      -5.938   2.692  17.122  1.00  0.00     0.273 C 
HETATM    7  C11 UNL     1      -7.214   2.299  16.460  1.00  0.00     0.032 C 
HETATM    8  C12 UNL     1      -7.462   0.917  17.084  1.00  0.00     0.032 C 
HETATM    9  C13 UNL     1      -6.048   0.407  17.245  1.00  0.00     0.273 C 
ENDBRANCH   4   5
ENDBRANCH   2   4
ENDBRANCH   1   2
BRANCH   1  10
HETATM   10  N1  UNL     1      -3.534   1.804  13.109  1.00  0.00    -0.410 N 
ATOM     11  H1  UNL     1      -2.596   1.800  13.510  1.00  0.00     0.154 HD
BRANCH  10  12
HETATM   12  C3  UNL     1      -3.778   2.070  11.725  1.00  0.00     0.077 C 
HETATM   13  C4  UNL     1      -4.875   1.207  11.136  1.00  0.00     0.024 C 
HETATM   14  C5  UNL     1      -4.501  -0.230  11.004  1.00  0.00     0.002 C 
HETATM   15  C6  UNL     1      -3.167  -0.449  10.380  1.00  0.00     0.000 C 
HETATM   16  C7  UNL     1      -2.100   0.421  11.026  1.00  0.00     0.002 C 
HETATM   17  C8  UNL     1      -2.525   1.852  10.928  1.00  0.00     0.024 C 
ENDBRANCH  10  12
ENDBRANCH   1  10
TORSDOF 5
ENDMDL
MODEL 4
REMARK VINA RESULT: -6.203069387      2.179      6.019
REMARK  5 active torsions:
REMARK  status: ('A' for Active; 'I' for Inactive)
REMARK    1  A    between atoms: C1_2  and  C2_3 
REMARK    2  A    between atoms: C1_2  and  C9_12 
REMARK    3  A    between atoms: C2_3  and  N1_4 
REMARK    4  A    between atoms: N1_4  and  C3_6 
REMARK    5  A    between atoms: C9_12  and  N2_13 
ROOT
HETATM    1  C2  UNL     1      -4.640   0.421  14.127  1.00  0.00     0.194 C 
ENDROOT
BRANCH   1   2
HETATM    2  C1  UNL     1      -4.345   0.977  15.471  1.00  0.00     0.172 C 
HETATM    3  O1  UNL     1      -3.532   0.531  16.256  1.00  0.00    -0.294 OA
BRANCH   2   4
HETATM    4  C9  UNL     1      -5.132   2.194  15.865  1.00  0.00     0.352 C 
BRANCH   4   5
HETATM    5  N2  UNL     1      -5.153   3.184  14.854  1.00  0.00     0.095 N 
HETATM    6  C10 UNL     1      -6.284   4.024  14.761  1.00  0.00     0.273 C 
HETATM    7  C11 UNL     1      -5.875   5.342  15.325  1.00  0.00     0.032 C 
HETATM    8  C12 UNL     1      -4.427   5.447  14.821  1.00  0.00     0.032 C 
HETATM    9  C13 UNL     1      -3.995   3.999  14.859  1.00  0.00     0.273 C 
ENDBRANCH   4   5
ENDBRANCH   2   4
ENDBRANCH   1   2
BRANCH   1  10
HETATM   10  N1  UNL     1      -3.560   0.568  13.181  1.00  0.00    -0.410 N 
ATOM     11  H1  UNL     1      -2.579   0.535  13.459  1.00  0.00     0.154 HD
BRANCH  10  12
HETATM   12  C3  UNL     1      -3.968   0.765  11.825  1.00  0.00     0.077 C 
HETATM   13  C4  UNL     1      -3.031   0.123  10.821  1.00  0.00     0.024 C 
HETATM   14  C5  UNL     1      -1.701   0.791  10.731  1.00  0.00     0.002 C 
HETATM   15  C6  UNL     1      -1.780   2.273  10.615  1.00  0.00     0.000 C 
HETATM   16  C7  UNL     1      -2.710   2.866  11.662  1.00  0.00     0.002 C 
HETATM   17  C8  UNL     1      -4.058   2.231  11.519  1.00  0.00     0.024 C 
ENDBRANCH  10  12
ENDBRANCH   1  10
TORSDOF 5
ENDMDL
MODEL 5
REMARK VINA RESULT: -6.184102579      1.894      5.833
REMARK  5 active torsions:
REMARK  status: ('A' for Active; 'I' for Inactive)
REMARK    1  A    between atoms: C1_2  and  C2_3 
REMARK    2  A    between atoms: C1_2  and  C9_12 
REMARK    3  A    between atoms: C2_3  and  N1_4 
REMARK    4  A    between atoms: N1_4  and  C3_6 
REMARK    5  A    between atoms: C9_12  and  N2_13 
ROOT
HETATM    1  C2  UNL     1      -3.977   3.307  13.541  1.00  0.00     0.194 C 
ENDROOT
BRANCH   1   2
HETATM    2  C1  UNL     1      -3.724   3.264  15.002  1.00  0.00     0.172 C 
HETATM    3  O1  UNL     1      -2.628   3.230  15.528  1.00  0.00    -0.294 OA
BRANCH   2   4
HETATM    4  C9  UNL     1      -4.943   3.265  15.879  1.00  0.00     0.352 C 
BRANCH   4   5
HETATM    5  N2  UNL     1      -5.747   2.114  15.701  1.00  0.00     0.095 N 
HETATM    6  C10 UNL     1      -5.203   0.857  16.043  1.00  0.00     0.273 C 
HETATM    7  C11 UNL     1      -5.832   0.465  17.336  1.00  0.00     0.032 C 
HETATM    8  C12 UNL     1      -7.264   0.988  17.144  1.00  0.00     0.032 C 
HETATM    9  C13 UNL     1      -7.016   2.230  16.318  1.00  0.00     0.273 C 
ENDBRANCH   4   5
ENDBRANCH   2   4
ENDBRANCH   1   2
BRANCH   1  10
HETATM   10  N1  UNL     1      -3.380   2.216  12.808  1.00  0.00    -0.410 N 
ATOM     11  H1  UNL     1      -2.902   1.443  13.270  1.00  0.00     0.154 HD
BRANCH  10  12
HETATM   12  C3  UNL     1      -3.509   2.301  11.387  1.00  0.00     0.077 C 
HETATM   13  C4  UNL     1      -4.727   1.575  10.853  1.00  0.00     0.024 C 
HETATM   14  C5  UNL     1      -4.634   0.091  10.960  1.00  0.00     0.002 C 
HETATM   15  C6  UNL     1      -3.343  -0.467  10.471  1.00  0.00     0.000 C 
HETATM   16  C7  UNL     1      -2.155   0.280  11.058  1.00  0.00     0.002 C 
HETATM   17  C8  UNL     1      -2.289   1.733  10.722  1.00  0.00     0.024 C 
ENDBRANCH  10  12
ENDBRANCH   1  10
TORSDOF 5
ENDMDL
