MODEL 1
REMARK VINA RESULT: -6.390436577      0.000      0.000
REMARK  5 active torsions:
REMARK  status: ('A' for Active; 'I' for Inactive)
REMARK    1  A    between atoms: O1_1  and  C1_3 
REMARK    2  A    between atoms: C1_3  and  C2_4 
REMARK    3  A    between atoms: C1_3  and  C9_11 
REMARK    4  A    between atoms: C2_4  and  C3_5 
REMARK    5  A    between atoms: C9_11  and  N1_12 
ROOT
HETATM    1  C1  UNL     1      -3.940   2.836  14.160  1.00  0.00     0.146 C 
ENDROOT
BRANCH   1   2
HETATM    2  O1  UNL     1      -2.866   3.687  14.464  1.00  0.00    -0.394 OA
ATOM      3  H1  UNL     1      -2.827   3.890  15.392  1.00  0.00     0.210 HD
ENDBRANCH   1   2
BRANCH   1   4
HETATM    4  C2  UNL     1      -4.433   3.037  12.752  1.00  0.00     0.038 C 
BRANCH   4   5
HETATM    5  C3  UNL     1      -4.313   1.865  11.844  1.00  0.00    -0.012 C 
HETATM    6  C4  UNL     1      -3.223   1.903  10.837  1.00  0.00     0.005 C 
HETATM    7  C5  UNL     1      -2.181   0.822  11.166  1.00  0.00     0.000 C 
HETATM    8  C6  UNL     1      -2.914  -0.504  10.909  1.00  0.00     0.000 C 
HETATM    9  C7  UNL     1      -4.065  -0.640  11.859  1.00  0.00     0.000 C 
HETATM   10  C8  UNL     1      -4.333   0.601  12.668  1.00  0.00     0.005 C 
ENDBRANCH   4   5
ENDBRANCH   1   4
BRANCH   1  11
HETATM   11  C9  UNL     1      -5.057   3.268  15.087  1.00  0.00     0.304 C 
BRANCH  11  12
HETATM   12  N1  UNL     1      -5.777   2.153  15.653  1.00  0.00     0.095 N 
HETATM   13  C10 UNL     1      -4.778   1.388  16.425  1.00  0.00     0.298 C 
HETATM   14  C11 UNL     1      -5.534   0.297  17.193  1.00  0.00     0.198 C 
HETATM   15  O2  UNL     1      -6.814   0.164  16.682  1.00  0.00    -0.388 OA
HETATM   16  C12 UNL     1      -7.566   1.281  16.957  1.00  0.00     0.198 C 
HETATM   17  C13 UNL     1      -6.781   2.537  16.608  1.00  0.00     0.298 C 
ENDBRANCH  11  12
ENDBRANCH   1  11
TORSDOF 5
ENDMDL
MODEL 2
REMARK VINA RESULT: -6.227861447      2.033      5.502
REMARK  5 active torsions:
REMARK  status: ('A' for Active; 'I' for Inactive)
REMARK    1  A    between atoms: O1_1  and  C1_3 
REMARK    2  A    between atoms: C1_3  and  C2_4 
REMARK    3  A    between atoms: C1_3  and  C9_11 
REMARK    4  A    between atoms: C2_4  and  C3_5 
REMARK    5  A    between atoms: C9_11  and  N1_12 
ROOT
HETATM    1  C1  UNL     1      -4.868   2.985  13.761  1.00  0.00     0.146 C 
ENDROOT
BRANCH   1   2
HETATM    2  O1  UNL     1      -5.542   4.188  13.494  1.00  0.00    -0.394 OA
ATOM      3  H1  UNL     1      -6.203   4.081  12.820  1.00  0.00     0.210 HD
ENDBRANCH   1   2
BRANCH   1   4
HETATM    4  C2  UNL     1      -4.140   3.031  15.077  1.00  0.00     0.038 C 
BRANCH   4   5
HETATM    5  C3  UNL     1      -4.855   2.442  16.241  1.00  0.00    -0.012 C 
HETATM    6  C4  UNL     1      -6.154   3.058  16.614  1.00  0.00     0.005 C 
HETATM    7  C5  UNL     1      -7.292   2.059  16.347  1.00  0.00     0.000 C 
HETATM    8  C6  UNL     1      -7.069   0.944  17.380  1.00  0.00     0.000 C 
HETATM    9  C7  UNL     1      -5.760   0.262  17.117  1.00  0.00     0.000 C 
HETATM   10  C8  UNL     1      -4.923   0.944  16.069  1.00  0.00     0.005 C 
ENDBRANCH   4   5
ENDBRANCH   1   4
BRANCH   1  11
HETATM   11  C9  UNL     1      -3.817   2.877  12.676  1.00  0.00     0.304 C 
BRANCH  11  12
HETATM   12  N1  UNL     1      -3.693   1.538  12.149  1.00  0.00     0.095 N 
HETATM   13  C10 UNL     1      -4.906   1.318  11.339  1.00  0.00     0.298 C 
HETATM   14  C11 UNL     1      -4.732  -0.021  10.612  1.00  0.00     0.198 C 
HETATM   15  O2  UNL     1      -3.689  -0.731  11.180  1.00  0.00    -0.388 OA
HETATM   16  C12 UNL     1      -2.487  -0.113  10.933  1.00  0.00     0.198 C 
HETATM   17  C13 UNL     1      -2.593   1.374  11.239  1.00  0.00     0.298 C 
ENDBRANCH  11  12
ENDBRANCH   1  11
TORSDOF 5
ENDMDL
MODEL 3
REMARK VINA RESULT: -6.203349666      2.094      5.508
REMARK  5 active torsions:
REMARK  status: ('A' for Active; 'I' for Inactive)
REMARK    1  A    between atoms: O1_1  and  C1_3 
REMARK    2  A    between atoms: C1_3  and  C2_4 
REMARK    3  A    between atoms: C1_3  and  C9_11 
REMARK    4  A    between atoms: C2_4  and  C3_5 
REMARK    5  A    between atoms: C9_11  and  N1_12 
ROOT
HETATM    1  C1  UNL     1      -3.636   3.761  14.356  1.00  0.00     0.146 C 
ENDROOT
BRANCH   1   2
HETATM    2  O1  UNL     1      -2.283   3.983  14.051  1.00  0.00    -0.394 OA
ATOM      3  H1  UNL     1      -1.977   4.816  14.391  1.00  0.00     0.210 HD
ENDBRANCH   1   2
BRANCH   1   4
HETATM    4  C2  UNL     1      -3.801   2.804  15.506  1.00  0.00     0.038 C 
BRANCH   4   5
HETATM    5  C3  UNL     1      -5.103   2.088  15.580  1.00  0.00    -0.012 C 
HETATM    6  C4  UNL     1      -5.066   0.670  16.019  1.00  0.00     0.005 C 
HETATM    7  C5  UNL     1      -5.756   0.539  17.387  1.00  0.00     0.000 C 
HETATM    8  C6  UNL     1      -7.236   0.827  17.097  1.00  0.00     0.000 C 
HETATM    9  C7  UNL     1      -7.394   2.237  16.613  1.00  0.00     0.000 C 
HETATM   10  C8  UNL     1      -6.087   2.935  16.348  1.00  0.00     0.005 C 
ENDBRANCH   4   5
ENDBRANCH   1   4
BRANCH   1  11
HETATM   11  C9  UNL     1      -4.207   3.081  13.128  1.00  0.00     0.304 C 
BRANCH  11  12
HETATM   12  N1  UNL     1      -3.239   2.256  12.445  1.00  0.00     0.095 N 
HETATM   13  C10 UNL     1      -3.908   0.959  12.228  1.00  0.00     0.298 C 
HETATM   14  C11 UNL     1      -2.984   0.112  11.345  1.00  0.00     0.198 C 
HETATM   15  O2  UNL     1      -1.720   0.676  11.310  1.00  0.00    -0.388 OA
HETATM   16  C12 UNL     1      -1.741   1.874  10.637  1.00  0.00     0.198 C 
HETATM   17  C13 UNL     1      -2.896   2.731  11.133  1.00  0.00     0.298 C 
ENDBRANCH  11  12
ENDBRANCH   1  11
TORSDOF 5
ENDMDL
MODEL 4
REMARK VINA RESULT: -6.198137702      2.068      5.465
REMARK  5 active torsions:
REMARK  status: ('A' for Active; 'I' for Inactive)
REMARK    1  A    between atoms: O1_1  and  C1_3 
REMARK    2  A    between atoms: C1_3  and  C2_4 
REMARK    3  A    between atoms: C1_3  and  C9_11 
REMARK    4  A    between atoms: C2_4  and  C3_5 
REMARK    5  A    between atoms: C9_11  and  N1_12 
ROOT
HETATM    1  C1  UNL     1      -4.810   2.889  13.779  1.00  0.00     0.146 C 
ENDROOT
BRANCH   1   2
HETATM    2  O1  UNL     1      -5.665   3.959  13.473  1.00  0.00    -0.394 OA
ATOM      3  H1  UNL     1      -5.731   4.103  12.536  1.00  0.00     0.210 HD
ENDBRANCH   1   2
BRANCH   1   4
HETATM    4  C2  UNL     1      -4.162   3.057  15.127  1.00  0.00     0.038 C 
BRANCH   4   5
HETATM    5  C3  UNL     1      -4.877   2.444  16.278  1.00  0.00    -0.012 C 
HETATM    6  C4  UNL     1      -6.185   3.040  16.651  1.00  0.00     0.005 C 
HETATM    7  C5  UNL     1      -7.310   2.032  16.363  1.00  0.00     0.000 C 
HETATM    8  C6  UNL     1      -7.081   0.905  17.382  1.00  0.00     0.000 C 
HETATM    9  C7  UNL     1      -5.763   0.242  17.118  1.00  0.00     0.000 C 
HETATM   10  C8  UNL     1      -4.926   0.948  16.085  1.00  0.00     0.005 C 
ENDBRANCH   4   5
ENDBRANCH   1   4
BRANCH   1  11
HETATM   11  C9  UNL     1      -3.706   2.962  12.744  1.00  0.00     0.304 C 
BRANCH  11  12
HETATM   12  N1  UNL     1      -3.768   1.885  11.784  1.00  0.00     0.095 N 
HETATM   13  C10 UNL     1      -2.366   1.595  11.425  1.00  0.00     0.298 C 
HETATM   14  C11 UNL     1      -2.372   0.338  10.547  1.00  0.00     0.198 C 
HETATM   15  O2  UNL     1      -3.658   0.078  10.107  1.00  0.00    -0.388 OA
HETATM   16  C12 UNL     1      -4.463  -0.301  11.155  1.00  0.00     0.198 C 
HETATM   17  C13 UNL     1      -4.283   0.657  12.324  1.00  0.00     0.298 C 
ENDBRANCH  11  12
ENDBRANCH   1  11
TORSDOF 5
ENDMDL
MODEL 5
REMARK VINA RESULT: -6.136041629      2.191      5.237
REMARK  5 active torsions:
REMARK  status: ('A' for Active; 'I' for Inactive)
REMARK    1  A    between atoms: O1_1  and  C1_3 
REMARK    2  A    between atoms: C1_3  and  C2_4 
REMARK    3  A    between atoms: C1_3  and  C9_11 
REMARK    4  A    between atoms: C2_4  and  C3_5 
REMARK    5  A    between atoms: C9_11  and  N1_12 
ROOT
HETATM    1  C1  UNL     1      -4.051   0.943  15.094  1.00  0.00     0.146 C 
ENDROOT
BRANCH   1   2
HETATM    2  O1  UNL     1      -3.642   0.074  16.119  1.00  0.00    -0.394 OA
ATOM      3  H1  UNL     1      -3.742  -0.837  15.870  1.00  0.00     0.210 HD
ENDBRANCH   1   2
BRANCH   1   4
HETATM    4  C2  UNL     1      -5.235   1.776  15.506  1.00  0.00     0.038 C 
BRANCH   4   5
HETATM    5  C3  UNL     1      -5.047   3.251  15.454  1.00  0.00    -0.012 C 
HETATM    6  C4  UNL     1      -3.718   3.744  15.014  1.00  0.00     0.005 C 
HETATM    7  C5  UNL     1      -3.857   4.455  13.658  1.00  0.00     0.000 C 
HETATM    8  C6  UNL     1      -4.666   5.721  13.973  1.00  0.00     0.000 C 
HETATM    9  C7  UNL     1      -6.033   5.343  14.459  1.00  0.00     0.000 C 
HETATM   10  C8  UNL     1      -6.201   3.867  14.702  1.00  0.00     0.005 C 
ENDBRANCH   4   5
ENDBRANCH   1   4
BRANCH   1  11
HETATM   11  C9  UNL     1      -4.515   0.036  13.974  1.00  0.00     0.304 C 
BRANCH  11  12
HETATM   12  N1  UNL     1      -4.008   0.437  12.683  1.00  0.00     0.095 N 
HETATM   13  C10 UNL     1      -3.987  -0.792  11.867  1.00  0.00     0.298 C 
HETATM   14  C11 UNL     1      -3.629  -0.381  10.434  1.00  0.00     0.198 C 
HETATM   15  O2  UNL     1      -3.130   0.910  10.426  1.00  0.00    -0.388 OA
HETATM   16  C12 UNL     1      -4.114   1.814  10.746  1.00  0.00     0.198 C 
HETATM   17  C13 UNL     1      -4.872   1.345  11.979  1.00  0.00     0.298 C 
ENDBRANCH  11  12
ENDBRANCH   1  11
TORSDOF 5
ENDMDL
