MODEL 1
REMARK VINA RESULT: -5.790560219      0.000      0.000
REMARK  5 active torsions:
REMARK  status: ('A' for Active; 'I' for Inactive)
REMARK    1  A    between atoms: O1_2  and  C2_3 
REMARK    2  A    between atoms: N1_5  and  C4_6 
REMARK    3  A    between atoms: C9_11  and  O2_12 
REMARK    4  A    between atoms: C9_11  and  C10_14 
REMARK    5  A    between atoms: C10_14  and  C11_15 
ROOT
HETATM    1  C2  UNL     1      -4.139   1.671  13.392  1.00  0.00     0.172 C 
HETATM    2  C3  UNL     1      -3.607   2.883  12.626  1.00  0.00     0.152 C 
HETATM    3  N1  UNL     1      -4.291   4.092  12.993  1.00  0.00    -0.406 N 
HETATM    4  C7  UNL     1      -4.166   4.438  14.369  1.00  0.00     0.120 C 
HETATM    5  C8  UNL     1      -3.680   3.269  15.167  1.00  0.00     0.060 C 
HETATM    6  C9  UNL     1      -4.433   1.974  14.808  1.00  0.00     0.087 C 
ENDROOT
BRANCH   6   7
HETATM    7  O2  UNL     1      -3.766   0.999  15.602  1.00  0.00    -0.387 OA
ATOM      8  H2  UNL     1      -4.131   1.046  16.478  1.00  0.00     0.210 HD
ENDBRANCH   6   7
BRANCH   6   9
HETATM    9  C10 UNL     1      -5.823   2.161  15.239  1.00  0.00     0.044 C 
BRANCH   9  10
HETATM   10  C11 UNL     1      -6.169   2.266  16.662  1.00  0.00    -0.020 C 
HETATM   11  C12 UNL     1      -7.099   1.067  16.957  1.00  0.00     0.009 C 
HETATM   12  C13 UNL     1      -6.954   3.494  17.046  1.00  0.00     0.009 C 
ENDBRANCH   9  10
ENDBRANCH   6   9
BRANCH   1  13
HETATM   13  O1  UNL     1      -5.163   1.067  12.677  1.00  0.00    -0.386 OA
HETATM   14  C1  UNL     1      -4.816   0.896  11.362  1.00  0.00     0.202 C 
ENDBRANCH   1  13
BRANCH   3  15
HETATM   15  C4  UNL     1      -4.150   5.156  12.071  1.00  0.00     0.071 C 
HETATM   16  C5  UNL     1      -5.129   6.288  12.245  1.00  0.00     0.031 C 
HETATM   17  C6  UNL     1      -4.214   4.565  10.659  1.00  0.00     0.031 C 
ENDBRANCH   3  15
TORSDOF 5
ENDMDL
MODEL 2
REMARK VINA RESULT: -5.567539179      1.872      4.341
REMARK  5 active torsions:
REMARK  status: ('A' for Active; 'I' for Inactive)
REMARK    1  A    between atoms: O1_2  and  C2_3 
REMARK    2  A    between atoms: N1_5  and  C4_6 
REMARK    3  A    between atoms: C9_11  and  O2_12 
REMARK    4  A    between atoms: C9_11  and  C10_14 
REMARK    5  A    between atoms: C10_14  and  C11_15 
ROOT
HETATM    1  C2  UNL     1      -5.181   2.775  13.376  1.00  0.00     0.172 C 
HETATM    2  C3  UNL     1      -4.547   4.133  13.679  1.00  0.00     0.152 C 
HETATM    3  N1  UNL     1      -3.139   4.141  13.396  1.00  0.00    -0.406 N 
HETATM    4  C7  UNL     1      -2.815   3.875  12.035  1.00  0.00     0.120 C 
HETATM    5  C8  UNL     1      -3.987   3.279  11.319  1.00  0.00     0.060 C 
HETATM    6  C9  UNL     1      -4.654   2.160  12.141  1.00  0.00     0.087 C 
ENDROOT
BRANCH   6   7
HETATM    7  O2  UNL     1      -5.769   1.805  11.330  1.00  0.00    -0.387 OA
ATOM      8  H2  UNL     1      -6.227   1.097  11.768  1.00  0.00     0.210 HD
ENDBRANCH   6   7
BRANCH   6   9
HETATM    9  C10 UNL     1      -3.682   1.066  12.230  1.00  0.00     0.044 C 
BRANCH   9  10
HETATM   10  C11 UNL     1      -3.163   0.411  11.023  1.00  0.00    -0.020 C 
HETATM   11  C12 UNL     1      -3.439  -1.099  11.212  1.00  0.00     0.009 C 
HETATM   12  C13 UNL     1      -1.674   0.529  10.815  1.00  0.00     0.009 C 
ENDBRANCH   9  10
ENDBRANCH   6   9
BRANCH   1  13
HETATM   13  O1  UNL     1      -5.157   1.974  14.509  1.00  0.00    -0.386 OA
HETATM   14  C1  UNL     1      -5.853   2.551  15.540  1.00  0.00     0.202 C 
ENDBRANCH   1  13
BRANCH   3  15
HETATM   15  C4  UNL     1      -2.417   5.192  14.010  1.00  0.00     0.071 C 
HETATM   16  C5  UNL     1      -3.252   6.358  14.472  1.00  0.00     0.031 C 
HETATM   17  C6  UNL     1      -1.316   5.634  13.041  1.00  0.00     0.031 C 
ENDBRANCH   3  15
TORSDOF 5
ENDMDL
MODEL 3
REMARK VINA RESULT: -5.493930687      2.357      4.846
REMARK  5 active torsions:
REMARK  status: ('A' for Active; 'I' for Inactive)
REMARK    1  A    between atoms: O1_2  and  C2_3 
REMARK    2  A    between atoms: N1_5  and  C4_6 
REMARK    3  A    between atoms: C9_11  and  O2_12 
REMARK    4  A    between atoms: C9_11  and  C10_14 
REMARK    5  A    between atoms: C10_14  and  C11_15 
ROOT
HETATM    1  C2  UNL     1      -4.445   3.575  13.137  1.00  0.00     0.172 C 
HETATM    2  C3  UNL     1      -5.240   2.490  13.863  1.00  0.00     0.152 C 
HETATM    3  N1  UNL     1      -5.320   2.739  15.276  1.00  0.00    -0.406 N 
HETATM    4  C7  UNL     1      -5.964   3.964  15.617  1.00  0.00     0.120 C 
HETATM    5  C8  UNL     1      -6.056   4.863  14.424  1.00  0.00     0.060 C 
HETATM    6  C9  UNL     1      -4.726   4.931  13.651  1.00  0.00     0.087 C 
ENDROOT
BRANCH   6   7
HETATM    7  O2  UNL     1      -5.058   5.752  12.536  1.00  0.00    -0.387 OA
ATOM      8  H2  UNL     1      -5.884   5.438  12.187  1.00  0.00     0.210 HD
ENDBRANCH   6   7
BRANCH   6   9
HETATM    9  C10 UNL     1      -3.758   5.590  14.534  1.00  0.00     0.044 C 
BRANCH   9  10
HETATM   10  C11 UNL     1      -3.002   6.767  14.089  1.00  0.00    -0.020 C 
HETATM   11  C12 UNL     1      -1.660   6.225  13.546  1.00  0.00     0.009 C 
HETATM   12  C13 UNL     1      -2.635   7.746  15.176  1.00  0.00     0.009 C 
ENDBRANCH   9  10
ENDBRANCH   6   9
BRANCH   1  13
HETATM   13  O1  UNL     1      -3.105   3.219  13.068  1.00  0.00    -0.386 OA
HETATM   14  C1  UNL     1      -2.697   3.074  11.768  1.00  0.00     0.202 C 
ENDBRANCH   1  13
BRANCH   3  15
HETATM   15  C4  UNL     1      -5.675   1.614  16.057  1.00  0.00     0.071 C 
HETATM   16  C5  UNL     1      -5.991   1.911  17.500  1.00  0.00     0.031 C 
HETATM   17  C6  UNL     1      -4.554   0.578  15.924  1.00  0.00     0.031 C 
ENDBRANCH   3  15
TORSDOF 5
ENDMDL
MODEL 4
REMARK VINA RESULT: -5.450010966      2.122      4.923
REMARK  5 active torsions:
REMARK  status: ('A' for Active; 'I' for Inactive)
REMARK    1  A    between atoms: O1_2  and  C2_3 
REMARK    2  A    between atoms: N1_5  and  C4_6 
REMARK    3  A    between atoms: C9_11  and  O2_12 
REMARK    4  A    between atoms: C9_11  and  C10_14 
REMARK    5  A    between atoms: C10_14  and  C11_15 
ROOT
HETATM    1  C2  UNL     1      -5.040   3.040  13.765  1.00  0.00     0.172 C 
HETATM    2  C3  UNL     1      -5.883   2.188  14.714  1.00  0.00     0.152 C 
HETATM    3  N1  UNL     1      -5.781   2.639  16.074  1.00  0.00    -0.406 N 
HETATM    4  C7  UNL     1      -6.226   3.977  16.281  1.00  0.00     0.120 C 
HETATM    5  C8  UNL     1      -6.332   4.706  14.978  1.00  0.00     0.060 C 
HETATM    6  C9  UNL     1      -5.094   4.480  14.090  1.00  0.00     0.087 C 
ENDROOT
BRANCH   6   7
HETATM    7  O2  UNL     1      -5.438   5.176  12.897  1.00  0.00    -0.387 OA
ATOM      8  H2  UNL     1      -4.632   5.358  12.429  1.00  0.00     0.210 HD
ENDBRANCH   6   7
BRANCH   6   9
HETATM    9  C10 UNL     1      -3.962   5.114  14.776  1.00  0.00     0.044 C 
BRANCH   9  10
HETATM   10  C11 UNL     1      -3.042   6.005  14.058  1.00  0.00    -0.020 C 
HETATM   11  C12 UNL     1      -1.706   5.234  13.954  1.00  0.00     0.009 C 
HETATM   12  C13 UNL     1      -2.712   7.295  14.764  1.00  0.00     0.009 C 
ENDBRANCH   9  10
ENDBRANCH   6   9
BRANCH   1  13
HETATM   13  O1  UNL     1      -3.771   2.495  13.635  1.00  0.00    -0.386 OA
HETATM   14  C1  UNL     1      -3.461   2.271  12.318  1.00  0.00     0.202 C 
ENDBRANCH   1  13
BRANCH   3  15
HETATM   15  C4  UNL     1      -6.188   1.694  17.045  1.00  0.00     0.071 C 
HETATM   16  C5  UNL     1      -7.504   1.016  16.766  1.00  0.00     0.031 C 
HETATM   17  C6  UNL     1      -6.190   2.393  18.408  1.00  0.00     0.031 C 
ENDBRANCH   3  15
TORSDOF 5
ENDMDL
MODEL 5
REMARK VINA RESULT: -5.210439262      2.258      3.713
REMARK  5 active torsions:
REMARK  status: ('A' for Active; 'I' for Inactive)
REMARK    1  A    between atoms: O1_2  and  C2_3 
REMARK    2  A    between atoms: N1_5  and  C4_6 
REMARK    3  A    between atoms: C9_11  and  O2_12 
REMARK    4  A    between atoms: C9_11  and  C10_14 
REMARK    5  A    between atoms: C10_14  and  C11_15 
ROOT
HETATM    1  C2  UNL     1      -3.988   4.441  13.325  1.00  0.00     0.172 C 
HETATM    2  C3  UNL     1      -3.284   4.087  12.015  1.00  0.00     0.152 C 
HETATM    3  N1  UNL     1      -2.774   2.744  12.026  1.00  0.00    -0.406 N 
HETATM    4  C7  UNL     1      -3.773   1.742  12.195  1.00  0.00     0.120 C 
HETATM    5  C8  UNL     1      -5.047   2.344  12.698  1.00  0.00     0.060 C 
HETATM    6  C9  UNL     1      -4.800   3.328  13.857  1.00  0.00     0.087 C 
ENDROOT
BRANCH   6   7
HETATM    7  O2  UNL     1      -6.105   3.835  14.115  1.00  0.00    -0.387 OA
ATOM      8  H2  UNL     1      -6.728   3.166  13.857  1.00  0.00     0.210 HD
ENDBRANCH   6   7
BRANCH   6   9
HETATM    9  C10 UNL     1      -4.298   2.534  14.984  1.00  0.00     0.044 C 
BRANCH   9  10
HETATM   10  C11 UNL     1      -5.066   1.402  15.517  1.00  0.00    -0.020 C 
HETATM   11  C12 UNL     1      -5.351   1.747  16.997  1.00  0.00     0.009 C 
HETATM   12  C13 UNL     1      -4.336   0.083  15.540  1.00  0.00     0.009 C 
ENDBRANCH   9  10
ENDBRANCH   6   9
BRANCH   1  13
HETATM   13  O1  UNL     1      -3.085   5.010  14.212  1.00  0.00    -0.386 OA
HETATM   14  C1  UNL     1      -3.290   6.360  14.330  1.00  0.00     0.202 C 
ENDBRANCH   1  13
BRANCH   3  15
HETATM   15  C4  UNL     1      -1.788   2.477  11.048  1.00  0.00     0.071 C 
HETATM   16  C5  UNL     1      -1.562   1.018  10.748  1.00  0.00     0.031 C 
HETATM   17  C6  UNL     1      -0.494   3.171  11.485  1.00  0.00     0.031 C 
ENDBRANCH   3  15
TORSDOF 5
ENDMDL
