MODEL 1
REMARK VINA RESULT: -6.710676588      0.000      0.000
REMARK  4 active torsions:
REMARK  status: ('A' for Active; 'I' for Inactive)
REMARK    1  A    between atoms: O1_1  and  C1_3 
REMARK    2  A    between atoms: C1_3  and  C2_4 
REMARK    3  A    between atoms: C2_4  and  C3_5 
REMARK    4  A    between atoms: C3_5  and  C4_6 
ROOT
HETATM    1  C4  UNL     1      -5.746   3.463  14.512  1.00  0.00     0.023 C 
HETATM    2  C5  UNL     1      -5.224   4.738  15.105  1.00  0.00     0.037 C 
HETATM    3  C6  UNL     1      -3.761   4.761  14.717  1.00  0.00     0.273 C 
HETATM    4  N1  UNL     1      -3.606   3.833  13.613  1.00  0.00     0.100 N 
HETATM    5  C7  UNL     1      -4.123   4.465  12.434  1.00  0.00     0.317 C 
HETATM    6  C8  UNL     1      -4.214   3.494  11.298  1.00  0.00     0.088 C 
HETATM    7  N2  UNL     1      -4.429   2.159  11.621  1.00  0.00    -0.385 N 
HETATM    8  C9  UNL     1      -3.647   1.250  10.860  1.00  0.00     0.122 C 
HETATM    9  C10 UNL     1      -4.342  -0.110  10.903  1.00  0.00     0.020 C 
HETATM   10  C11 UNL     1      -4.273  -0.607  12.308  1.00  0.00     0.004 C 
HETATM   11  C12 UNL     1      -4.171   0.438  13.350  1.00  0.00     0.027 C 
HETATM   12  C13 UNL     1      -4.776   1.781  12.922  1.00  0.00     0.117 C 
HETATM   13  C14 UNL     1      -4.485   2.756  14.012  1.00  0.00     0.250 C 
ENDROOT
BRANCH   1  14
HETATM   14  C3  UNL     1      -6.360   2.639  15.621  1.00  0.00     0.009 C 
BRANCH  14  15
HETATM   15  C2  UNL     1      -5.295   2.022  16.490  1.00  0.00     0.026 C 
BRANCH  15  16
HETATM   16  C1  UNL     1      -5.812   0.922  17.358  1.00  0.00     0.164 C 
BRANCH  16  17
HETATM   17  O1  UNL     1      -6.719   0.170  16.619  1.00  0.00    -0.401 OA
ATOM     18  H1  UNL     1      -7.019  -0.552  17.159  1.00  0.00     0.209 HD
ENDBRANCH  16  17
ENDBRANCH  15  16
ENDBRANCH  14  15
ENDBRANCH   1  14
TORSDOF 4
ENDMDL
MODEL 2
REMARK VINA RESULT: -6.251921904      0.967      3.815
REMARK  4 active torsions:
REMARK  status: ('A' for Active; 'I' for Inactive)
REMARK    1  A    between atoms: O1_1  and  C1_3 
REMARK    2  A    between atoms: C1_3  and  C2_4 
REMARK    3  A    between atoms: C2_4  and  C3_5 
REMARK    4  A    between atoms: C3_5  and  C4_6 
ROOT
HETATM    1  C4  UNL     1      -3.995   0.736  13.315  1.00  0.00     0.023 C 
HETATM    2  C5  UNL     1      -4.117  -0.148  12.109  1.00  0.00     0.037 C 
HETATM    3  C6  UNL     1      -4.871   0.694  11.102  1.00  0.00     0.273 C 
HETATM    4  N1  UNL     1      -4.753   2.072  11.536  1.00  0.00     0.100 N 
HETATM    5  C7  UNL     1      -3.432   2.523  11.207  1.00  0.00     0.317 C 
HETATM    6  C8  UNL     1      -3.148   3.857  11.826  1.00  0.00     0.088 C 
HETATM    7  N2  UNL     1      -3.794   4.151  13.022  1.00  0.00    -0.385 N 
HETATM    8  C9  UNL     1      -4.291   5.480  13.095  1.00  0.00     0.122 C 
HETATM    9  C10 UNL     1      -4.460   5.831  14.572  1.00  0.00     0.020 C 
HETATM   10  C11 UNL     1      -5.548   4.970  15.118  1.00  0.00     0.004 C 
HETATM   11  C12 UNL     1      -5.751   3.680  14.422  1.00  0.00     0.027 C 
HETATM   12  C13 UNL     1      -4.486   3.162  13.727  1.00  0.00     0.117 C 
HETATM   13  C14 UNL     1      -4.877   1.938  12.971  1.00  0.00     0.250 C 
ENDROOT
BRANCH   1  14
HETATM   14  C3  UNL     1      -4.598   0.012  14.498  1.00  0.00     0.009 C 
BRANCH  14  15
HETATM   15  C2  UNL     1      -4.188   0.659  15.795  1.00  0.00     0.026 C 
BRANCH  15  16
HETATM   16  C1  UNL     1      -5.322   0.819  16.754  1.00  0.00     0.164 C 
BRANCH  16  17
HETATM   17  O1  UNL     1      -5.843  -0.440  17.030  1.00  0.00    -0.401 OA
ATOM     18  H1  UNL     1      -5.629  -1.018  16.308  1.00  0.00     0.209 HD
ENDBRANCH  16  17
ENDBRANCH  15  16
ENDBRANCH  14  15
ENDBRANCH   1  14
TORSDOF 4
ENDMDL
MODEL 3
REMARK VINA RESULT: -5.960172302      1.663      3.991
REMARK  4 active torsions:
REMARK  status: ('A' for Active; 'I' for Inactive)
REMARK    1  A    between atoms: O1_1  and  C1_3 
REMARK    2  A    between atoms: C1_3  and  C2_4 
REMARK    3  A    between atoms: C2_4  and  C3_5 
REMARK    4  A    between atoms: C3_5  and  C4_6 
ROOT
HETATM    1  C4  UNL     1      -4.081   1.832  13.583  1.00  0.00     0.023 C 
HETATM    2  C5  UNL     1      -4.560   0.917  12.494  1.00  0.00     0.037 C 
HETATM    3  C6  UNL     1      -4.665   1.807  11.275  1.00  0.00     0.273 C 
HETATM    4  N1  UNL     1      -3.865   2.985  11.546  1.00  0.00     0.100 N 
HETATM    5  C7  UNL     1      -2.486   2.622  11.395  1.00  0.00     0.317 C 
HETATM    6  C8  UNL     1      -1.585   3.715  11.880  1.00  0.00     0.088 C 
HETATM    7  N2  UNL     1      -2.067   4.528  12.900  1.00  0.00    -0.385 N 
HETATM    8  C9  UNL     1      -1.782   5.908  12.718  1.00  0.00     0.122 C 
HETATM    9  C10 UNL     1      -1.855   6.581  14.088  1.00  0.00     0.020 C 
HETATM   10  C11 UNL     1      -3.274   6.524  14.543  1.00  0.00     0.004 C 
HETATM   11  C12 UNL     1      -4.078   5.412  13.991  1.00  0.00     0.027 C 
HETATM   12  C13 UNL     1      -3.233   4.194  13.595  1.00  0.00     0.117 C 
HETATM   13  C14 UNL     1      -4.155   3.220  12.943  1.00  0.00     0.250 C 
ENDROOT
BRANCH   1  14
HETATM   14  C3  UNL     1      -5.069   1.769  14.726  1.00  0.00     0.009 C 
BRANCH  14  15
HETATM   15  C2  UNL     1      -4.522   0.955  15.869  1.00  0.00     0.026 C 
BRANCH  15  16
HETATM   16  C1  UNL     1      -5.478   0.832  17.010  1.00  0.00     0.164 C 
BRANCH  16  17
HETATM   17  O1  UNL     1      -5.847  -0.504  17.131  1.00  0.00    -0.401 OA
ATOM     18  H1  UNL     1      -5.171  -1.039  16.732  1.00  0.00     0.209 HD
ENDBRANCH  16  17
ENDBRANCH  15  16
ENDBRANCH  14  15
ENDBRANCH   1  14
TORSDOF 4
ENDMDL
MODEL 4
REMARK VINA RESULT: -5.955834108      1.964      4.086
REMARK  4 active torsions:
REMARK  status: ('A' for Active; 'I' for Inactive)
REMARK    1  A    between atoms: O1_1  and  C1_3 
REMARK    2  A    between atoms: C1_3  and  C2_4 
REMARK    3  A    between atoms: C2_4  and  C3_5 
REMARK    4  A    between atoms: C3_5  and  C4_6 
ROOT
HETATM    1  C4  UNL     1      -3.848   1.441  12.998  1.00  0.00     0.023 C 
HETATM    2  C5  UNL     1      -4.271   0.010  12.841  1.00  0.00     0.037 C 
HETATM    3  C6  UNL     1      -4.329  -0.203  11.344  1.00  0.00     0.273 C 
HETATM    4  N1  UNL     1      -3.551   0.861  10.739  1.00  0.00     0.100 N 
HETATM    5  C7  UNL     1      -2.163   0.545  10.920  1.00  0.00     0.317 C 
HETATM    6  C8  UNL     1      -1.293   1.700  10.531  1.00  0.00     0.088 C 
HETATM    7  N2  UNL     1      -1.826   2.975  10.685  1.00  0.00    -0.385 N 
HETATM    8  C9  UNL     1      -1.544   3.850   9.602  1.00  0.00     0.122 C 
HETATM    9  C10 UNL     1      -1.683   5.282  10.114  1.00  0.00     0.020 C 
HETATM   10  C11 UNL     1      -3.120   5.507  10.442  1.00  0.00     0.004 C 
HETATM   11  C12 UNL     1      -3.890   4.295  10.799  1.00  0.00     0.027 C 
HETATM   12  C13 UNL     1      -3.020   3.176  11.385  1.00  0.00     0.117 C 
HETATM   13  C14 UNL     1      -3.904   1.990  11.570  1.00  0.00     0.250 C 
ENDROOT
BRANCH   1  14
HETATM   14  C3  UNL     1      -4.885   2.154  13.836  1.00  0.00     0.009 C 
BRANCH  14  15
HETATM   15  C2  UNL     1      -4.303   2.602  15.151  1.00  0.00     0.026 C 
BRANCH  15  16
HETATM   16  C1  UNL     1      -4.573   1.647  16.267  1.00  0.00     0.164 C 
BRANCH  16  17
HETATM   17  O1  UNL     1      -3.543   0.714  16.304  1.00  0.00    -0.401 OA
ATOM     18  H1  UNL     1      -2.720   1.179  16.391  1.00  0.00     0.209 HD
ENDBRANCH  16  17
ENDBRANCH  15  16
ENDBRANCH  14  15
ENDBRANCH   1  14
TORSDOF 4
ENDMDL
MODEL 5
REMARK VINA RESULT: -5.808053059      2.331      3.712
REMARK  4 active torsions:
REMARK  status: ('A' for Active; 'I' for Inactive)
REMARK    1  A    between atoms: O1_1  and  C1_3 
REMARK    2  A    between atoms: C1_3  and  C2_4 
REMARK    3  A    between atoms: C2_4  and  C3_5 
REMARK    4  A    between atoms: C3_5  and  C4_6 
ROOT
HETATM    1  C4  UNL     1      -4.343   4.324  14.286  1.00  0.00     0.023 C 
HETATM    2  C5  UNL     1      -5.286   4.869  15.319  1.00  0.00     0.037 C 
HETATM    3  C6  UNL     1      -6.447   3.899  15.317  1.00  0.00     0.273 C 
HETATM    4  N1  UNL     1      -5.972   2.679  14.693  1.00  0.00     0.100 N 
HETATM    5  C7  UNL     1      -5.152   1.990  15.647  1.00  0.00     0.317 C 
HETATM    6  C8  UNL     1      -4.436   0.839  15.010  1.00  0.00     0.088 C 
HETATM    7  N2  UNL     1      -4.125   0.955  13.660  1.00  0.00    -0.385 N 
HETATM    8  C9  UNL     1      -4.354  -0.231  12.914  1.00  0.00     0.122 C 
HETATM    9  C10 UNL     1      -3.496  -0.159  11.651  1.00  0.00     0.020 C 
HETATM   10  C11 UNL     1      -4.029   0.950  10.808  1.00  0.00     0.004 C 
HETATM   11  C12 UNL     1      -4.732   2.027  11.539  1.00  0.00     0.027 C 
HETATM   12  C13 UNL     1      -4.265   2.176  12.992  1.00  0.00     0.117 C 
HETATM   13  C14 UNL     1      -5.144   3.199  13.627  1.00  0.00     0.250 C 
ENDROOT
BRANCH   1  14
HETATM   14  C3  UNL     1      -4.085   5.405  13.260  1.00  0.00     0.009 C 
BRANCH  14  15
HETATM   15  C2  UNL     1      -2.608   5.599  13.038  1.00  0.00     0.026 C 
BRANCH  15  16
HETATM   16  C1  UNL     1      -1.766   4.798  13.976  1.00  0.00     0.164 C 
BRANCH  16  17
HETATM   17  O1  UNL     1      -1.032   3.880  13.233  1.00  0.00    -0.401 OA
ATOM     18  H1  UNL     1      -0.773   3.169  13.806  1.00  0.00     0.209 HD
ENDBRANCH  16  17
ENDBRANCH  15  16
ENDBRANCH  14  15
ENDBRANCH   1  14
TORSDOF 4
ENDMDL
