MODEL 1
REMARK VINA RESULT: -6.779081037      0.000      0.000
REMARK  5 active torsions:
REMARK  status: ('A' for Active; 'I' for Inactive)
REMARK    1  A    between atoms: C2_2  and  C4_4 
REMARK    2  A    between atoms: C5_5  and  C6_6 
REMARK    3  A    between atoms: C7_7  and  C8_8 
REMARK    4  A    between atoms: C12_14  and  C13_15 
REMARK    5  A    between atoms: C13_15  and  O3_16 
ROOT
HETATM    1  C8  UNL     1      -4.205   1.262  11.070  1.00  0.00     0.066 C 
HETATM    2  C9  UNL     1      -2.756   0.944  11.474  1.00  0.00     0.048 C 
HETATM    3  C10 UNL     1      -2.527  -0.354  10.786  1.00  0.00     0.156 C 
HETATM    4  O1  UNL     1      -3.458  -0.340   9.718  1.00  0.00    -0.353 OA
HETATM    5  C11 UNL     1      -4.606  -0.102  10.519  1.00  0.00     0.268 C 
HETATM    6  O2  UNL     1      -4.535  -1.083  11.488  1.00  0.00    -0.351 OA
HETATM    7  C12 UNL     1      -3.195  -1.443  11.625  1.00  0.00     0.177 C 
ENDROOT
BRANCH   1   8
HETATM    8  C7  UNL     1      -5.008   1.665  12.224  1.00  0.00    -0.017 C 
HETATM    9  C6  UNL     1      -4.395   1.966  13.354  1.00  0.00    -0.004 C 
BRANCH   9  10
HETATM   10  C5  UNL     1      -5.107   2.379  14.554  1.00  0.00    -0.004 C 
HETATM   11  C4  UNL     1      -5.329   1.547  15.556  1.00  0.00    -0.023 C 
BRANCH  11  12
HETATM   12  C2  UNL     1      -6.057   1.997  16.761  1.00  0.00    -0.000 C 
HETATM   13  C1  UNL     1      -6.712   3.335  16.514  1.00  0.00     0.013 C 
HETATM   14  C3  UNL     1      -7.090   0.959  17.186  1.00  0.00     0.013 C 
ENDBRANCH  11  12
ENDBRANCH   9  10
ENDBRANCH   1   8
BRANCH   7  15
HETATM   15  C13 UNL     1      -2.907  -2.765  10.937  1.00  0.00     0.198 C 
BRANCH  15  16
HETATM   16  O3  UNL     1      -2.953  -3.783  11.887  1.00  0.00    -0.398 OA
ATOM     17  H3  UNL     1      -2.658  -4.590  11.483  1.00  0.00     0.209 HD
ENDBRANCH  15  16
ENDBRANCH   7  15
TORSDOF 5
ENDMDL
MODEL 2
REMARK VINA RESULT: -6.539354465      4.692      6.521
REMARK  5 active torsions:
REMARK  status: ('A' for Active; 'I' for Inactive)
REMARK    1  A    between atoms: C2_2  and  C4_4 
REMARK    2  A    between atoms: C5_5  and  C6_6 
REMARK    3  A    between atoms: C7_7  and  C8_8 
REMARK    4  A    between atoms: C12_14  and  C13_15 
REMARK    5  A    between atoms: C13_15  and  O3_16 
ROOT
HETATM    1  C8  UNL     1      -4.146   3.104  14.621  1.00  0.00     0.066 C 
HETATM    2  C9  UNL     1      -3.588   2.414  15.878  1.00  0.00     0.048 C 
HETATM    3  C10 UNL     1      -4.595   1.346  16.111  1.00  0.00     0.156 C 
HETATM    4  O1  UNL     1      -5.172   1.140  14.833  1.00  0.00    -0.353 OA
HETATM    5  C11 UNL     1      -5.543   2.492  14.612  1.00  0.00     0.268 C 
HETATM    6  O2  UNL     1      -6.251   2.825  15.751  1.00  0.00    -0.351 OA
HETATM    7  C12 UNL     1      -5.808   1.995  16.779  1.00  0.00     0.177 C 
ENDROOT
BRANCH   1   8
HETATM    8  C7  UNL     1      -4.165   4.558  14.770  1.00  0.00    -0.017 C 
HETATM    9  C6  UNL     1      -3.161   5.263  14.280  1.00  0.00    -0.004 C 
BRANCH   9  10
HETATM   10  C5  UNL     1      -3.092   6.713  14.378  1.00  0.00    -0.004 C 
HETATM   11  C4  UNL     1      -1.945   7.349  14.542  1.00  0.00    -0.023 C 
BRANCH  11  12
HETATM   12  C2  UNL     1      -1.911   8.823  14.638  1.00  0.00    -0.000 C 
HETATM   13  C1  UNL     1      -0.707   9.273  15.430  1.00  0.00     0.013 C 
HETATM   14  C3  UNL     1      -1.911   9.454  13.248  1.00  0.00     0.013 C 
ENDBRANCH  11  12
ENDBRANCH   9  10
ENDBRANCH   1   8
BRANCH   7  15
HETATM   15  C13 UNL     1      -6.803   0.883  17.057  1.00  0.00     0.198 C 
BRANCH  15  16
HETATM   16  O3  UNL     1      -6.104  -0.311  17.217  1.00  0.00    -0.398 OA
ATOM     17  H3  UNL     1      -6.543  -0.991  16.718  1.00  0.00     0.209 HD
ENDBRANCH  15  16
ENDBRANCH   7  15
TORSDOF 5
ENDMDL
MODEL 3
REMARK VINA RESULT: -6.178494986      4.476      6.209
REMARK  5 active torsions:
REMARK  status: ('A' for Active; 'I' for Inactive)
REMARK    1  A    between atoms: C2_2  and  C4_4 
REMARK    2  A    between atoms: C5_5  and  C6_6 
REMARK    3  A    between atoms: C7_7  and  C8_8 
REMARK    4  A    between atoms: C12_14  and  C13_15 
REMARK    5  A    between atoms: C13_15  and  O3_16 
ROOT
HETATM    1  C8  UNL     1      -4.560   4.639  14.752  1.00  0.00     0.066 C 
HETATM    2  C9  UNL     1      -5.491   3.810  15.653  1.00  0.00     0.048 C 
HETATM    3  C10 UNL     1      -4.735   2.538  15.784  1.00  0.00     0.156 C 
HETATM    4  O1  UNL     1      -3.391   2.917  15.539  1.00  0.00    -0.353 OA
HETATM    5  C11 UNL     1      -3.631   3.526  14.279  1.00  0.00     0.268 C 
HETATM    6  O2  UNL     1      -4.317   2.556  13.574  1.00  0.00    -0.351 OA
HETATM    7  C12 UNL     1      -4.958   1.736  14.501  1.00  0.00     0.177 C 
ENDROOT
BRANCH   1   8
HETATM    8  C7  UNL     1      -5.294   5.268  13.655  1.00  0.00    -0.017 C 
HETATM    9  C6  UNL     1      -4.627   5.994  12.775  1.00  0.00    -0.004 C 
BRANCH   9  10
HETATM   10  C5  UNL     1      -5.269   6.657  11.650  1.00  0.00    -0.004 C 
HETATM   11  C4  UNL     1      -6.510   7.105  11.717  1.00  0.00    -0.023 C 
BRANCH  11  12
HETATM   12  C2  UNL     1      -7.132   7.773  10.555  1.00  0.00    -0.000 C 
HETATM   13  C1  UNL     1      -6.554   9.155  10.367  1.00  0.00     0.013 C 
HETATM   14  C3  UNL     1      -6.953   6.935   9.292  1.00  0.00     0.013 C 
ENDBRANCH  11  12
ENDBRANCH   9  10
ENDBRANCH   1   8
BRANCH   7  15
HETATM   15  C13 UNL     1      -4.222   0.420  14.674  1.00  0.00     0.198 C 
BRANCH  15  16
HETATM   16  O3  UNL     1      -3.822   0.303  16.003  1.00  0.00    -0.398 OA
ATOM     17  H3  UNL     1      -4.191  -0.495  16.363  1.00  0.00     0.209 HD
ENDBRANCH  15  16
ENDBRANCH   7  15
TORSDOF 5
ENDMDL
MODEL 4
REMARK VINA RESULT: -5.970548870      4.700      6.455
REMARK  5 active torsions:
REMARK  status: ('A' for Active; 'I' for Inactive)
REMARK    1  A    between atoms: C2_2  and  C4_4 
REMARK    2  A    between atoms: C5_5  and  C6_6 
REMARK    3  A    between atoms: C7_7  and  C8_8 
REMARK    4  A    between atoms: C12_14  and  C13_15 
REMARK    5  A    between atoms: C13_15  and  O3_16 
ROOT
HETATM    1  C8  UNL     1      -4.308   4.839  14.741  1.00  0.00     0.066 C 
HETATM    2  C9  UNL     1      -5.652   4.103  14.868  1.00  0.00     0.048 C 
HETATM    3  C10 UNL     1      -5.213   2.723  15.206  1.00  0.00     0.156 C 
HETATM    4  O1  UNL     1      -3.932   2.908  15.782  1.00  0.00    -0.353 OA
HETATM    5  C11 UNL     1      -3.377   3.631  14.694  1.00  0.00     0.268 C 
HETATM    6  O2  UNL     1      -3.641   2.828  13.602  1.00  0.00    -0.351 OA
HETATM    7  C12 UNL     1      -4.759   2.055  13.908  1.00  0.00     0.177 C 
ENDROOT
BRANCH   1   8
HETATM    8  C7  UNL     1      -4.250   5.646  13.524  1.00  0.00    -0.017 C 
HETATM    9  C6  UNL     1      -5.371   5.904  12.875  1.00  0.00    -0.004 C 
BRANCH   9  10
HETATM   10  C5  UNL     1      -5.414   6.699  11.657  1.00  0.00    -0.004 C 
HETATM   11  C4  UNL     1      -6.494   7.370  11.298  1.00  0.00    -0.023 C 
BRANCH  11  12
HETATM   12  C2  UNL     1      -6.505   8.167  10.053  1.00  0.00    -0.000 C 
HETATM   13  C1  UNL     1      -7.765   7.902   9.266  1.00  0.00     0.013 C 
HETATM   14  C3  UNL     1      -6.364   9.654  10.365  1.00  0.00     0.013 C 
ENDBRANCH  11  12
ENDBRANCH   9  10
ENDBRANCH   1   8
BRANCH   7  15
HETATM   15  C13 UNL     1      -4.364   0.633  14.263  1.00  0.00     0.198 C 
BRANCH  15  16
HETATM   16  O3  UNL     1      -5.119   0.220  15.359  1.00  0.00    -0.398 OA
ATOM     17  H3  UNL     1      -4.993  -0.714  15.481  1.00  0.00     0.209 HD
ENDBRANCH  15  16
ENDBRANCH   7  15
TORSDOF 5
ENDMDL
MODEL 5
REMARK VINA RESULT: -5.941568775      4.109      5.238
REMARK  5 active torsions:
REMARK  status: ('A' for Active; 'I' for Inactive)
REMARK    1  A    between atoms: C2_2  and  C4_4 
REMARK    2  A    between atoms: C5_5  and  C6_6 
REMARK    3  A    between atoms: C7_7  and  C8_8 
REMARK    4  A    between atoms: C12_14  and  C13_15 
REMARK    5  A    between atoms: C13_15  and  O3_16 
ROOT
HETATM    1  C8  UNL     1      -3.588   3.420  12.070  1.00  0.00     0.066 C 
HETATM    2  C9  UNL     1      -4.609   2.557  12.831  1.00  0.00     0.048 C 
HETATM    3  C10 UNL     1      -4.198   1.183  12.439  1.00  0.00     0.156 C 
HETATM    4  O1  UNL     1      -2.833   1.326  12.086  1.00  0.00    -0.353 OA
HETATM    5  C11 UNL     1      -3.029   2.356  11.130  1.00  0.00     0.268 C 
HETATM    6  O2  UNL     1      -4.008   1.847  10.299  1.00  0.00    -0.351 OA
HETATM    7  C12 UNL     1      -4.745   0.922  11.036  1.00  0.00     0.177 C 
ENDROOT
BRANCH   1   8
HETATM    8  C7  UNL     1      -4.237   4.520  11.358  1.00  0.00    -0.017 C 
HETATM    9  C6  UNL     1      -4.386   5.678  11.974  1.00  0.00    -0.004 C 
BRANCH   9  10
HETATM   10  C5  UNL     1      -5.017   6.830  11.349  1.00  0.00    -0.004 C 
HETATM   11  C4  UNL     1      -6.311   7.070  11.469  1.00  0.00    -0.023 C 
BRANCH  11  12
HETATM   12  C2  UNL     1      -6.921   8.249  10.819  1.00  0.00    -0.000 C 
HETATM   13  C1  UNL     1      -5.862   9.265  10.467  1.00  0.00     0.013 C 
HETATM   14  C3  UNL     1      -7.708   7.834   9.579  1.00  0.00     0.013 C 
ENDBRANCH  11  12
ENDBRANCH   9  10
ENDBRANCH   1   8
BRANCH   7  15
HETATM   15  C13 UNL     1      -4.362  -0.501  10.674  1.00  0.00     0.198 C 
BRANCH  15  16
HETATM   16  O3  UNL     1      -3.597  -0.476   9.510  1.00  0.00    -0.398 OA
ATOM     17  H3  UNL     1      -3.970  -1.088   8.887  1.00  0.00     0.209 HD
ENDBRANCH  15  16
ENDBRANCH   7  15
TORSDOF 5
ENDMDL
