MODEL 1
REMARK VINA RESULT: -7.848867723      0.000      0.000
REMARK  6 active torsions:
REMARK  status: ('A' for Active; 'I' for Inactive)
REMARK    1  A    between atoms: C2_2  and  C4_4 
REMARK    2  A    between atoms: C4_4  and  C5_5 
REMARK    3  A    between atoms: C6_8  and  O1_9 
REMARK    4  A    between atoms: O1_9  and  C7_10 
REMARK    5  A    between atoms: C7_10  and  C8_11 
REMARK    6  A    between atoms: C16_27  and  O3_28 
ROOT
HETATM    1  C5  UNL     1      -3.437   3.744  13.609  1.00  0.00     0.133 C 
HETATM    2  N1  UNL     1      -3.502   2.612  12.740  1.00  0.00    -0.345 N 
ATOM      3  H1  UNL     1      -3.414   1.697  13.181  1.00  0.00     0.163 HD
HETATM    4  C6  UNL     1      -3.659   2.620  11.464  1.00  0.00     0.188 C 
HETATM    5  C9  UNL     1      -3.796   3.883  10.737  1.00  0.00     0.213 C 
HETATM    6  O2  UNL     1      -4.012   3.877   9.530  1.00  0.00    -0.287 OA
HETATM    7  C10 UNL     1      -3.673   5.198  11.454  1.00  0.00     0.138 C 
HETATM    8  S1  UNL     1      -4.712   4.924  12.933  1.00  0.00    -0.119 SA
HETATM    9  C11 UNL     1      -2.314   5.243  12.011  1.00  0.00     0.082 C 
HETATM   10  C12 UNL     1      -1.716   6.575  12.276  1.00  0.00     0.032 C 
HETATM   11  C13 UNL     1      -2.019   7.631  11.269  1.00  0.00     0.025 C 
HETATM   12  C14 UNL     1      -0.204   6.416  12.386  1.00  0.00     0.025 C 
HETATM   13  C15 UNL     1      -2.188   6.889  13.638  1.00  0.00     0.171 C 
HETATM   14  F4  UNL     1      -2.301   8.155  14.189  1.00  0.00    -0.191 F 
HETATM   15  N2  UNL     1      -2.474   5.796  14.223  1.00  0.00    -0.335 N 
ATOM     16  H2  UNL     1      -2.823   5.741  15.180  1.00  0.00     0.164 HD
HETATM   17  C16 UNL     1      -2.253   4.647  13.390  1.00  0.00     0.175 C 
ENDROOT
BRANCH   4  18
HETATM   18  O1  UNL     1      -3.697   1.395  10.788  1.00  0.00    -0.324 OA
BRANCH  18  19
HETATM   19  C7  UNL     1      -4.665   0.430  11.129  1.00  0.00     0.294 C 
BRANCH  19  20
HETATM   20  C8  UNL     1      -4.033  -0.730  11.871  1.00  0.00     0.408 C 
HETATM   21  F1  UNL     1      -4.133  -0.509  13.229  1.00  0.00    -0.169 F 
HETATM   22  F2  UNL     1      -2.688  -0.740  11.555  1.00  0.00    -0.169 F 
HETATM   23  F3  UNL     1      -4.640  -1.916  11.586  1.00  0.00    -0.169 F 
ENDBRANCH  19  20
ENDBRANCH  18  19
ENDBRANCH   4  18
BRANCH   1  24
HETATM   24  C4  UNL     1      -3.705   3.490  15.041  1.00  0.00     0.051 C 
BRANCH  24  25
HETATM   25  C2  UNL     1      -4.732   2.416  15.232  1.00  0.00    -0.019 C 
HETATM   26  C1  UNL     1      -4.128   1.397  16.230  1.00  0.00     0.009 C 
HETATM   27  C3  UNL     1      -6.018   2.858  15.836  1.00  0.00     0.009 C 
ENDBRANCH  24  25
ENDBRANCH   1  24
BRANCH  17  28
HETATM   28  O3  UNL     1      -1.026   4.055  13.606  1.00  0.00    -0.367 OA
ATOM     29  H3  UNL     1      -0.458   4.523  14.206  1.00  0.00     0.212 HD
ENDBRANCH  17  28
TORSDOF 6
ENDMDL
MODEL 2
REMARK VINA RESULT: -7.781120051      0.821      1.191
REMARK  6 active torsions:
REMARK  status: ('A' for Active; 'I' for Inactive)
REMARK    1  A    between atoms: C2_2  and  C4_4 
REMARK    2  A    between atoms: C4_4  and  C5_5 
REMARK    3  A    between atoms: C6_8  and  O1_9 
REMARK    4  A    between atoms: O1_9  and  C7_10 
REMARK    5  A    between atoms: C7_10  and  C8_11 
REMARK    6  A    between atoms: C16_27  and  O3_28 
ROOT
HETATM    1  C5  UNL     1      -3.671   3.605  13.828  1.00  0.00     0.133 C 
HETATM    2  N1  UNL     1      -3.811   2.662  12.764  1.00  0.00    -0.345 N 
ATOM      3  H1  UNL     1      -3.665   1.682  13.006  1.00  0.00     0.163 HD
HETATM    4  C6  UNL     1      -4.101   2.912  11.537  1.00  0.00     0.188 C 
HETATM    5  C9  UNL     1      -4.329   4.287  11.090  1.00  0.00     0.213 C 
HETATM    6  O2  UNL     1      -4.669   4.509   9.933  1.00  0.00    -0.287 OA
HETATM    7  C10 UNL     1      -4.149   5.441  12.035  1.00  0.00     0.138 C 
HETATM    8  S1  UNL     1      -5.025   4.852  13.527  1.00  0.00    -0.119 SA
HETATM    9  C11 UNL     1      -2.740   5.423  12.452  1.00  0.00     0.082 C 
HETATM   10  C12 UNL     1      -2.135   6.696  12.913  1.00  0.00     0.032 C 
HETATM   11  C13 UNL     1      -2.555   7.917  12.168  1.00  0.00     0.025 C 
HETATM   12  C14 UNL     1      -0.618   6.569  12.838  1.00  0.00     0.025 C 
HETATM   13  C15 UNL     1      -2.467   6.725  14.350  1.00  0.00     0.171 C 
HETATM   14  F4  UNL     1      -2.539   7.855  15.148  1.00  0.00    -0.191 F 
HETATM   15  N2  UNL     1      -2.676   5.530  14.734  1.00  0.00    -0.335 N 
ATOM     16  H2  UNL     1      -2.922   5.279  15.692  1.00  0.00     0.164 HD
HETATM   17  C16 UNL     1      -2.528   4.573  13.674  1.00  0.00     0.175 C 
ENDROOT
BRANCH   4  18
HETATM   18  O1  UNL     1      -4.192   1.841  10.640  1.00  0.00    -0.324 OA
BRANCH  18  19
HETATM   19  C7  UNL     1      -4.512   0.552  11.112  1.00  0.00     0.294 C 
BRANCH  19  20
HETATM   20  C8  UNL     1      -3.315  -0.371  11.013  1.00  0.00     0.408 C 
HETATM   21  F1  UNL     1      -3.197  -0.824   9.716  1.00  0.00    -0.169 F 
HETATM   22  F2  UNL     1      -3.575  -1.471  11.810  1.00  0.00    -0.169 F 
HETATM   23  F3  UNL     1      -2.154   0.253  11.356  1.00  0.00    -0.169 F 
ENDBRANCH  19  20
ENDBRANCH  18  19
ENDBRANCH   4  18
BRANCH   1  24
HETATM   24  C4  UNL     1      -3.785   3.070  15.201  1.00  0.00     0.051 C 
BRANCH  24  25
HETATM   25  C2  UNL     1      -4.905   2.082  15.321  1.00  0.00    -0.019 C 
HETATM   26  C1  UNL     1      -4.279   0.764  15.843  1.00  0.00     0.009 C 
HETATM   27  C3  UNL     1      -5.971   2.435  16.296  1.00  0.00     0.009 C 
ENDBRANCH  24  25
ENDBRANCH   1  24
BRANCH  17  28
HETATM   28  O3  UNL     1      -1.278   3.991  13.646  1.00  0.00    -0.367 OA
ATOM     29  H3  UNL     1      -1.274   3.050  13.773  1.00  0.00     0.212 HD
ENDBRANCH  17  28
TORSDOF 6
ENDMDL
MODEL 3
REMARK VINA RESULT: -7.386871488      2.245      3.050
REMARK  6 active torsions:
REMARK  status: ('A' for Active; 'I' for Inactive)
REMARK    1  A    between atoms: C2_2  and  C4_4 
REMARK    2  A    between atoms: C4_4  and  C5_5 
REMARK    3  A    between atoms: C6_8  and  O1_9 
REMARK    4  A    between atoms: O1_9  and  C7_10 
REMARK    5  A    between atoms: C7_10  and  C8_11 
REMARK    6  A    between atoms: C16_27  and  O3_28 
ROOT
HETATM    1  C5  UNL     1      -2.133   4.334  12.848  1.00  0.00     0.133 C 
HETATM    2  N1  UNL     1      -3.045   3.250  13.029  1.00  0.00    -0.345 N 
ATOM      3  H1  UNL     1      -3.109   2.865  13.971  1.00  0.00     0.163 HD
HETATM    4  C6  UNL     1      -3.794   2.706  12.137  1.00  0.00     0.188 C 
HETATM    5  C9  UNL     1      -3.776   3.187  10.754  1.00  0.00     0.213 C 
HETATM    6  O2  UNL     1      -4.542   2.706   9.926  1.00  0.00    -0.287 OA
HETATM    7  C10 UNL     1      -2.823   4.268  10.331  1.00  0.00     0.138 C 
HETATM    8  S1  UNL     1      -3.011   5.490  11.677  1.00  0.00    -0.119 SA
HETATM    9  C11 UNL     1      -1.469   3.741  10.551  1.00  0.00     0.082 C 
HETATM   10  C12 UNL     1      -0.362   4.312   9.746  1.00  0.00     0.032 C 
HETATM   11  C13 UNL     1      -0.690   4.628   8.327  1.00  0.00     0.025 C 
HETATM   12  C14 UNL     1       0.813   3.341   9.777  1.00  0.00     0.025 C 
HETATM   13  C15 UNL     1       0.061   5.481  10.540  1.00  0.00     0.171 C 
HETATM   14  F4  UNL     1       0.729   6.595  10.058  1.00  0.00    -0.191 F 
HETATM   15  N2  UNL     1      -0.292   5.292  11.748  1.00  0.00    -0.335 N 
ATOM     16  H2  UNL     1      -0.113   5.957  12.501  1.00  0.00     0.164 HD
HETATM   17  C16 UNL     1      -0.970   4.040  11.937  1.00  0.00     0.175 C 
ENDROOT
BRANCH   4  18
HETATM   18  O1  UNL     1      -4.626   1.646  12.517  1.00  0.00    -0.324 OA
BRANCH  18  19
HETATM   19  C7  UNL     1      -4.079   0.367  12.743  1.00  0.00     0.294 C 
BRANCH  19  20
HETATM   20  C8  UNL     1      -4.129  -0.472  11.482  1.00  0.00     0.408 C 
HETATM   21  F1  UNL     1      -4.222  -1.804  11.827  1.00  0.00    -0.169 F 
HETATM   22  F2  UNL     1      -2.926  -0.301  10.824  1.00  0.00    -0.169 F 
HETATM   23  F3  UNL     1      -5.197  -0.158  10.697  1.00  0.00    -0.169 F 
ENDBRANCH  19  20
ENDBRANCH  18  19
ENDBRANCH   4  18
BRANCH   1  24
HETATM   24  C4  UNL     1      -1.733   5.069  14.066  1.00  0.00     0.051 C 
BRANCH  24  25
HETATM   25  C2  UNL     1      -2.475   6.363  14.202  1.00  0.00    -0.019 C 
HETATM   26  C1  UNL     1      -3.684   6.087  15.130  1.00  0.00     0.009 C 
HETATM   27  C3  UNL     1      -1.719   7.472  14.844  1.00  0.00     0.009 C 
ENDBRANCH  24  25
ENDBRANCH   1  24
BRANCH  17  28
HETATM   28  O3  UNL     1      -0.132   3.036  12.376  1.00  0.00    -0.367 OA
ATOM     29  H3  UNL     1       0.748   3.319  12.594  1.00  0.00     0.212 HD
ENDBRANCH  17  28
TORSDOF 6
ENDMDL
MODEL 4
REMARK VINA RESULT: -7.153246935      3.173      4.282
REMARK  6 active torsions:
REMARK  status: ('A' for Active; 'I' for Inactive)
REMARK    1  A    between atoms: C2_2  and  C4_4 
REMARK    2  A    between atoms: C4_4  and  C5_5 
REMARK    3  A    between atoms: C6_8  and  O1_9 
REMARK    4  A    between atoms: O1_9  and  C7_10 
REMARK    5  A    between atoms: C7_10  and  C8_11 
REMARK    6  A    between atoms: C16_27  and  O3_28 
ROOT
HETATM    1  C5  UNL     1      -4.214   3.169  12.890  1.00  0.00     0.133 C 
HETATM    2  N1  UNL     1      -4.485   2.189  13.894  1.00  0.00    -0.345 N 
ATOM      3  H1  UNL     1      -4.821   2.541  14.790  1.00  0.00     0.163 HD
HETATM    4  C6  UNL     1      -4.352   0.915  13.793  1.00  0.00     0.188 C 
HETATM    5  C9  UNL     1      -3.876   0.311  12.547  1.00  0.00     0.213 C 
HETATM    6  O2  UNL     1      -3.816  -0.909  12.439  1.00  0.00    -0.287 OA
HETATM    7  C10 UNL     1      -3.455   1.172  11.390  1.00  0.00     0.138 C 
HETATM    8  S1  UNL     1      -4.815   2.390  11.306  1.00  0.00    -0.119 SA
HETATM    9  C11 UNL     1      -2.320   1.978  11.861  1.00  0.00     0.082 C 
HETATM   10  C12 UNL     1      -1.363   2.489  10.850  1.00  0.00     0.032 C 
HETATM   11  C13 UNL     1      -1.051   1.559   9.728  1.00  0.00     0.025 C 
HETATM   12  C14 UNL     1      -0.065   2.867  11.555  1.00  0.00     0.025 C 
HETATM   13  C15 UNL     1      -1.975   3.762  10.423  1.00  0.00     0.171 C 
HETATM   14  F4  UNL     1      -1.750   4.411   9.220  1.00  0.00    -0.191 F 
HETATM   15  N2  UNL     1      -2.746   4.165  11.352  1.00  0.00    -0.335 N 
ATOM     16  H2  UNL     1      -3.288   5.028  11.303  1.00  0.00     0.164 HD
HETATM   17  C16 UNL     1      -2.770   3.273  12.478  1.00  0.00     0.175 C 
ENDROOT
BRANCH   4  18
HETATM   18  O1  UNL     1      -4.672   0.119  14.899  1.00  0.00    -0.324 OA
BRANCH  18  19
HETATM   19  C7  UNL     1      -4.399   0.581  16.203  1.00  0.00     0.294 C 
BRANCH  19  20
HETATM   20  C8  UNL     1      -5.682   0.819  16.971  1.00  0.00     0.408 C 
HETATM   21  F1  UNL     1      -5.399   1.533  18.117  1.00  0.00    -0.169 F 
HETATM   22  F2  UNL     1      -6.163  -0.415  17.366  1.00  0.00    -0.169 F 
HETATM   23  F3  UNL     1      -6.595   1.521  16.245  1.00  0.00    -0.169 F 
ENDBRANCH  19  20
ENDBRANCH  18  19
ENDBRANCH   4  18
BRANCH   1  24
HETATM   24  C4  UNL     1      -4.855   4.489  13.069  1.00  0.00     0.051 C 
BRANCH  24  25
HETATM   25  C2  UNL     1      -4.895   4.896  14.510  1.00  0.00    -0.019 C 
HETATM   26  C1  UNL     1      -3.998   6.153  14.641  1.00  0.00     0.009 C 
HETATM   27  C3  UNL     1      -6.230   5.299  15.027  1.00  0.00     0.009 C 
ENDBRANCH  24  25
ENDBRANCH   1  24
BRANCH  17  28
HETATM   28  O3  UNL     1      -1.908   3.655  13.484  1.00  0.00    -0.367 OA
ATOM     29  H3  UNL     1      -2.305   3.726  14.343  1.00  0.00     0.212 HD
ENDBRANCH  17  28
TORSDOF 6
ENDMDL
MODEL 5
REMARK VINA RESULT: -7.135114294      3.086      4.716
REMARK  6 active torsions:
REMARK  status: ('A' for Active; 'I' for Inactive)
REMARK    1  A    between atoms: C2_2  and  C4_4 
REMARK    2  A    between atoms: C4_4  and  C5_5 
REMARK    3  A    between atoms: C6_8  and  O1_9 
REMARK    4  A    between atoms: O1_9  and  C7_10 
REMARK    5  A    between atoms: C7_10  and  C8_11 
REMARK    6  A    between atoms: C16_27  and  O3_28 
ROOT
HETATM    1  C5  UNL     1      -3.550   2.676  12.008  1.00  0.00     0.133 C 
HETATM    2  N1  UNL     1      -4.541   2.455  13.013  1.00  0.00    -0.345 N 
ATOM      3  H1  UNL     1      -4.974   1.531  13.026  1.00  0.00     0.163 HD
HETATM    4  C6  UNL     1      -4.947   3.290  13.901  1.00  0.00     0.188 C 
HETATM    5  C9  UNL     1      -4.388   4.641  13.966  1.00  0.00     0.213 C 
HETATM    6  O2  UNL     1      -4.734   5.407  14.859  1.00  0.00    -0.287 OA
HETATM    7  C10 UNL     1      -3.390   5.107  12.946  1.00  0.00     0.138 C 
HETATM    8  S1  UNL     1      -2.239   3.690  12.863  1.00  0.00    -0.119 SA
HETATM    9  C11 UNL     1      -4.068   5.056  11.643  1.00  0.00     0.082 C 
HETATM   10  C12 UNL     1      -3.570   5.943  10.564  1.00  0.00     0.032 C 
HETATM   11  C13 UNL     1      -3.135   7.302  10.994  1.00  0.00     0.025 C 
HETATM   12  C14 UNL     1      -4.659   6.083   9.507  1.00  0.00     0.025 C 
HETATM   13  C15 UNL     1      -2.502   5.140   9.938  1.00  0.00     0.171 C 
HETATM   14  F4  UNL     1      -1.437   5.633   9.201  1.00  0.00    -0.191 F 
HETATM   15  N2  UNL     1      -2.726   3.913  10.189  1.00  0.00    -0.335 N 
ATOM     16  H2  UNL     1      -2.130   3.151   9.865  1.00  0.00     0.164 HD
HETATM   17  C16 UNL     1      -3.908   3.716  10.980  1.00  0.00     0.175 C 
ENDROOT
BRANCH   4  18
HETATM   18  O1  UNL     1      -5.935   2.878  14.804  1.00  0.00    -0.324 OA
BRANCH  18  19
HETATM   19  C7  UNL     1      -5.578   2.144  15.953  1.00  0.00     0.294 C 
BRANCH  19  20
HETATM   20  C8  UNL     1      -6.557   2.397  17.082  1.00  0.00     0.408 C 
HETATM   21  F1  UNL     1      -7.616   1.521  16.969  1.00  0.00    -0.169 F 
HETATM   22  F2  UNL     1      -7.061   3.673  16.913  1.00  0.00    -0.169 F 
HETATM   23  F3  UNL     1      -5.987   2.224  18.306  1.00  0.00    -0.169 F 
ENDBRANCH  19  20
ENDBRANCH  18  19
ENDBRANCH   4  18
BRANCH   1  24
HETATM   24  C4  UNL     1      -2.936   1.471  11.412  1.00  0.00     0.051 C 
BRANCH  24  25
HETATM   25  C2  UNL     1      -3.738   0.239  11.701  1.00  0.00    -0.019 C 
HETATM   26  C1  UNL     1      -4.813   0.138  10.591  1.00  0.00     0.009 C 
HETATM   27  C3  UNL     1      -2.985  -1.043  11.650  1.00  0.00     0.009 C 
ENDBRANCH  24  25
ENDBRANCH   1  24
BRANCH  17  28
HETATM   28  O3  UNL     1      -5.020   3.418  10.220  1.00  0.00    -0.367 OA
ATOM     29  H3  UNL     1      -4.831   3.136   9.332  1.00  0.00     0.212 HD
ENDBRANCH  17  28
TORSDOF 6
ENDMDL
