MODEL 1
REMARK VINA RESULT: -8.170047892      0.000      0.000
REMARK  4 active torsions:
REMARK  status: ('A' for Active; 'I' for Inactive)
REMARK       I    between atoms: C1_2  and  N1_3 
REMARK    1  A    between atoms: C1_2  and  C7_18 
REMARK    2  A    between atoms: N1_3  and  N2_5 
REMARK    3  A    between atoms: C2_7  and  C3_8 
REMARK    4  A    between atoms: C5_10  and  C6_11 
ROOT
HETATM    1  O1  UNL     1      -6.927   6.527  12.472  1.00  0.00    -0.271 OA
HETATM    2  C1  UNL     1      -5.840   6.602  11.880  1.00  0.00     0.245 C 
HETATM    3  N1  UNL     1      -4.742   5.774  12.285  1.00  0.00    -0.270 N 
ATOM      4  H1  UNL     1      -3.874   5.808  11.749  1.00  0.00     0.190 HD
ENDROOT
BRANCH   3   5
HETATM    5  N2  UNL     1      -4.820   4.942  13.367  1.00  0.00    -0.307 N 
HETATM    6  C2  UNL     1      -4.484   3.712  13.420  1.00  0.00     0.138 C 
ATOM      7  H2  UNL     1      -5.188   5.348  14.227  1.00  0.00     0.186 HD
BRANCH   6   8
HETATM    8  C3  UNL     1      -4.619   2.932  14.641  1.00  0.00     0.074 A 
HETATM    9  C4  UNL     1      -5.727   2.771  15.473  1.00  0.00     0.077 A 
HETATM   10  C5  UNL     1      -5.317   2.075  16.556  1.00  0.00     0.184 A 
HETATM   11  O2  UNL     1      -4.024   1.809  16.425  1.00  0.00    -0.233 OA
HETATM   12  N3  UNL     1      -3.606   2.325  15.265  1.00  0.00    -0.259 N 
ATOM     13  H3  UNL     1      -2.653   2.264  14.908  1.00  0.00     0.195 HD
BRANCH  10  14
HETATM   14  C6  UNL     1      -6.094   1.620  17.751  1.00  0.00     0.441 C 
HETATM   15  F1  UNL     1      -5.513   0.517  18.265  1.00  0.00    -0.164 F 
HETATM   16  F2  UNL     1      -6.245   2.669  18.637  1.00  0.00    -0.164 F 
HETATM   17  F3  UNL     1      -7.393   1.307  17.238  1.00  0.00    -0.164 F 
ENDBRANCH  10  14
ENDBRANCH   6   8
ENDBRANCH   3   5
BRANCH   2  18
HETATM   18  C7  UNL     1      -5.743   7.545  10.764  1.00  0.00     0.049 C 
HETATM   19  C8  UNL     1      -7.036   8.331  10.671  1.00  0.00     0.024 C 
HETATM   20  C9  UNL     1      -7.645   7.996   9.353  1.00  0.00    -0.009 C 
HETATM   21  C10 UNL     1      -7.624   9.069   8.323  1.00  0.00     0.052 C 
HETATM   22  C15 UNL     1      -7.072   6.662   8.917  1.00  0.00     0.010 C 
HETATM   23  C11 UNL     1      -6.303   9.694   8.061  1.00  0.00     0.218 C 
HETATM   24 CL1  UNL     1      -6.650  11.441   7.748  1.00  0.00    -0.095 Cl
HETATM   25  O3  UNL     1      -5.410   9.677   9.075  1.00  0.00    -0.365 OA
HETATM   26  C12 UNL     1      -4.475   8.744   9.198  1.00  0.00     0.125 C 
HETATM   27  C13 UNL     1      -4.775   7.451   8.529  1.00  0.00     0.038 C 
HETATM   28  C16 UNL     1      -4.491   8.310  10.669  1.00  0.00     0.051 C 
HETATM   29  C14 UNL     1      -5.654   6.728   9.463  1.00  0.00     0.006 C 
ENDBRANCH   2  18
TORSDOF 4
ENDMDL
MODEL 2
REMARK VINA RESULT: -7.973232276      4.591      5.567
REMARK  4 active torsions:
REMARK  status: ('A' for Active; 'I' for Inactive)
REMARK       I    between atoms: C1_2  and  N1_3 
REMARK    1  A    between atoms: C1_2  and  C7_18 
REMARK    2  A    between atoms: N1_3  and  N2_5 
REMARK    3  A    between atoms: C2_7  and  C3_8 
REMARK    4  A    between atoms: C5_10  and  C6_11 
ROOT
HETATM    1  O1  UNL     1      -1.151   2.175  11.754  1.00  0.00    -0.271 OA
HETATM    2  C1  UNL     1      -1.681   3.242  11.412  1.00  0.00     0.245 C 
HETATM    3  N1  UNL     1      -2.650   3.869  12.263  1.00  0.00    -0.270 N 
ATOM      4  H1  UNL     1      -3.031   4.776  11.992  1.00  0.00     0.190 HD
ENDROOT
BRANCH   3   5
HETATM    5  N2  UNL     1      -3.079   3.291  13.425  1.00  0.00    -0.307 N 
HETATM    6  C2  UNL     1      -4.143   2.608  13.601  1.00  0.00     0.138 C 
ATOM      7  H2  UNL     1      -2.483   3.419  14.243  1.00  0.00     0.186 HD
BRANCH   6   8
HETATM    8  C3  UNL     1      -4.487   2.045  14.896  1.00  0.00     0.074 A 
HETATM    9  C4  UNL     1      -5.491   2.421  15.789  1.00  0.00     0.077 A 
HETATM   10  C5  UNL     1      -5.318   1.696  16.916  1.00  0.00     0.184 A 
HETATM   11  O2  UNL     1      -4.266   0.904  16.754  1.00  0.00    -0.233 OA
HETATM   12  N3  UNL     1      -3.769   1.115  15.531  1.00  0.00    -0.259 N 
ATOM     13  H3  UNL     1      -2.958   0.636  15.139  1.00  0.00     0.195 HD
BRANCH  10  14
HETATM   14  C6  UNL     1      -6.113   1.694  18.183  1.00  0.00     0.441 C 
HETATM   15  F1  UNL     1      -5.524   0.872  19.076  1.00  0.00    -0.164 F 
HETATM   16  F2  UNL     1      -6.303   2.991  18.618  1.00  0.00    -0.164 F 
HETATM   17  F3  UNL     1      -7.395   1.181  17.804  1.00  0.00    -0.164 F 
ENDBRANCH  10  14
ENDBRANCH   6   8
ENDBRANCH   3   5
BRANCH   2  18
HETATM   18  C7  UNL     1      -1.265   3.822  10.134  1.00  0.00     0.049 C 
HETATM   19  C8  UNL     1      -0.334   2.852   9.433  1.00  0.00     0.024 C 
HETATM   20  C9  UNL     1       0.984   3.537   9.316  1.00  0.00    -0.009 C 
HETATM   21  C10 UNL     1       1.385   3.968   7.949  1.00  0.00     0.052 C 
HETATM   22  C15 UNL     1       1.030   4.615  10.380  1.00  0.00     0.010 C 
HETATM   23  C11 UNL     1       0.390   4.780   7.204  1.00  0.00     0.218 C 
HETATM   24 CL1  UNL     1       0.536   4.256   5.479  1.00  0.00    -0.095 Cl
HETATM   25  O3  UNL     1      -0.909   4.598   7.530  1.00  0.00    -0.365 OA
HETATM   26  C12 UNL     1      -1.550   5.371   8.397  1.00  0.00     0.125 C 
HETATM   27  C13 UNL     1      -0.688   6.068   9.386  1.00  0.00     0.038 C 
HETATM   28  C16 UNL     1      -2.330   4.427   9.320  1.00  0.00     0.051 C 
HETATM   29  C14 UNL     1      -0.420   5.072  10.436  1.00  0.00     0.006 C 
ENDBRANCH   2  18
TORSDOF 4
ENDMDL
MODEL 3
REMARK VINA RESULT: -7.930942841      4.832      5.821
REMARK  4 active torsions:
REMARK  status: ('A' for Active; 'I' for Inactive)
REMARK       I    between atoms: C1_2  and  N1_3 
REMARK    1  A    between atoms: C1_2  and  C7_18 
REMARK    2  A    between atoms: N1_3  and  N2_5 
REMARK    3  A    between atoms: C2_7  and  C3_8 
REMARK    4  A    between atoms: C5_10  and  C6_11 
ROOT
HETATM    1  O1  UNL     1      -2.539   4.685  12.157  1.00  0.00    -0.271 OA
HETATM    2  C1  UNL     1      -2.137   3.715  11.497  1.00  0.00     0.245 C 
HETATM    3  N1  UNL     1      -2.488   2.382  11.891  1.00  0.00    -0.270 N 
ATOM      4  H1  UNL     1      -2.198   1.601  11.303  1.00  0.00     0.190 HD
ENDROOT
BRANCH   3   5
HETATM    5  N2  UNL     1      -3.200   2.124  13.030  1.00  0.00    -0.307 N 
HETATM    6  C2  UNL     1      -3.708   1.010  13.387  1.00  0.00     0.138 C 
ATOM      7  H2  UNL     1      -3.339   2.910  13.665  1.00  0.00     0.186 HD
BRANCH   6   8
HETATM    8  C3  UNL     1      -4.448   0.868  14.631  1.00  0.00     0.074 A 
HETATM    9  C4  UNL     1      -5.187   1.818  15.338  1.00  0.00     0.077 A 
HETATM   10  C5  UNL     1      -5.562   1.246  16.503  1.00  0.00     0.184 A 
HETATM   11  O2  UNL     1      -5.089   0.007  16.540  1.00  0.00    -0.233 OA
HETATM   12  N3  UNL     1      -4.420  -0.220  15.406  1.00  0.00    -0.259 N 
ATOM     13  H3  UNL     1      -3.956  -1.095  15.166  1.00  0.00     0.195 HD
BRANCH  10  14
HETATM   14  C6  UNL     1      -6.373   1.810  17.627  1.00  0.00     0.441 C 
HETATM   15  F1  UNL     1      -5.699   1.653  18.784  1.00  0.00    -0.164 F 
HETATM   16  F2  UNL     1      -6.737   3.110  17.333  1.00  0.00    -0.164 F 
HETATM   17  F3  UNL     1      -7.571   1.027  17.636  1.00  0.00    -0.164 F 
ENDBRANCH  10  14
ENDBRANCH   6   8
ENDBRANCH   3   5
BRANCH   2  18
HETATM   18  C7  UNL     1      -1.319   3.996  10.315  1.00  0.00     0.049 C 
HETATM   19  C8  UNL     1      -0.264   2.916  10.181  1.00  0.00     0.024 C 
HETATM   20  C9  UNL     1       1.057   3.591  10.327  1.00  0.00    -0.009 C 
HETATM   21  C10 UNL     1       1.881   3.705   9.094  1.00  0.00     0.052 C 
HETATM   22  C15 UNL     1       0.821   4.886  11.078  1.00  0.00     0.010 C 
HETATM   23  C11 UNL     1       1.204   4.296   7.911  1.00  0.00     0.218 C 
HETATM   24 CL1  UNL     1       1.853   3.393   6.485  1.00  0.00    -0.095 Cl
HETATM   25  O3  UNL     1      -0.139   4.160   7.848  1.00  0.00    -0.365 OA
HETATM   26  C12 UNL     1      -0.980   5.094   8.272  1.00  0.00     0.125 C 
HETATM   27  C13 UNL     1      -0.434   6.024   9.294  1.00  0.00     0.038 C 
HETATM   28  C16 UNL     1      -2.050   4.367   9.095  1.00  0.00     0.051 C 
HETATM   29  C14 UNL     1      -0.552   5.304  10.573  1.00  0.00     0.006 C 
ENDBRANCH   2  18
TORSDOF 4
ENDMDL
MODEL 4
REMARK VINA RESULT: -7.927094771      1.212      1.495
REMARK  4 active torsions:
REMARK  status: ('A' for Active; 'I' for Inactive)
REMARK       I    between atoms: C1_2  and  N1_3 
REMARK    1  A    between atoms: C1_2  and  C7_18 
REMARK    2  A    between atoms: N1_3  and  N2_5 
REMARK    3  A    between atoms: C2_7  and  C3_8 
REMARK    4  A    between atoms: C5_10  and  C6_11 
ROOT
HETATM    1  O1  UNL     1      -5.056   4.678  10.344  1.00  0.00    -0.271 OA
HETATM    2  C1  UNL     1      -5.018   5.835  10.788  1.00  0.00     0.245 C 
HETATM    3  N1  UNL     1      -4.862   6.060  12.195  1.00  0.00    -0.270 N 
ATOM      4  H1  UNL     1      -4.774   7.018  12.535  1.00  0.00     0.190 HD
ENDROOT
BRANCH   3   5
HETATM    5  N2  UNL     1      -4.827   5.032  13.096  1.00  0.00    -0.307 N 
HETATM    6  C2  UNL     1      -5.618   4.840  14.078  1.00  0.00     0.138 C 
ATOM      7  H2  UNL     1      -4.086   4.343  12.970  1.00  0.00     0.186 HD
BRANCH   6   8
HETATM    8  C3  UNL     1      -5.471   3.700  14.969  1.00  0.00     0.074 A 
HETATM    9  C4  UNL     1      -6.349   3.212  15.939  1.00  0.00     0.077 A 
HETATM   10  C5  UNL     1      -5.704   2.228  16.603  1.00  0.00     0.184 A 
HETATM   11  O2  UNL     1      -4.487   2.096  16.091  1.00  0.00    -0.233 OA
HETATM   12  N3  UNL     1      -4.351   2.984  15.102  1.00  0.00    -0.259 N 
ATOM     13  H3  UNL     1      -3.514   3.099  14.531  1.00  0.00     0.195 HD
BRANCH  10  14
HETATM   14  C6  UNL     1      -6.179   1.365  17.729  1.00  0.00     0.441 C 
HETATM   15  F1  UNL     1      -5.434   0.241  17.772  1.00  0.00    -0.164 F 
HETATM   16  F2  UNL     1      -6.203   2.096  18.901  1.00  0.00    -0.164 F 
HETATM   17  F3  UNL     1      -7.535   1.052  17.397  1.00  0.00    -0.164 F 
ENDBRANCH  10  14
ENDBRANCH   6   8
ENDBRANCH   3   5
BRANCH   2  18
HETATM   18  C7  UNL     1      -5.124   6.932   9.823  1.00  0.00     0.049 C 
HETATM   19  C8  UNL     1      -5.039   8.250  10.567  1.00  0.00     0.024 C 
HETATM   20  C9  UNL     1      -6.343   8.940  10.359  1.00  0.00    -0.009 C 
HETATM   21  C10 UNL     1      -6.324  10.133   9.469  1.00  0.00     0.052 C 
HETATM   22  C15 UNL     1      -7.366   7.879  10.005  1.00  0.00     0.010 C 
HETATM   23  C11 UNL     1      -5.700   9.941   8.136  1.00  0.00     0.218 C 
HETATM   24 CL1  UNL     1      -4.848  11.495   7.775  1.00  0.00    -0.095 Cl
HETATM   25  O3  UNL     1      -4.758   8.978   8.039  1.00  0.00    -0.365 OA
HETATM   26  C12 UNL     1      -5.024   7.746   7.627  1.00  0.00     0.125 C 
HETATM   27  C13 UNL     1      -6.433   7.307   7.802  1.00  0.00     0.038 C 
HETATM   28  C16 UNL     1      -4.312   6.803   8.604  1.00  0.00     0.051 C 
HETATM   29  C14 UNL     1      -6.534   6.885   9.209  1.00  0.00     0.006 C 
ENDBRANCH   2  18
TORSDOF 4
ENDMDL
MODEL 5
REMARK VINA RESULT: -7.893435850      4.873      6.011
REMARK  4 active torsions:
REMARK  status: ('A' for Active; 'I' for Inactive)
REMARK       I    between atoms: C1_2  and  N1_3 
REMARK    1  A    between atoms: C1_2  and  C7_18 
REMARK    2  A    between atoms: N1_3  and  N2_5 
REMARK    3  A    between atoms: C2_7  and  C3_8 
REMARK    4  A    between atoms: C5_10  and  C6_11 
ROOT
HETATM    1  O1  UNL     1      -0.740   2.227  11.769  1.00  0.00    -0.271 OA
HETATM    2  C1  UNL     1      -1.101   3.410  11.685  1.00  0.00     0.245 C 
HETATM    3  N1  UNL     1      -2.116   3.917  12.563  1.00  0.00    -0.270 N 
ATOM      4  H1  UNL     1      -2.357   4.907  12.518  1.00  0.00     0.190 HD
ENDROOT
BRANCH   3   5
HETATM    5  N2  UNL     1      -2.770   3.115  13.457  1.00  0.00    -0.307 N 
HETATM    6  C2  UNL     1      -3.880   2.512  13.284  1.00  0.00     0.138 C 
ATOM      7  H2  UNL     1      -2.320   2.984  14.363  1.00  0.00     0.186 HD
BRANCH   6   8
HETATM    8  C3  UNL     1      -4.474   1.684  14.322  1.00  0.00     0.074 A 
HETATM    9  C4  UNL     1      -5.250   2.058  15.420  1.00  0.00     0.077 A 
HETATM   10  C5  UNL     1      -5.438   0.951  16.172  1.00  0.00     0.184 A 
HETATM   11  O2  UNL     1      -4.818  -0.068  15.591  1.00  0.00    -0.233 OA
HETATM   12  N3  UNL     1      -4.240   0.378  14.472  1.00  0.00    -0.259 N 
ATOM     13  H3  UNL     1      -3.699  -0.196  13.826  1.00  0.00     0.195 HD
BRANCH  10  14
HETATM   14  C6  UNL     1      -6.199   0.782  17.449  1.00  0.00     0.441 C 
HETATM   15  F1  UNL     1      -5.660   1.577  18.396  1.00  0.00    -0.164 F 
HETATM   16  F2  UNL     1      -7.547   0.978  17.219  1.00  0.00    -0.164 F 
HETATM   17  F3  UNL     1      -6.023  -0.596  17.794  1.00  0.00    -0.164 F 
ENDBRANCH  10  14
ENDBRANCH   6   8
ENDBRANCH   3   5
BRANCH   2  18
HETATM   18  C7  UNL     1      -0.443   4.247  10.679  1.00  0.00     0.049 C 
HETATM   19  C8  UNL     1       0.352   3.357   9.744  1.00  0.00     0.024 C 
HETATM   20  C9  UNL     1       1.783   3.739   9.908  1.00  0.00    -0.009 C 
HETATM   21  C10 UNL     1       2.408   4.467   8.771  1.00  0.00     0.052 C 
HETATM   22  C15 UNL     1       1.921   4.404  11.264  1.00  0.00     0.010 C 
HETATM   23  C11 UNL     1       1.677   5.665   8.285  1.00  0.00     0.218 C 
HETATM   24 CL1  UNL     1       1.907   5.674   6.491  1.00  0.00    -0.095 Cl
HETATM   25  O3  UNL     1       0.340   5.683   8.481  1.00  0.00    -0.365 OA
HETATM   26  C12 UNL     1      -0.230   6.275   9.522  1.00  0.00     0.125 C 
HETATM   27  C13 UNL     1       0.638   6.430  10.718  1.00  0.00     0.038 C 
HETATM   28  C16 UNL     1      -1.274   5.289  10.059  1.00  0.00     0.051 C 
HETATM   29  C14 UNL     1       0.591   5.128  11.402  1.00  0.00     0.006 C 
ENDBRANCH   2  18
TORSDOF 4
ENDMDL
