MODEL 1
REMARK VINA RESULT: -7.323330567      0.000      0.000
REMARK  7 active torsions:
REMARK  status: ('A' for Active; 'I' for Inactive)
REMARK    1  A    between atoms: N1_6  and  C5_7 
REMARK    2  A    between atoms: C5_7  and  O1_8 
REMARK    3  A    between atoms: C5_7  and  C6_10 
REMARK    4  A    between atoms: C7_11  and  N2_12 
REMARK       I    between atoms: N2_12  and  C8_14 
REMARK    5  A    between atoms: C8_14  and  O3_16 
REMARK    6  A    between atoms: O3_16  and  C9_17 
REMARK    7  A    between atoms: C9_17  and  C10_18 
ROOT
HETATM    1  C6  UNL     1      -3.134   1.590  12.108  1.00  0.00     0.071 A 
HETATM    2  C7  UNL     1      -3.981   0.639  12.707  1.00  0.00     0.060 A 
HETATM    3  C11 UNL     1      -3.913  -0.625  12.251  1.00  0.00     0.082 A 
HETATM    4  S2  UNL     1      -2.746  -0.587  11.043  1.00  0.00    -0.086 SA
HETATM    5  C12 UNL     1      -2.344   1.095  11.131  1.00  0.00     0.091 A 
HETATM    6 CL1  UNL     1      -1.179   1.853  10.024  1.00  0.00    -0.075 Cl
ENDROOT
BRANCH   2   7
HETATM    7  N2  UNL     1      -4.803   0.945  13.873  1.00  0.00    -0.301 N 
HETATM    8  C8  UNL     1      -4.494   0.500  15.170  1.00  0.00     0.365 C 
HETATM    9  O2  UNL     1      -3.513  -0.203  15.508  1.00  0.00    -0.238 OA
ATOM     10  H2  UNL     1      -5.642   1.510  13.740  1.00  0.00     0.171 HD
BRANCH   8  11
HETATM   11  O3  UNL     1      -5.361   0.875  16.179  1.00  0.00    -0.295 OA
BRANCH  11  12
HETATM   12  C9  UNL     1      -5.187   1.713  17.239  1.00  0.00     0.297 C 
BRANCH  12  13
HETATM   13  C10 UNL     1      -6.404   2.210  17.942  1.00  0.00     0.409 C 
HETATM   14  F1  UNL     1      -7.438   1.273  17.752  1.00  0.00    -0.169 F 
HETATM   15  F2  UNL     1      -6.294   2.443  19.274  1.00  0.00    -0.169 F 
HETATM   16  F3  UNL     1      -6.823   3.415  17.329  1.00  0.00    -0.169 F 
ENDBRANCH  12  13
ENDBRANCH  11  12
ENDBRANCH   8  11
ENDBRANCH   2   7
BRANCH   1  17
HETATM   17  C5  UNL     1      -3.290   3.017  12.419  1.00  0.00     0.154 C 
BRANCH  17  18
HETATM   18  N1  UNL     1      -2.454   4.070  12.736  1.00  0.00    -0.347 N 
HETATM   19  C2  UNL     1      -2.771   4.949  13.965  1.00  0.00     0.144 C 
HETATM   20  C1  UNL     1      -1.731   4.747  15.007  1.00  0.00     0.044 C 
HETATM   21  S1  UNL     1      -2.564   6.567  13.187  1.00  0.00    -0.142 SA
HETATM   22  C3  UNL     1      -1.378   6.058  11.897  1.00  0.00     0.096 C 
HETATM   23  C4  UNL     1      -1.204   4.596  12.309  1.00  0.00     0.136 C 
ENDBRANCH  17  18
BRANCH  17  24
HETATM   24  O1  UNL     1      -4.562   3.443  12.417  1.00  0.00    -0.345 OA
ATOM     25  H1  UNL     1      -5.142   2.703  12.550  1.00  0.00     0.219 HD
ENDBRANCH  17  24
ENDBRANCH   1  17
TORSDOF 7
ENDMDL
MODEL 2
REMARK VINA RESULT: -7.270111136      1.083      1.513
REMARK  7 active torsions:
REMARK  status: ('A' for Active; 'I' for Inactive)
REMARK    1  A    between atoms: N1_6  and  C5_7 
REMARK    2  A    between atoms: C5_7  and  O1_8 
REMARK    3  A    between atoms: C5_7  and  C6_10 
REMARK    4  A    between atoms: C7_11  and  N2_12 
REMARK       I    between atoms: N2_12  and  C8_14 
REMARK    5  A    between atoms: C8_14  and  O3_16 
REMARK    6  A    between atoms: O3_16  and  C9_17 
REMARK    7  A    between atoms: C9_17  and  C10_18 
ROOT
HETATM    1  C6  UNL     1      -3.008   1.741  12.200  1.00  0.00     0.071 A 
HETATM    2  C7  UNL     1      -3.918   0.807  12.728  1.00  0.00     0.060 A 
HETATM    3  C11 UNL     1      -3.923  -0.425  12.190  1.00  0.00     0.082 A 
HETATM    4  S2  UNL     1      -2.742  -0.381  10.997  1.00  0.00    -0.086 SA
HETATM    5  C12 UNL     1      -2.239   1.263  11.198  1.00  0.00     0.091 A 
HETATM    6 CL1  UNL     1      -1.016   2.018  10.153  1.00  0.00    -0.075 Cl
ENDROOT
BRANCH   2   7
HETATM    7  N2  UNL     1      -4.734   1.087  13.906  1.00  0.00    -0.301 N 
HETATM    8  C8  UNL     1      -4.477   0.528  15.170  1.00  0.00     0.365 C 
HETATM    9  O2  UNL     1      -3.554  -0.266  15.464  1.00  0.00    -0.238 OA
ATOM     10  H2  UNL     1      -5.529   1.719  13.806  1.00  0.00     0.171 HD
BRANCH   8  11
HETATM   11  O3  UNL     1      -5.330   0.891  16.194  1.00  0.00    -0.295 OA
BRANCH  11  12
HETATM   12  C9  UNL     1      -5.165   1.768  17.224  1.00  0.00     0.297 C 
BRANCH  12  13
HETATM   13  C10 UNL     1      -6.382   2.217  17.959  1.00  0.00     0.409 C 
HETATM   14  F1  UNL     1      -7.406   1.277  17.734  1.00  0.00    -0.169 F 
HETATM   15  F2  UNL     1      -6.263   2.389  19.299  1.00  0.00    -0.169 F 
HETATM   16  F3  UNL     1      -6.820   3.444  17.406  1.00  0.00    -0.169 F 
ENDBRANCH  12  13
ENDBRANCH  11  12
ENDBRANCH   8  11
ENDBRANCH   2   7
BRANCH   1  17
HETATM   17  C5  UNL     1      -3.080   3.152  12.603  1.00  0.00     0.154 C 
BRANCH  17  18
HETATM   18  N1  UNL     1      -3.233   4.369  11.967  1.00  0.00    -0.347 N 
HETATM   19  C2  UNL     1      -2.090   5.406  12.024  1.00  0.00     0.144 C 
HETATM   20  C1  UNL     1      -1.505   5.583  10.670  1.00  0.00     0.044 C 
HETATM   21  S1  UNL     1      -3.077   6.853  12.469  1.00  0.00    -0.142 SA
HETATM   22  C3  UNL     1      -4.650   6.304  11.724  1.00  0.00     0.096 C 
HETATM   23  C4  UNL     1      -4.163   4.999  11.095  1.00  0.00     0.136 C 
ENDBRANCH  17  18
BRANCH  17  24
HETATM   24  O1  UNL     1      -2.954   3.352  13.923  1.00  0.00    -0.345 OA
ATOM     25  H1  UNL     1      -3.768   3.698  14.269  1.00  0.00     0.219 HD
ENDBRANCH  17  24
ENDBRANCH   1  17
TORSDOF 7
ENDMDL
MODEL 3
REMARK VINA RESULT: -7.077404266      2.128      4.442
REMARK  7 active torsions:
REMARK  status: ('A' for Active; 'I' for Inactive)
REMARK    1  A    between atoms: N1_6  and  C5_7 
REMARK    2  A    between atoms: C5_7  and  O1_8 
REMARK    3  A    between atoms: C5_7  and  C6_10 
REMARK    4  A    between atoms: C7_11  and  N2_12 
REMARK       I    between atoms: N2_12  and  C8_14 
REMARK    5  A    between atoms: C8_14  and  O3_16 
REMARK    6  A    between atoms: O3_16  and  C9_17 
REMARK    7  A    between atoms: C9_17  and  C10_18 
ROOT
HETATM    1  C6  UNL     1      -3.952   4.285  11.679  1.00  0.00     0.071 A 
HETATM    2  C7  UNL     1      -3.973   4.702  13.023  1.00  0.00     0.060 A 
HETATM    3  C11 UNL     1      -3.554   5.952  13.289  1.00  0.00     0.082 A 
HETATM    4  S2  UNL     1      -3.133   6.595  11.796  1.00  0.00    -0.086 SA
HETATM    5  C12 UNL     1      -3.504   5.219  10.813  1.00  0.00     0.091 A 
HETATM    6 CL1  UNL     1      -3.205   5.193   9.061  1.00  0.00    -0.075 Cl
ENDROOT
BRANCH   2   7
HETATM    7  N2  UNL     1      -4.557   3.891  14.087  1.00  0.00    -0.301 N 
HETATM    8  C8  UNL     1      -5.898   4.004  14.492  1.00  0.00     0.365 C 
HETATM    9  O2  UNL     1      -6.758   4.787  14.027  1.00  0.00    -0.238 OA
ATOM     10  H2  UNL     1      -3.962   3.210  14.559  1.00  0.00     0.171 HD
BRANCH   8  11
HETATM   11  O3  UNL     1      -6.313   3.164  15.508  1.00  0.00    -0.295 OA
BRANCH  11  12
HETATM   12  C9  UNL     1      -5.701   2.091  16.083  1.00  0.00     0.297 C 
BRANCH  12  13
HETATM   13  C10 UNL     1      -6.472   1.306  17.090  1.00  0.00     0.409 C 
HETATM   14  F1  UNL     1      -6.358   1.952  18.335  1.00  0.00    -0.169 F 
HETATM   15  F2  UNL     1      -7.791   1.113  16.841  1.00  0.00    -0.169 F 
HETATM   16  F3  UNL     1      -5.871   0.032  17.229  1.00  0.00    -0.169 F 
ENDBRANCH  12  13
ENDBRANCH  11  12
ENDBRANCH   8  11
ENDBRANCH   2   7
BRANCH   1  17
HETATM   17  C5  UNL     1      -4.211   2.880  11.338  1.00  0.00     0.154 C 
BRANCH  17  18
HETATM   18  N1  UNL     1      -3.649   1.655  11.645  1.00  0.00    -0.347 N 
HETATM   19  C2  UNL     1      -2.656   1.006  10.657  1.00  0.00     0.144 C 
HETATM   20  C1  UNL     1      -1.298   0.974  11.260  1.00  0.00     0.044 C 
HETATM   21  S1  UNL     1      -3.364  -0.656  10.633  1.00  0.00    -0.142 SA
HETATM   22  C3  UNL     1      -4.109  -0.619  12.299  1.00  0.00     0.096 C 
HETATM   23  C4  UNL     1      -3.607   0.754  12.744  1.00  0.00     0.136 C 
ENDBRANCH  17  18
BRANCH  17  24
HETATM   24  O1  UNL     1      -5.245   2.699  10.504  1.00  0.00    -0.345 OA
ATOM     25  H1  UNL     1      -4.950   2.805   9.607  1.00  0.00     0.219 HD
ENDBRANCH  17  24
ENDBRANCH   1  17
TORSDOF 7
ENDMDL
MODEL 4
REMARK VINA RESULT: -7.006003551      1.230      1.358
REMARK  7 active torsions:
REMARK  status: ('A' for Active; 'I' for Inactive)
REMARK    1  A    between atoms: N1_6  and  C5_7 
REMARK    2  A    between atoms: C5_7  and  O1_8 
REMARK    3  A    between atoms: C5_7  and  C6_10 
REMARK    4  A    between atoms: C7_11  and  N2_12 
REMARK       I    between atoms: N2_12  and  C8_14 
REMARK    5  A    between atoms: C8_14  and  O3_16 
REMARK    6  A    between atoms: O3_16  and  C9_17 
REMARK    7  A    between atoms: C9_17  and  C10_18 
ROOT
HETATM    1  C6  UNL     1      -3.034   2.428  11.905  1.00  0.00     0.071 A 
HETATM    2  C7  UNL     1      -4.000   1.530  12.396  1.00  0.00     0.060 A 
HETATM    3  C11 UNL     1      -3.861   0.232  12.070  1.00  0.00     0.082 A 
HETATM    4  S2  UNL     1      -2.472   0.168  11.128  1.00  0.00    -0.086 SA
HETATM    5  C12 UNL     1      -2.070   1.852  11.155  1.00  0.00     0.091 A 
HETATM    6 CL1  UNL     1      -0.692   2.515  10.250  1.00  0.00    -0.075 Cl
ENDROOT
BRANCH   2   7
HETATM    7  N2  UNL     1      -5.038   1.933  13.340  1.00  0.00    -0.301 N 
HETATM    8  C8  UNL     1      -4.807   2.084  14.719  1.00  0.00     0.365 C 
HETATM    9  O2  UNL     1      -3.725   1.897  15.322  1.00  0.00    -0.238 OA
ATOM     10  H2  UNL     1      -5.976   2.115  12.982  1.00  0.00     0.171 HD
BRANCH   8  11
HETATM   11  O3  UNL     1      -5.883   2.480  15.489  1.00  0.00    -0.295 OA
BRANCH  11  12
HETATM   12  C9  UNL     1      -5.976   2.747  16.822  1.00  0.00     0.297 C 
BRANCH  12  13
HETATM   13  C10 UNL     1      -6.265   1.611  17.743  1.00  0.00     0.409 C 
HETATM   14  F1  UNL     1      -7.539   1.101  17.429  1.00  0.00    -0.169 F 
HETATM   15  F2  UNL     1      -5.389   0.575  17.737  1.00  0.00    -0.169 F 
HETATM   16  F3  UNL     1      -6.334   2.106  19.067  1.00  0.00    -0.169 F 
ENDBRANCH  12  13
ENDBRANCH  11  12
ENDBRANCH   8  11
ENDBRANCH   2   7
BRANCH   1  17
HETATM   17  C5  UNL     1      -3.227   3.876  12.058  1.00  0.00     0.154 C 
BRANCH  17  18
HETATM   18  N1  UNL     1      -2.499   4.936  12.563  1.00  0.00    -0.347 N 
HETATM   19  C2  UNL     1      -3.240   6.139  13.186  1.00  0.00     0.144 C 
HETATM   20  C1  UNL     1      -2.972   6.190  14.646  1.00  0.00     0.044 C 
HETATM   21  S1  UNL     1      -2.342   7.461  12.342  1.00  0.00    -0.142 SA
HETATM   22  C3  UNL     1      -0.779   6.555  12.082  1.00  0.00     0.096 C 
HETATM   23  C4  UNL     1      -1.138   5.262  12.814  1.00  0.00     0.136 C 
ENDBRANCH  17  18
BRANCH  17  24
HETATM   24  O1  UNL     1      -4.413   4.321  11.615  1.00  0.00    -0.345 OA
ATOM     25  H1  UNL     1      -4.285   4.819  10.817  1.00  0.00     0.219 HD
ENDBRANCH  17  24
ENDBRANCH   1  17
TORSDOF 7
ENDMDL
MODEL 5
REMARK VINA RESULT: -6.934185959      1.822      2.372
REMARK  7 active torsions:
REMARK  status: ('A' for Active; 'I' for Inactive)
REMARK    1  A    between atoms: N1_6  and  C5_7 
REMARK    2  A    between atoms: C5_7  and  O1_8 
REMARK    3  A    between atoms: C5_7  and  C6_10 
REMARK    4  A    between atoms: C7_11  and  N2_12 
REMARK       I    between atoms: N2_12  and  C8_14 
REMARK    5  A    between atoms: C8_14  and  O3_16 
REMARK    6  A    between atoms: O3_16  and  C9_17 
REMARK    7  A    between atoms: C9_17  and  C10_18 
ROOT
HETATM    1  C6  UNL     1      -2.710   2.623  12.432  1.00  0.00     0.071 A 
HETATM    2  C7  UNL     1      -3.801   2.012  13.078  1.00  0.00     0.060 A 
HETATM    3  C11 UNL     1      -4.334   0.922  12.496  1.00  0.00     0.082 A 
HETATM    4  S2  UNL     1      -3.418   0.681  11.109  1.00  0.00    -0.086 SA
HETATM    5  C12 UNL     1      -2.332   2.017  11.286  1.00  0.00     0.091 A 
HETATM    6 CL1  UNL     1      -1.099   2.409  10.067  1.00  0.00    -0.075 Cl
ENDROOT
BRANCH   2   7
HETATM    7  N2  UNL     1      -4.267   2.430  14.397  1.00  0.00    -0.301 N 
HETATM    8  C8  UNL     1      -5.452   3.160  14.598  1.00  0.00     0.365 C 
HETATM    9  O2  UNL     1      -6.250   3.550  13.715  1.00  0.00    -0.238 OA
ATOM     10  H2  UNL     1      -3.705   2.181  15.211  1.00  0.00     0.171 HD
BRANCH   8  11
HETATM   11  O3  UNL     1      -5.770   3.479  15.904  1.00  0.00    -0.295 OA
BRANCH  11  12
HETATM   12  C9  UNL     1      -6.688   2.942  16.755  1.00  0.00     0.297 C 
BRANCH  12  13
HETATM   13  C10 UNL     1      -6.254   1.812  17.627  1.00  0.00     0.409 C 
HETATM   14  F1  UNL     1      -7.158   0.748  17.453  1.00  0.00    -0.169 F 
HETATM   15  F2  UNL     1      -5.001   1.330  17.430  1.00  0.00    -0.169 F 
HETATM   16  F3  UNL     1      -6.349   2.219  18.979  1.00  0.00    -0.169 F 
ENDBRANCH  12  13
ENDBRANCH  11  12
ENDBRANCH   8  11
ENDBRANCH   2   7
BRANCH   1  17
HETATM   17  C5  UNL     1      -2.205   3.919  12.903  1.00  0.00     0.154 C 
BRANCH  17  18
HETATM   18  N1  UNL     1      -2.726   5.183  13.107  1.00  0.00    -0.347 N 
HETATM   19  C2  UNL     1      -3.236   5.998  11.900  1.00  0.00     0.144 C 
HETATM   20  C1  UNL     1      -4.711   6.157  11.989  1.00  0.00     0.044 C 
HETATM   21  S1  UNL     1      -2.419   7.564  12.281  1.00  0.00    -0.142 SA
HETATM   22  C3  UNL     1      -2.326   7.347  14.091  1.00  0.00     0.096 C 
HETATM   23  C4  UNL     1      -3.077   6.020  14.201  1.00  0.00     0.136 C 
ENDBRANCH  17  18
BRANCH  17  24
HETATM   24  O1  UNL     1      -0.900   3.920  13.212  1.00  0.00    -0.345 OA
ATOM     25  H1  UNL     1      -0.399   4.234  12.469  1.00  0.00     0.219 HD
ENDBRANCH  17  24
ENDBRANCH   1  17
TORSDOF 7
ENDMDL
