MODEL 1
REMARK VINA RESULT: -6.870007797      0.000      0.000
REMARK  5 active torsions:
REMARK  status: ('A' for Active; 'I' for Inactive)
REMARK    1  A    between atoms: O1_1  and  C1_3 
REMARK    2  A    between atoms: C1_3  and  C2_4 
REMARK    3  A    between atoms: C2_4  and  C3_5 
REMARK    4  A    between atoms: C3_5  and  N1_6 
REMARK    5  A    between atoms: C8_18  and  C9_19 
ROOT
HETATM    1  N1  UNL     1      -3.977   2.658  12.589  1.00  0.00    -0.262 N 
HETATM    2  N2  UNL     1      -3.844   1.418  13.078  1.00  0.00    -0.277 N 
ATOM      3  H2  UNL     1      -3.424   0.640  12.570  1.00  0.00     0.189 HD
HETATM    4  C4  UNL     1      -4.330   1.337  14.304  1.00  0.00     0.150 A 
HETATM    5  N3  UNL     1      -4.432   0.335  15.203  1.00  0.00    -0.347 N 
ATOM      6  H3  UNL     1      -4.085  -0.593  14.965  1.00  0.00     0.167 HD
HETATM    7  C5  UNL     1      -4.991   0.549  16.415  1.00  0.00     0.127 A 
HETATM    8  C6  UNL     1      -5.467   1.798  16.752  1.00  0.00     0.095 A 
HETATM    9 BR1  UNL     1      -6.241   2.045  18.463  1.00  0.00    -0.030 Br
HETATM   10  N4  UNL     1      -5.357   2.789  15.843  1.00  0.00    -0.344 N 
ATOM     11  H4  UNL     1      -5.706   3.717  16.082  1.00  0.00     0.167 HD
HETATM   12  C7  UNL     1      -4.799   2.593  14.621  1.00  0.00     0.113 A 
HETATM   13  C8  UNL     1      -4.564   3.424  13.512  1.00  0.00     0.170 A 
ENDROOT
BRANCH   1  14
HETATM   14  C3  UNL     1      -3.597   3.035  11.287  1.00  0.00     0.101 C 
BRANCH  14  15
HETATM   15  C2  UNL     1      -2.204   3.587  11.103  1.00  0.00     0.015 C 
HETATM   16  C10 UNL     1      -2.183   4.530   9.914  1.00  0.00     0.017 C 
HETATM   17  C11 UNL     1      -1.757   5.921  10.299  1.00  0.00     0.001 C 
HETATM   18  C12 UNL     1      -0.374   5.870  10.862  1.00  0.00     0.000 C 
HETATM   19  C13 UNL     1      -0.395   5.051  12.087  1.00  0.00     0.001 C 
HETATM   20  C14 UNL     1      -1.519   4.106  12.289  1.00  0.00     0.017 C 
BRANCH  15  21
HETATM   21  C1  UNL     1      -1.405   2.362  10.601  1.00  0.00     0.179 C 
BRANCH  21  22
HETATM   22  O1  UNL     1      -1.048   1.513  11.613  1.00  0.00    -0.400 OA
ATOM     23  H1  UNL     1      -1.053   1.934  12.464  1.00  0.00     0.209 HD
ENDBRANCH  21  22
ENDBRANCH  15  21
ENDBRANCH  14  15
ENDBRANCH   1  14
BRANCH  13  24
HETATM   24  C9  UNL     1      -4.938   4.821  13.594  1.00  0.00     0.436 C 
HETATM   25  F1  UNL     1      -4.819   5.631  12.555  1.00  0.00    -0.164 F 
HETATM   26  F2  UNL     1      -4.228   5.376  14.672  1.00  0.00    -0.164 F 
HETATM   27  F3  UNL     1      -6.277   4.879  14.023  1.00  0.00    -0.164 F 
ENDBRANCH  13  24
TORSDOF 5
ENDMDL
MODEL 2
REMARK VINA RESULT: -6.802285827      1.206      1.499
REMARK  5 active torsions:
REMARK  status: ('A' for Active; 'I' for Inactive)
REMARK    1  A    between atoms: O1_1  and  C1_3 
REMARK    2  A    between atoms: C1_3  and  C2_4 
REMARK    3  A    between atoms: C2_4  and  C3_5 
REMARK    4  A    between atoms: C3_5  and  N1_6 
REMARK    5  A    between atoms: C8_18  and  C9_19 
ROOT
HETATM    1  N1  UNL     1      -4.071   3.121  12.324  1.00  0.00    -0.262 N 
HETATM    2  N2  UNL     1      -3.808   1.860  12.692  1.00  0.00    -0.277 N 
ATOM      3  H2  UNL     1      -3.343   1.171  12.102  1.00  0.00     0.189 HD
HETATM    4  C4  UNL     1      -4.232   1.628  13.922  1.00  0.00     0.150 A 
HETATM    5  N3  UNL     1      -4.207   0.546  14.729  1.00  0.00    -0.347 N 
ATOM      6  H3  UNL     1      -3.790  -0.323  14.395  1.00  0.00     0.167 HD
HETATM    7  C5  UNL     1      -4.731   0.600  15.974  1.00  0.00     0.127 A 
HETATM    8  C6  UNL     1      -5.300   1.766  16.439  1.00  0.00     0.095 A 
HETATM    9 BR1  UNL     1      -6.020   1.790  18.192  1.00  0.00    -0.030 Br
HETATM   10  N4  UNL     1      -5.317   2.838  15.621  1.00  0.00    -0.344 N 
ATOM     11  H4  UNL     1      -5.735   3.706  15.956  1.00  0.00     0.167 HD
HETATM   12  C7  UNL     1      -4.796   2.802  14.368  1.00  0.00     0.113 A 
HETATM   13  C8  UNL     1      -4.682   3.746  13.333  1.00  0.00     0.170 A 
ENDROOT
BRANCH   1  14
HETATM   14  C3  UNL     1      -3.780   3.644  11.049  1.00  0.00     0.101 C 
BRANCH  14  15
HETATM   15  C2  UNL     1      -2.364   4.095  10.789  1.00  0.00     0.015 C 
HETATM   16  C10 UNL     1      -2.087   5.372  11.562  1.00  0.00     0.017 C 
HETATM   17  C11 UNL     1      -0.947   5.214  12.532  1.00  0.00     0.001 C 
HETATM   18  C12 UNL     1       0.292   4.862  11.777  1.00  0.00     0.000 C 
HETATM   19  C13 UNL     1       0.085   3.563  11.111  1.00  0.00     0.001 C 
HETATM   20  C14 UNL     1      -1.303   3.091  10.896  1.00  0.00     0.017 C 
BRANCH  15  21
HETATM   21  C1  UNL     1      -2.410   4.570   9.319  1.00  0.00     0.179 C 
BRANCH  21  22
HETATM   22  O1  UNL     1      -3.580   4.238   8.693  1.00  0.00    -0.400 OA
ATOM     23  H1  UNL     1      -3.537   4.350   7.750  1.00  0.00     0.209 HD
ENDBRANCH  21  22
ENDBRANCH  15  21
ENDBRANCH  14  15
ENDBRANCH   1  14
BRANCH  13  24
HETATM   24  C9  UNL     1      -5.174   5.090  13.554  1.00  0.00     0.436 C 
HETATM   25  F1  UNL     1      -5.232   5.976  12.574  1.00  0.00    -0.164 F 
HETATM   26  F2  UNL     1      -4.417   5.639  14.604  1.00  0.00    -0.164 F 
HETATM   27  F3  UNL     1      -6.465   4.986  14.106  1.00  0.00    -0.164 F 
ENDBRANCH  13  24
TORSDOF 5
ENDMDL
MODEL 3
REMARK VINA RESULT: -6.615111055      3.622      6.463
REMARK  5 active torsions:
REMARK  status: ('A' for Active; 'I' for Inactive)
REMARK    1  A    between atoms: O1_1  and  C1_3 
REMARK    2  A    between atoms: C1_3  and  C2_4 
REMARK    3  A    between atoms: C2_4  and  C3_5 
REMARK    4  A    between atoms: C3_5  and  N1_6 
REMARK    5  A    between atoms: C8_18  and  C9_19 
ROOT
HETATM    1  N1  UNL     1      -4.652   2.716  13.372  1.00  0.00    -0.262 N 
HETATM    2  N2  UNL     1      -4.259   3.988  13.232  1.00  0.00    -0.277 N 
ATOM      3  H2  UNL     1      -4.649   4.774  13.751  1.00  0.00     0.189 HD
HETATM    4  C4  UNL     1      -3.297   4.090  12.332  1.00  0.00     0.150 A 
HETATM    5  N3  UNL     1      -2.584   5.125  11.841  1.00  0.00    -0.347 N 
ATOM      6  H3  UNL     1      -2.763   6.068  12.185  1.00  0.00     0.167 HD
HETATM    7  C5  UNL     1      -1.635   4.926  10.899  1.00  0.00     0.127 A 
HETATM    8  C6  UNL     1      -1.382   3.657  10.423  1.00  0.00     0.095 A 
HETATM    9 BR1  UNL     1      -0.043   3.432   9.102  1.00  0.00    -0.030 Br
HETATM   10  N4  UNL     1      -2.103   2.633  10.923  1.00  0.00    -0.344 N 
ATOM     11  H4  UNL     1      -1.924   1.690  10.578  1.00  0.00     0.167 HD
HETATM   12  C7  UNL     1      -3.059   2.814  11.870  1.00  0.00     0.113 A 
HETATM   13  C8  UNL     1      -3.935   1.949  12.548  1.00  0.00     0.170 A 
ENDROOT
BRANCH   1  14
HETATM   14  C3  UNL     1      -5.697   2.305  14.224  1.00  0.00     0.101 C 
BRANCH  14  15
HETATM   15  C2  UNL     1      -5.404   2.243  15.703  1.00  0.00     0.015 C 
HETATM   16  C10 UNL     1      -5.955   3.483  16.384  1.00  0.00     0.017 C 
HETATM   17  C11 UNL     1      -6.970   3.146  17.443  1.00  0.00     0.001 C 
HETATM   18  C12 UNL     1      -6.319   2.304  18.492  1.00  0.00     0.000 C 
HETATM   19  C13 UNL     1      -5.878   1.040  17.873  1.00  0.00     0.001 C 
HETATM   20  C14 UNL     1      -5.708   0.993  16.402  1.00  0.00     0.017 C 
BRANCH  15  21
HETATM   21  C1  UNL     1      -3.873   2.452  15.766  1.00  0.00     0.179 C 
BRANCH  21  22
HETATM   22  O1  UNL     1      -3.210   1.363  16.261  1.00  0.00    -0.400 OA
ATOM     23  H1  UNL     1      -2.443   1.599  16.768  1.00  0.00     0.209 HD
ENDBRANCH  21  22
ENDBRANCH  15  21
ENDBRANCH  14  15
ENDBRANCH   1  14
BRANCH  13  24
HETATM   24  C9  UNL     1      -3.871   0.529  12.269  1.00  0.00     0.436 C 
HETATM   25  F1  UNL     1      -2.812  -0.016  11.694  1.00  0.00    -0.164 F 
HETATM   26  F2  UNL     1      -5.006   0.206  11.506  1.00  0.00    -0.164 F 
HETATM   27  F3  UNL     1      -4.091  -0.154  13.480  1.00  0.00    -0.164 F 
ENDBRANCH  13  24
TORSDOF 5
ENDMDL
MODEL 4
REMARK VINA RESULT: -6.549749484      4.095      4.945
REMARK  5 active torsions:
REMARK  status: ('A' for Active; 'I' for Inactive)
REMARK    1  A    between atoms: O1_1  and  C1_3 
REMARK    2  A    between atoms: C1_3  and  C2_4 
REMARK    3  A    between atoms: C2_4  and  C3_5 
REMARK    4  A    between atoms: C3_5  and  N1_6 
REMARK    5  A    between atoms: C8_18  and  C9_19 
ROOT
HETATM    1  N1  UNL     1      -3.149   3.971  10.799  1.00  0.00    -0.262 N 
HETATM    2  N2  UNL     1      -4.346   3.377  10.710  1.00  0.00    -0.277 N 
ATOM      3  H2  UNL     1      -5.226   3.870  10.557  1.00  0.00     0.189 HD
HETATM    4  C4  UNL     1      -4.236   2.067  10.846  1.00  0.00     0.150 A 
HETATM    5  N3  UNL     1      -5.124   1.050  10.835  1.00  0.00    -0.347 N 
ATOM      6  H3  UNL     1      -6.115   1.247  10.698  1.00  0.00     0.167 HD
HETATM    7  C5  UNL     1      -4.713  -0.227  11.004  1.00  0.00     0.127 A 
HETATM    8  C6  UNL     1      -3.377  -0.510  11.191  1.00  0.00     0.095 A 
HETATM    9 BR1  UNL     1      -2.854  -2.316  11.423  1.00  0.00    -0.030 Br
HETATM   10  N4  UNL     1      -2.503   0.518  11.199  1.00  0.00    -0.344 N 
ATOM     11  H4  UNL     1      -1.512   0.319  11.337  1.00  0.00     0.167 HD
HETATM   12  C7  UNL     1      -2.897   1.806  11.031  1.00  0.00     0.113 A 
HETATM   13  C8  UNL     1      -2.217   3.036  10.997  1.00  0.00     0.170 A 
ENDROOT
BRANCH   1  14
HETATM   14  C3  UNL     1      -2.957   5.365  10.743  1.00  0.00     0.101 C 
BRANCH  14  15
HETATM   15  C2  UNL     1      -3.149   6.145  12.021  1.00  0.00     0.015 C 
HETATM   16  C10 UNL     1      -3.167   5.191  13.201  1.00  0.00     0.017 C 
HETATM   17  C11 UNL     1      -2.074   5.491  14.192  1.00  0.00     0.001 C 
HETATM   18  C12 UNL     1      -2.262   6.874  14.723  1.00  0.00     0.000 C 
HETATM   19  C13 UNL     1      -2.132   7.829  13.607  1.00  0.00     0.001 C 
HETATM   20  C14 UNL     1      -2.311   7.330  12.223  1.00  0.00     0.017 C 
BRANCH  15  21
HETATM   21  C1  UNL     1      -4.616   6.622  11.924  1.00  0.00     0.179 C 
BRANCH  21  22
HETATM   22  O1  UNL     1      -5.495   5.751  12.505  1.00  0.00    -0.400 OA
ATOM     23  H1  UNL     1      -5.222   5.476  13.372  1.00  0.00     0.209 HD
ENDBRANCH  21  22
ENDBRANCH  15  21
ENDBRANCH  14  15
ENDBRANCH   1  14
BRANCH  13  24
HETATM   24  C9  UNL     1      -0.776   3.043  11.138  1.00  0.00     0.436 C 
HETATM   25  F1  UNL     1      -0.176   2.434  12.147  1.00  0.00    -0.164 F 
HETATM   26  F2  UNL     1      -0.366   4.387  11.125  1.00  0.00    -0.164 F 
HETATM   27  F3  UNL     1      -0.229   2.527   9.948  1.00  0.00    -0.164 F 
ENDBRANCH  13  24
TORSDOF 5
ENDMDL
MODEL 5
REMARK VINA RESULT: -6.544393899      3.019      5.848
REMARK  5 active torsions:
REMARK  status: ('A' for Active; 'I' for Inactive)
REMARK    1  A    between atoms: O1_1  and  C1_3 
REMARK    2  A    between atoms: C1_3  and  C2_4 
REMARK    3  A    between atoms: C2_4  and  C3_5 
REMARK    4  A    between atoms: C3_5  and  N1_6 
REMARK    5  A    between atoms: C8_18  and  C9_19 
ROOT
HETATM    1  N1  UNL     1      -4.612   2.411  13.423  1.00  0.00    -0.262 N 
HETATM    2  N2  UNL     1      -3.975   1.316  12.988  1.00  0.00    -0.277 N 
ATOM      3  H2  UNL     1      -4.247   0.360  13.218  1.00  0.00     0.189 HD
HETATM    4  C4  UNL     1      -2.948   1.637  12.221  1.00  0.00     0.150 A 
HETATM    5  N3  UNL     1      -2.017   0.919  11.559  1.00  0.00    -0.347 N 
ATOM      6  H3  UNL     1      -2.037  -0.099  11.607  1.00  0.00     0.167 HD
HETATM    7  C5  UNL     1      -1.058   1.535  10.832  1.00  0.00     0.127 A 
HETATM    8  C6  UNL     1      -1.016   2.911  10.757  1.00  0.00     0.095 A 
HETATM    9 BR1  UNL     1       0.349   3.725   9.726  1.00  0.00    -0.030 Br
HETATM   10  N4  UNL     1      -1.954   3.614  11.425  1.00  0.00    -0.344 N 
ATOM     11  H4  UNL     1      -1.932   4.633  11.377  1.00  0.00     0.167 HD
HETATM   12  C7  UNL     1      -2.924   3.013  12.159  1.00  0.00     0.113 A 
HETATM   13  C8  UNL     1      -3.997   3.490  12.933  1.00  0.00     0.170 A 
ENDROOT
BRANCH   1  14
HETATM   14  C3  UNL     1      -5.714   2.383  14.299  1.00  0.00     0.101 C 
BRANCH  14  15
HETATM   15  C2  UNL     1      -5.425   2.285  15.777  1.00  0.00     0.015 C 
HETATM   16  C10 UNL     1      -5.963   3.515  16.484  1.00  0.00     0.017 C 
HETATM   17  C11 UNL     1      -6.984   3.166  17.534  1.00  0.00     0.001 C 
HETATM   18  C12 UNL     1      -6.346   2.293  18.564  1.00  0.00     0.000 C 
HETATM   19  C13 UNL     1      -5.919   1.038  17.918  1.00  0.00     0.001 C 
HETATM   20  C14 UNL     1      -5.746   1.022  16.446  1.00  0.00     0.017 C 
BRANCH  15  21
HETATM   21  C1  UNL     1      -3.892   2.473  15.848  1.00  0.00     0.179 C 
BRANCH  21  22
HETATM   22  O1  UNL     1      -3.235   1.333  16.219  1.00  0.00    -0.400 OA
ATOM     23  H1  UNL     1      -3.115   1.268  17.159  1.00  0.00     0.209 HD
ENDBRANCH  21  22
ENDBRANCH  15  21
ENDBRANCH  14  15
ENDBRANCH   1  14
BRANCH  13  24
HETATM   24  C9  UNL     1      -4.221   4.919  13.013  1.00  0.00     0.436 C 
HETATM   25  F1  UNL     1      -4.019   5.710  11.973  1.00  0.00    -0.164 F 
HETATM   26  F2  UNL     1      -3.453   5.397  14.089  1.00  0.00    -0.164 F 
HETATM   27  F3  UNL     1      -5.545   5.119  13.446  1.00  0.00    -0.164 F 
ENDBRANCH  13  24
TORSDOF 5
ENDMDL
