MODEL 1
REMARK VINA RESULT: -7.506278415      0.000      0.000
REMARK  10 active torsions:
REMARK  status: ('A' for Active; 'I' for Inactive)
REMARK    1  A    between atoms: C2_2  and  C3_3 
REMARK    2  A    between atoms: C3_3  and  C4_4 
REMARK    3  A    between atoms: C4_4  and  C5_5 
REMARK    4  A    between atoms: C6_6  and  C7_7 
REMARK    5  A    between atoms: C8_8  and  C9_9 
REMARK    6  A    between atoms: C15_16  and  O2_17 
REMARK    7  A    between atoms: C18_21  and  O3_22 
REMARK    8  A    between atoms: N1_31  and  C24_32 
REMARK    9  A    between atoms: C24_32  and  C25_33 
REMARK   10  A    between atoms: C28_36  and  O6_37 
ROOT
HETATM    1  C9  UNL     1      13.203  54.180  89.538  1.00  0.00     0.046 A 
HETATM    2  C10 UNL     1      12.708  55.395  90.257  1.00  0.00     0.050 A 
HETATM    3  C11 UNL     1      12.672  54.147  90.989  1.00  0.00     0.076 A 
HETATM    4  O1  UNL     1      13.658  53.863  91.890  1.00  0.00    -0.365 OA
HETATM    5  C12 UNL     1      13.164  53.421  93.150  1.00  0.00     0.204 C 
HETATM    6  C13 UNL     1      12.195  54.344  93.765  1.00  0.00     0.026 C 
HETATM    7  C14 UNL     1      10.742  53.952  93.576  1.00  0.00    -0.021 C 
HETATM    8  C15 UNL     1      10.425  53.935  92.089  1.00  0.00     0.156 C 
HETATM    9  C16 UNL     1      11.452  53.312  91.224  1.00  0.00     0.057 C 
HETATM   10  C17 UNL     1      11.841  51.920  91.646  1.00  0.00     0.054 C 
HETATM   11  C18 UNL     1      12.689  52.034  92.886  1.00  0.00     0.118 C 
HETATM   12  C19 UNL     1      12.164  51.271  94.067  1.00  0.00     0.199 C 
HETATM   13  O4  UNL     1      13.250  50.963  94.896  1.00  0.00    -0.310 OA
HETATM   14  C20 UNL     1      13.646  51.129  96.140  1.00  0.00     0.259 C 
HETATM   15  O5  UNL     1      13.440  50.281  97.065  1.00  0.00    -0.265 OA
HETATM   16  C21 UNL     1      14.385  52.337  96.591  1.00  0.00     0.112 C 
HETATM   17  C22 UNL     1      13.504  53.531  96.856  1.00  0.00     0.025 C 
HETATM   18  C23 UNL     1      13.587  54.601  95.787  1.00  0.00     0.096 C 
HETATM   19  N1  UNL     1      12.404  54.845  95.061  1.00  0.00    -0.284 NA
HETATM   20  C28 UNL     1      10.911  51.671  94.697  1.00  0.00     0.163 C 
HETATM   21  C29 UNL     1      10.179  52.872  94.367  1.00  0.00     0.008 C 
HETATM   22  C30 UNL     1       8.839  52.483  93.686  1.00  0.00     0.022 C 
HETATM   23  C31 UNL     1       9.584  53.450  95.681  1.00  0.00     0.022 C 
ENDROOT
BRANCH   1  24
HETATM   24  C8  UNL     1      12.333  53.616  88.480  1.00  0.00    -0.019 C 
HETATM   25  C7  UNL     1      12.545  53.612  87.206  1.00  0.00    -0.004 C 
BRANCH  25  26
HETATM   26  C6  UNL     1      13.697  54.162  86.503  1.00  0.00    -0.004 C 
HETATM   27  C5  UNL     1      14.223  53.602  85.438  1.00  0.00    -0.026 C 
BRANCH  27  28
HETATM   28  C4  UNL     1      15.393  54.234  84.791  1.00  0.00     0.031 C 
BRANCH  28  29
HETATM   29  C3  UNL     1      16.098  53.191  83.952  1.00  0.00     0.030 C 
BRANCH  29  30
HETATM   30  C2  UNL     1      15.086  52.172  83.583  1.00  0.00    -0.037 C 
HETATM   31  C1  UNL     1      15.178  51.552  82.417  1.00  0.00     0.007 C 
ENDBRANCH  29  30
ENDBRANCH  28  29
ENDBRANCH  27  28
ENDBRANCH  25  26
ENDBRANCH   1  24
BRANCH   8  32
HETATM   32  O2  UNL     1      10.274  55.261  91.595  1.00  0.00    -0.391 OA
ATOM     33  H2  UNL     1      11.033  55.515  91.083  1.00  0.00     0.210 HD
ENDBRANCH   8  32
BRANCH  11  34
HETATM   34  O3  UNL     1      13.874  51.301  92.559  1.00  0.00    -0.384 OA
ATOM     35  H3  UNL     1      13.922  50.616  93.216  1.00  0.00     0.210 HD
ENDBRANCH  11  34
BRANCH  19  36
HETATM   36  C24 UNL     1      12.057  56.277  95.162  1.00  0.00     0.100 C 
BRANCH  36  37
HETATM   37  C25 UNL     1      11.528  56.633  96.537  1.00  0.00    -0.001 A 
HETATM   38  C26 UNL     1      11.152  58.088  96.680  1.00  0.00     0.006 A 
HETATM   39  C27 UNL     1      10.080  57.092  96.630  1.00  0.00     0.006 A 
ENDBRANCH  36  37
ENDBRANCH  19  36
BRANCH  20  40
HETATM   40  O6  UNL     1       9.998  50.571  94.681  1.00  0.00    -0.392 OA
ATOM     41  H6  UNL     1      10.325  49.880  95.246  1.00  0.00     0.210 HD
ENDBRANCH  20  40
TORSDOF 10
ENDMDL
MODEL 2
REMARK VINA RESULT: -7.273035025      1.209      1.385
REMARK  10 active torsions:
REMARK  status: ('A' for Active; 'I' for Inactive)
REMARK    1  A    between atoms: C2_2  and  C3_3 
REMARK    2  A    between atoms: C3_3  and  C4_4 
REMARK    3  A    between atoms: C4_4  and  C5_5 
REMARK    4  A    between atoms: C6_6  and  C7_7 
REMARK    5  A    between atoms: C8_8  and  C9_9 
REMARK    6  A    between atoms: C15_16  and  O2_17 
REMARK    7  A    between atoms: C18_21  and  O3_22 
REMARK    8  A    between atoms: N1_31  and  C24_32 
REMARK    9  A    between atoms: C24_32  and  C25_33 
REMARK   10  A    between atoms: C28_36  and  O6_37 
ROOT
HETATM    1  C9  UNL     1      13.575  54.284  88.773  1.00  0.00     0.046 A 
HETATM    2  C10 UNL     1      13.428  55.515  89.610  1.00  0.00     0.050 A 
HETATM    3  C11 UNL     1      12.897  54.287  90.161  1.00  0.00     0.076 A 
HETATM    4  O1  UNL     1      13.621  53.593  91.088  1.00  0.00    -0.365 OA
HETATM    5  C12 UNL     1      12.865  53.220  92.235  1.00  0.00     0.204 C 
HETATM    6  C13 UNL     1      12.190  54.352  92.894  1.00  0.00     0.026 C 
HETATM    7  C14 UNL     1      10.722  54.501  92.543  1.00  0.00    -0.021 C 
HETATM    8  C15 UNL     1      10.593  54.745  91.049  1.00  0.00     0.156 C 
HETATM    9  C16 UNL     1      11.451  53.900  90.188  1.00  0.00     0.057 C 
HETATM   10  C17 UNL     1      11.307  52.424  90.446  1.00  0.00     0.054 C 
HETATM   11  C18 UNL     1      11.994  52.114  91.751  1.00  0.00     0.118 C 
HETATM   12  C19 UNL     1      11.112  51.460  92.774  1.00  0.00     0.199 C 
HETATM   13  O4  UNL     1      11.930  50.717  93.634  1.00  0.00    -0.310 OA
HETATM   14  C20 UNL     1      12.211  50.610  94.915  1.00  0.00     0.259 C 
HETATM   15  O5  UNL     1      11.630  49.794  95.698  1.00  0.00    -0.265 OA
HETATM   16  C21 UNL     1      13.249  51.441  95.580  1.00  0.00     0.112 C 
HETATM   17  C22 UNL     1      12.787  52.830  95.937  1.00  0.00     0.025 C 
HETATM   18  C23 UNL     1      13.343  53.911  95.032  1.00  0.00     0.096 C 
HETATM   19  N1  UNL     1      12.400  54.616  94.258  1.00  0.00    -0.284 NA
HETATM   20  C28 UNL     1       9.996  52.198  93.356  1.00  0.00     0.163 C 
HETATM   21  C29 UNL     1       9.746  53.604  93.136  1.00  0.00     0.008 C 
HETATM   22  C30 UNL     1       8.441  53.768  92.309  1.00  0.00     0.022 C 
HETATM   23  C31 UNL     1       9.225  54.213  94.467  1.00  0.00     0.022 C 
ENDROOT
BRANCH   1  24
HETATM   24  C8  UNL     1      12.698  54.162  87.585  1.00  0.00    -0.019 C 
HETATM   25  C7  UNL     1      13.055  54.110  86.344  1.00  0.00    -0.004 C 
BRANCH  25  26
HETATM   26  C6  UNL     1      14.412  54.158  85.816  1.00  0.00    -0.004 C 
HETATM   27  C5  UNL     1      14.798  53.472  84.766  1.00  0.00    -0.026 C 
BRANCH  27  28
HETATM   28  C4  UNL     1      16.198  53.584  84.301  1.00  0.00     0.031 C 
BRANCH  28  29
HETATM   29  C3  UNL     1      16.460  52.482  83.299  1.00  0.00     0.030 C 
BRANCH  29  30
HETATM   30  C2  UNL     1      15.615  52.763  82.113  1.00  0.00    -0.037 C 
HETATM   31  C1  UNL     1      16.144  52.690  80.902  1.00  0.00     0.007 C 
ENDBRANCH  29  30
ENDBRANCH  28  29
ENDBRANCH  27  28
ENDBRANCH  25  26
ENDBRANCH   1  24
BRANCH   8  32
HETATM   32  O2  UNL     1      10.947  56.085  90.729  1.00  0.00    -0.391 OA
ATOM     33  H2  UNL     1      11.014  56.197  89.788  1.00  0.00     0.210 HD
ENDBRANCH   8  32
BRANCH  11  34
HETATM   34  O3  UNL     1      12.900  51.057  91.418  1.00  0.00    -0.384 OA
ATOM     35  H3  UNL     1      12.537  50.667  90.632  1.00  0.00     0.210 HD
ENDBRANCH  11  34
BRANCH  19  36
HETATM   36  C24 UNL     1      12.535  56.063  94.525  1.00  0.00     0.100 C 
BRANCH  36  37
HETATM   37  C25 UNL     1      12.276  56.393  95.981  1.00  0.00    -0.001 A 
HETATM   38  C26 UNL     1      12.090  57.868  96.241  1.00  0.00     0.006 A 
HETATM   39  C27 UNL     1      10.922  56.991  96.331  1.00  0.00     0.006 A 
ENDBRANCH  36  37
ENDBRANCH  19  36
BRANCH  20  40
HETATM   40  O6  UNL     1       8.780  51.484  93.122  1.00  0.00    -0.392 OA
ATOM     41  H6  UNL     1       8.040  52.048  93.316  1.00  0.00     0.210 HD
ENDBRANCH  20  40
TORSDOF 10
ENDMDL
MODEL 3
REMARK VINA RESULT: -7.206306132      3.545      5.282
REMARK  10 active torsions:
REMARK  status: ('A' for Active; 'I' for Inactive)
REMARK    1  A    between atoms: C2_2  and  C3_3 
REMARK    2  A    between atoms: C3_3  and  C4_4 
REMARK    3  A    between atoms: C4_4  and  C5_5 
REMARK    4  A    between atoms: C6_6  and  C7_7 
REMARK    5  A    between atoms: C8_8  and  C9_9 
REMARK    6  A    between atoms: C15_16  and  O2_17 
REMARK    7  A    between atoms: C18_21  and  O3_22 
REMARK    8  A    between atoms: N1_31  and  C24_32 
REMARK    9  A    between atoms: C24_32  and  C25_33 
REMARK   10  A    between atoms: C28_36  and  O6_37 
ROOT
HETATM    1  C9  UNL     1      12.458  51.246  84.937  1.00  0.00     0.046 A 
HETATM    2  C10 UNL     1      12.964  52.568  85.419  1.00  0.00     0.050 A 
HETATM    3  C11 UNL     1      11.989  51.901  86.256  1.00  0.00     0.076 A 
HETATM    4  O1  UNL     1      12.405  51.202  87.353  1.00  0.00    -0.365 OA
HETATM    5  C12 UNL     1      11.675  51.515  88.534  1.00  0.00     0.204 C 
HETATM    6  C13 UNL     1      11.651  52.953  88.854  1.00  0.00     0.026 C 
HETATM    7  C14 UNL     1      10.384  53.672  88.433  1.00  0.00    -0.021 C 
HETATM    8  C15 UNL     1      10.239  53.573  86.923  1.00  0.00     0.156 C 
HETATM    9  C16 UNL     1      10.535  52.246  86.339  1.00  0.00     0.057 C 
HETATM   10  C17 UNL     1       9.763  51.117  86.969  1.00  0.00     0.054 C 
HETATM   11  C18 UNL     1      10.356  50.856  88.329  1.00  0.00     0.118 C 
HETATM   12  C19 UNL     1       9.375  50.957  89.461  1.00  0.00     0.199 C 
HETATM   13  O4  UNL     1       9.845  50.156  90.509  1.00  0.00    -0.310 OA
HETATM   14  C20 UNL     1      10.166  50.249  91.782  1.00  0.00     0.259 C 
HETATM   15  O5  UNL     1       9.356  50.013  92.733  1.00  0.00    -0.265 OA
HETATM   16  C21 UNL     1      11.526  50.640  92.238  1.00  0.00     0.112 C 
HETATM   17  C22 UNL     1      11.779  52.126  92.206  1.00  0.00     0.025 C 
HETATM   18  C23 UNL     1      12.676  52.568  91.067  1.00  0.00     0.096 C 
HETATM   19  N1  UNL     1      12.086  53.416  90.108  1.00  0.00    -0.284 NA
HETATM   20  C28 UNL     1       8.775  52.243  89.796  1.00  0.00     0.163 C 
HETATM   21  C29 UNL     1       9.169  53.503  89.210  1.00  0.00     0.008 C 
HETATM   22  C30 UNL     1       8.008  54.043  88.330  1.00  0.00     0.022 C 
HETATM   23  C31 UNL     1       9.109  54.590  90.319  1.00  0.00     0.022 C 
ENDROOT
BRANCH   1  24
HETATM   24  C8  UNL     1      11.512  51.255  83.797  1.00  0.00    -0.019 C 
HETATM   25  C7  UNL     1      11.786  51.088  82.545  1.00  0.00    -0.004 C 
BRANCH  25  26
HETATM   26  C6  UNL     1      13.096  50.848  81.955  1.00  0.00    -0.004 C 
HETATM   27  C5  UNL     1      13.852  51.805  81.471  1.00  0.00    -0.026 C 
BRANCH  27  28
HETATM   28  C4  UNL     1      15.169  51.465  80.891  1.00  0.00     0.031 C 
BRANCH  28  29
HETATM   29  C3  UNL     1      16.205  52.403  81.469  1.00  0.00     0.030 C 
BRANCH  29  30
HETATM   30  C2  UNL     1      16.281  52.125  82.923  1.00  0.00    -0.037 C 
HETATM   31  C1  UNL     1      16.250  53.130  83.784  1.00  0.00     0.007 C 
ENDBRANCH  29  30
ENDBRANCH  28  29
ENDBRANCH  27  28
ENDBRANCH  25  26
ENDBRANCH   1  24
BRANCH   8  32
HETATM   32  O2  UNL     1      11.129  54.474  86.275  1.00  0.00    -0.391 OA
ATOM     33  H2  UNL     1      12.006  54.391  86.632  1.00  0.00     0.210 HD
ENDBRANCH   8  32
BRANCH  11  34
HETATM   34  O3  UNL     1      10.648  49.455  88.311  1.00  0.00    -0.384 OA
ATOM     35  H3  UNL     1      10.069  49.096  87.650  1.00  0.00     0.210 HD
ENDBRANCH  11  34
BRANCH  19  36
HETATM   36  C24 UNL     1      12.887  54.651  89.992  1.00  0.00     0.100 C 
BRANCH  36  37
HETATM   37  C25 UNL     1      13.461  55.077  91.328  1.00  0.00    -0.001 A 
HETATM   38  C26 UNL     1      14.921  55.457  91.263  1.00  0.00     0.006 A 
HETATM   39  C27 UNL     1      13.932  56.519  91.458  1.00  0.00     0.006 A 
ENDBRANCH  36  37
ENDBRANCH  19  36
BRANCH  20  40
HETATM   40  O6  UNL     1       7.351  52.139  89.720  1.00  0.00    -0.392 OA
ATOM     41  H6  UNL     1       6.962  52.556  90.481  1.00  0.00     0.210 HD
ENDBRANCH  20  40
TORSDOF 10
ENDMDL
MODEL 4
REMARK VINA RESULT: -7.088568793      1.659      2.192
REMARK  10 active torsions:
REMARK  status: ('A' for Active; 'I' for Inactive)
REMARK    1  A    between atoms: C2_2  and  C3_3 
REMARK    2  A    between atoms: C3_3  and  C4_4 
REMARK    3  A    between atoms: C4_4  and  C5_5 
REMARK    4  A    between atoms: C6_6  and  C7_7 
REMARK    5  A    between atoms: C8_8  and  C9_9 
REMARK    6  A    between atoms: C15_16  and  O2_17 
REMARK    7  A    between atoms: C18_21  and  O3_22 
REMARK    8  A    between atoms: N1_31  and  C24_32 
REMARK    9  A    between atoms: C24_32  and  C25_33 
REMARK   10  A    between atoms: C28_36  and  O6_37 
ROOT
HETATM    1  C9  UNL     1      12.982  53.413  88.267  1.00  0.00     0.046 A 
HETATM    2  C10 UNL     1      13.244  54.607  89.129  1.00  0.00     0.050 A 
HETATM    3  C11 UNL     1      12.378  53.584  89.679  1.00  0.00     0.076 A 
HETATM    4  O1  UNL     1      12.883  52.677  90.566  1.00  0.00    -0.365 OA
HETATM    5  C12 UNL     1      12.083  52.522  91.734  1.00  0.00     0.204 C 
HETATM    6  C13 UNL     1      11.806  53.787  92.436  1.00  0.00     0.026 C 
HETATM    7  C14 UNL     1      10.445  54.387  92.142  1.00  0.00    -0.021 C 
HETATM    8  C15 UNL     1      10.353  54.700  90.658  1.00  0.00     0.156 C 
HETATM    9  C16 UNL     1      10.885  53.657  89.752  1.00  0.00     0.057 C 
HETATM   10  C17 UNL     1      10.304  52.289  89.990  1.00  0.00     0.054 C 
HETATM   11  C18 UNL     1      10.901  51.749  91.263  1.00  0.00     0.118 C 
HETATM   12  C19 UNL     1       9.892  51.368  92.307  1.00  0.00     0.199 C 
HETATM   13  O4  UNL     1      10.469  50.387  93.124  1.00  0.00    -0.310 OA
HETATM   14  C20 UNL     1      10.741  50.164  94.392  1.00  0.00     0.259 C 
HETATM   15  O5  UNL     1       9.961  49.544  95.182  1.00  0.00    -0.265 OA
HETATM   16  C21 UNL     1      12.003  50.620  95.032  1.00  0.00     0.112 C 
HETATM   17  C22 UNL     1      11.999  52.073  95.429  1.00  0.00     0.025 C 
HETATM   18  C23 UNL     1      12.832  52.957  94.523  1.00  0.00     0.096 C 
HETATM   19  N1  UNL     1      12.128  53.938  93.796  1.00  0.00    -0.284 NA
HETATM   20  C28 UNL     1       9.074  52.395  92.942  1.00  0.00     0.163 C 
HETATM   21  C29 UNL     1       9.260  53.816  92.755  1.00  0.00     0.008 C 
HETATM   22  C30 UNL     1       8.044  54.393  91.980  1.00  0.00     0.022 C 
HETATM   23  C31 UNL     1       8.990  54.518  94.115  1.00  0.00     0.022 C 
ENDROOT
BRANCH   1  24
HETATM   24  C8  UNL     1      12.075  53.597  87.110  1.00  0.00    -0.019 C 
HETATM   25  C7  UNL     1      12.360  53.466  85.857  1.00  0.00    -0.004 C 
BRANCH  25  26
HETATM   26  C6  UNL     1      13.648  53.102  85.280  1.00  0.00    -0.004 C 
HETATM   27  C5  UNL     1      14.631  53.958  85.122  1.00  0.00    -0.026 C 
BRANCH  27  28
HETATM   28  C4  UNL     1      15.904  53.497  84.527  1.00  0.00     0.031 C 
BRANCH  28  29
HETATM   29  C3  UNL     1      15.595  52.424  83.506  1.00  0.00     0.030 C 
BRANCH  29  30
HETATM   30  C2  UNL     1      16.445  52.694  82.322  1.00  0.00    -0.037 C 
HETATM   31  C1  UNL     1      15.911  52.651  81.111  1.00  0.00     0.007 C 
ENDBRANCH  29  30
ENDBRANCH  28  29
ENDBRANCH  27  28
ENDBRANCH  25  26
ENDBRANCH   1  24
BRANCH   8  32
HETATM   32  O2  UNL     1      11.091  55.876  90.348  1.00  0.00    -0.391 OA
ATOM     33  H2  UNL     1      12.001  55.664  90.176  1.00  0.00     0.210 HD
ENDBRANCH   8  32
BRANCH  11  34
HETATM   34  O3  UNL     1      11.430  50.475  90.880  1.00  0.00    -0.384 OA
ATOM     35  H3  UNL     1      10.679  49.989  90.560  1.00  0.00     0.210 HD
ENDBRANCH  11  34
BRANCH  19  36
HETATM   36  C24 UNL     1      12.708  55.266  94.082  1.00  0.00     0.100 C 
BRANCH  36  37
HETATM   37  C25 UNL     1      12.704  55.574  95.566  1.00  0.00    -0.001 A 
HETATM   38  C26 UNL     1      12.433  57.025  95.880  1.00  0.00     0.006 A 
HETATM   39  C27 UNL     1      11.392  56.041  96.179  1.00  0.00     0.006 A 
ENDBRANCH  36  37
ENDBRANCH  19  36
BRANCH  20  40
HETATM   40  O6  UNL     1       7.691  52.093  92.741  1.00  0.00    -0.392 OA
ATOM     41  H6  UNL     1       7.478  52.184  91.819  1.00  0.00     0.210 HD
ENDBRANCH  20  40
TORSDOF 10
ENDMDL
MODEL 5
REMARK VINA RESULT: -6.969662154      1.821      2.858
REMARK  10 active torsions:
REMARK  status: ('A' for Active; 'I' for Inactive)
REMARK    1  A    between atoms: C2_2  and  C3_3 
REMARK    2  A    between atoms: C3_3  and  C4_4 
REMARK    3  A    between atoms: C4_4  and  C5_5 
REMARK    4  A    between atoms: C6_6  and  C7_7 
REMARK    5  A    between atoms: C8_8  and  C9_9 
REMARK    6  A    between atoms: C15_16  and  O2_17 
REMARK    7  A    between atoms: C18_21  and  O3_22 
REMARK    8  A    between atoms: N1_31  and  C24_32 
REMARK    9  A    between atoms: C24_32  and  C25_33 
REMARK   10  A    between atoms: C28_36  and  O6_37 
ROOT
HETATM    1  C9  UNL     1      12.031  52.031  88.021  1.00  0.00     0.046 A 
HETATM    2  C10 UNL     1      12.499  53.405  88.382  1.00  0.00     0.050 A 
HETATM    3  C11 UNL     1      11.911  52.619  89.445  1.00  0.00     0.076 A 
HETATM    4  O1  UNL     1      12.721  51.974  90.336  1.00  0.00    -0.365 OA
HETATM    5  C12 UNL     1      12.353  52.189  91.695  1.00  0.00     0.204 C 
HETATM    6  C13 UNL     1      12.258  53.612  92.066  1.00  0.00     0.026 C 
HETATM    7  C14 UNL     1      10.847  54.168  92.076  1.00  0.00    -0.021 C 
HETATM    8  C15 UNL     1      10.262  54.056  90.678  1.00  0.00     0.156 C 
HETATM    9  C16 UNL     1      10.521  52.778  89.978  1.00  0.00     0.057 C 
HETATM   10  C17 UNL     1      10.117  51.560  90.764  1.00  0.00     0.054 C 
HETATM   11  C18 UNL     1      11.122  51.371  91.871  1.00  0.00     0.118 C 
HETATM   12  C19 UNL     1      10.528  51.345  93.249  1.00  0.00     0.199 C 
HETATM   13  O4  UNL     1      11.386  50.606  94.072  1.00  0.00    -0.310 OA
HETATM   14  C20 UNL     1      12.066  50.735  95.192  1.00  0.00     0.259 C 
HETATM   15  O5  UNL     1      11.617  50.397  96.332  1.00  0.00    -0.265 OA
HETATM   16  C21 UNL     1      13.444  51.292  95.232  1.00  0.00     0.112 C 
HETATM   17  C22 UNL     1      13.498  52.797  95.186  1.00  0.00     0.025 C 
HETATM   18  C23 UNL     1      13.946  53.352  93.849  1.00  0.00     0.096 C 
HETATM   19  N1  UNL     1      12.996  54.122  93.148  1.00  0.00    -0.284 NA
HETATM   20  C28 UNL     1       9.911  52.545  93.801  1.00  0.00     0.163 C 
HETATM   21  C29 UNL     1       9.955  53.847  93.176  1.00  0.00     0.008 C 
HETATM   22  C30 UNL     1       8.527  54.239  92.710  1.00  0.00     0.022 C 
HETATM   23  C31 UNL     1      10.108  54.914  94.295  1.00  0.00     0.022 C 
ENDROOT
BRANCH   1  24
HETATM   24  C8  UNL     1      10.789  51.926  87.221  1.00  0.00    -0.019 C 
HETATM   25  C7  UNL     1      10.664  52.047  85.940  1.00  0.00    -0.004 C 
BRANCH  25  26
HETATM   26  C6  UNL     1      11.722  52.316  84.975  1.00  0.00    -0.004 C 
HETATM   27  C5  UNL     1      12.797  51.572  84.862  1.00  0.00    -0.026 C 
BRANCH  27  28
HETATM   28  C4  UNL     1      13.818  51.923  83.852  1.00  0.00     0.031 C 
BRANCH  28  29
HETATM   29  C3  UNL     1      14.707  53.005  84.424  1.00  0.00     0.030 C 
BRANCH  29  30
HETATM   30  C2  UNL     1      15.966  52.994  83.641  1.00  0.00    -0.037 C 
HETATM   31  C1  UNL     1      16.216  51.986  82.820  1.00  0.00     0.007 C 
ENDBRANCH  29  30
ENDBRANCH  28  29
ENDBRANCH  27  28
ENDBRANCH  25  26
ENDBRANCH   1  24
BRANCH   8  32
HETATM   32  O2  UNL     1      10.800  55.064  89.829  1.00  0.00    -0.391 OA
ATOM     33  H2  UNL     1      10.157  55.336  89.185  1.00  0.00     0.210 HD
ENDBRANCH   8  32
BRANCH  11  34
HETATM   34  O3  UNL     1      11.559  50.018  91.708  1.00  0.00    -0.384 OA
ATOM     35  H3  UNL     1      10.871  49.601  91.203  1.00  0.00     0.210 HD
ENDBRANCH  11  34
BRANCH  19  36
HETATM   36  C24 UNL     1      13.572  55.448  92.846  1.00  0.00     0.100 C 
BRANCH  36  37
HETATM   37  C25 UNL     1      14.763  55.347  91.915  1.00  0.00    -0.001 A 
HETATM   38  C26 UNL     1      14.411  55.555  90.461  1.00  0.00     0.006 A 
HETATM   39  C27 UNL     1      15.164  56.602  91.154  1.00  0.00     0.006 A 
ENDBRANCH  36  37
ENDBRANCH  19  36
BRANCH  20  40
HETATM   40  O6  UNL     1       8.554  52.264  94.154  1.00  0.00    -0.392 OA
ATOM     41  H6  UNL     1       8.424  52.441  95.079  1.00  0.00     0.210 HD
ENDBRANCH  20  40
TORSDOF 10
ENDMDL
