MODEL 1
REMARK VINA RESULT: -7.483242977      0.000      0.000
REMARK  10 active torsions:
REMARK  status: ('A' for Active; 'I' for Inactive)
REMARK    1  A    between atoms: O1_2  and  C2_3 
REMARK    2  A    between atoms: C4_5  and  N1_6 
REMARK    3  A    between atoms: C10_13  and  O3_14 
REMARK    4  A    between atoms: O3_14  and  C11_15 
REMARK    5  A    between atoms: C14_18  and  N2_19 
REMARK    6  A    between atoms: N2_19  and  C15_20 
REMARK    7  A    between atoms: N5_29  and  C19_30 
REMARK    8  A    between atoms: C19_30  and  C20_31 
REMARK    9  A    between atoms: C20_31  and  O5_33 
REMARK   10  A    between atoms: C20_31  and  N6_35 
ROOT
HETATM    1  C15 UNL     1      12.187  53.895  89.645  1.00  0.00     0.260 A 
HETATM    2  N3  UNL     1      11.295  53.069  88.969  1.00  0.00    -0.316 N 
ATOM      3  H3  UNL     1      10.479  52.608  89.371  1.00  0.00     0.170 HD
HETATM    4  C16 UNL     1      11.694  52.989  87.712  1.00  0.00     0.064 A 
HETATM    5  C17 UNL     1      12.818  53.735  87.543  1.00  0.00     0.129 A 
HETATM    6  N4  UNL     1      13.120  54.287  88.714  1.00  0.00    -0.310 N 
ATOM      7  H4  UNL     1      13.914  54.900  88.893  1.00  0.00     0.170 HD
HETATM    8  C18 UNL     1      13.275  53.644  86.170  1.00  0.00     0.276 A 
HETATM    9  O4  UNL     1      14.314  54.275  85.771  1.00  0.00    -0.265 OA
HETATM   10  N5  UNL     1      12.398  52.797  85.457  1.00  0.00    -0.316 N 
HETATM   11  C27 UNL     1      11.360  52.398  86.397  1.00  0.00     0.191 A 
ENDROOT
BRANCH   1  12
HETATM   12  N2  UNL     1      12.152  54.183  90.801  1.00  0.00    -0.365 NA
BRANCH  12  13
HETATM   13  C14 UNL     1      12.112  54.501  92.067  1.00  0.00     0.177 A 
HETATM   14  C2  UNL     1      13.332  54.795  92.734  1.00  0.00     0.114 A 
HETATM   15  C3  UNL     1      13.384  55.143  94.049  1.00  0.00     0.069 A 
HETATM   16  C4  UNL     1      12.242  55.224  94.790  1.00  0.00     0.035 A 
HETATM   17  C9  UNL     1      11.057  54.952  94.200  1.00  0.00     0.069 A 
HETATM   18  C10 UNL     1      10.962  54.586  92.834  1.00  0.00     0.115 A 
BRANCH  14  19
HETATM   19  O1  UNL     1      14.506  54.721  92.000  1.00  0.00    -0.352 OA
HETATM   20  C1  UNL     1      15.078  55.875  91.440  1.00  0.00     0.210 C 
ENDBRANCH  14  19
BRANCH  16  21
HETATM   21  N1  UNL     1      12.284  55.599  96.158  1.00  0.00    -0.377 N 
HETATM   22  C5  UNL     1      12.485  54.625  97.202  1.00  0.00     0.149 C 
HETATM   23  C6  UNL     1      11.919  55.240  98.492  1.00  0.00     0.187 C 
HETATM   24  O2  UNL     1      10.702  55.876  98.187  1.00  0.00    -0.388 OA
HETATM   25  C7  UNL     1      10.887  57.031  97.473  1.00  0.00     0.187 C 
HETATM   26  C8  UNL     1      12.107  56.976  96.543  1.00  0.00     0.149 C 
ENDBRANCH  16  21
BRANCH  18  27
HETATM   27  O3  UNL     1       9.747  54.351  92.391  1.00  0.00    -0.343 OA
BRANCH  27  28
HETATM   28  C11 UNL     1       8.678  54.561  91.662  1.00  0.00     0.121 C 
HETATM   29  C12 UNL     1       8.836  55.576  90.523  1.00  0.00     0.040 C 
HETATM   30  C13 UNL     1       8.279  53.216  90.976  1.00  0.00     0.040 C 
ENDBRANCH  27  28
ENDBRANCH  18  27
ENDBRANCH  12  13
ENDBRANCH   1  12
BRANCH  10  31
HETATM   31  C19 UNL     1      12.479  52.364  84.109  1.00  0.00     0.127 C 
BRANCH  31  32
HETATM   32  C20 UNL     1      13.231  51.181  83.706  1.00  0.00     0.163 C 
HETATM   33  C21 UNL     1      13.168  50.115  84.835  1.00  0.00     0.077 C 
BRANCH  32  34
HETATM   34  O5  UNL     1      12.425  50.575  82.669  1.00  0.00    -0.366 OA
ATOM     35  H5  UNL     1      12.224  49.708  83.000  1.00  0.00     0.213 HD
ENDBRANCH  32  34
BRANCH  32  36
HETATM   36  N6  UNL     1      14.527  51.169  83.225  1.00  0.00    -0.358 N 
HETATM   37  C22 UNL     1      14.602  50.792  81.817  1.00  0.00     0.125 C 
HETATM   38  C23 UNL     1      14.715  51.994  80.900  1.00  0.00     0.020 C 
HETATM   39  C24 UNL     1      15.774  52.976  81.357  1.00  0.00     0.007 C 
HETATM   40  C25 UNL     1      16.510  52.279  82.482  1.00  0.00     0.044 C 
HETATM   41  C26 UNL     1      15.507  52.092  83.602  1.00  0.00     0.061 C 
ENDBRANCH  32  36
ENDBRANCH  31  32
ENDBRANCH  10  31
TORSDOF 10
ENDMDL
MODEL 2
REMARK VINA RESULT: -7.336887021      0.858      1.167
REMARK  10 active torsions:
REMARK  status: ('A' for Active; 'I' for Inactive)
REMARK    1  A    between atoms: O1_2  and  C2_3 
REMARK    2  A    between atoms: C4_5  and  N1_6 
REMARK    3  A    between atoms: C10_13  and  O3_14 
REMARK    4  A    between atoms: O3_14  and  C11_15 
REMARK    5  A    between atoms: C14_18  and  N2_19 
REMARK    6  A    between atoms: N2_19  and  C15_20 
REMARK    7  A    between atoms: N5_29  and  C19_30 
REMARK    8  A    between atoms: C19_30  and  C20_31 
REMARK    9  A    between atoms: C20_31  and  O5_33 
REMARK   10  A    between atoms: C20_31  and  N6_35 
ROOT
HETATM    1  C15 UNL     1      12.289  53.805  89.469  1.00  0.00     0.260 A 
HETATM    2  N3  UNL     1      13.143  54.298  88.487  1.00  0.00    -0.316 N 
ATOM      3  H3  UNL     1      13.865  55.005  88.618  1.00  0.00     0.170 HD
HETATM    4  C16 UNL     1      12.849  53.684  87.354  1.00  0.00     0.064 A 
HETATM    5  C17 UNL     1      11.832  52.806  87.563  1.00  0.00     0.129 A 
HETATM    6  N4  UNL     1      11.490  52.877  88.845  1.00  0.00    -0.310 N 
ATOM      7  H4  UNL     1      10.754  52.332  89.294  1.00  0.00     0.170 HD
HETATM    8  C18 UNL     1      11.490  52.137  86.323  1.00  0.00     0.276 A 
HETATM    9  O4  UNL     1      10.564  51.255  86.276  1.00  0.00    -0.265 OA
HETATM   10  N5  UNL     1      12.329  52.626  85.298  1.00  0.00    -0.316 N 
HETATM   11  C27 UNL     1      13.231  53.580  85.929  1.00  0.00     0.191 A 
ENDROOT
BRANCH   1  12
HETATM   12  N2  UNL     1      12.253  54.140  90.612  1.00  0.00    -0.365 NA
BRANCH  12  13
HETATM   13  C14 UNL     1      12.212  54.508  91.865  1.00  0.00     0.177 A 
HETATM   14  C2  UNL     1      13.422  54.895  92.501  1.00  0.00     0.114 A 
HETATM   15  C3  UNL     1      13.473  55.302  93.799  1.00  0.00     0.069 A 
HETATM   16  C4  UNL     1      12.337  55.351  94.554  1.00  0.00     0.035 A 
HETATM   17  C9  UNL     1      11.161  54.991  93.993  1.00  0.00     0.069 A 
HETATM   18  C10 UNL     1      11.069  54.564  92.645  1.00  0.00     0.115 A 
BRANCH  14  19
HETATM   19  O1  UNL     1      14.590  54.853  91.753  1.00  0.00    -0.352 OA
HETATM   20  C1  UNL     1      15.103  56.017  91.155  1.00  0.00     0.210 C 
ENDBRANCH  14  19
BRANCH  16  21
HETATM   21  N1  UNL     1      12.376  55.786  95.904  1.00  0.00    -0.377 N 
HETATM   22  C5  UNL     1      12.471  54.849  96.996  1.00  0.00     0.149 C 
HETATM   23  C6  UNL     1      11.925  55.568  98.240  1.00  0.00     0.187 C 
HETATM   24  O2  UNL     1      10.773  56.285  97.872  1.00  0.00    -0.388 OA
HETATM   25  C7  UNL     1      11.070  57.386  97.113  1.00  0.00     0.187 C 
HETATM   26  C8  UNL     1      12.304  57.190  96.221  1.00  0.00     0.149 C 
ENDBRANCH  16  21
BRANCH  18  27
HETATM   27  O3  UNL     1       9.863  54.245  92.230  1.00  0.00    -0.343 OA
BRANCH  27  28
HETATM   28  C11 UNL     1       8.779  54.360  91.503  1.00  0.00     0.121 C 
HETATM   29  C12 UNL     1       8.841  55.395  90.373  1.00  0.00     0.040 C 
HETATM   30  C13 UNL     1       8.508  52.990  90.804  1.00  0.00     0.040 C 
ENDBRANCH  27  28
ENDBRANCH  18  27
ENDBRANCH  12  13
ENDBRANCH   1  12
BRANCH  10  31
HETATM   31  C19 UNL     1      12.320  52.313  83.915  1.00  0.00     0.127 C 
BRANCH  31  32
HETATM   32  C20 UNL     1      13.135  51.246  83.344  1.00  0.00     0.163 C 
HETATM   33  C21 UNL     1      12.853  49.917  84.099  1.00  0.00     0.077 C 
BRANCH  32  34
HETATM   34  O5  UNL     1      12.542  50.992  82.049  1.00  0.00    -0.366 OA
ATOM     35  H5  UNL     1      13.242  51.164  81.429  1.00  0.00     0.213 HD
ENDBRANCH  32  34
BRANCH  32  36
HETATM   36  N6  UNL     1      14.499  51.294  83.126  1.00  0.00    -0.358 N 
HETATM   37  C22 UNL     1      14.874  50.829  81.796  1.00  0.00     0.125 C 
HETATM   38  C23 UNL     1      15.098  51.971  80.824  1.00  0.00     0.020 C 
HETATM   39  C24 UNL     1      15.987  53.055  81.396  1.00  0.00     0.007 C 
HETATM   40  C25 UNL     1      16.523  52.491  82.695  1.00  0.00     0.044 C 
HETATM   41  C26 UNL     1      15.330  52.309  83.610  1.00  0.00     0.061 C 
ENDBRANCH  32  36
ENDBRANCH  31  32
ENDBRANCH  10  31
TORSDOF 10
ENDMDL
MODEL 3
REMARK VINA RESULT: -7.214097095      0.808      2.731
REMARK  10 active torsions:
REMARK  status: ('A' for Active; 'I' for Inactive)
REMARK    1  A    between atoms: O1_2  and  C2_3 
REMARK    2  A    between atoms: C4_5  and  N1_6 
REMARK    3  A    between atoms: C10_13  and  O3_14 
REMARK    4  A    between atoms: O3_14  and  C11_15 
REMARK    5  A    between atoms: C14_18  and  N2_19 
REMARK    6  A    between atoms: N2_19  and  C15_20 
REMARK    7  A    between atoms: N5_29  and  C19_30 
REMARK    8  A    between atoms: C19_30  and  C20_31 
REMARK    9  A    between atoms: C20_31  and  O5_33 
REMARK   10  A    between atoms: C20_31  and  N6_35 
ROOT
HETATM    1  C15 UNL     1      11.789  53.853  89.738  1.00  0.00     0.260 A 
HETATM    2  N3  UNL     1      10.916  53.044  89.018  1.00  0.00    -0.316 N 
ATOM      3  H3  UNL     1      10.075  52.596  89.381  1.00  0.00     0.170 HD
HETATM    4  C16 UNL     1      11.371  52.963  87.780  1.00  0.00     0.064 A 
HETATM    5  C17 UNL     1      12.513  53.691  87.667  1.00  0.00     0.129 A 
HETATM    6  N4  UNL     1      12.770  54.233  88.853  1.00  0.00    -0.310 N 
ATOM      7  H4  UNL     1      13.565  54.833  89.071  1.00  0.00     0.170 HD
HETATM    8  C18 UNL     1      13.031  53.597  86.316  1.00  0.00     0.276 A 
HETATM    9  O4  UNL     1      14.098  54.212  85.968  1.00  0.00    -0.265 OA
HETATM   10  N5  UNL     1      12.175  52.768  85.560  1.00  0.00    -0.316 N 
HETATM   11  C27 UNL     1      11.088  52.383  86.449  1.00  0.00     0.191 A 
ENDROOT
BRANCH   1  12
HETATM   12  N2  UNL     1      11.706  54.138  90.892  1.00  0.00    -0.365 NA
BRANCH  12  13
HETATM   13  C14 UNL     1      11.617  54.452  92.157  1.00  0.00     0.177 A 
HETATM   14  C2  UNL     1      10.385  54.224  92.829  1.00  0.00     0.114 A 
HETATM   15  C3  UNL     1      10.204  54.513  94.147  1.00  0.00     0.069 A 
HETATM   16  C4  UNL     1      11.220  55.044  94.886  1.00  0.00     0.035 A 
HETATM   17  C9  UNL     1      12.410  55.280  94.290  1.00  0.00     0.069 A 
HETATM   18  C10 UNL     1      12.637  54.992  92.921  1.00  0.00     0.115 A 
BRANCH  14  19
HETATM   19  O1  UNL     1       9.338  53.684  92.098  1.00  0.00    -0.352 OA
HETATM   20  C1  UNL     1       8.247  54.479  91.708  1.00  0.00     0.210 C 
ENDBRANCH  14  19
BRANCH  16  21
HETATM   21  N1  UNL     1      11.046  55.337  96.264  1.00  0.00    -0.377 N 
HETATM   22  C5  UNL     1      11.726  56.441  96.893  1.00  0.00     0.149 C 
HETATM   23  C6  UNL     1      11.776  56.127  98.397  1.00  0.00     0.187 C 
HETATM   24  O2  UNL     1      12.094  54.767  98.559  1.00  0.00    -0.388 OA
HETATM   25  C7  UNL     1      11.052  53.947  98.212  1.00  0.00     0.187 C 
HETATM   26  C8  UNL     1      10.187  54.518  97.081  1.00  0.00     0.149 C 
ENDBRANCH  16  21
BRANCH  18  27
HETATM   27  O3  UNL     1      13.841  55.271  92.474  1.00  0.00    -0.343 OA
BRANCH  27  28
HETATM   28  C11 UNL     1      14.743  55.956  91.814  1.00  0.00     0.121 C 
HETATM   29  C12 UNL     1      15.576  55.160  90.801  1.00  0.00     0.040 C 
HETATM   30  C13 UNL     1      14.013  57.060  90.985  1.00  0.00     0.040 C 
ENDBRANCH  27  28
ENDBRANCH  18  27
ENDBRANCH  12  13
ENDBRANCH   1  12
BRANCH  10  31
HETATM   31  C19 UNL     1      12.310  52.338  84.215  1.00  0.00     0.127 C 
BRANCH  31  32
HETATM   32  C20 UNL     1      13.076  51.155  83.840  1.00  0.00     0.163 C 
HETATM   33  C21 UNL     1      13.055  50.131  85.009  1.00  0.00     0.077 C 
BRANCH  32  34
HETATM   34  O5  UNL     1      12.260  50.496  82.843  1.00  0.00    -0.366 OA
ATOM     35  H5  UNL     1      11.369  50.597  83.160  1.00  0.00     0.213 HD
ENDBRANCH  32  34
BRANCH  32  36
HETATM   36  N6  UNL     1      14.361  51.147  83.332  1.00  0.00    -0.358 N 
HETATM   37  C22 UNL     1      14.407  50.789  81.919  1.00  0.00     0.125 C 
HETATM   38  C23 UNL     1      14.502  52.002  81.014  1.00  0.00     0.020 C 
HETATM   39  C24 UNL     1      15.571  52.977  81.462  1.00  0.00     0.007 C 
HETATM   40  C25 UNL     1      16.330  52.265  82.562  1.00  0.00     0.044 C 
HETATM   41  C26 UNL     1      15.350  52.064  83.700  1.00  0.00     0.061 C 
ENDBRANCH  32  36
ENDBRANCH  31  32
ENDBRANCH  10  31
TORSDOF 10
ENDMDL
MODEL 4
REMARK VINA RESULT: -6.924142294      1.638      3.197
REMARK  10 active torsions:
REMARK  status: ('A' for Active; 'I' for Inactive)
REMARK    1  A    between atoms: O1_2  and  C2_3 
REMARK    2  A    between atoms: C4_5  and  N1_6 
REMARK    3  A    between atoms: C10_13  and  O3_14 
REMARK    4  A    between atoms: O3_14  and  C11_15 
REMARK    5  A    between atoms: C14_18  and  N2_19 
REMARK    6  A    between atoms: N2_19  and  C15_20 
REMARK    7  A    between atoms: N5_29  and  C19_30 
REMARK    8  A    between atoms: C19_30  and  C20_31 
REMARK    9  A    between atoms: C20_31  and  O5_33 
REMARK   10  A    between atoms: C20_31  and  N6_35 
ROOT
HETATM    1  C15 UNL     1      11.678  53.078  88.557  1.00  0.00     0.260 A 
HETATM    2  N3  UNL     1      11.317  53.782  87.412  1.00  0.00    -0.316 N 
ATOM      3  H3  UNL     1      10.984  54.745  87.379  1.00  0.00     0.170 HD
HETATM    4  C16 UNL     1      11.484  52.978  86.377  1.00  0.00     0.064 A 
HETATM    5  C17 UNL     1      11.942  51.772  86.806  1.00  0.00     0.129 A 
HETATM    6  N4  UNL     1      12.060  51.829  88.128  1.00  0.00    -0.310 N 
ATOM      7  H4  UNL     1      12.383  51.070  88.728  1.00  0.00     0.170 HD
HETATM    8  C18 UNL     1      12.115  50.876  85.680  1.00  0.00     0.276 A 
HETATM    9  O4  UNL     1      12.548  49.682  85.839  1.00  0.00    -0.265 OA
HETATM   10  N5  UNL     1      11.741  51.555  84.500  1.00  0.00    -0.316 N 
HETATM   11  C27 UNL     1      11.376  52.906  84.903  1.00  0.00     0.191 A 
ENDROOT
BRANCH   1  12
HETATM   12  N2  UNL     1      11.641  53.479  89.679  1.00  0.00    -0.365 NA
BRANCH  12  13
HETATM   13  C14 UNL     1      11.600  53.921  90.907  1.00  0.00     0.177 A 
HETATM   14  C2  UNL     1      10.376  53.824  91.624  1.00  0.00     0.114 A 
HETATM   15  C3  UNL     1      10.243  54.250  92.911  1.00  0.00     0.069 A 
HETATM   16  C4  UNL     1      11.303  54.799  93.571  1.00  0.00     0.035 A 
HETATM   17  C9  UNL     1      12.488  54.913  92.930  1.00  0.00     0.069 A 
HETATM   18  C10 UNL     1      12.665  54.480  91.592  1.00  0.00     0.115 A 
BRANCH  14  19
HETATM   19  O1  UNL     1       9.285  53.269  90.973  1.00  0.00    -0.352 OA
HETATM   20  C1  UNL     1       8.822  51.986  91.310  1.00  0.00     0.210 C 
ENDBRANCH  14  19
BRANCH  16  21
HETATM   21  N1  UNL     1      11.179  55.234  94.916  1.00  0.00    -0.377 N 
HETATM   22  C5  UNL     1       9.895  55.328  95.565  1.00  0.00     0.149 C 
HETATM   23  C6  UNL     1      10.058  56.325  96.722  1.00  0.00     0.187 C 
HETATM   24  O2  UNL     1      10.831  57.410  96.271  1.00  0.00    -0.388 OA
HETATM   25  C7  UNL     1      12.148  57.073  96.103  1.00  0.00     0.187 C 
HETATM   26  C8  UNL     1      12.347  55.614  95.671  1.00  0.00     0.149 C 
ENDBRANCH  16  21
BRANCH  18  27
HETATM   27  O3  UNL     1      13.869  54.651  91.094  1.00  0.00    -0.343 OA
BRANCH  27  28
HETATM   28  C11 UNL     1      14.789  55.227  90.360  1.00  0.00     0.121 C 
HETATM   29  C12 UNL     1      14.370  55.593  88.930  1.00  0.00     0.040 C 
HETATM   30  C13 UNL     1      15.188  56.575  91.040  1.00  0.00     0.040 C 
ENDBRANCH  27  28
ENDBRANCH  18  27
ENDBRANCH  12  13
ENDBRANCH   1  12
BRANCH  10  31
HETATM   31  C19 UNL     1      11.684  51.065  83.170  1.00  0.00     0.127 C 
BRANCH  31  32
HETATM   32  C20 UNL     1      12.850  51.025  82.295  1.00  0.00     0.163 C 
HETATM   33  C21 UNL     1      12.797  49.744  81.416  1.00  0.00     0.077 C 
BRANCH  32  34
HETATM   34  O5  UNL     1      12.611  52.071  81.324  1.00  0.00    -0.366 OA
ATOM     35  H5  UNL     1      12.394  52.835  81.846  1.00  0.00     0.213 HD
ENDBRANCH  32  34
BRANCH  32  36
HETATM   36  N6  UNL     1      14.166  51.178  82.689  1.00  0.00    -0.358 N 
HETATM   37  C22 UNL     1      15.114  50.733  81.674  1.00  0.00     0.125 C 
HETATM   38  C23 UNL     1      15.663  51.881  80.849  1.00  0.00     0.020 C 
HETATM   39  C24 UNL     1      16.138  53.037  81.705  1.00  0.00     0.007 C 
HETATM   40  C25 UNL     1      16.091  52.527  83.131  1.00  0.00     0.044 C 
HETATM   41  C26 UNL     1      14.633  52.259  83.444  1.00  0.00     0.061 C 
ENDBRANCH  32  36
ENDBRANCH  31  32
ENDBRANCH  10  31
TORSDOF 10
ENDMDL
MODEL 5
REMARK VINA RESULT: -6.842952897      1.370      1.817
REMARK  10 active torsions:
REMARK  status: ('A' for Active; 'I' for Inactive)
REMARK    1  A    between atoms: O1_2  and  C2_3 
REMARK    2  A    between atoms: C4_5  and  N1_6 
REMARK    3  A    between atoms: C10_13  and  O3_14 
REMARK    4  A    between atoms: O3_14  and  C11_15 
REMARK    5  A    between atoms: C14_18  and  N2_19 
REMARK    6  A    between atoms: N2_19  and  C15_20 
REMARK    7  A    between atoms: N5_29  and  C19_30 
REMARK    8  A    between atoms: C19_30  and  C20_31 
REMARK    9  A    between atoms: C20_31  and  O5_33 
REMARK   10  A    between atoms: C20_31  and  N6_35 
ROOT
HETATM    1  C15 UNL     1      11.893  53.711  89.513  1.00  0.00     0.260 A 
HETATM    2  N3  UNL     1      12.796  54.085  88.523  1.00  0.00    -0.316 N 
ATOM      3  H3  UNL     1      13.605  54.694  88.646  1.00  0.00     0.170 HD
HETATM    4  C16 UNL     1      12.417  53.510  87.395  1.00  0.00     0.064 A 
HETATM    5  C17 UNL     1      11.297  52.772  87.614  1.00  0.00     0.129 A 
HETATM    6  N4  UNL     1      10.976  52.892  88.899  1.00  0.00    -0.310 N 
ATOM      7  H4  UNL     1      10.179  52.448  89.354  1.00  0.00     0.170 HD
HETATM    8  C18 UNL     1      10.863  52.147  86.381  1.00  0.00     0.276 A 
HETATM    9  O4  UNL     1       9.830  51.392  86.344  1.00  0.00    -0.265 OA
HETATM   10  N5  UNL     1      11.751  52.520  85.348  1.00  0.00    -0.316 N 
HETATM   11  C27 UNL     1      12.773  53.351  85.968  1.00  0.00     0.191 A 
ENDROOT
BRANCH   1  12
HETATM   12  N2  UNL     1      11.908  54.052  90.655  1.00  0.00    -0.365 NA
BRANCH  12  13
HETATM   13  C14 UNL     1      11.925  54.423  91.907  1.00  0.00     0.177 A 
HETATM   14  C2  UNL     1      13.175  54.729  92.509  1.00  0.00     0.114 A 
HETATM   15  C3  UNL     1      13.287  55.132  93.805  1.00  0.00     0.069 A 
HETATM   16  C4  UNL     1      12.178  55.259  94.589  1.00  0.00     0.035 A 
HETATM   17  C9  UNL     1      10.966  54.978  94.061  1.00  0.00     0.069 A 
HETATM   18  C10 UNL     1      10.810  54.556  92.717  1.00  0.00     0.115 A 
BRANCH  14  19
HETATM   19  O1  UNL     1      14.317  54.609  91.731  1.00  0.00    -0.352 OA
HETATM   20  C1  UNL     1      15.034  55.746  91.326  1.00  0.00     0.210 C 
ENDBRANCH  14  19
BRANCH  16  21
HETATM   21  N1  UNL     1      12.282  55.691  95.937  1.00  0.00    -0.377 N 
HETATM   22  C5  UNL     1      12.429  54.752  97.021  1.00  0.00     0.149 C 
HETATM   23  C6  UNL     1      11.944  55.468  98.291  1.00  0.00     0.187 C 
HETATM   24  O2  UNL     1      10.776  56.187  97.981  1.00  0.00    -0.388 OA
HETATM   25  C7  UNL     1      11.036  57.289  97.210  1.00  0.00     0.187 C 
HETATM   26  C8  UNL     1      12.226  57.094  96.260  1.00  0.00     0.149 C 
ENDBRANCH  16  21
BRANCH  18  27
HETATM   27  O3  UNL     1       9.575  54.319  92.336  1.00  0.00    -0.343 OA
BRANCH  27  28
HETATM   28  C11 UNL     1       8.475  54.518  91.651  1.00  0.00     0.121 C 
HETATM   29  C12 UNL     1       8.576  55.536  90.508  1.00  0.00     0.040 C 
HETATM   30  C13 UNL     1       8.062  53.170  90.980  1.00  0.00     0.040 C 
ENDBRANCH  27  28
ENDBRANCH  18  27
ENDBRANCH  12  13
ENDBRANCH   1  12
BRANCH  10  31
HETATM   31  C19 UNL     1      11.692  52.205  83.966  1.00  0.00     0.127 C 
BRANCH  31  32
HETATM   32  C20 UNL     1      11.852  50.846  83.461  1.00  0.00     0.163 C 
HETATM   33  C21 UNL     1      12.894  50.087  84.330  1.00  0.00     0.077 C 
BRANCH  32  34
HETATM   34  O5  UNL     1      10.617  50.181  83.816  1.00  0.00    -0.366 OA
ATOM     35  H5  UNL     1      10.861  49.269  83.930  1.00  0.00     0.213 HD
ENDBRANCH  32  34
BRANCH  32  36
HETATM   36  N6  UNL     1      12.101  50.492  82.149  1.00  0.00    -0.358 N 
HETATM   37  C22 UNL     1      12.452  51.634  81.313  1.00  0.00     0.125 C 
HETATM   38  C23 UNL     1      13.949  51.777  81.123  1.00  0.00     0.020 C 
HETATM   39  C24 UNL     1      14.612  50.472  80.733  1.00  0.00     0.007 C 
HETATM   40  C25 UNL     1      13.474  49.511  80.455  1.00  0.00     0.044 C 
HETATM   41  C26 UNL     1      12.749  49.312  81.770  1.00  0.00     0.061 C 
ENDBRANCH  32  36
ENDBRANCH  31  32
ENDBRANCH  10  31
TORSDOF 10
ENDMDL
