MODEL 1
REMARK VINA RESULT: -7.653080344      0.000      0.000
REMARK  8 active torsions:
REMARK  status: ('A' for Active; 'I' for Inactive)
REMARK    1  A    between atoms: C2_2  and  C4_4 
REMARK    2  A    between atoms: C4_4  and  N1_5 
REMARK    3  A    between atoms: C4_4  and  C20_33 
REMARK    4  A    between atoms: N1_5  and  C5_7 
REMARK    5  A    between atoms: C11_15  and  C12_16 
REMARK       I    between atoms: C12_16  and  N3_18 
REMARK    6  A    between atoms: N3_18  and  C13_20 
REMARK    7  A    between atoms: C13_20  and  C14_21 
REMARK    8  A    between atoms: C18_27  and  C19_28 
ROOT
HETATM    1  C14 UNL     1      28.828  11.230  16.257  1.00  0.00     0.143 C 
HETATM    2  C15 UNL     1      27.525  10.612  16.494  1.00  0.00     0.060 C 
HETATM    3  N4  UNL     1      26.487  10.126  16.699  1.00  0.00    -0.197 NA
ENDROOT
BRANCH   1   4
HETATM    4  C13 UNL     1      29.078  11.278  14.772  1.00  0.00     0.136 C 
BRANCH   4   5
HETATM    5  N3  UNL     1      28.386  10.225  14.072  1.00  0.00    -0.360 N 
HETATM    6  C12 UNL     1      29.081   9.081  13.649  1.00  0.00     0.223 C 
HETATM    7  O1  UNL     1      30.317   8.998  13.896  1.00  0.00    -0.273 OA
ATOM      8  H3  UNL     1      27.387  10.312  13.883  1.00  0.00     0.162 HD
BRANCH   6   9
HETATM    9  C11 UNL     1      28.378   7.966  12.916  1.00  0.00     0.100 C 
HETATM   10  C10 UNL     1      28.529   8.237  11.449  1.00  0.00     0.043 C 
HETATM   11  C9  UNL     1      27.573   7.463  10.593  1.00  0.00     0.131 C 
HETATM   12  C6  UNL     1      28.234   6.464   9.704  1.00  0.00     0.061 C 
HETATM   13  N6  UNL     1      26.645   6.674  11.368  1.00  0.00    -0.196 N 
HETATM   14  N2  UNL     1      27.458   5.271   9.844  1.00  0.00    -0.216 N 
HETATM   15  C7  UNL     1      29.649   6.127  10.060  1.00  0.00     0.041 C 
HETATM   16  C8  UNL     1      28.236   6.963   8.266  1.00  0.00     0.041 C 
HETATM   17  C5  UNL     1      26.561   5.378  10.761  1.00  0.00     0.678 C 
ATOM     18  H2  UNL     1      27.599   4.431   9.280  1.00  0.00     0.178 HD
HETATM   19  C18 UNL     1      26.002   7.204  12.523  1.00  0.00     0.228 C 
HETATM   20  C16 UNL     1      26.978   7.915  13.425  1.00  0.00     0.138 C 
HETATM   21  C17 UNL     1      27.000   7.222  14.714  1.00  0.00     0.067 C 
HETATM   22  N5  UNL     1      27.001   6.684  15.743  1.00  0.00    -0.197 NA
BRANCH  17  23
HETATM   23  N1  UNL     1      25.663   4.332  11.093  1.00  0.00    -0.189 N 
ATOM     24  H1  UNL     1      25.836   3.847  11.973  1.00  0.00     0.184 HD
BRANCH  23  25
HETATM   25  C4  UNL     1      24.547   3.883  10.335  1.00  0.00     0.106 C 
BRANCH  25  26
HETATM   26  C2  UNL     1      24.773   2.753   9.389  1.00  0.00     0.035 C 
HETATM   27  C1  UNL     1      24.600   1.459  10.115  1.00  0.00     0.016 C 
HETATM   28  C3  UNL     1      23.984   2.738   8.138  1.00  0.00     0.016 C 
ENDBRANCH  25  26
BRANCH  25  29
HETATM   29  C20 UNL     1      23.285   3.726  11.095  1.00  0.00     0.223 C 
HETATM   30  O2  UNL     1      23.309   3.301  12.256  1.00  0.00    -0.643 OA
HETATM   31  O3  UNL     1      22.095   4.054  10.496  1.00  0.00    -0.643 OA
ENDBRANCH  25  29
ENDBRANCH  23  25
ENDBRANCH  17  23
BRANCH  19  32
HETATM   32  C19 UNL     1      24.964   8.251  12.122  1.00  0.00     0.409 C 
HETATM   33  F1  UNL     1      23.923   8.197  13.061  1.00  0.00    -0.169 F 
HETATM   34  F2  UNL     1      24.385   8.008  10.915  1.00  0.00    -0.169 F 
HETATM   35  F3  UNL     1      25.463   9.529  12.226  1.00  0.00    -0.169 F 
ENDBRANCH  19  32
ENDBRANCH   6   9
ENDBRANCH   4   5
ENDBRANCH   1   4
TORSDOF 8
ENDMDL
MODEL 2
REMARK VINA RESULT: -7.610261289      1.694      2.419
REMARK  8 active torsions:
REMARK  status: ('A' for Active; 'I' for Inactive)
REMARK    1  A    between atoms: C2_2  and  C4_4 
REMARK    2  A    between atoms: C4_4  and  N1_5 
REMARK    3  A    between atoms: C4_4  and  C20_33 
REMARK    4  A    between atoms: N1_5  and  C5_7 
REMARK    5  A    between atoms: C11_15  and  C12_16 
REMARK       I    between atoms: C12_16  and  N3_18 
REMARK    6  A    between atoms: N3_18  and  C13_20 
REMARK    7  A    between atoms: C13_20  and  C14_21 
REMARK    8  A    between atoms: C18_27  and  C19_28 
ROOT
HETATM    1  C14 UNL     1      30.442  13.081  12.264  1.00  0.00     0.143 C 
HETATM    2  C15 UNL     1      29.934  12.764  10.931  1.00  0.00     0.060 C 
HETATM    3  N4  UNL     1      29.545  12.515   9.862  1.00  0.00    -0.197 NA
ENDROOT
BRANCH   1   4
HETATM    4  C13 UNL     1      29.513  12.485  13.290  1.00  0.00     0.136 C 
BRANCH   4   5
HETATM    5  N3  UNL     1      28.884  11.279  12.816  1.00  0.00    -0.360 N 
HETATM    6  C12 UNL     1      29.260  10.031  13.340  1.00  0.00     0.223 C 
HETATM    7  O1  UNL     1      30.155   9.995  14.230  1.00  0.00    -0.273 OA
ATOM      8  H3  UNL     1      28.163  11.331  12.096  1.00  0.00     0.162 HD
BRANCH   6   9
HETATM    9  C11 UNL     1      28.616   8.755  12.860  1.00  0.00     0.100 C 
HETATM   10  C10 UNL     1      28.776   8.713  11.369  1.00  0.00     0.043 C 
HETATM   11  C9  UNL     1      27.865   7.732  10.695  1.00  0.00     0.131 C 
HETATM   12  C6  UNL     1      28.580   6.597  10.044  1.00  0.00     0.061 C 
HETATM   13  N6  UNL     1      26.961   7.086  11.618  1.00  0.00    -0.196 N 
HETATM   14  N2  UNL     1      27.854   5.427  10.433  1.00  0.00    -0.216 N 
HETATM   15  C7  UNL     1      30.004   6.407  10.470  1.00  0.00     0.041 C 
HETATM   16  C8  UNL     1      28.581   6.776   8.532  1.00  0.00     0.041 C 
HETATM   17  C5  UNL     1      26.942   5.687  11.302  1.00  0.00     0.678 C 
ATOM     18  H2  UNL     1      28.039   4.494  10.063  1.00  0.00     0.178 HD
HETATM   19  C18 UNL     1      26.281   7.821  12.629  1.00  0.00     0.228 C 
HETATM   20  C16 UNL     1      27.213   8.752  13.362  1.00  0.00     0.138 C 
HETATM   21  C17 UNL     1      27.247   8.353  14.769  1.00  0.00     0.067 C 
HETATM   22  N5  UNL     1      27.257   8.048  15.890  1.00  0.00    -0.197 NA
BRANCH  17  23
HETATM   23  N1  UNL     1      26.084   4.697  11.846  1.00  0.00    -0.189 N 
ATOM     24  H1  UNL     1      26.532   3.958  12.388  1.00  0.00     0.184 HD
BRANCH  23  25
HETATM   25  C4  UNL     1      24.671   4.620  11.721  1.00  0.00     0.106 C 
BRANCH  25  26
HETATM   26  C2  UNL     1      24.121   3.569  10.818  1.00  0.00     0.035 C 
HETATM   27  C1  UNL     1      22.917   4.102  10.114  1.00  0.00     0.016 C 
HETATM   28  C3  UNL     1      25.045   2.955   9.838  1.00  0.00     0.016 C 
ENDBRANCH  25  26
BRANCH  25  29
HETATM   29  C20 UNL     1      23.915   4.708  12.993  1.00  0.00     0.223 C 
HETATM   30  O2  UNL     1      23.905   5.763  13.637  1.00  0.00    -0.643 OA
HETATM   31  O3  UNL     1      23.231   3.607  13.444  1.00  0.00    -0.643 OA
ENDBRANCH  25  29
ENDBRANCH  23  25
ENDBRANCH  17  23
BRANCH  19  32
HETATM   32  C19 UNL     1      25.204   8.710  12.009  1.00  0.00     0.409 C 
HETATM   33  F1  UNL     1      24.184   8.868  12.960  1.00  0.00    -0.169 F 
HETATM   34  F2  UNL     1      24.608   8.161  10.917  1.00  0.00    -0.169 F 
HETATM   35  F3  UNL     1      25.667   9.986  11.778  1.00  0.00    -0.169 F 
ENDBRANCH  19  32
ENDBRANCH   6   9
ENDBRANCH   4   5
ENDBRANCH   1   4
TORSDOF 8
ENDMDL
MODEL 3
REMARK VINA RESULT: -7.566930512      3.330      5.107
REMARK  8 active torsions:
REMARK  status: ('A' for Active; 'I' for Inactive)
REMARK    1  A    between atoms: C2_2  and  C4_4 
REMARK    2  A    between atoms: C4_4  and  N1_5 
REMARK    3  A    between atoms: C4_4  and  C20_33 
REMARK    4  A    between atoms: N1_5  and  C5_7 
REMARK    5  A    between atoms: C11_15  and  C12_16 
REMARK       I    between atoms: C12_16  and  N3_18 
REMARK    6  A    between atoms: N3_18  and  C13_20 
REMARK    7  A    between atoms: C13_20  and  C14_21 
REMARK    8  A    between atoms: C18_27  and  C19_28 
ROOT
HETATM    1  C14 UNL     1      23.316  14.345  16.347  1.00  0.00     0.143 C 
HETATM    2  C15 UNL     1      22.833  14.073  14.995  1.00  0.00     0.060 C 
HETATM    3  N4  UNL     1      22.450  13.873  13.914  1.00  0.00    -0.197 NA
ENDROOT
BRANCH   1   4
HETATM    4  C13 UNL     1      23.769  13.049  16.969  1.00  0.00     0.136 C 
BRANCH   4   5
HETATM    5  N3  UNL     1      23.735  11.957  16.030  1.00  0.00    -0.360 N 
HETATM    6  C12 UNL     1      24.925  11.321  15.640  1.00  0.00     0.223 C 
HETATM    7  O1  UNL     1      26.016  11.727  16.130  1.00  0.00    -0.273 OA
ATOM      8  H3  UNL     1      22.843  11.644  15.646  1.00  0.00     0.162 HD
BRANCH   6   9
HETATM    9  C11 UNL     1      24.914  10.176  14.659  1.00  0.00     0.100 C 
HETATM   10  C10 UNL     1      25.142   8.919  15.444  1.00  0.00     0.043 C 
HETATM   11  C9  UNL     1      25.552   7.749  14.601  1.00  0.00     0.131 C 
HETATM   12  C6  UNL     1      24.547   6.647  14.573  1.00  0.00     0.061 C 
HETATM   13  N6  UNL     1      25.720   8.098  13.210  1.00  0.00    -0.196 N 
HETATM   14  N2  UNL     1      24.436   6.280  13.194  1.00  0.00    -0.216 N 
HETATM   15  C7  UNL     1      23.177   7.016  15.053  1.00  0.00     0.041 C 
HETATM   16  C8  UNL     1      25.025   5.480  15.424  1.00  0.00     0.041 C 
HETATM   17  C5  UNL     1      25.094   7.074  12.425  1.00  0.00     0.678 C 
ATOM     18  H2  UNL     1      23.897   5.480  12.860  1.00  0.00     0.178 HD
HETATM   19  C18 UNL     1      26.399   9.287  12.818  1.00  0.00     0.228 C 
HETATM   20  C16 UNL     1      25.930  10.480  13.612  1.00  0.00     0.138 C 
HETATM   21  C17 UNL     1      25.337  11.444  12.685  1.00  0.00     0.067 C 
HETATM   22  N5  UNL     1      24.885  12.217  11.946  1.00  0.00    -0.197 NA
BRANCH  17  23
HETATM   23  N1  UNL     1      25.144   6.924  11.015  1.00  0.00    -0.189 N 
ATOM     24  H1  UNL     1      24.365   7.321  10.489  1.00  0.00     0.184 HD
BRANCH  23  25
HETATM   25  C4  UNL     1      26.157   6.281  10.254  1.00  0.00     0.106 C 
BRANCH  25  26
HETATM   26  C2  UNL     1      27.329   7.107   9.841  1.00  0.00     0.035 C 
HETATM   27  C1  UNL     1      28.073   6.402   8.756  1.00  0.00     0.016 C 
HETATM   28  C3  UNL     1      27.073   8.510   9.446  1.00  0.00     0.016 C 
ENDBRANCH  25  26
BRANCH  25  29
HETATM   29  C20 UNL     1      26.567   4.944  10.742  1.00  0.00     0.223 C 
HETATM   30  O2  UNL     1      27.542   4.830  11.494  1.00  0.00    -0.643 OA
HETATM   31  O3  UNL     1      25.854   3.838  10.351  1.00  0.00    -0.643 OA
ENDBRANCH  25  29
ENDBRANCH  23  25
ENDBRANCH  17  23
BRANCH  19  32
HETATM   32  C19 UNL     1      27.896   9.162  13.094  1.00  0.00     0.409 C 
HETATM   33  F1  UNL     1      28.232   7.803  13.006  1.00  0.00    -0.169 F 
HETATM   34  F2  UNL     1      28.253   9.550  14.348  1.00  0.00    -0.169 F 
HETATM   35  F3  UNL     1      28.647   9.772  12.114  1.00  0.00    -0.169 F 
ENDBRANCH  19  32
ENDBRANCH   6   9
ENDBRANCH   4   5
ENDBRANCH   1   4
TORSDOF 8
ENDMDL
MODEL 4
REMARK VINA RESULT: -7.549100795      2.586      4.115
REMARK  8 active torsions:
REMARK  status: ('A' for Active; 'I' for Inactive)
REMARK    1  A    between atoms: C2_2  and  C4_4 
REMARK    2  A    between atoms: C4_4  and  N1_5 
REMARK    3  A    between atoms: C4_4  and  C20_33 
REMARK    4  A    between atoms: N1_5  and  C5_7 
REMARK    5  A    between atoms: C11_15  and  C12_16 
REMARK       I    between atoms: C12_16  and  N3_18 
REMARK    6  A    between atoms: N3_18  and  C13_20 
REMARK    7  A    between atoms: C13_20  and  C14_21 
REMARK    8  A    between atoms: C18_27  and  C19_28 
ROOT
HETATM    1  C14 UNL     1      30.873  10.726  12.344  1.00  0.00     0.143 C 
HETATM    2  C15 UNL     1      30.763   9.762  11.251  1.00  0.00     0.060 C 
HETATM    3  N4  UNL     1      30.692   8.995  10.378  1.00  0.00    -0.197 NA
ENDROOT
BRANCH   1   4
HETATM    4  C13 UNL     1      29.637  10.629  13.200  1.00  0.00     0.136 C 
BRANCH   4   5
HETATM    5  N3  UNL     1      28.802   9.518  12.823  1.00  0.00    -0.360 N 
HETATM    6  C12 UNL     1      27.405   9.612  12.933  1.00  0.00     0.223 C 
HETATM    7  O1  UNL     1      26.905  10.688  13.368  1.00  0.00    -0.273 OA
ATOM      8  H3  UNL     1      29.227   8.659  12.473  1.00  0.00     0.162 HD
BRANCH   6   9
HETATM    9  C11 UNL     1      26.510   8.463  12.544  1.00  0.00     0.100 C 
HETATM   10  C10 UNL     1      26.526   7.485  13.680  1.00  0.00     0.043 C 
HETATM   11  C9  UNL     1      26.020   6.124  13.309  1.00  0.00     0.131 C 
HETATM   12  C6  UNL     1      24.752   5.745  13.998  1.00  0.00     0.061 C 
HETATM   13  N6  UNL     1      25.696   6.014  11.906  1.00  0.00    -0.196 N 
HETATM   14  N2  UNL     1      23.919   5.199  12.971  1.00  0.00    -0.216 N 
HETATM   15  C7  UNL     1      24.004   6.878  14.631  1.00  0.00     0.041 C 
HETATM   16  C8  UNL     1      25.035   4.723  15.090  1.00  0.00     0.041 C 
HETATM   17  C5  UNL     1      24.439   5.333  11.801  1.00  0.00     0.678 C 
ATOM     18  H2  UNL     1      23.018   4.755  13.147  1.00  0.00     0.178 HD
HETATM   19  C18 UNL     1      26.554   6.544  10.901  1.00  0.00     0.228 C 
HETATM   20  C16 UNL     1      27.001   7.945  11.235  1.00  0.00     0.138 C 
HETATM   21  C17 UNL     1      26.511   8.844  10.190  1.00  0.00     0.067 C 
HETATM   22  N5  UNL     1      26.139   9.554   9.350  1.00  0.00    -0.197 NA
BRANCH  17  23
HETATM   23  N1  UNL     1      23.809   4.872  10.616  1.00  0.00    -0.189 N 
ATOM     24  H1  UNL     1      23.352   5.580  10.041  1.00  0.00     0.184 HD
BRANCH  23  25
HETATM   25  C4  UNL     1      23.744   3.535  10.141  1.00  0.00     0.106 C 
BRANCH  25  26
HETATM   26  C2  UNL     1      25.036   2.836   9.887  1.00  0.00     0.035 C 
HETATM   27  C1  UNL     1      24.787   1.369   9.751  1.00  0.00     0.016 C 
HETATM   28  C3  UNL     1      25.862   3.313   8.755  1.00  0.00     0.016 C 
ENDBRANCH  25  26
BRANCH  25  29
HETATM   29  C20 UNL     1      22.769   2.661  10.836  1.00  0.00     0.223 C 
HETATM   30  O2  UNL     1      22.489   2.864  12.023  1.00  0.00    -0.643 OA
HETATM   31  O3  UNL     1      22.184   1.627  10.148  1.00  0.00    -0.643 OA
ENDBRANCH  25  29
ENDBRANCH  23  25
ENDBRANCH  17  23
BRANCH  19  32
HETATM   32  C19 UNL     1      27.830   5.712  10.796  1.00  0.00     0.409 C 
HETATM   33  F1  UNL     1      28.153   5.601   9.434  1.00  0.00    -0.169 F 
HETATM   34  F2  UNL     1      27.686   4.436  11.245  1.00  0.00    -0.169 F 
HETATM   35  F3  UNL     1      28.908   6.356  11.359  1.00  0.00    -0.169 F 
ENDBRANCH  19  32
ENDBRANCH   6   9
ENDBRANCH   4   5
ENDBRANCH   1   4
TORSDOF 8
ENDMDL
MODEL 5
REMARK VINA RESULT: -7.500380695      3.574      6.963
REMARK  8 active torsions:
REMARK  status: ('A' for Active; 'I' for Inactive)
REMARK    1  A    between atoms: C2_2  and  C4_4 
REMARK    2  A    between atoms: C4_4  and  N1_5 
REMARK    3  A    between atoms: C4_4  and  C20_33 
REMARK    4  A    between atoms: N1_5  and  C5_7 
REMARK    5  A    between atoms: C11_15  and  C12_16 
REMARK       I    between atoms: C12_16  and  N3_18 
REMARK    6  A    between atoms: N3_18  and  C13_20 
REMARK    7  A    between atoms: C13_20  and  C14_21 
REMARK    8  A    between atoms: C18_27  and  C19_28 
ROOT
HETATM    1  C14 UNL     1      24.235   2.917   9.715  1.00  0.00     0.143 C 
HETATM    2  C15 UNL     1      23.088   3.560  10.354  1.00  0.00     0.060 C 
HETATM    3  N4  UNL     1      22.165   4.059  10.857  1.00  0.00    -0.197 NA
ENDROOT
BRANCH   1   4
HETATM    4  C13 UNL     1      25.499   3.527  10.264  1.00  0.00     0.136 C 
BRANCH   4   5
HETATM    5  N3  UNL     1      25.336   4.925  10.572  1.00  0.00    -0.360 N 
HETATM    6  C12 UNL     1      26.350   5.624  11.247  1.00  0.00     0.223 C 
HETATM    7  O1  UNL     1      27.400   5.001  11.572  1.00  0.00    -0.273 OA
ATOM      8  H3  UNL     1      24.481   5.409  10.299  1.00  0.00     0.162 HD
BRANCH   6   9
HETATM    9  C11 UNL     1      26.203   7.087  11.579  1.00  0.00     0.100 C 
HETATM   10  C10 UNL     1      27.307   7.815  10.873  1.00  0.00     0.043 C 
HETATM   11  C9  UNL     1      27.549   9.197  11.399  1.00  0.00     0.131 C 
HETATM   12  C6  UNL     1      27.237  10.277  10.419  1.00  0.00     0.061 C 
HETATM   13  N6  UNL     1      26.718   9.513  12.537  1.00  0.00    -0.196 N 
HETATM   14  N2  UNL     1      26.487  11.245  11.159  1.00  0.00    -0.216 N 
HETATM   15  C7  UNL     1      26.402   9.858   9.248  1.00  0.00     0.041 C 
HETATM   16  C8  UNL     1      28.525  10.871   9.867  1.00  0.00     0.041 C 
HETATM   17  C5  UNL     1      26.201  10.836  12.345  1.00  0.00     0.678 C 
ATOM     18  H2  UNL     1      26.212  12.156  10.788  1.00  0.00     0.178 HD
HETATM   19  C18 UNL     1      26.518   8.579  13.593  1.00  0.00     0.228 C 
HETATM   20  C16 UNL     1      26.195   7.204  13.065  1.00  0.00     0.138 C 
HETATM   21  C17 UNL     1      24.859   6.835  13.533  1.00  0.00     0.067 C 
HETATM   22  N5  UNL     1      23.806   6.535  13.921  1.00  0.00    -0.197 NA
BRANCH  17  23
HETATM   23  N1  UNL     1      25.465  11.613  13.276  1.00  0.00    -0.189 N 
ATOM     24  H1  UNL     1      26.009  12.207  13.901  1.00  0.00     0.184 HD
BRANCH  23  25
HETATM   25  C4  UNL     1      24.054  11.655  13.436  1.00  0.00     0.106 C 
BRANCH  25  26
HETATM   26  C2  UNL     1      23.516  11.487  14.817  1.00  0.00     0.035 C 
HETATM   27  C1  UNL     1      23.807  10.103  15.297  1.00  0.00     0.016 C 
HETATM   28  C3  UNL     1      23.935  12.473  15.839  1.00  0.00     0.016 C 
ENDBRANCH  25  26
BRANCH  25  29
HETATM   29  C20 UNL     1      23.363  12.741  12.701  1.00  0.00     0.223 C 
HETATM   30  O2  UNL     1      23.938  13.328  11.777  1.00  0.00    -0.643 OA
HETATM   31  O3  UNL     1      22.084  13.086  13.058  1.00  0.00    -0.643 OA
ENDBRANCH  25  29
ENDBRANCH  23  25
ENDBRANCH  17  23
BRANCH  19  32
HETATM   32  C19 UNL     1      27.795   8.422  14.416  1.00  0.00     0.409 C 
HETATM   33  F1  UNL     1      27.429   7.923  15.676  1.00  0.00    -0.169 F 
HETATM   34  F2  UNL     1      28.434   9.599  14.657  1.00  0.00    -0.169 F 
HETATM   35  F3  UNL     1      28.627   7.462  13.888  1.00  0.00    -0.169 F 
ENDBRANCH  19  32
ENDBRANCH   6   9
ENDBRANCH   4   5
ENDBRANCH   1   4
TORSDOF 8
ENDMDL
