MODEL 1
REMARK VINA RESULT: -7.635010052      0.000      0.000
REMARK  7 active torsions:
REMARK  status: ('A' for Active; 'I' for Inactive)
REMARK    1  A    between atoms: O1_2  and  N1_3 
REMARK       I    between atoms: N1_3  and  C2_4 
REMARK    2  A    between atoms: C2_4  and  C3_6 
REMARK    3  A    between atoms: C5_8  and  N2_9 
REMARK    4  A    between atoms: N2_9  and  C6_11 
REMARK    5  A    between atoms: C12_18  and  N3_19 
REMARK    6  A    between atoms: N3_19  and  C14_21 
REMARK    7  A    between atoms: C14_21  and  C15_22 
ROOT
HETATM    1  C6  UNL     1      25.747   5.642  11.717  1.00  0.00     0.107 C 
HETATM    2  C7  UNL     1      26.883   4.863  11.121  1.00  0.00     0.193 C 
HETATM    3  O3  UNL     1      28.028   5.521  11.598  1.00  0.00    -0.381 OA
HETATM    4  C8  UNL     1      28.098   6.823  11.243  1.00  0.00     0.159 C 
HETATM    5  C9  UNL     1      26.997   7.473  10.538  1.00  0.00     0.019 C 
HETATM    6  C10 UNL     1      27.364   7.561   9.068  1.00  0.00     0.009 C 
HETATM    7  C11 UNL     1      28.815   7.191   8.958  1.00  0.00     0.039 C 
HETATM    8  C12 UNL     1      29.327   6.972  10.343  1.00  0.00     0.251 C 
HETATM    9  C16 UNL     1      25.640   6.831  10.685  1.00  0.00     0.034 C 
ENDROOT
BRANCH   1  10
HETATM   10  N2  UNL     1      24.516   5.071  11.963  1.00  0.00    -0.369 N 
ATOM     11  H2  UNL     1      24.017   4.754  11.132  1.00  0.00     0.161 HD
BRANCH  10  12
HETATM   12  C5  UNL     1      23.905   4.877  13.061  1.00  0.00     0.104 A 
HETATM   13  C4  UNL     1      24.020   5.849  14.064  1.00  0.00     0.084 A 
HETATM   14  C3  UNL     1      23.431   5.603  15.248  1.00  0.00     0.122 A 
HETATM   15  N5  UNL     1      22.740   4.495  15.498  1.00  0.00    -0.347 N 
HETATM   16  C17 UNL     1      22.606   3.542  14.538  1.00  0.00     0.182 A 
ATOM     17  H5  UNL     1      22.309   4.360  16.414  1.00  0.00     0.167 HD
HETATM   18  N4  UNL     1      23.202   3.769  13.331  1.00  0.00    -0.339 N 
ATOM     19  H4  UNL     1      23.109   3.062  12.601  1.00  0.00     0.168 HD
BRANCH  14  20
HETATM   20  C2  UNL     1      23.858   6.512  16.475  1.00  0.00     0.370 C 
HETATM   21  N1  UNL     1      23.847   7.816  16.040  1.00  0.00    -0.235 NA
HETATM   22  O2  UNL     1      24.010   5.864  17.415  1.00  0.00    -0.247 OA
BRANCH  21  23
HETATM   23  O1  UNL     1      23.858   9.045  15.793  1.00  0.00    -0.211 OA
HETATM   24  C1  UNL     1      24.946   9.523  15.065  1.00  0.00     0.255 C 
ENDBRANCH  21  23
ENDBRANCH  14  20
ENDBRANCH  10  12
ENDBRANCH   1  10
BRANCH   8  25
HETATM   25  N3  UNL     1      30.240   8.002  10.825  1.00  0.00     0.095 N 
HETATM   26  C13 UNL     1      30.652   8.774   9.639  1.00  0.00     0.310 C 
BRANCH  25  27
HETATM   27  C14 UNL     1      31.436   7.398  11.415  1.00  0.00     0.331 C 
BRANCH  27  28
HETATM   28  C15 UNL     1      31.868   8.120  12.675  1.00  0.00     0.214 C 
HETATM   29 CL1  UNL     1      33.328   9.067  12.353  1.00  0.00    -0.082 Cl
HETATM   30 CL2  UNL     1      32.341   6.883  13.878  1.00  0.00    -0.082 Cl
HETATM   31 CL3  UNL     1      30.517   9.102  13.324  1.00  0.00    -0.082 Cl
ENDBRANCH  27  28
ENDBRANCH  25  27
ENDBRANCH   8  25
TORSDOF 7
ENDMDL
MODEL 2
REMARK VINA RESULT: -7.595613958      4.644      7.211
REMARK  7 active torsions:
REMARK  status: ('A' for Active; 'I' for Inactive)
REMARK    1  A    between atoms: O1_2  and  N1_3 
REMARK       I    between atoms: N1_3  and  C2_4 
REMARK    2  A    between atoms: C2_4  and  C3_6 
REMARK    3  A    between atoms: C5_8  and  N2_9 
REMARK    4  A    between atoms: N2_9  and  C6_11 
REMARK    5  A    between atoms: C12_18  and  N3_19 
REMARK    6  A    between atoms: N3_19  and  C14_21 
REMARK    7  A    between atoms: C14_21  and  C15_22 
ROOT
HETATM    1  C6  UNL     1      25.037   7.885  14.525  1.00  0.00     0.107 C 
HETATM    2  C7  UNL     1      24.085   8.244  15.629  1.00  0.00     0.193 C 
HETATM    3  O3  UNL     1      23.570   9.490  15.236  1.00  0.00    -0.381 OA
HETATM    4  C8  UNL     1      24.513  10.446  15.084  1.00  0.00     0.159 C 
HETATM    5  C9  UNL     1      25.934  10.130  15.200  1.00  0.00     0.019 C 
HETATM    6  C10 UNL     1      26.406  10.577  16.571  1.00  0.00     0.009 C 
HETATM    7  C11 UNL     1      25.301  11.404  17.164  1.00  0.00     0.039 C 
HETATM    8  C12 UNL     1      24.228  11.522  16.133  1.00  0.00     0.251 C 
HETATM    9  C16 UNL     1      26.317   8.688  14.977  1.00  0.00     0.034 C 
ENDROOT
BRANCH   1  10
HETATM   10  N2  UNL     1      25.341   6.576  14.217  1.00  0.00    -0.369 N 
ATOM     11  H2  UNL     1      26.338   6.376  14.133  1.00  0.00     0.161 HD
BRANCH  10  12
HETATM   12  C5  UNL     1      24.577   5.578  14.022  1.00  0.00     0.104 A 
HETATM   13  C4  UNL     1      24.427   5.106  12.711  1.00  0.00     0.084 A 
HETATM   14  C3  UNL     1      23.561   4.097  12.502  1.00  0.00     0.122 A 
HETATM   15  N5  UNL     1      22.862   3.527  13.479  1.00  0.00    -0.347 N 
HETATM   16  C17 UNL     1      22.998   3.961  14.760  1.00  0.00     0.182 A 
ATOM     17  H5  UNL     1      22.222   2.762  13.266  1.00  0.00     0.167 HD
HETATM   18  N4  UNL     1      23.866   4.989  14.993  1.00  0.00    -0.339 N 
ATOM     19  H4  UNL     1      23.979   5.324  15.950  1.00  0.00     0.168 HD
BRANCH  14  20
HETATM   20  C2  UNL     1      23.126   3.812  11.004  1.00  0.00     0.370 C 
HETATM   21  N1  UNL     1      23.398   2.490  10.745  1.00  0.00    -0.235 NA
HETATM   22  O2  UNL     1      22.649   4.755  10.544  1.00  0.00    -0.247 OA
BRANCH  21  23
HETATM   23  O1  UNL     1      23.567   1.304  10.374  1.00  0.00    -0.211 OA
HETATM   24  C1  UNL     1      24.681   1.057   9.573  1.00  0.00     0.255 C 
ENDBRANCH  21  23
ENDBRANCH  14  20
ENDBRANCH  10  12
ENDBRANCH   1  10
BRANCH   8  25
HETATM   25  N3  UNL     1      24.097  12.848  15.541  1.00  0.00     0.095 N 
HETATM   26  C13 UNL     1      23.171  13.598  16.409  1.00  0.00     0.310 C 
BRANCH  25  27
HETATM   27  C14 UNL     1      23.501  12.761  14.206  1.00  0.00     0.331 C 
BRANCH  27  28
HETATM   28  C15 UNL     1      24.367  13.430  13.159  1.00  0.00     0.214 C 
HETATM   29 CL1  UNL     1      24.740  12.280  11.865  1.00  0.00    -0.082 Cl
HETATM   30 CL2  UNL     1      25.933  13.833  13.922  1.00  0.00    -0.082 Cl
HETATM   31 CL3  UNL     1      23.584  14.929  12.567  1.00  0.00    -0.082 Cl
ENDBRANCH  27  28
ENDBRANCH  25  27
ENDBRANCH   8  25
TORSDOF 7
ENDMDL
MODEL 3
REMARK VINA RESULT: -7.512631281      2.786      3.495
REMARK  7 active torsions:
REMARK  status: ('A' for Active; 'I' for Inactive)
REMARK    1  A    between atoms: O1_2  and  N1_3 
REMARK       I    between atoms: N1_3  and  C2_4 
REMARK    2  A    between atoms: C2_4  and  C3_6 
REMARK    3  A    between atoms: C5_8  and  N2_9 
REMARK    4  A    between atoms: N2_9  and  C6_11 
REMARK    5  A    between atoms: C12_18  and  N3_19 
REMARK    6  A    between atoms: N3_19  and  C14_21 
REMARK    7  A    between atoms: C14_21  and  C15_22 
ROOT
HETATM    1  C6  UNL     1      27.374   5.750  11.171  1.00  0.00     0.107 C 
HETATM    2  C7  UNL     1      28.872   5.811  11.237  1.00  0.00     0.193 C 
HETATM    3  O3  UNL     1      29.140   7.156  11.542  1.00  0.00    -0.381 OA
HETATM    4  C8  UNL     1      28.662   8.028  10.627  1.00  0.00     0.159 C 
HETATM    5  C9  UNL     1      27.837   7.575   9.511  1.00  0.00     0.019 C 
HETATM    6  C10 UNL     1      28.711   7.515   8.272  1.00  0.00     0.009 C 
HETATM    7  C11 UNL     1      30.005   8.195   8.617  1.00  0.00     0.039 C 
HETATM    8  C12 UNL     1      29.873   8.728  10.006  1.00  0.00     0.251 C 
HETATM    9  C16 UNL     1      27.129   6.256   9.697  1.00  0.00     0.034 C 
ENDROOT
BRANCH   1  10
HETATM   10  N2  UNL     1      26.676   4.590  11.432  1.00  0.00    -0.369 N 
ATOM     11  H2  UNL     1      27.222   3.732  11.350  1.00  0.00     0.161 HD
BRANCH  10  12
HETATM   12  C5  UNL     1      25.459   4.418  11.759  1.00  0.00     0.104 A 
HETATM   13  C4  UNL     1      25.074   4.734  13.069  1.00  0.00     0.084 A 
HETATM   14  C3  UNL     1      23.802   4.481  13.428  1.00  0.00     0.122 A 
HETATM   15  N5  UNL     1      22.902   3.965  12.597  1.00  0.00    -0.347 N 
HETATM   16  C17 UNL     1      23.249   3.660  11.318  1.00  0.00     0.182 A 
ATOM     17  H5  UNL     1      21.949   3.798  12.920  1.00  0.00     0.167 HD
HETATM   18  N4  UNL     1      24.537   3.901  10.935  1.00  0.00    -0.339 N 
ATOM     19  H4  UNL     1      24.811   3.678   9.978  1.00  0.00     0.168 HD
BRANCH  14  20
HETATM   20  C2  UNL     1      23.469   4.495  14.978  1.00  0.00     0.370 C 
HETATM   21  N1  UNL     1      23.973   5.665  15.493  1.00  0.00    -0.235 NA
HETATM   22  O2  UNL     1      22.850   3.565  15.259  1.00  0.00    -0.247 OA
BRANCH  21  23
HETATM   23  O1  UNL     1      24.357   6.696  16.096  1.00  0.00    -0.211 OA
HETATM   24  C1  UNL     1      23.725   7.889  15.748  1.00  0.00     0.255 C 
ENDBRANCH  21  23
ENDBRANCH  14  20
ENDBRANCH  10  12
ENDBRANCH   1  10
BRANCH   8  25
HETATM   25  N3  UNL     1      29.774  10.180  10.093  1.00  0.00     0.095 N 
HETATM   26  C13 UNL     1      30.793  10.604  11.069  1.00  0.00     0.310 C 
BRANCH  25  27
HETATM   27  C14 UNL     1      28.460  10.579  10.602  1.00  0.00     0.331 C 
BRANCH  27  28
HETATM   28  C15 UNL     1      27.782  11.577   9.686  1.00  0.00     0.214 C 
HETATM   29 CL1  UNL     1      26.626  12.550  10.609  1.00  0.00    -0.082 Cl
HETATM   30 CL2  UNL     1      26.809  10.656   8.500  1.00  0.00    -0.082 Cl
HETATM   31 CL3  UNL     1      29.004  12.562   8.823  1.00  0.00    -0.082 Cl
ENDBRANCH  27  28
ENDBRANCH  25  27
ENDBRANCH   8  25
TORSDOF 7
ENDMDL
MODEL 4
REMARK VINA RESULT: -7.487661633      2.927      3.866
REMARK  7 active torsions:
REMARK  status: ('A' for Active; 'I' for Inactive)
REMARK    1  A    between atoms: O1_2  and  N1_3 
REMARK       I    between atoms: N1_3  and  C2_4 
REMARK    2  A    between atoms: C2_4  and  C3_6 
REMARK    3  A    between atoms: C5_8  and  N2_9 
REMARK    4  A    between atoms: N2_9  and  C6_11 
REMARK    5  A    between atoms: C12_18  and  N3_19 
REMARK    6  A    between atoms: N3_19  and  C14_21 
REMARK    7  A    between atoms: C14_21  and  C15_22 
ROOT
HETATM    1  C6  UNL     1      27.226   5.888  10.276  1.00  0.00     0.107 C 
HETATM    2  C7  UNL     1      28.374   6.085  11.223  1.00  0.00     0.193 C 
HETATM    3  O3  UNL     1      28.316   7.451  11.541  1.00  0.00    -0.381 OA
HETATM    4  C8  UNL     1      28.431   8.267  10.469  1.00  0.00     0.159 C 
HETATM    5  C9  UNL     1      28.477   7.728   9.113  1.00  0.00     0.019 C 
HETATM    6  C10 UNL     1      29.923   7.733   8.653  1.00  0.00     0.009 C 
HETATM    7  C11 UNL     1      30.700   8.530   9.661  1.00  0.00     0.039 C 
HETATM    8  C12 UNL     1      29.723   9.065  10.655  1.00  0.00     0.251 C 
HETATM    9  C16 UNL     1      27.888   6.353   8.921  1.00  0.00     0.034 C 
ENDROOT
BRANCH   1  10
HETATM   10  N2  UNL     1      26.589   4.673  10.139  1.00  0.00    -0.369 N 
ATOM     11  H2  UNL     1      27.092   3.986   9.577  1.00  0.00     0.161 HD
BRANCH  10  12
HETATM   12  C5  UNL     1      25.474   4.273  10.601  1.00  0.00     0.104 A 
HETATM   13  C4  UNL     1      25.032   4.808  11.818  1.00  0.00     0.084 A 
HETATM   14  C3  UNL     1      23.887   4.326  12.337  1.00  0.00     0.122 A 
HETATM   15  N5  UNL     1      23.160   3.386  11.742  1.00  0.00    -0.347 N 
HETATM   16  C17 UNL     1      23.563   2.858  10.556  1.00  0.00     0.182 A 
ATOM     17  H5  UNL     1      22.297   3.059  12.178  1.00  0.00     0.167 HD
HETATM   18  N4  UNL     1      24.726   3.327  10.015  1.00  0.00    -0.339 N 
ATOM     19  H4  UNL     1      25.041   2.941   9.125  1.00  0.00     0.168 HD
BRANCH  14  20
HETATM   20  C2  UNL     1      23.582   4.660  13.857  1.00  0.00     0.370 C 
HETATM   21  N1  UNL     1      23.646   6.025  13.996  1.00  0.00    -0.235 NA
HETATM   22  O2  UNL     1      23.334   3.693  14.432  1.00  0.00    -0.247 OA
BRANCH  21  23
HETATM   23  O1  UNL     1      23.645   7.250  14.267  1.00  0.00    -0.211 OA
HETATM   24  C1  UNL     1      23.588   7.587  15.618  1.00  0.00     0.255 C 
ENDBRANCH  21  23
ENDBRANCH  14  20
ENDBRANCH  10  12
ENDBRANCH   1  10
BRANCH   8  25
HETATM   25  N3  UNL     1      29.498  10.503  10.574  1.00  0.00     0.095 N 
HETATM   26  C13 UNL     1      30.203  11.097  11.724  1.00  0.00     0.310 C 
BRANCH  25  27
HETATM   27  C14 UNL     1      28.072  10.812  10.704  1.00  0.00     0.331 C 
BRANCH  27  28
HETATM   28  C15 UNL     1      27.583  11.694   9.574  1.00  0.00     0.214 C 
HETATM   29 CL1  UNL     1      28.948  12.561   8.854  1.00  0.00    -0.082 Cl
HETATM   30 CL2  UNL     1      26.523  12.949  10.281  1.00  0.00    -0.082 Cl
HETATM   31 CL3  UNL     1      26.655  10.726   8.385  1.00  0.00    -0.082 Cl
ENDBRANCH  27  28
ENDBRANCH  25  27
ENDBRANCH   8  25
TORSDOF 7
ENDMDL
MODEL 5
REMARK VINA RESULT: -7.483098271      4.507      6.500
REMARK  7 active torsions:
REMARK  status: ('A' for Active; 'I' for Inactive)
REMARK    1  A    between atoms: O1_2  and  N1_3 
REMARK       I    between atoms: N1_3  and  C2_4 
REMARK    2  A    between atoms: C2_4  and  C3_6 
REMARK    3  A    between atoms: C5_8  and  N2_9 
REMARK    4  A    between atoms: N2_9  and  C6_11 
REMARK    5  A    between atoms: C12_18  and  N3_19 
REMARK    6  A    between atoms: N3_19  and  C14_21 
REMARK    7  A    between atoms: C14_21  and  C15_22 
ROOT
HETATM    1  C6  UNL     1      25.707   7.872  13.143  1.00  0.00     0.107 C 
HETATM    2  C7  UNL     1      26.767   8.853  13.552  1.00  0.00     0.193 C 
HETATM    3  O3  UNL     1      26.058  10.048  13.755  1.00  0.00    -0.381 OA
HETATM    4  C8  UNL     1      25.397  10.483  12.659  1.00  0.00     0.159 C 
HETATM    5  C9  UNL     1      25.347   9.681  11.440  1.00  0.00     0.019 C 
HETATM    6  C10 UNL     1      26.350  10.255  10.457  1.00  0.00     0.009 C 
HETATM    7  C11 UNL     1      26.805  11.572  11.017  1.00  0.00     0.039 C 
HETATM    8  C12 UNL     1      26.024  11.821  12.264  1.00  0.00     0.251 C 
HETATM    9  C16 UNL     1      25.588   8.201  11.605  1.00  0.00     0.034 C 
ENDROOT
BRANCH   1  10
HETATM   10  N2  UNL     1      25.837   6.517  13.364  1.00  0.00    -0.369 N 
ATOM     11  H2  UNL     1      26.797   6.192  13.480  1.00  0.00     0.161 HD
BRANCH  10  12
HETATM   12  C5  UNL     1      24.951   5.608  13.446  1.00  0.00     0.104 A 
HETATM   13  C4  UNL     1      24.568   4.950  12.269  1.00  0.00     0.084 A 
HETATM   14  C3  UNL     1      23.579   4.042  12.352  1.00  0.00     0.122 A 
HETATM   15  N5  UNL     1      22.967   3.736  13.492  1.00  0.00    -0.347 N 
HETATM   16  C17 UNL     1      23.328   4.354  14.648  1.00  0.00     0.182 A 
ATOM     17  H5  UNL     1      22.225   3.036  13.500  1.00  0.00     0.167 HD
HETATM   18  N4  UNL     1      24.326   5.285  14.586  1.00  0.00    -0.339 N 
ATOM     19  H4  UNL     1      24.608   5.756  15.445  1.00  0.00     0.168 HD
BRANCH  14  20
HETATM   20  C2  UNL     1      22.908   3.572  10.994  1.00  0.00     0.370 C 
HETATM   21  N1  UNL     1      23.380   2.311  10.721  1.00  0.00    -0.235 NA
HETATM   22  O2  UNL     1      22.167   4.371  10.621  1.00  0.00    -0.247 OA
BRANCH  21  23
HETATM   23  O1  UNL     1      23.703   1.155  10.357  1.00  0.00    -0.211 OA
HETATM   24  C1  UNL     1      24.750   1.063   9.440  1.00  0.00     0.255 C 
ENDBRANCH  21  23
ENDBRANCH  14  20
ENDBRANCH  10  12
ENDBRANCH   1  10
BRANCH   8  25
HETATM   25  N3  UNL     1      25.032  12.884  12.159  1.00  0.00     0.095 N 
HETATM   26  C13 UNL     1      25.510  13.792  11.101  1.00  0.00     0.310 C 
BRANCH  25  27
HETATM   27  C14 UNL     1      24.952  13.643  13.409  1.00  0.00     0.331 C 
BRANCH  27  28
HETATM   28  C15 UNL     1      23.580  13.542  14.042  1.00  0.00     0.214 C 
HETATM   29 CL1  UNL     1      23.550  12.205  15.202  1.00  0.00    -0.082 Cl
HETATM   30 CL2  UNL     1      22.417  13.100  12.756  1.00  0.00    -0.082 Cl
HETATM   31 CL3  UNL     1      23.109  15.113  14.763  1.00  0.00    -0.082 Cl
ENDBRANCH  27  28
ENDBRANCH  25  27
ENDBRANCH   8  25
TORSDOF 7
ENDMDL
