MODEL 1
REMARK VINA RESULT: -7.314628598      0.000      0.000
REMARK  11 active torsions:
REMARK  status: ('A' for Active; 'I' for Inactive)
REMARK    1  A    between atoms: C2_2  and  O1_5 
REMARK    2  A    between atoms: O1_5  and  C5_6 
REMARK       I    between atoms: C5_6  and  N1_8 
REMARK    3  A    between atoms: N1_8  and  C6_9 
REMARK    4  A    between atoms: N1_8  and  C21_35 
REMARK    5  A    between atoms: C6_9  and  N2_10 
REMARK    6  A    between atoms: C6_9  and  C12_22 
REMARK       I    between atoms: N2_10  and  C7_12 
REMARK    7  A    between atoms: C7_12  and  C8_14 
REMARK    8  A    between atoms: C10_16  and  N3_17 
REMARK    9  A    between atoms: C15_26  and  C16_27 
REMARK   10  A    between atoms: C16_27  and  N4_28 
REMARK   11  A    between atoms: N4_28  and  C17_31 
ROOT
HETATM    1  C6  UNL     1      25.439   7.393  12.474  1.00  0.00     0.206 C 
ENDROOT
BRANCH   1   2
HETATM    2  N1  UNL     1      26.501   6.856  11.696  1.00  0.00    -0.213 N 
HETATM    3  C5  UNL     1      27.832   6.763  12.257  1.00  0.00     0.372 C 
HETATM    4  O2  UNL     1      28.072   7.160  13.417  1.00  0.00    -0.238 OA
BRANCH   3   5
HETATM    5  O1  UNL     1      28.837   6.229  11.501  1.00  0.00    -0.294 OA
BRANCH   5   6
HETATM    6  C2  UNL     1      29.943   6.923  10.975  1.00  0.00     0.061 C 
HETATM    7  C1  UNL     1      29.715   8.392  10.772  1.00  0.00     0.046 C 
HETATM    8  C3  UNL     1      30.174   6.325   9.579  1.00  0.00     0.046 C 
HETATM    9  C4  UNL     1      31.222   6.717  11.725  1.00  0.00     0.046 C 
ENDBRANCH   5   6
ENDBRANCH   3   5
BRANCH   2  10
HETATM   10  C21 UNL     1      26.371   6.432  10.337  1.00  0.00     0.492 C 
HETATM   11  F1  UNL     1      26.869   5.226   9.998  1.00  0.00    -0.150 F 
HETATM   12  F2  UNL     1      26.898   7.379   9.438  1.00  0.00    -0.150 F 
HETATM   13  F3  UNL     1      24.976   6.479  10.049  1.00  0.00    -0.150 F 
ENDBRANCH   2  10
ENDBRANCH   1   2
BRANCH   1  14
HETATM   14  N2  UNL     1      25.145   6.703  13.705  1.00  0.00    -0.339 N 
HETATM   15  C7  UNL     1      24.362   5.505  13.715  1.00  0.00     0.223 C 
HETATM   16  O3  UNL     1      23.923   5.061  12.625  1.00  0.00    -0.273 OA
ATOM     17  H2  UNL     1      25.502   7.074  14.585  1.00  0.00     0.164 HD
BRANCH  15  18
HETATM   18  C8  UNL     1      24.061   4.782  14.950  1.00  0.00     0.082 C 
HETATM   19  C9  UNL     1      22.950   3.748  14.789  1.00  0.00     0.046 C 
HETATM   20  C10 UNL     1      22.472   4.196  16.172  1.00  0.00     0.185 C 
HETATM   21  C11 UNL     1      23.129   5.556  15.877  1.00  0.00     0.046 C 
BRANCH  20  22
HETATM   22  N3  UNL     1      21.046   4.351  16.302  1.00  0.00    -0.075 N 
ATOM     23  H33 UNL     1      20.820   4.813  17.182  1.00  0.00     0.274 HD
ATOM     24  H32 UNL     1      20.706   5.050  15.642  1.00  0.00     0.274 HD
ATOM     25  H31 UNL     1      20.510   3.488  16.209  1.00  0.00     0.274 HD
ENDBRANCH  20  22
ENDBRANCH  15  18
ENDBRANCH   1  14
BRANCH   1  26
HETATM   26  C12 UNL     1      25.394   8.859  12.700  1.00  0.00     0.053 C 
HETATM   27  C13 UNL     1      25.368   9.821  11.596  1.00  0.00     0.176 C 
HETATM   28  O4  UNL     1      25.700  11.093  12.142  1.00  0.00    -0.390 OA
HETATM   29  C14 UNL     1      24.719  11.571  13.002  1.00  0.00     0.173 C 
HETATM   30  C15 UNL     1      24.560  10.621  14.129  1.00  0.00     0.036 C 
HETATM   31  C20 UNL     1      24.232   9.234  13.639  1.00  0.00     0.019 C 
BRANCH  30  32
HETATM   32  C16 UNL     1      23.606  11.003  15.208  1.00  0.00     0.239 C 
BRANCH  32  33
HETATM   33  N4  UNL     1      24.067  12.005  16.092  1.00  0.00    -0.070 N 
ATOM     34  H42 UNL     1      24.111  12.905  15.615  1.00  0.00     0.277 HD
ATOM     35  H41 UNL     1      23.356  12.213  16.793  1.00  0.00     0.277 HD
BRANCH  33  36
HETATM   36  C17 UNL     1      25.308  11.717  16.717  1.00  0.00     0.186 A 
HETATM   37  C18 UNL     1      25.307  11.843  18.248  1.00  0.00     0.035 A 
HETATM   38  C19 UNL     1      25.526  10.540  17.613  1.00  0.00     0.035 A 
ENDBRANCH  33  36
ENDBRANCH  32  33
ENDBRANCH  30  32
ENDBRANCH   1  26
TORSDOF 11
ENDMDL
MODEL 2
REMARK VINA RESULT: -7.243418712      2.304      3.983
REMARK  11 active torsions:
REMARK  status: ('A' for Active; 'I' for Inactive)
REMARK    1  A    between atoms: C2_2  and  O1_5 
REMARK    2  A    between atoms: O1_5  and  C5_6 
REMARK       I    between atoms: C5_6  and  N1_8 
REMARK    3  A    between atoms: N1_8  and  C6_9 
REMARK    4  A    between atoms: N1_8  and  C21_35 
REMARK    5  A    between atoms: C6_9  and  N2_10 
REMARK    6  A    between atoms: C6_9  and  C12_22 
REMARK       I    between atoms: N2_10  and  C7_12 
REMARK    7  A    between atoms: C7_12  and  C8_14 
REMARK    8  A    between atoms: C10_16  and  N3_17 
REMARK    9  A    between atoms: C15_26  and  C16_27 
REMARK   10  A    between atoms: C16_27  and  N4_28 
REMARK   11  A    between atoms: N4_28  and  C17_31 
ROOT
HETATM    1  C6  UNL     1      25.783   7.662  11.858  1.00  0.00     0.206 C 
ENDROOT
BRANCH   1   2
HETATM    2  N1  UNL     1      26.982   8.048  11.201  1.00  0.00    -0.213 N 
HETATM    3  C5  UNL     1      28.265   7.749  11.803  1.00  0.00     0.372 C 
HETATM    4  O2  UNL     1      28.340   7.163  12.903  1.00  0.00    -0.238 OA
BRANCH   3   5
HETATM    5  O1  UNL     1      29.408   8.113  11.149  1.00  0.00    -0.294 OA
BRANCH   5   6
HETATM    6  C2  UNL     1      30.269   7.257  10.437  1.00  0.00     0.061 C 
HETATM    7  C1  UNL     1      29.877   5.810  10.474  1.00  0.00     0.046 C 
HETATM    8  C3  UNL     1      31.625   7.354  11.153  1.00  0.00     0.046 C 
HETATM    9  C4  UNL     1      30.525   7.668   9.021  1.00  0.00     0.046 C 
ENDBRANCH   5   6
ENDBRANCH   3   5
BRANCH   2  10
HETATM   10  C21 UNL     1      27.030   8.782   9.976  1.00  0.00     0.492 C 
HETATM   11  F1  UNL     1      27.948   9.764   9.860  1.00  0.00    -0.150 F 
HETATM   12  F2  UNL     1      25.777   9.329   9.640  1.00  0.00    -0.150 F 
HETATM   13  F3  UNL     1      27.227   7.811   8.951  1.00  0.00    -0.150 F 
ENDBRANCH   2  10
ENDBRANCH   1   2
BRANCH   1  14
HETATM   14  N2  UNL     1      25.583   6.243  12.025  1.00  0.00    -0.339 N 
HETATM   15  C7  UNL     1      24.791   5.492  11.099  1.00  0.00     0.223 C 
HETATM   16  O3  UNL     1      24.261   6.092  10.131  1.00  0.00    -0.273 OA
ATOM     17  H2  UNL     1      26.013   5.766  12.817  1.00  0.00     0.164 HD
BRANCH  15  18
HETATM   18  C8  UNL     1      24.583   4.051  11.242  1.00  0.00     0.082 C 
HETATM   19  C9  UNL     1      24.852   3.272   9.957  1.00  0.00     0.046 C 
HETATM   20  C10 UNL     1      23.637   2.424  10.339  1.00  0.00     0.185 C 
HETATM   21  C11 UNL     1      23.118   3.649  11.113  1.00  0.00     0.046 C 
BRANCH  20  22
HETATM   22  N3  UNL     1      22.748   2.112   9.249  1.00  0.00    -0.075 N 
ATOM     23  H33 UNL     1      23.256   2.125   8.365  1.00  0.00     0.274 HD
ATOM     24  H32 UNL     1      22.479   1.129   9.285  1.00  0.00     0.274 HD
ATOM     25  H31 UNL     1      21.919   2.703   9.188  1.00  0.00     0.274 HD
ENDBRANCH  20  22
ENDBRANCH  15  18
ENDBRANCH   1  14
BRANCH   1  26
HETATM   26  C12 UNL     1      25.393   8.370  13.102  1.00  0.00     0.053 C 
HETATM   27  C13 UNL     1      24.899   9.750  13.095  1.00  0.00     0.176 C 
HETATM   28  O4  UNL     1      24.978  10.228  14.433  1.00  0.00    -0.390 OA
HETATM   29  C14 UNL     1      24.089   9.578  15.280  1.00  0.00     0.173 C 
HETATM   30  C15 UNL     1      24.408   8.130  15.296  1.00  0.00     0.036 C 
HETATM   31  C20 UNL     1      24.376   7.542  13.910  1.00  0.00     0.019 C 
BRANCH  30  32
HETATM   32  C16 UNL     1      23.613   7.271  16.218  1.00  0.00     0.239 C 
BRANCH  32  33
HETATM   33  N4  UNL     1      22.830   6.276  15.588  1.00  0.00    -0.070 N 
ATOM     34  H42 UNL     1      21.838   6.460  15.735  1.00  0.00     0.277 HD
ATOM     35  H41 UNL     1      22.879   6.375  14.574  1.00  0.00     0.277 HD
BRANCH  33  36
HETATM   36  C17 UNL     1      23.147   4.946  15.969  1.00  0.00     0.186 A 
HETATM   37  C18 UNL     1      23.131   3.922  14.824  1.00  0.00     0.035 A 
HETATM   38  C19 UNL     1      24.381   4.232  15.523  1.00  0.00     0.035 A 
ENDBRANCH  33  36
ENDBRANCH  32  33
ENDBRANCH  30  32
ENDBRANCH   1  26
TORSDOF 11
ENDMDL
MODEL 3
REMARK VINA RESULT: -7.020054791      2.409      6.288
REMARK  11 active torsions:
REMARK  status: ('A' for Active; 'I' for Inactive)
REMARK    1  A    between atoms: C2_2  and  O1_5 
REMARK    2  A    between atoms: O1_5  and  C5_6 
REMARK       I    between atoms: C5_6  and  N1_8 
REMARK    3  A    between atoms: N1_8  and  C6_9 
REMARK    4  A    between atoms: N1_8  and  C21_35 
REMARK    5  A    between atoms: C6_9  and  N2_10 
REMARK    6  A    between atoms: C6_9  and  C12_22 
REMARK       I    between atoms: N2_10  and  C7_12 
REMARK    7  A    between atoms: C7_12  and  C8_14 
REMARK    8  A    between atoms: C10_16  and  N3_17 
REMARK    9  A    between atoms: C15_26  and  C16_27 
REMARK   10  A    between atoms: C16_27  and  N4_28 
REMARK   11  A    between atoms: N4_28  and  C17_31 
ROOT
HETATM    1  C6  UNL     1      25.929   7.360  13.855  1.00  0.00     0.206 C 
ENDROOT
BRANCH   1   2
HETATM    2  N1  UNL     1      26.370   7.637  12.533  1.00  0.00    -0.213 N 
HETATM    3  C5  UNL     1      27.717   7.287  12.132  1.00  0.00     0.372 C 
HETATM    4  O2  UNL     1      28.510   6.751  12.935  1.00  0.00    -0.238 OA
BRANCH   3   5
HETATM    5  O1  UNL     1      28.119   7.546  10.853  1.00  0.00    -0.294 OA
BRANCH   5   6
HETATM    6  C2  UNL     1      28.340   6.594   9.840  1.00  0.00     0.061 C 
HETATM    7  C1  UNL     1      29.777   6.207   9.653  1.00  0.00     0.046 C 
HETATM    8  C3  UNL     1      27.903   7.277   8.534  1.00  0.00     0.046 C 
HETATM    9  C4  UNL     1      27.503   5.358   9.954  1.00  0.00     0.046 C 
ENDBRANCH   5   6
ENDBRANCH   3   5
BRANCH   2  10
HETATM   10  C21 UNL     1      25.585   8.307  11.544  1.00  0.00     0.492 C 
HETATM   11  F1  UNL     1      25.165   7.595  10.478  1.00  0.00    -0.150 F 
HETATM   12  F2  UNL     1      26.225   9.464  11.059  1.00  0.00    -0.150 F 
HETATM   13  F3  UNL     1      24.464   8.845  12.240  1.00  0.00    -0.150 F 
ENDBRANCH   2  10
ENDBRANCH   1   2
BRANCH   1  14
HETATM   14  N2  UNL     1      25.222   8.426  14.521  1.00  0.00    -0.339 N 
HETATM   15  C7  UNL     1      25.813   9.138  15.613  1.00  0.00     0.223 C 
HETATM   16  O3  UNL     1      26.966   8.815  15.992  1.00  0.00    -0.273 OA
ATOM     17  H2  UNL     1      24.284   8.677  14.209  1.00  0.00     0.164 HD
BRANCH  15  18
HETATM   18  C8  UNL     1      25.119  10.230  16.296  1.00  0.00     0.082 C 
HETATM   19  C9  UNL     1      23.956  10.804  15.491  1.00  0.00     0.046 C 
HETATM   20  C10 UNL     1      24.410  12.172  16.004  1.00  0.00     0.185 C 
HETATM   21  C11 UNL     1      25.822  11.573  16.132  1.00  0.00     0.046 C 
BRANCH  20  22
HETATM   22  N3  UNL     1      24.403  13.223  15.018  1.00  0.00    -0.075 N 
ATOM     23  H33 UNL     1      25.010  12.977  14.237  1.00  0.00     0.274 HD
ATOM     24  H32 UNL     1      23.503  13.252  14.541  1.00  0.00     0.274 HD
ATOM     25  H31 UNL     1      24.644  14.147  15.374  1.00  0.00     0.274 HD
ENDBRANCH  20  22
ENDBRANCH  15  18
ENDBRANCH   1  14
BRANCH   1  26
HETATM   26  C12 UNL     1      25.251   6.068  14.122  1.00  0.00     0.053 C 
HETATM   27  C13 UNL     1      24.548   5.797  15.379  1.00  0.00     0.176 C 
HETATM   28  O4  UNL     1      24.351   4.389  15.453  1.00  0.00    -0.390 OA
HETATM   29  C14 UNL     1      23.463   3.928  14.488  1.00  0.00     0.173 C 
HETATM   30  C15 UNL     1      24.006   4.241  13.144  1.00  0.00     0.036 C 
HETATM   31  C20 UNL     1      24.273   5.715  12.985  1.00  0.00     0.019 C 
BRANCH  30  32
HETATM   32  C16 UNL     1      23.233   3.749  11.969  1.00  0.00     0.239 C 
BRANCH  32  33
HETATM   33  N4  UNL     1      23.990   3.550  10.791  1.00  0.00    -0.070 N 
ATOM     34  H42 UNL     1      23.965   4.387  10.209  1.00  0.00     0.277 HD
ATOM     35  H41 UNL     1      24.985   3.518  11.009  1.00  0.00     0.277 HD
BRANCH  33  36
HETATM   36  C17 UNL     1      23.614   2.410  10.033  1.00  0.00     0.186 A 
HETATM   37  C18 UNL     1      24.209   2.348   8.618  1.00  0.00     0.035 A 
HETATM   38  C19 UNL     1      24.574   1.342   9.620  1.00  0.00     0.035 A 
ENDBRANCH  33  36
ENDBRANCH  32  33
ENDBRANCH  30  32
ENDBRANCH   1  26
TORSDOF 11
ENDMDL
MODEL 4
REMARK VINA RESULT: -6.879478112      3.387      7.129
REMARK  11 active torsions:
REMARK  status: ('A' for Active; 'I' for Inactive)
REMARK    1  A    between atoms: C2_2  and  O1_5 
REMARK    2  A    between atoms: O1_5  and  C5_6 
REMARK       I    between atoms: C5_6  and  N1_8 
REMARK    3  A    between atoms: N1_8  and  C6_9 
REMARK    4  A    between atoms: N1_8  and  C21_35 
REMARK    5  A    between atoms: C6_9  and  N2_10 
REMARK    6  A    between atoms: C6_9  and  C12_22 
REMARK       I    between atoms: N2_10  and  C7_12 
REMARK    7  A    between atoms: C7_12  and  C8_14 
REMARK    8  A    between atoms: C10_16  and  N3_17 
REMARK    9  A    between atoms: C15_26  and  C16_27 
REMARK   10  A    between atoms: C16_27  and  N4_28 
REMARK   11  A    between atoms: N4_28  and  C17_31 
ROOT
HETATM    1  C6  UNL     1      26.471   7.406  12.896  1.00  0.00     0.206 C 
ENDROOT
BRANCH   1   2
HETATM    2  N1  UNL     1      27.220   8.215  13.793  1.00  0.00    -0.213 N 
HETATM    3  C5  UNL     1      28.589   7.868  14.109  1.00  0.00     0.372 C 
HETATM    4  O2  UNL     1      29.129   6.857  13.614  1.00  0.00    -0.238 OA
BRANCH   3   5
HETATM    5  O1  UNL     1      29.298   8.666  14.962  1.00  0.00    -0.294 OA
BRANCH   5   6
HETATM    6  C2  UNL     1      30.420   9.450  14.630  1.00  0.00     0.061 C 
HETATM    7  C1  UNL     1      31.739   8.773  14.855  1.00  0.00     0.046 C 
HETATM    8  C3  UNL     1      30.380  10.648  15.591  1.00  0.00     0.046 C 
HETATM    9  C4  UNL     1      30.388  10.031  13.251  1.00  0.00     0.046 C 
ENDBRANCH   5   6
ENDBRANCH   3   5
BRANCH   2  10
HETATM   10  C21 UNL     1      26.697   9.356  14.478  1.00  0.00     0.492 C 
HETATM   11  F1  UNL     1      27.272  10.554  14.247  1.00  0.00    -0.150 F 
HETATM   12  F2  UNL     1      26.662   9.163  15.873  1.00  0.00    -0.150 F 
HETATM   13  F3  UNL     1      25.313   9.409  14.140  1.00  0.00    -0.150 F 
ENDBRANCH   2  10
ENDBRANCH   1   2
BRANCH   1  14
HETATM   14  N2  UNL     1      27.110   7.101  11.639  1.00  0.00    -0.339 N 
HETATM   15  C7  UNL     1      26.820   7.855  10.458  1.00  0.00     0.223 C 
HETATM   16  O3  UNL     1      25.988   8.794  10.529  1.00  0.00    -0.273 OA
ATOM     17  H2  UNL     1      27.780   6.334  11.591  1.00  0.00     0.164 HD
BRANCH  15  18
HETATM   18  C8  UNL     1      27.463   7.571   9.175  1.00  0.00     0.082 C 
HETATM   19  C9  UNL     1      27.986   6.141   9.067  1.00  0.00     0.046 C 
HETATM   20  C10 UNL     1      29.193   6.745   8.345  1.00  0.00     0.185 C 
HETATM   21  C11 UNL     1      28.912   8.044   9.122  1.00  0.00     0.046 C 
BRANCH  20  22
HETATM   22  N3  UNL     1      30.468   6.200   8.734  1.00  0.00    -0.075 N 
ATOM     23  H33 UNL     1      31.210   6.874   8.550  1.00  0.00     0.274 HD
ATOM     24  H32 UNL     1      30.530   6.139   9.750  1.00  0.00     0.274 HD
ATOM     25  H31 UNL     1      30.697   5.300   8.312  1.00  0.00     0.274 HD
ENDBRANCH  20  22
ENDBRANCH  15  18
ENDBRANCH   1  14
BRANCH   1  26
HETATM   26  C12 UNL     1      25.800   6.193  13.422  1.00  0.00     0.053 C 
HETATM   27  C13 UNL     1      25.326   6.099  14.805  1.00  0.00     0.176 C 
HETATM   28  O4  UNL     1      25.087   4.721  15.072  1.00  0.00    -0.390 OA
HETATM   29  C14 UNL     1      24.020   4.218  14.336  1.00  0.00     0.173 C 
HETATM   30  C15 UNL     1      24.323   4.355  12.891  1.00  0.00     0.036 C 
HETATM   31  C20 UNL     1      24.618   5.785  12.522  1.00  0.00     0.019 C 
BRANCH  30  32
HETATM   32  C16 UNL     1      23.330   3.792  11.934  1.00  0.00     0.239 C 
BRANCH  32  33
HETATM   33  N4  UNL     1      23.780   3.674  10.598  1.00  0.00    -0.070 N 
ATOM     34  H42 UNL     1      23.395   4.427  10.028  1.00  0.00     0.277 HD
ATOM     35  H41 UNL     1      24.773   3.897  10.538  1.00  0.00     0.277 HD
BRANCH  33  36
HETATM   36  C17 UNL     1      23.519   2.416   9.996  1.00  0.00     0.186 A 
HETATM   37  C18 UNL     1      24.031   2.269   8.555  1.00  0.00     0.035 A 
HETATM   38  C19 UNL     1      24.590   1.441   9.628  1.00  0.00     0.035 A 
ENDBRANCH  33  36
ENDBRANCH  32  33
ENDBRANCH  30  32
ENDBRANCH   1  26
TORSDOF 11
ENDMDL
MODEL 5
REMARK VINA RESULT: -6.853930098      2.736      3.729
REMARK  11 active torsions:
REMARK  status: ('A' for Active; 'I' for Inactive)
REMARK    1  A    between atoms: C2_2  and  O1_5 
REMARK    2  A    between atoms: O1_5  and  C5_6 
REMARK       I    between atoms: C5_6  and  N1_8 
REMARK    3  A    between atoms: N1_8  and  C6_9 
REMARK    4  A    between atoms: N1_8  and  C21_35 
REMARK    5  A    between atoms: C6_9  and  N2_10 
REMARK    6  A    between atoms: C6_9  and  C12_22 
REMARK       I    between atoms: N2_10  and  C7_12 
REMARK    7  A    between atoms: C7_12  and  C8_14 
REMARK    8  A    between atoms: C10_16  and  N3_17 
REMARK    9  A    between atoms: C15_26  and  C16_27 
REMARK   10  A    between atoms: C16_27  and  N4_28 
REMARK   11  A    between atoms: N4_28  and  C17_31 
ROOT
HETATM    1  C6  UNL     1      27.604   7.578  10.632  1.00  0.00     0.206 C 
ENDROOT
BRANCH   1   2
HETATM    2  N1  UNL     1      29.007   7.386  10.754  1.00  0.00    -0.213 N 
HETATM    3  C5  UNL     1      29.588   7.100  12.049  1.00  0.00     0.372 C 
HETATM    4  O2  UNL     1      28.876   7.030  13.073  1.00  0.00    -0.238 OA
BRANCH   3   5
HETATM    5  O1  UNL     1      30.936   6.903  12.145  1.00  0.00    -0.294 OA
BRANCH   5   6
HETATM    6  C2  UNL     1      31.859   7.755  12.780  1.00  0.00     0.061 C 
HETATM    7  C1  UNL     1      33.062   8.095  11.950  1.00  0.00     0.046 C 
HETATM    8  C3  UNL     1      32.380   6.966  13.991  1.00  0.00     0.046 C 
HETATM    9  C4  UNL     1      31.267   9.012  13.336  1.00  0.00     0.046 C 
ENDBRANCH   5   6
ENDBRANCH   3   5
BRANCH   2  10
HETATM   10  C21 UNL     1      29.935   7.508   9.674  1.00  0.00     0.492 C 
HETATM   11  F1  UNL     1      30.803   6.497   9.465  1.00  0.00    -0.150 F 
HETATM   12  F2  UNL     1      30.681   8.701   9.752  1.00  0.00    -0.150 F 
HETATM   13  F3  UNL     1      29.144   7.717   8.506  1.00  0.00    -0.150 F 
ENDBRANCH   2  10
ENDBRANCH   1   2
BRANCH   1  14
HETATM   14  N2  UNL     1      26.774   6.542  11.194  1.00  0.00    -0.339 N 
HETATM   15  C7  UNL     1      26.670   5.256  10.574  1.00  0.00     0.223 C 
HETATM   16  O3  UNL     1      27.315   5.041   9.518  1.00  0.00    -0.273 OA
ATOM     17  H2  UNL     1      26.250   6.729  12.049  1.00  0.00     0.164 HD
BRANCH  15  18
HETATM   18  C8  UNL     1      25.843   4.187  11.133  1.00  0.00     0.082 C 
HETATM   19  C9  UNL     1      24.909   3.549  10.108  1.00  0.00     0.046 C 
HETATM   20  C10 UNL     1      23.870   3.509  11.231  1.00  0.00     0.185 C 
HETATM   21  C11 UNL     1      24.604   4.712  11.851  1.00  0.00     0.046 C 
BRANCH  20  22
HETATM   22  N3  UNL     1      22.537   3.889  10.839  1.00  0.00    -0.075 N 
ATOM     23  H33 UNL     1      22.285   3.436   9.960  1.00  0.00     0.274 HD
ATOM     24  H32 UNL     1      21.852   3.462  11.461  1.00  0.00     0.274 HD
ATOM     25  H31 UNL     1      22.378   4.894  10.775  1.00  0.00     0.274 HD
ENDBRANCH  20  22
ENDBRANCH  15  18
ENDBRANCH   1  14
BRANCH   1  26
HETATM   26  C12 UNL     1      27.037   8.908  10.962  1.00  0.00     0.053 C 
HETATM   27  C13 UNL     1      26.808   9.937   9.945  1.00  0.00     0.176 C 
HETATM   28  O4  UNL     1      26.622  11.170  10.632  1.00  0.00    -0.390 OA
HETATM   29  C14 UNL     1      25.447  11.190  11.373  1.00  0.00     0.173 C 
HETATM   30  C15 UNL     1      25.496  10.108  12.386  1.00  0.00     0.036 C 
HETATM   31  C20 UNL     1      25.719   8.762  11.747  1.00  0.00     0.019 C 
BRANCH  30  32
HETATM   32  C16 UNL     1      24.354  10.020  13.340  1.00  0.00     0.239 C 
BRANCH  32  33
HETATM   33  N4  UNL     1      23.775   8.737  13.469  1.00  0.00    -0.070 N 
ATOM     34  H42 UNL     1      22.786   8.769  13.221  1.00  0.00     0.277 HD
ATOM     35  H41 UNL     1      24.119   8.117  12.736  1.00  0.00     0.277 HD
BRANCH  33  36
HETATM   36  C17 UNL     1      23.945   8.136  14.743  1.00  0.00     0.186 A 
HETATM   37  C18 UNL     1      23.272   6.766  14.909  1.00  0.00     0.035 A 
HETATM   38  C19 UNL     1      24.732   6.885  14.966  1.00  0.00     0.035 A 
ENDBRANCH  33  36
ENDBRANCH  32  33
ENDBRANCH  30  32
ENDBRANCH   1  26
TORSDOF 11
ENDMDL
