MODEL 1
REMARK VINA RESULT: -7.536116319      0.000      0.000
REMARK  11 active torsions:
REMARK  status: ('A' for Active; 'I' for Inactive)
REMARK    1  A    between atoms: C5_10  and  C6_11 
REMARK    2  A    between atoms: C6_11  and  N4_12 
REMARK    3  A    between atoms: C6_11  and  C18_30 
REMARK       I    between atoms: N4_12  and  C7_13 
REMARK    4  A    between atoms: C7_13  and  C8_15 
REMARK    5  A    between atoms: C8_15  and  C9_16 
REMARK    6  A    between atoms: C9_16  and  C10_17 
REMARK    7  A    between atoms: C10_17  and  N5_18 
REMARK       I    between atoms: N5_18  and  C12_20 
REMARK    8  A    between atoms: C12_20  and  C13_22 
REMARK    9  A    between atoms: C13_22  and  C14_23 
REMARK   10  A    between atoms: C14_23  and  C17_26 
REMARK   11  A    between atoms: C21_35  and  N7_36 
ROOT
HETATM    1  C6  UNL     1      24.648   6.081  14.530  1.00  0.00     0.238 C 
ENDROOT
BRANCH   1   2
HETATM    2  C5  UNL     1      24.652   5.250  13.228  1.00  0.00     0.121 A 
HETATM    3  N3  UNL     1      25.705   5.289  12.398  1.00  0.00    -0.327 N 
HETATM    4  C4  UNL     1      25.703   4.587  11.235  1.00  0.00     0.139 A 
ATOM      5  H3  UNL     1      26.519   5.853  12.644  1.00  0.00     0.169 HD
HETATM    6  N2  UNL     1      26.597   4.455  10.234  1.00  0.00    -0.280 N 
HETATM    7  C22 UNL     1      24.624   3.815  10.871  1.00  0.00     0.077 A 
HETATM    8  N1  UNL     1      26.118   3.658   9.307  1.00  0.00    -0.301 N 
HETATM    9  C3  UNL     1      27.887   5.105  10.210  1.00  0.00     0.179 C 
HETATM   10  C2  UNL     1      24.881   3.217   9.638  1.00  0.00     0.040 A 
ATOM     11  H1  UNL     1      26.612   3.404   8.452  1.00  0.00     0.187 HD
HETATM   12  C1  UNL     1      23.990   2.311   8.869  1.00  0.00     0.071 C 
HETATM   13  C21 UNL     1      23.550   3.786  11.740  1.00  0.00     0.116 A 
HETATM   14  N6  UNL     1      23.595   4.505  12.895  1.00  0.00    -0.329 N 
ATOM     15  H6  UNL     1      22.795   4.475  13.527  1.00  0.00     0.168 HD
BRANCH  13  16
HETATM   16  N7  UNL     1      22.545   3.060  11.398  1.00  0.00    -0.385 N 
ATOM     17  H72 UNL     1      21.618   3.462  11.536  1.00  0.00     0.157 HD
ATOM     18  H71 UNL     1      22.637   2.124  11.004  1.00  0.00     0.157 HD
ENDBRANCH  13  16
ENDBRANCH   1   2
BRANCH   1  19
HETATM   19  N4  UNL     1      25.649   6.797  14.746  1.00  0.00    -0.391 NA
HETATM   20  C7  UNL     1      26.814   7.630  14.997  1.00  0.00     0.367 C 
HETATM   21  O1  UNL     1      27.985   7.249  14.912  1.00  0.00    -0.242 OA
BRANCH  20  22
HETATM   22  C8  UNL     1      26.650   9.030  15.379  1.00  0.00     0.011 C 
BRANCH  22  23
HETATM   23  C9  UNL     1      26.548  10.182  15.719  1.00  0.00    -0.075 C 
BRANCH  23  24
HETATM   24  C10 UNL     1      26.466  11.593  16.098  1.00  0.00     0.220 C 
BRANCH  24  25
HETATM   25  N5  UNL     1      25.183  11.879  16.645  1.00  0.00    -0.346 N 
HETATM   26  C11 UNL     1      24.919  11.437  18.010  1.00  0.00     0.153 C 
HETATM   27  C12 UNL     1      24.209  12.564  15.882  1.00  0.00     0.221 C 
HETATM   28  O2  UNL     1      23.084  12.763  16.401  1.00  0.00    -0.273 OA
BRANCH  27  29
HETATM   29  C13 UNL     1      24.510  13.036  14.531  1.00  0.00     0.120 C 
BRANCH  29  30
HETATM   30  C14 UNL     1      23.858  12.132  13.494  1.00  0.00     0.059 C 
HETATM   31  C15 UNL     1      22.699  12.874  12.849  1.00  0.00     0.024 C 
HETATM   32  C16 UNL     1      23.385  10.848  14.081  1.00  0.00     0.024 C 
BRANCH  30  33
HETATM   33  C17 UNL     1      24.892  11.896  12.392  1.00  0.00     0.395 C 
HETATM   34  F1  UNL     1      24.991  10.571  12.074  1.00  0.00    -0.170 F 
HETATM   35  F2  UNL     1      24.535  12.708  11.334  1.00  0.00    -0.170 F 
HETATM   36  F3  UNL     1      26.086  12.384  12.908  1.00  0.00    -0.170 F 
ENDBRANCH  30  33
ENDBRANCH  29  30
ENDBRANCH  27  29
ENDBRANCH  24  25
ENDBRANCH  23  24
ENDBRANCH  22  23
ENDBRANCH  20  22
ENDBRANCH   1  19
BRANCH   1  37
HETATM   37  C18 UNL     1      24.290   5.062  15.617  1.00  0.00     0.021 C 
HETATM   38  C19 UNL     1      25.467   4.329  16.136  1.00  0.00     0.013 C 
HETATM   39  C20 UNL     1      23.398   5.645  16.672  1.00  0.00     0.013 C 
ENDBRANCH   1  37
TORSDOF 11
ENDMDL
MODEL 2
REMARK VINA RESULT: -7.535310516      2.558      3.340
REMARK  11 active torsions:
REMARK  status: ('A' for Active; 'I' for Inactive)
REMARK    1  A    between atoms: C5_10  and  C6_11 
REMARK    2  A    between atoms: C6_11  and  N4_12 
REMARK    3  A    between atoms: C6_11  and  C18_30 
REMARK       I    between atoms: N4_12  and  C7_13 
REMARK    4  A    between atoms: C7_13  and  C8_15 
REMARK    5  A    between atoms: C8_15  and  C9_16 
REMARK    6  A    between atoms: C9_16  and  C10_17 
REMARK    7  A    between atoms: C10_17  and  N5_18 
REMARK       I    between atoms: N5_18  and  C12_20 
REMARK    8  A    between atoms: C12_20  and  C13_22 
REMARK    9  A    between atoms: C13_22  and  C14_23 
REMARK   10  A    between atoms: C14_23  and  C17_26 
REMARK   11  A    between atoms: C21_35  and  N7_36 
ROOT
HETATM    1  C6  UNL     1      24.028   5.751  14.347  1.00  0.00     0.238 C 
ENDROOT
BRANCH   1   2
HETATM    2  C5  UNL     1      24.260   4.976  13.032  1.00  0.00     0.121 A 
HETATM    3  N3  UNL     1      25.406   5.120  12.350  1.00  0.00    -0.327 N 
HETATM    4  C4  UNL     1      25.605   4.467  11.175  1.00  0.00     0.139 A 
ATOM      5  H3  UNL     1      26.139   5.727  12.718  1.00  0.00     0.169 HD
HETATM    6  N2  UNL     1      26.628   4.436  10.297  1.00  0.00    -0.280 N 
HETATM    7  C22 UNL     1      24.641   3.638  10.648  1.00  0.00     0.077 A 
HETATM    8  N1  UNL     1      26.332   3.647   9.291  1.00  0.00    -0.301 N 
HETATM    9  C3  UNL     1      27.860   5.173  10.463  1.00  0.00     0.179 C 
HETATM   10  C2  UNL     1      25.098   3.109   9.442  1.00  0.00     0.040 A 
ATOM     11  H1  UNL     1      26.949   3.462   8.500  1.00  0.00     0.187 HD
HETATM   12  C1  UNL     1      24.382   2.177   8.535  1.00  0.00     0.071 C 
HETATM   13  C21 UNL     1      23.469   3.501  11.368  1.00  0.00     0.116 A 
HETATM   14  N6  UNL     1      23.312   4.175  12.540  1.00  0.00    -0.329 N 
ATOM     15  H6  UNL     1      22.441   4.065  13.060  1.00  0.00     0.168 HD
BRANCH  13  16
HETATM   16  N7  UNL     1      22.572   2.723  10.874  1.00  0.00    -0.385 N 
ATOM     17  H72 UNL     1      21.639   2.778  11.282  1.00  0.00     0.157 HD
ATOM     18  H71 UNL     1      22.753   2.072  10.110  1.00  0.00     0.157 HD
ENDBRANCH  13  16
ENDBRANCH   1   2
BRANCH   1  19
HETATM   19  N4  UNL     1      24.870   6.627  14.644  1.00  0.00    -0.391 NA
HETATM   20  C7  UNL     1      25.849   7.644  14.989  1.00  0.00     0.367 C 
HETATM   21  O1  UNL     1      26.805   7.473  15.751  1.00  0.00    -0.242 OA
BRANCH  20  22
HETATM   22  C8  UNL     1      25.748   8.986  14.421  1.00  0.00     0.011 C 
BRANCH  22  23
HETATM   23  C9  UNL     1      25.662  10.077  13.915  1.00  0.00    -0.075 C 
BRANCH  23  24
HETATM   24  C10 UNL     1      25.568  11.378  13.254  1.00  0.00     0.220 C 
BRANCH  24  25
HETATM   25  N5  UNL     1      26.842  11.763  12.750  1.00  0.00    -0.346 N 
HETATM   26  C11 UNL     1      27.726  12.504  13.645  1.00  0.00     0.153 C 
HETATM   27  C12 UNL     1      27.226  11.437  11.427  1.00  0.00     0.221 C 
HETATM   28  O2  UNL     1      28.347  11.829  11.023  1.00  0.00    -0.273 OA
BRANCH  27  29
HETATM   29  C13 UNL     1      26.342  10.657  10.561  1.00  0.00     0.120 C 
BRANCH  29  30
HETATM   30  C14 UNL     1      26.864   9.235  10.413  1.00  0.00     0.059 C 
HETATM   31  C15 UNL     1      25.705   8.263  10.573  1.00  0.00     0.024 C 
HETATM   32  C16 UNL     1      27.939   8.922  11.394  1.00  0.00     0.024 C 
BRANCH  30  33
HETATM   33  C17 UNL     1      27.361   9.087   8.974  1.00  0.00     0.395 C 
HETATM   34  F1  UNL     1      27.237   7.800   8.531  1.00  0.00    -0.170 F 
HETATM   35  F2  UNL     1      26.673  10.016   8.220  1.00  0.00    -0.170 F 
HETATM   36  F3  UNL     1      28.692   9.483   9.011  1.00  0.00    -0.170 F 
ENDBRANCH  30  33
ENDBRANCH  29  30
ENDBRANCH  27  29
ENDBRANCH  24  25
ENDBRANCH  23  24
ENDBRANCH  22  23
ENDBRANCH  20  22
ENDBRANCH   1  19
BRANCH   1  37
HETATM   37  C18 UNL     1      23.792   4.651  15.387  1.00  0.00     0.021 C 
HETATM   38  C19 UNL     1      24.930   4.478  16.317  1.00  0.00     0.013 C 
HETATM   39  C20 UNL     1      22.453   4.773  16.051  1.00  0.00     0.013 C 
ENDBRANCH   1  37
TORSDOF 11
ENDMDL
MODEL 3
REMARK VINA RESULT: -7.440072710      2.995      4.183
REMARK  11 active torsions:
REMARK  status: ('A' for Active; 'I' for Inactive)
REMARK    1  A    between atoms: C5_10  and  C6_11 
REMARK    2  A    between atoms: C6_11  and  N4_12 
REMARK    3  A    between atoms: C6_11  and  C18_30 
REMARK       I    between atoms: N4_12  and  C7_13 
REMARK    4  A    between atoms: C7_13  and  C8_15 
REMARK    5  A    between atoms: C8_15  and  C9_16 
REMARK    6  A    between atoms: C9_16  and  C10_17 
REMARK    7  A    between atoms: C10_17  and  N5_18 
REMARK       I    between atoms: N5_18  and  C12_20 
REMARK    8  A    between atoms: C12_20  and  C13_22 
REMARK    9  A    between atoms: C13_22  and  C14_23 
REMARK   10  A    between atoms: C14_23  and  C17_26 
REMARK   11  A    between atoms: C21_35  and  N7_36 
ROOT
HETATM    1  C6  UNL     1      24.666   6.101  14.547  1.00  0.00     0.238 C 
ENDROOT
BRANCH   1   2
HETATM    2  C5  UNL     1      24.666   5.269  13.246  1.00  0.00     0.121 A 
HETATM    3  N3  UNL     1      25.722   5.298  12.419  1.00  0.00    -0.327 N 
HETATM    4  C4  UNL     1      25.717   4.595  11.257  1.00  0.00     0.139 A 
ATOM      5  H3  UNL     1      26.540   5.855  12.667  1.00  0.00     0.169 HD
HETATM    6  N2  UNL     1      26.613   4.454  10.258  1.00  0.00    -0.280 N 
HETATM    7  C22 UNL     1      24.632   3.831  10.891  1.00  0.00     0.077 A 
HETATM    8  N1  UNL     1      26.129   3.660   9.331  1.00  0.00    -0.301 N 
HETATM    9  C3  UNL     1      27.908   5.093  10.237  1.00  0.00     0.179 C 
HETATM   10  C2  UNL     1      24.888   3.229   9.659  1.00  0.00     0.040 A 
ATOM     11  H1  UNL     1      26.623   3.401   8.478  1.00  0.00     0.187 HD
HETATM   12  C1  UNL     1      23.992   2.330   8.889  1.00  0.00     0.071 C 
HETATM   13  C21 UNL     1      23.556   3.812  11.758  1.00  0.00     0.116 A 
HETATM   14  N6  UNL     1      23.604   4.532  12.911  1.00  0.00    -0.329 N 
ATOM     15  H6  UNL     1      22.802   4.509  13.541  1.00  0.00     0.168 HD
BRANCH  13  16
HETATM   16  N7  UNL     1      22.546   3.094  11.414  1.00  0.00    -0.385 N 
ATOM     17  H72 UNL     1      21.650   3.572  11.322  1.00  0.00     0.157 HD
ATOM     18  H71 UNL     1      22.605   2.092  11.233  1.00  0.00     0.157 HD
ENDBRANCH  13  16
ENDBRANCH   1   2
BRANCH   1  19
HETATM   19  N4  UNL     1      25.661   6.827  14.754  1.00  0.00    -0.391 NA
HETATM   20  C7  UNL     1      26.819   7.672  14.995  1.00  0.00     0.367 C 
HETATM   21  O1  UNL     1      26.935   8.456  15.942  1.00  0.00    -0.242 OA
BRANCH  20  22
HETATM   22  C8  UNL     1      27.962   7.632  14.088  1.00  0.00     0.011 C 
BRANCH  22  23
HETATM   23  C9  UNL     1      28.883   7.580  13.310  1.00  0.00    -0.075 C 
BRANCH  23  24
HETATM   24  C10 UNL     1      29.963   7.512  12.327  1.00  0.00     0.220 C 
BRANCH  24  25
HETATM   25  N5  UNL     1      30.538   8.800  12.141  1.00  0.00    -0.346 N 
HETATM   26  C11 UNL     1      31.534   9.242  13.113  1.00  0.00     0.153 C 
HETATM   27  C12 UNL     1      30.148   9.615  11.052  1.00  0.00     0.221 C 
HETATM   28  O2  UNL     1      30.663  10.755  10.953  1.00  0.00    -0.273 OA
BRANCH  27  29
HETATM   29  C13 UNL     1      29.181   9.136  10.065  1.00  0.00     0.120 C 
BRANCH  29  30
HETATM   30  C14 UNL     1      27.844   9.841  10.246  1.00  0.00     0.059 C 
HETATM   31  C15 UNL     1      27.698  10.909   9.174  1.00  0.00     0.024 C 
HETATM   32  C16 UNL     1      27.702  10.446  11.599  1.00  0.00     0.024 C 
BRANCH  30  33
HETATM   33  C17 UNL     1      26.750   8.805   9.980  1.00  0.00     0.395 C 
HETATM   34  F1  UNL     1      26.555   7.994  11.062  1.00  0.00    -0.170 F 
HETATM   35  F2  UNL     1      25.629   9.505   9.584  1.00  0.00    -0.170 F 
HETATM   36  F3  UNL     1      27.199   8.082   8.881  1.00  0.00    -0.170 F 
ENDBRANCH  30  33
ENDBRANCH  29  30
ENDBRANCH  27  29
ENDBRANCH  24  25
ENDBRANCH  23  24
ENDBRANCH  22  23
ENDBRANCH  20  22
ENDBRANCH   1  19
BRANCH   1  37
HETATM   37  C18 UNL     1      24.327   5.080  15.638  1.00  0.00     0.021 C 
HETATM   38  C19 UNL     1      25.515   4.364  16.153  1.00  0.00     0.013 C 
HETATM   39  C20 UNL     1      23.433   5.654  16.697  1.00  0.00     0.013 C 
ENDBRANCH   1  37
TORSDOF 11
ENDMDL
MODEL 4
REMARK VINA RESULT: -7.433414972      0.807      1.218
REMARK  11 active torsions:
REMARK  status: ('A' for Active; 'I' for Inactive)
REMARK    1  A    between atoms: C5_10  and  C6_11 
REMARK    2  A    between atoms: C6_11  and  N4_12 
REMARK    3  A    between atoms: C6_11  and  C18_30 
REMARK       I    between atoms: N4_12  and  C7_13 
REMARK    4  A    between atoms: C7_13  and  C8_15 
REMARK    5  A    between atoms: C8_15  and  C9_16 
REMARK    6  A    between atoms: C9_16  and  C10_17 
REMARK    7  A    between atoms: C10_17  and  N5_18 
REMARK       I    between atoms: N5_18  and  C12_20 
REMARK    8  A    between atoms: C12_20  and  C13_22 
REMARK    9  A    between atoms: C13_22  and  C14_23 
REMARK   10  A    between atoms: C14_23  and  C17_26 
REMARK   11  A    between atoms: C21_35  and  N7_36 
ROOT
HETATM    1  C6  UNL     1      24.694   6.101  14.541  1.00  0.00     0.238 C 
ENDROOT
BRANCH   1   2
HETATM    2  C5  UNL     1      24.666   5.265  13.244  1.00  0.00     0.121 A 
HETATM    3  N3  UNL     1      25.704   5.291  12.394  1.00  0.00    -0.327 N 
HETATM    4  C4  UNL     1      25.673   4.583  11.234  1.00  0.00     0.139 A 
ATOM      5  H3  UNL     1      26.526   5.849  12.621  1.00  0.00     0.169 HD
HETATM    6  N2  UNL     1      26.547   4.439  10.217  1.00  0.00    -0.280 N 
HETATM    7  C22 UNL     1      24.582   3.818  10.895  1.00  0.00     0.077 A 
HETATM    8  N1  UNL     1      26.044   3.641   9.304  1.00  0.00    -0.301 N 
HETATM    9  C3  UNL     1      27.841   5.079  10.165  1.00  0.00     0.179 C 
HETATM   10  C2  UNL     1      24.811   3.211   9.661  1.00  0.00     0.040 A 
ATOM     11  H1  UNL     1      26.519   3.380   8.441  1.00  0.00     0.187 HD
HETATM   12  C1  UNL     1      23.898   2.309   8.914  1.00  0.00     0.071 C 
HETATM   13  C21 UNL     1      23.524   3.801  11.785  1.00  0.00     0.116 A 
HETATM   14  N6  UNL     1      23.598   4.526  12.935  1.00  0.00    -0.329 N 
ATOM     15  H6  UNL     1      22.809   4.505  13.583  1.00  0.00     0.168 HD
BRANCH  13  16
HETATM   16  N7  UNL     1      22.507   3.082  11.467  1.00  0.00    -0.385 N 
ATOM     17  H72 UNL     1      21.603   3.551  11.432  1.00  0.00     0.157 HD
ATOM     18  H71 UNL     1      22.570   2.087  11.252  1.00  0.00     0.157 HD
ENDBRANCH  13  16
ENDBRANCH   1   2
BRANCH   1  19
HETATM   19  N4  UNL     1      25.716   6.789  14.748  1.00  0.00    -0.391 NA
HETATM   20  C7  UNL     1      26.906   7.589  14.989  1.00  0.00     0.367 C 
HETATM   21  O1  UNL     1      28.063   7.161  14.950  1.00  0.00    -0.242 OA
BRANCH  20  22
HETATM   22  C8  UNL     1      26.788   9.011  15.301  1.00  0.00     0.011 C 
BRANCH  22  23
HETATM   23  C9  UNL     1      26.678  10.174  15.598  1.00  0.00    -0.075 C 
BRANCH  23  24
HETATM   24  C10 UNL     1      26.516  11.571  16.001  1.00  0.00     0.220 C 
BRANCH  24  25
HETATM   25  N5  UNL     1      25.216  11.777  16.540  1.00  0.00    -0.346 N 
HETATM   26  C11 UNL     1      24.914  11.160  17.828  1.00  0.00     0.153 C 
HETATM   27  C12 UNL     1      24.258  12.553  15.844  1.00  0.00     0.221 C 
HETATM   28  O2  UNL     1      23.117  12.677  16.350  1.00  0.00    -0.273 OA
BRANCH  27  29
HETATM   29  C13 UNL     1      24.596  13.198  14.576  1.00  0.00     0.120 C 
BRANCH  29  30
HETATM   30  C14 UNL     1      24.105  12.358  13.405  1.00  0.00     0.059 C 
HETATM   31  C15 UNL     1      23.393  11.128  13.942  1.00  0.00     0.024 C 
HETATM   32  C16 UNL     1      25.213  11.958  12.494  1.00  0.00     0.024 C 
BRANCH  30  33
HETATM   33  C17 UNL     1      23.050  13.187  12.670  1.00  0.00     0.395 C 
HETATM   34  F1  UNL     1      21.821  12.592  12.722  1.00  0.00    -0.170 F 
HETATM   35  F2  UNL     1      23.091  14.454  13.215  1.00  0.00    -0.170 F 
HETATM   36  F3  UNL     1      23.512  13.280  11.363  1.00  0.00    -0.170 F 
ENDBRANCH  30  33
ENDBRANCH  29  30
ENDBRANCH  27  29
ENDBRANCH  24  25
ENDBRANCH  23  24
ENDBRANCH  22  23
ENDBRANCH  20  22
ENDBRANCH   1  19
BRANCH   1  37
HETATM   37  C18 UNL     1      24.312   5.099  15.636  1.00  0.00     0.021 C 
HETATM   38  C19 UNL     1      25.474   4.355  16.172  1.00  0.00     0.013 C 
HETATM   39  C20 UNL     1      23.420   5.705  16.677  1.00  0.00     0.013 C 
ENDBRANCH   1  37
TORSDOF 11
ENDMDL
MODEL 5
REMARK VINA RESULT: -7.220555370      3.260      5.105
REMARK  11 active torsions:
REMARK  status: ('A' for Active; 'I' for Inactive)
REMARK    1  A    between atoms: C5_10  and  C6_11 
REMARK    2  A    between atoms: C6_11  and  N4_12 
REMARK    3  A    between atoms: C6_11  and  C18_30 
REMARK       I    between atoms: N4_12  and  C7_13 
REMARK    4  A    between atoms: C7_13  and  C8_15 
REMARK    5  A    between atoms: C8_15  and  C9_16 
REMARK    6  A    between atoms: C9_16  and  C10_17 
REMARK    7  A    between atoms: C10_17  and  N5_18 
REMARK       I    between atoms: N5_18  and  C12_20 
REMARK    8  A    between atoms: C12_20  and  C13_22 
REMARK    9  A    between atoms: C13_22  and  C14_23 
REMARK   10  A    between atoms: C14_23  and  C17_26 
REMARK   11  A    between atoms: C21_35  and  N7_36 
ROOT
HETATM    1  C6  UNL     1      24.518   6.072  14.450  1.00  0.00     0.238 C 
ENDROOT
BRANCH   1   2
HETATM    2  C5  UNL     1      24.562   5.229  13.157  1.00  0.00     0.121 A 
HETATM    3  N3  UNL     1      25.634   5.272  12.352  1.00  0.00    -0.327 N 
HETATM    4  C4  UNL     1      25.667   4.558  11.196  1.00  0.00     0.139 A 
ATOM      5  H3  UNL     1      26.435   5.848  12.610  1.00  0.00     0.169 HD
HETATM    6  N2  UNL     1      26.586   4.426  10.218  1.00  0.00    -0.280 N 
HETATM    7  C22 UNL     1      24.606   3.769  10.816  1.00  0.00     0.077 A 
HETATM    8  N1  UNL     1      26.138   3.614   9.289  1.00  0.00    -0.301 N 
HETATM    9  C3  UNL     1      27.868   5.092  10.216  1.00  0.00     0.179 C 
HETATM   10  C2  UNL     1      24.899   3.161   9.596  1.00  0.00     0.040 A 
ATOM     11  H1  UNL     1      26.654   3.358   8.448  1.00  0.00     0.187 HD
HETATM   12  C1  UNL     1      24.037   2.237   8.816  1.00  0.00     0.071 C 
HETATM   13  C21 UNL     1      23.513   3.736  11.660  1.00  0.00     0.116 A 
HETATM   14  N6  UNL     1      23.523   4.468  12.808  1.00  0.00    -0.329 N 
ATOM     15  H6  UNL     1      22.708   4.434  13.422  1.00  0.00     0.168 HD
BRANCH  13  16
HETATM   16  N7  UNL     1      22.525   2.994  11.303  1.00  0.00    -0.385 N 
ATOM     17  H72 UNL     1      22.046   2.477  12.040  1.00  0.00     0.157 HD
ATOM     18  H71 UNL     1      22.209   2.907  10.337  1.00  0.00     0.157 HD
ENDBRANCH  13  16
ENDBRANCH   1   2
BRANCH   1  19
HETATM   19  N4  UNL     1      25.424   6.920  14.603  1.00  0.00    -0.391 NA
HETATM   20  C7  UNL     1      26.478   7.905  14.782  1.00  0.00     0.367 C 
HETATM   21  O1  UNL     1      27.040   8.150  15.854  1.00  0.00    -0.242 OA
BRANCH  20  22
HETATM   22  C8  UNL     1      26.952   8.691  13.647  1.00  0.00     0.011 C 
BRANCH  22  23
HETATM   23  C9  UNL     1      27.372   9.312  12.702  1.00  0.00    -0.075 C 
BRANCH  23  24
HETATM   24  C10 UNL     1      27.915  10.092  11.590  1.00  0.00     0.220 C 
BRANCH  24  25
HETATM   25  N5  UNL     1      28.356   9.223  10.553  1.00  0.00    -0.346 N 
HETATM   26  C11 UNL     1      27.356   8.742   9.604  1.00  0.00     0.153 C 
HETATM   27  C12 UNL     1      29.716   8.844  10.456  1.00  0.00     0.221 C 
HETATM   28  O2  UNL     1      30.046   8.052   9.541  1.00  0.00    -0.273 OA
BRANCH  27  29
HETATM   29  C13 UNL     1      30.710   9.372  11.391  1.00  0.00     0.120 C 
BRANCH  29  30
HETATM   30  C14 UNL     1      31.119   8.301  12.392  1.00  0.00     0.059 C 
HETATM   31  C15 UNL     1      32.597   7.996  12.214  1.00  0.00     0.024 C 
HETATM   32  C16 UNL     1      30.314   7.057  12.250  1.00  0.00     0.024 C 
BRANCH  30  33
HETATM   33  C17 UNL     1      30.966   8.910  13.788  1.00  0.00     0.395 C 
HETATM   34  F1  UNL     1      30.492  10.189  13.727  1.00  0.00    -0.170 F 
HETATM   35  F2  UNL     1      30.172   8.043  14.511  1.00  0.00    -0.170 F 
HETATM   36  F3  UNL     1      32.240   8.867  14.341  1.00  0.00    -0.170 F 
ENDBRANCH  30  33
ENDBRANCH  29  30
ENDBRANCH  27  29
ENDBRANCH  24  25
ENDBRANCH  23  24
ENDBRANCH  22  23
ENDBRANCH  20  22
ENDBRANCH   1  19
BRANCH   1  37
HETATM   37  C18 UNL     1      24.360   5.033  15.564  1.00  0.00     0.021 C 
HETATM   38  C19 UNL     1      25.649   4.452  16.004  1.00  0.00     0.013 C 
HETATM   39  C20 UNL     1      23.481   5.520  16.677  1.00  0.00     0.013 C 
ENDBRANCH   1  37
TORSDOF 11
ENDMDL
