MODEL 1
REMARK VINA RESULT: -7.505734701      0.000      0.000
REMARK  8 active torsions:
REMARK  status: ('A' for Active; 'I' for Inactive)
REMARK    1  A    between atoms: C2_2  and  O1_4 
REMARK    2  A    between atoms: C2_2  and  C4_6 
REMARK    3  A    between atoms: C4_6  and  C5_7 
REMARK       I    between atoms: C5_7  and  N1_9 
REMARK    4  A    between atoms: N1_9  and  C6_10 
REMARK    5  A    between atoms: N2_13  and  C9_14 
REMARK    6  A    between atoms: C9_14  and  C10_15 
REMARK    7  A    between atoms: C10_15  and  C11_19 
REMARK    8  A    between atoms: C11_19  and  N4_20 
ROOT
HETATM    1  C6  UNL     1      24.473   5.023  13.321  1.00  0.00     0.188 C 
HETATM    2  C7  UNL     1      25.085   6.280  12.674  1.00  0.00     0.071 C 
HETATM    3  C8  UNL     1      25.655   7.101  13.808  1.00  0.00     0.276 C 
HETATM    4  N2  UNL     1      24.519   7.764  14.429  1.00  0.00     0.095 N 
HETATM    5  C15 UNL     1      23.415   6.857  14.604  1.00  0.00     0.296 C 
HETATM    6  C16 UNL     1      23.727   5.413  14.596  1.00  0.00     0.146 C 
HETATM    7 CL2  UNL     1      24.619   4.992  16.061  1.00  0.00    -0.120 Cl
ENDROOT
BRANCH   4   8
HETATM    8  C9  UNL     1      24.893   8.434  15.643  1.00  0.00     0.326 C 
BRANCH   8   9
HETATM    9  C10 UNL     1      24.808   9.915  15.404  1.00  0.00     0.026 C 
HETATM   10  N3  UNL     1      25.588  10.657  16.093  1.00  0.00    -0.403 N 
ATOM     11  H32 UNL     1      26.262  10.281  16.760  1.00  0.00     0.155 HD
ATOM     12  H31 UNL     1      25.530  11.663  15.931  1.00  0.00     0.155 HD
BRANCH   9  13
HETATM   13  C11 UNL     1      23.819  10.466  14.424  1.00  0.00     0.184 C 
BRANCH  13  14
HETATM   14  N4  UNL     1      24.456  11.148  13.327  1.00  0.00    -0.329 N 
HETATM   15  C12 UNL     1      25.273  10.606  12.410  1.00  0.00     0.136 A 
HETATM   16  C13 UNL     1      25.620  11.632  11.524  1.00  0.00     0.121 A 
HETATM   17 CL1  UNL     1      26.665  11.442  10.156  1.00  0.00    -0.063 Cl
HETATM   18  N5  UNL     1      24.989  12.724  11.967  1.00  0.00    -0.326 N 
HETATM   19  C14 UNL     1      24.276  12.472  13.059  1.00  0.00     0.157 A 
ATOM     20  H5  UNL     1      25.048  13.640  11.521  1.00  0.00     0.169 HD
HETATM   21 BR1  UNL     1      23.186  13.676  14.105  1.00  0.00    -0.010 Br
ENDBRANCH  13  14
ENDBRANCH   9  13
ENDBRANCH   8   9
ENDBRANCH   4   8
BRANCH   1  22
HETATM   22  N1  UNL     1      23.754   4.268  12.512  1.00  0.00    -0.408 NA
HETATM   23  C5  UNL     1      23.002   3.474  11.663  1.00  0.00     0.289 C 
HETATM   24  O2  UNL     1      22.144   2.605  11.947  1.00  0.00    -0.257 OA
BRANCH  23  25
HETATM   25  C4  UNL     1      23.276   3.718  10.174  1.00  0.00     0.155 C 
BRANCH  25  26
HETATM   26  C2  UNL     1      24.228   2.669   9.712  1.00  0.00     0.060 C 
HETATM   27  C1  UNL     1      23.934   2.354   8.245  1.00  0.00     0.046 C 
HETATM   28  C3  UNL     1      25.644   3.226   9.838  1.00  0.00     0.046 C 
BRANCH  26  29
HETATM   29  O1  UNL     1      24.075   1.496  10.429  1.00  0.00    -0.390 OA
ATOM     30  H1  UNL     1      24.651   0.848  10.042  1.00  0.00     0.210 HD
ENDBRANCH  26  29
ENDBRANCH  25  26
ENDBRANCH  23  25
ENDBRANCH   1  22
TORSDOF 8
ENDMDL
MODEL 2
REMARK VINA RESULT: -7.392736696      1.616      1.697
REMARK  8 active torsions:
REMARK  status: ('A' for Active; 'I' for Inactive)
REMARK    1  A    between atoms: C2_2  and  O1_4 
REMARK    2  A    between atoms: C2_2  and  C4_6 
REMARK    3  A    between atoms: C4_6  and  C5_7 
REMARK       I    between atoms: C5_7  and  N1_9 
REMARK    4  A    between atoms: N1_9  and  C6_10 
REMARK    5  A    between atoms: N2_13  and  C9_14 
REMARK    6  A    between atoms: C9_14  and  C10_15 
REMARK    7  A    between atoms: C10_15  and  C11_19 
REMARK    8  A    between atoms: C11_19  and  N4_20 
ROOT
HETATM    1  C6  UNL     1      24.857   4.892  13.017  1.00  0.00     0.188 C 
HETATM    2  C7  UNL     1      25.405   6.158  12.330  1.00  0.00     0.071 C 
HETATM    3  C8  UNL     1      26.191   6.902  13.385  1.00  0.00     0.276 C 
HETATM    4  N2  UNL     1      25.204   7.573  14.216  1.00  0.00     0.095 N 
HETATM    5  C15 UNL     1      24.107   6.697  14.537  1.00  0.00     0.296 C 
HETATM    6  C16 UNL     1      24.352   5.246  14.415  1.00  0.00     0.146 C 
HETATM    7 CL2  UNL     1      25.457   4.723  15.689  1.00  0.00    -0.120 Cl
ENDROOT
BRANCH   4   8
HETATM    8  C9  UNL     1      25.804   8.170  15.376  1.00  0.00     0.326 C 
BRANCH   8   9
HETATM    9  C10 UNL     1      25.590   9.656  15.301  1.00  0.00     0.026 C 
HETATM   10  N3  UNL     1      26.576  10.361  14.898  1.00  0.00    -0.403 N 
ATOM     11  H32 UNL     1      27.468   9.955  14.613  1.00  0.00     0.155 HD
ATOM     12  H31 UNL     1      26.431  11.370  14.848  1.00  0.00     0.155 HD
BRANCH   9  13
HETATM   13  C11 UNL     1      24.281  10.251  15.720  1.00  0.00     0.184 C 
BRANCH  13  14
HETATM   14  N4  UNL     1      23.940  11.419  14.949  1.00  0.00    -0.329 N 
HETATM   15  C12 UNL     1      23.648  11.461  13.639  1.00  0.00     0.136 A 
HETATM   16  C13 UNL     1      23.347  12.794  13.336  1.00  0.00     0.121 A 
HETATM   17 CL1  UNL     1      22.906  13.371  11.765  1.00  0.00    -0.063 Cl
HETATM   18  N5  UNL     1      23.478  13.466  14.484  1.00  0.00    -0.326 N 
HETATM   19  C14 UNL     1      23.839  12.670  15.483  1.00  0.00     0.157 A 
ATOM     20  H5  UNL     1      23.320  14.469  14.580  1.00  0.00     0.169 HD
HETATM   21 BR1  UNL     1      24.170  13.113  17.334  1.00  0.00    -0.010 Br
ENDBRANCH  13  14
ENDBRANCH   9  13
ENDBRANCH   8   9
ENDBRANCH   4   8
BRANCH   1  22
HETATM   22  N1  UNL     1      23.982   4.203  12.311  1.00  0.00    -0.408 NA
HETATM   23  C5  UNL     1      23.065   3.478  11.569  1.00  0.00     0.289 C 
HETATM   24  O2  UNL     1      22.144   2.726  11.966  1.00  0.00    -0.257 OA
BRANCH  23  25
HETATM   25  C4  UNL     1      23.221   3.641  10.052  1.00  0.00     0.155 C 
BRANCH  25  26
HETATM   26  C2  UNL     1      24.139   2.570   9.574  1.00  0.00     0.060 C 
HETATM   27  C1  UNL     1      23.818   2.267   8.109  1.00  0.00     0.046 C 
HETATM   28  C3  UNL     1      25.571   3.089   9.683  1.00  0.00     0.046 C 
BRANCH  26  29
HETATM   29  O1  UNL     1      23.966   1.398  10.289  1.00  0.00    -0.390 OA
ATOM     30  H1  UNL     1      24.236   1.567  11.184  1.00  0.00     0.210 HD
ENDBRANCH  26  29
ENDBRANCH  25  26
ENDBRANCH  23  25
ENDBRANCH   1  22
TORSDOF 8
ENDMDL
MODEL 3
REMARK VINA RESULT: -7.356499397      2.227      2.501
REMARK  8 active torsions:
REMARK  status: ('A' for Active; 'I' for Inactive)
REMARK    1  A    between atoms: C2_2  and  O1_4 
REMARK    2  A    between atoms: C2_2  and  C4_6 
REMARK    3  A    between atoms: C4_6  and  C5_7 
REMARK       I    between atoms: C5_7  and  N1_9 
REMARK    4  A    between atoms: N1_9  and  C6_10 
REMARK    5  A    between atoms: N2_13  and  C9_14 
REMARK    6  A    between atoms: C9_14  and  C10_15 
REMARK    7  A    between atoms: C10_15  and  C11_19 
REMARK    8  A    between atoms: C11_19  and  N4_20 
ROOT
HETATM    1  C6  UNL     1      24.513   5.033  13.314  1.00  0.00     0.188 C 
HETATM    2  C7  UNL     1      25.176   6.239  12.621  1.00  0.00     0.071 C 
HETATM    3  C8  UNL     1      25.768   7.085  13.725  1.00  0.00     0.276 C 
HETATM    4  N2  UNL     1      24.653   7.815  14.308  1.00  0.00     0.095 N 
HETATM    5  C15 UNL     1      23.515   6.957  14.511  1.00  0.00     0.296 C 
HETATM    6  C16 UNL     1      23.773   5.504  14.566  1.00  0.00     0.146 C 
HETATM    7 CL2  UNL     1      24.638   5.112  16.054  1.00  0.00    -0.120 Cl
ENDROOT
BRANCH   4   8
HETATM    8  C9  UNL     1      25.043   8.521  15.495  1.00  0.00     0.326 C 
BRANCH   8   9
HETATM    9  C10 UNL     1      25.023   9.993  15.192  1.00  0.00     0.026 C 
HETATM   10  N3  UNL     1      26.148  10.548  14.950  1.00  0.00    -0.403 N 
ATOM     11  H32 UNL     1      27.028  10.032  14.935  1.00  0.00     0.155 HD
ATOM     12  H31 UNL     1      26.135  11.548  14.745  1.00  0.00     0.155 HD
BRANCH   9  13
HETATM   13  C11 UNL     1      23.731  10.750  15.215  1.00  0.00     0.184 C 
BRANCH  13  14
HETATM   14  N4  UNL     1      23.915  12.134  15.569  1.00  0.00    -0.329 N 
HETATM   15  C12 UNL     1      24.328  12.613  16.753  1.00  0.00     0.136 A 
HETATM   16  C13 UNL     1      24.392  14.006  16.624  1.00  0.00     0.121 A 
HETATM   17 CL1  UNL     1      24.872  15.091  17.884  1.00  0.00    -0.063 Cl
HETATM   18  N5  UNL     1      24.012  14.272  15.370  1.00  0.00    -0.326 N 
HETATM   19  C14 UNL     1      23.713  13.166  14.700  1.00  0.00     0.157 A 
ATOM     20  H5  UNL     1      23.959  15.212  14.976  1.00  0.00     0.169 HD
HETATM   21 BR1  UNL     1      23.110  12.974  12.874  1.00  0.00    -0.010 Br
ENDBRANCH  13  14
ENDBRANCH   9  13
ENDBRANCH   8   9
ENDBRANCH   4   8
BRANCH   1  22
HETATM   22  N1  UNL     1      23.773   4.272  12.532  1.00  0.00    -0.408 NA
HETATM   23  C5  UNL     1      22.997   3.471  11.710  1.00  0.00     0.289 C 
HETATM   24  O2  UNL     1      22.152   2.601  12.024  1.00  0.00    -0.257 OA
BRANCH  23  25
HETATM   25  C4  UNL     1      23.224   3.709  10.213  1.00  0.00     0.155 C 
BRANCH  25  26
HETATM   26  C2  UNL     1      24.161   2.658   9.725  1.00  0.00     0.060 C 
HETATM   27  C1  UNL     1      23.872   2.394   8.246  1.00  0.00     0.046 C 
HETATM   28  C3  UNL     1      25.586   3.184   9.878  1.00  0.00     0.046 C 
BRANCH  26  29
HETATM   29  O1  UNL     1      23.981   1.466  10.404  1.00  0.00    -0.390 OA
ATOM     30  H1  UNL     1      23.749   0.805   9.764  1.00  0.00     0.210 HD
ENDBRANCH  26  29
ENDBRANCH  25  26
ENDBRANCH  23  25
ENDBRANCH   1  22
TORSDOF 8
ENDMDL
MODEL 4
REMARK VINA RESULT: -7.259439470      1.603      1.816
REMARK  8 active torsions:
REMARK  status: ('A' for Active; 'I' for Inactive)
REMARK    1  A    between atoms: C2_2  and  O1_4 
REMARK    2  A    between atoms: C2_2  and  C4_6 
REMARK    3  A    between atoms: C4_6  and  C5_7 
REMARK       I    between atoms: C5_7  and  N1_9 
REMARK    4  A    between atoms: N1_9  and  C6_10 
REMARK    5  A    between atoms: N2_13  and  C9_14 
REMARK    6  A    between atoms: C9_14  and  C10_15 
REMARK    7  A    between atoms: C10_15  and  C11_19 
REMARK    8  A    between atoms: C11_19  and  N4_20 
ROOT
HETATM    1  C6  UNL     1      24.516   4.977  13.290  1.00  0.00     0.188 C 
HETATM    2  C7  UNL     1      25.141   6.234  12.655  1.00  0.00     0.071 C 
HETATM    3  C8  UNL     1      25.726   7.035  13.796  1.00  0.00     0.276 C 
HETATM    4  N2  UNL     1      24.601   7.705  14.430  1.00  0.00     0.095 N 
HETATM    5  C15 UNL     1      23.487   6.809  14.599  1.00  0.00     0.296 C 
HETATM    6  C16 UNL     1      23.781   5.362  14.573  1.00  0.00     0.146 C 
HETATM    7 CL2  UNL     1      24.674   4.912  16.028  1.00  0.00    -0.120 Cl
ENDROOT
BRANCH   4   8
HETATM    8  C9  UNL     1      24.989   8.355  15.650  1.00  0.00     0.326 C 
BRANCH   8   9
HETATM    9  C10 UNL     1      24.736   9.829  15.494  1.00  0.00     0.026 C 
HETATM   10  N3  UNL     1      25.469  10.616  16.185  1.00  0.00    -0.403 N 
ATOM     11  H32 UNL     1      26.212  10.284  16.800  1.00  0.00     0.155 HD
ATOM     12  H31 UNL     1      25.297  11.616  16.079  1.00  0.00     0.155 HD
BRANCH   9  13
HETATM   13  C11 UNL     1      23.646  10.315  14.591  1.00  0.00     0.184 C 
BRANCH  13  14
HETATM   14  N4  UNL     1      23.934  11.612  14.034  1.00  0.00    -0.329 N 
HETATM   15  C12 UNL     1      23.529  12.800  14.512  1.00  0.00     0.136 A 
HETATM   16  C13 UNL     1      24.076  13.778  13.673  1.00  0.00     0.121 A 
HETATM   17 CL1  UNL     1      23.843  15.483  13.865  1.00  0.00    -0.063 Cl
HETATM   18  N5  UNL     1      24.773  13.114  12.746  1.00  0.00    -0.326 N 
HETATM   19  C14 UNL     1      24.710  11.800  12.929  1.00  0.00     0.157 A 
ATOM     20  H5  UNL     1      25.292  13.562  11.990  1.00  0.00     0.169 HD
HETATM   21 BR1  UNL     1      25.521  10.386  11.891  1.00  0.00    -0.010 Br
ENDBRANCH  13  14
ENDBRANCH   9  13
ENDBRANCH   8   9
ENDBRANCH   4   8
BRANCH   1  22
HETATM   22  N1  UNL     1      23.785   4.241  12.476  1.00  0.00    -0.408 NA
HETATM   23  C5  UNL     1      23.019   3.466  11.621  1.00  0.00     0.289 C 
HETATM   24  O2  UNL     1      22.139   2.618  11.898  1.00  0.00    -0.257 OA
BRANCH  23  25
HETATM   25  C4  UNL     1      23.308   3.705  10.134  1.00  0.00     0.155 C 
BRANCH  25  26
HETATM   26  C2  UNL     1      24.248   2.642   9.680  1.00  0.00     0.060 C 
HETATM   27  C1  UNL     1      23.965   2.335   8.208  1.00  0.00     0.046 C 
HETATM   28  C3  UNL     1      25.671   3.175   9.823  1.00  0.00     0.046 C 
BRANCH  26  29
HETATM   29  O1  UNL     1      24.068   1.470  10.392  1.00  0.00    -0.390 OA
ATOM     30  H1  UNL     1      23.977   1.703  11.308  1.00  0.00     0.210 HD
ENDBRANCH  26  29
ENDBRANCH  25  26
ENDBRANCH  23  25
ENDBRANCH   1  22
TORSDOF 8
ENDMDL
MODEL 5
REMARK VINA RESULT: -7.162342868      1.977      2.127
REMARK  8 active torsions:
REMARK  status: ('A' for Active; 'I' for Inactive)
REMARK    1  A    between atoms: C2_2  and  O1_4 
REMARK    2  A    between atoms: C2_2  and  C4_6 
REMARK    3  A    between atoms: C4_6  and  C5_7 
REMARK       I    between atoms: C5_7  and  N1_9 
REMARK    4  A    between atoms: N1_9  and  C6_10 
REMARK    5  A    between atoms: N2_13  and  C9_14 
REMARK    6  A    between atoms: C9_14  and  C10_15 
REMARK    7  A    between atoms: C10_15  and  C11_19 
REMARK    8  A    between atoms: C11_19  and  N4_20 
ROOT
HETATM    1  C6  UNL     1      24.523   4.957  13.324  1.00  0.00     0.188 C 
HETATM    2  C7  UNL     1      25.312   6.090  12.640  1.00  0.00     0.071 C 
HETATM    3  C8  UNL     1      25.901   6.925  13.753  1.00  0.00     0.276 C 
HETATM    4  N2  UNL     1      24.812   7.751  14.250  1.00  0.00     0.095 N 
HETATM    5  C15 UNL     1      23.604   6.984  14.408  1.00  0.00     0.296 C 
HETATM    6  C16 UNL     1      23.751   5.518  14.517  1.00  0.00     0.146 C 
HETATM    7 CL2  UNL     1      24.499   5.111  16.064  1.00  0.00    -0.120 Cl
ENDROOT
BRANCH   4   8
HETATM    8  C9  UNL     1      25.185   8.463  15.439  1.00  0.00     0.326 C 
BRANCH   8   9
HETATM    9  C10 UNL     1      25.079   9.935  15.155  1.00  0.00     0.026 C 
HETATM   10  N3  UNL     1      23.913  10.455  15.231  1.00  0.00    -0.403 N 
ATOM     11  H32 UNL     1      23.085   9.921  15.495  1.00  0.00     0.155 HD
ATOM     12  H31 UNL     1      23.841  11.454  15.038  1.00  0.00     0.155 HD
BRANCH   9  13
HETATM   13  C11 UNL     1      26.294  10.719  14.768  1.00  0.00     0.184 C 
BRANCH  13  14
HETATM   14  N4  UNL     1      26.764  10.383  13.448  1.00  0.00    -0.329 N 
HETATM   15  C12 UNL     1      26.075  10.481  12.300  1.00  0.00     0.136 A 
HETATM   16  C13 UNL     1      26.941  10.082  11.275  1.00  0.00     0.121 A 
HETATM   17 CL1  UNL     1      26.522  10.028   9.596  1.00  0.00    -0.063 Cl
HETATM   18  N5  UNL     1      28.094   9.770  11.875  1.00  0.00    -0.326 N 
HETATM   19  C14 UNL     1      28.027   9.936  13.190  1.00  0.00     0.157 A 
ATOM     20  H5  UNL     1      28.925   9.444  11.382  1.00  0.00     0.169 HD
HETATM   21 BR1  UNL     1      29.388   9.632  14.527  1.00  0.00    -0.010 Br
ENDBRANCH  13  14
ENDBRANCH   9  13
ENDBRANCH   8   9
ENDBRANCH   4   8
BRANCH   1  22
HETATM   22  N1  UNL     1      23.775   4.227  12.521  1.00  0.00    -0.408 NA
HETATM   23  C5  UNL     1      22.990   3.459  11.676  1.00  0.00     0.289 C 
HETATM   24  O2  UNL     1      22.118   2.607  11.965  1.00  0.00    -0.257 OA
BRANCH  23  25
HETATM   25  C4  UNL     1      23.244   3.714  10.186  1.00  0.00     0.155 C 
BRANCH  25  26
HETATM   26  C2  UNL     1      24.175   2.658   9.699  1.00  0.00     0.060 C 
HETATM   27  C1  UNL     1      23.849   2.354   8.236  1.00  0.00     0.046 C 
HETATM   28  C3  UNL     1      25.599   3.199   9.800  1.00  0.00     0.046 C 
BRANCH  26  29
HETATM   29  O1  UNL     1      24.024   1.483  10.412  1.00  0.00    -0.390 OA
ATOM     30  H1  UNL     1      23.144   1.474  10.767  1.00  0.00     0.210 HD
ENDBRANCH  26  29
ENDBRANCH  25  26
ENDBRANCH  23  25
ENDBRANCH   1  22
TORSDOF 8
ENDMDL
