MODEL 1
REMARK VINA RESULT: -5.112093100      0.000      0.000
REMARK  4 active torsions:
REMARK  status: ('A' for Active; 'I' for Inactive)
REMARK    1  A    between atoms: N1_1  and  N2_4 
REMARK    2  A    between atoms: N2_4  and  C1_6 
REMARK    3  A    between atoms: C2_9  and  C3_10 
REMARK       I    between atoms: C3_10  and  N4_12 
REMARK    4  A    between atoms: N4_12  and  N5_14 
ROOT
HETATM    1  C1  UNL     1       2.979 -14.371  -1.878  1.00  0.00     0.711 A 
HETATM    2  N3  UNL     1       4.145 -15.041  -1.929  1.00  0.00    -0.178 N 
ATOM      3  H3  UNL     1       4.396 -15.531  -2.788  1.00  0.00     0.185 HD
HETATM    4  C2  UNL     1       4.992 -15.085  -0.880  1.00  0.00     0.187 A 
HETATM    5  C4  UNL     1       4.614 -14.410   0.254  1.00  0.00     0.293 A 
HETATM    6  O2  UNL     1       5.400 -14.444   1.244  1.00  0.00    -0.264 OA
HETATM    7  N6  UNL     1       3.446 -13.751   0.274  1.00  0.00    -0.250 N 
ATOM      8  H6  UNL     1       3.180 -13.255   1.124  1.00  0.00     0.191 HD
HETATM    9  N7  UNL     1       2.625 -13.717  -0.761  1.00  0.00    -0.128 N 
ATOM     10  H7  UNL     1       1.744 -13.206  -0.712  1.00  0.00     0.205 HD
ENDROOT
BRANCH   4  11
HETATM   11  C3  UNL     1       6.258 -15.824  -0.964  1.00  0.00     0.292 C 
HETATM   12  O1  UNL     1       7.044 -15.505  -1.883  1.00  0.00    -0.264 OA
HETATM   13  N4  UNL     1       6.581 -16.847  -0.055  1.00  0.00    -0.271 N 
ATOM     14  H4  UNL     1       5.932 -17.098   0.691  1.00  0.00     0.189 HD
BRANCH  13  15
HETATM   15  N5  UNL     1       7.801 -17.515  -0.185  1.00  0.00    -0.342 N 
ATOM     16  H52 UNL     1       8.658 -16.974  -0.308  1.00  0.00     0.176 HD
ATOM     17  H51 UNL     1       7.817 -18.535  -0.154  1.00  0.00     0.176 HD
ENDBRANCH  13  15
ENDBRANCH   4  11
BRANCH   1  18
HETATM   18  N2  UNL     1       2.252 -14.400  -2.940  1.00  0.00    -0.137 N 
ATOM     19  H2  UNL     1       1.590 -13.635  -3.070  1.00  0.00     0.205 HD
BRANCH  18  20
HETATM   20  N1  UNL     1       2.288 -15.368  -3.912  1.00  0.00    -0.331 N 
ATOM     21  H12 UNL     1       2.583 -16.296  -3.608  1.00  0.00     0.177 HD
ATOM     22  H11 UNL     1       2.047 -15.238  -4.894  1.00  0.00     0.177 HD
ENDBRANCH  18  20
ENDBRANCH   1  18
TORSDOF 4
ENDMDL
MODEL 2
REMARK VINA RESULT: -4.988700351      3.414      4.696
REMARK  4 active torsions:
REMARK  status: ('A' for Active; 'I' for Inactive)
REMARK    1  A    between atoms: N1_1  and  N2_4 
REMARK    2  A    between atoms: N2_4  and  C1_6 
REMARK    3  A    between atoms: C2_9  and  C3_10 
REMARK       I    between atoms: C3_10  and  N4_12 
REMARK    4  A    between atoms: N4_12  and  N5_14 
ROOT
HETATM    1  C1  UNL     1       1.978 -14.319  -2.492  1.00  0.00     0.711 A 
HETATM    2  N3  UNL     1       1.026 -14.749  -1.642  1.00  0.00    -0.178 N 
ATOM      3  H3  UNL     1       0.208 -15.228  -2.017  1.00  0.00     0.185 HD
HETATM    4  C2  UNL     1       1.123 -14.565  -0.309  1.00  0.00     0.187 A 
HETATM    5  C4  UNL     1       2.242 -13.917   0.150  1.00  0.00     0.293 A 
HETATM    6  O2  UNL     1       2.344 -13.738   1.399  1.00  0.00    -0.264 OA
HETATM    7  N6  UNL     1       3.172 -13.501  -0.722  1.00  0.00    -0.250 N 
ATOM      8  H6  UNL     1       3.998 -13.021  -0.364  1.00  0.00     0.191 HD
HETATM    9  N7  UNL     1       3.065 -13.687  -2.026  1.00  0.00    -0.128 N 
ATOM     10  H7  UNL     1       3.791 -13.358  -2.662  1.00  0.00     0.205 HD
ENDROOT
BRANCH   4  11
HETATM   11  C3  UNL     1       0.070 -15.044   0.596  1.00  0.00     0.292 C 
HETATM   12  O1  UNL     1      -1.010 -14.413   0.597  1.00  0.00    -0.264 OA
HETATM   13  N4  UNL     1       0.259 -16.161   1.426  1.00  0.00    -0.271 N 
ATOM     14  H4  UNL     1       1.145 -16.668   1.416  1.00  0.00     0.189 HD
BRANCH  13  15
HETATM   15  N5  UNL     1      -0.779 -16.571   2.266  1.00  0.00    -0.342 N 
ATOM     16  H52 UNL     1      -1.696 -16.774   1.867  1.00  0.00     0.176 HD
ATOM     17  H51 UNL     1      -0.605 -16.662   3.267  1.00  0.00     0.176 HD
ENDBRANCH  13  15
ENDBRANCH   4  11
BRANCH   1  18
HETATM   18  N2  UNL     1       1.777 -14.550  -3.743  1.00  0.00    -0.137 N 
ATOM     19  H2  UNL     1       2.598 -14.574  -4.348  1.00  0.00     0.205 HD
BRANCH  18  20
HETATM   20  N1  UNL     1       0.558 -14.767  -4.335  1.00  0.00    -0.331 N 
ATOM     21  H12 UNL     1       0.216 -15.728  -4.313  1.00  0.00     0.177 HD
ATOM     22  H11 UNL     1      -0.021 -14.060  -4.787  1.00  0.00     0.177 HD
ENDBRANCH  18  20
ENDBRANCH   1  18
TORSDOF 4
ENDMDL
MODEL 3
REMARK VINA RESULT: -4.895427310      1.056      1.151
REMARK  4 active torsions:
REMARK  status: ('A' for Active; 'I' for Inactive)
REMARK    1  A    between atoms: N1_1  and  N2_4 
REMARK    2  A    between atoms: N2_4  and  C1_6 
REMARK    3  A    between atoms: C2_9  and  C3_10 
REMARK       I    between atoms: C3_10  and  N4_12 
REMARK    4  A    between atoms: N4_12  and  N5_14 
ROOT
HETATM    1  C1  UNL     1       2.373 -14.661  -2.582  1.00  0.00     0.711 A 
HETATM    2  N3  UNL     1       3.628 -15.090  -2.349  1.00  0.00    -0.178 N 
ATOM      3  H3  UNL     1       4.178 -15.454  -3.126  1.00  0.00     0.185 HD
HETATM    4  C2  UNL     1       4.179 -15.054  -1.118  1.00  0.00     0.187 A 
HETATM    5  C4  UNL     1       3.402 -14.555  -0.102  1.00  0.00     0.293 A 
HETATM    6  O2  UNL     1       3.909 -14.516   1.056  1.00  0.00    -0.264 OA
HETATM    7  N6  UNL     1       2.156 -14.135  -0.366  1.00  0.00    -0.250 N 
ATOM      8  H6  UNL     1       1.593 -13.767   0.400  1.00  0.00     0.191 HD
HETATM    9  N7  UNL     1       1.628 -14.177  -1.577  1.00  0.00    -0.128 N 
ATOM     10  H7  UNL     1       0.676 -13.849  -1.742  1.00  0.00     0.205 HD
ENDROOT
BRANCH   4  11
HETATM   11  C3  UNL     1       5.550 -15.529  -0.893  1.00  0.00     0.292 C 
HETATM   12  O1  UNL     1       6.438 -15.089  -1.657  1.00  0.00    -0.264 OA
HETATM   13  N4  UNL     1       5.861 -16.437   0.134  1.00  0.00    -0.271 N 
ATOM     14  H4  UNL     1       5.128 -16.788   0.751  1.00  0.00     0.189 HD
BRANCH  13  15
HETATM   15  N5  UNL     1       7.184 -16.853   0.301  1.00  0.00    -0.342 N 
ATOM     16  H52 UNL     1       7.762 -16.410   1.016  1.00  0.00     0.176 HD
ATOM     17  H51 UNL     1       7.553 -17.593  -0.297  1.00  0.00     0.176 HD
ENDBRANCH  13  15
ENDBRANCH   4  11
BRANCH   1  18
HETATM   18  N2  UNL     1       1.953 -14.745  -3.796  1.00  0.00    -0.137 N 
ATOM     19  H2  UNL     1       2.659 -14.863  -4.523  1.00  0.00     0.205 HD
BRANCH  18  20
HETATM   20  N1  UNL     1       0.643 -14.691  -4.199  1.00  0.00    -0.331 N 
ATOM     21  H12 UNL     1      -0.054 -14.683  -3.454  1.00  0.00     0.177 HD
ATOM     22  H11 UNL     1       0.315 -14.658  -5.165  1.00  0.00     0.177 HD
ENDBRANCH  18  20
ENDBRANCH   1  18
TORSDOF 4
ENDMDL
MODEL 4
REMARK VINA RESULT: -4.759642947      2.457      4.224
REMARK  4 active torsions:
REMARK  status: ('A' for Active; 'I' for Inactive)
REMARK    1  A    between atoms: N1_1  and  N2_4 
REMARK    2  A    between atoms: N2_4  and  C1_6 
REMARK    3  A    between atoms: C2_9  and  C3_10 
REMARK       I    between atoms: C3_10  and  N4_12 
REMARK    4  A    between atoms: N4_12  and  N5_14 
ROOT
HETATM    1  C1  UNL     1       6.145 -15.825  -0.644  1.00  0.00     0.711 A 
HETATM    2  N3  UNL     1       5.740 -16.146   0.600  1.00  0.00    -0.178 N 
ATOM      3  H3  UNL     1       6.251 -16.860   1.117  1.00  0.00     0.185 HD
HETATM    4  C2  UNL     1       4.678 -15.550   1.182  1.00  0.00     0.187 A 
HETATM    5  C4  UNL     1       4.022 -14.593   0.448  1.00  0.00     0.293 A 
HETATM    6  O2  UNL     1       3.025 -14.027   0.984  1.00  0.00    -0.264 OA
HETATM    7  N6  UNL     1       4.450 -14.296  -0.788  1.00  0.00    -0.250 N 
ATOM      8  H6  UNL     1       3.951 -13.583  -1.319  1.00  0.00     0.191 HD
HETATM    9  N7  UNL     1       5.491 -14.888  -1.346  1.00  0.00    -0.128 N 
ATOM     10  H7  UNL     1       5.790 -14.638  -2.289  1.00  0.00     0.205 HD
ENDROOT
BRANCH   4  11
HETATM   11  C3  UNL     1       4.259 -15.918   2.540  1.00  0.00     0.292 C 
HETATM   12  O1  UNL     1       5.153 -15.992   3.412  1.00  0.00    -0.264 OA
HETATM   13  N4  UNL     1       2.914 -16.179   2.855  1.00  0.00    -0.271 N 
ATOM     14  H4  UNL     1       2.194 -16.116   2.135  1.00  0.00     0.189 HD
BRANCH  13  15
HETATM   15  N5  UNL     1       2.575 -16.525   4.165  1.00  0.00    -0.342 N 
ATOM     16  H52 UNL     1       2.885 -17.420   4.543  1.00  0.00     0.176 HD
ATOM     17  H51 UNL     1       2.020 -15.876   4.724  1.00  0.00     0.176 HD
ENDBRANCH  13  15
ENDBRANCH   4  11
BRANCH   1  18
HETATM   18  N2  UNL     1       7.169 -16.461  -1.095  1.00  0.00    -0.137 N 
ATOM     19  H2  UNL     1       7.442 -17.311  -0.602  1.00  0.00     0.205 HD
BRANCH  18  20
HETATM   20  N1  UNL     1       7.926 -16.099  -2.181  1.00  0.00    -0.331 N 
ATOM     21  H12 UNL     1       7.451 -16.119  -3.083  1.00  0.00     0.177 HD
ATOM     22  H11 UNL     1       8.906 -15.817  -2.160  1.00  0.00     0.177 HD
ENDBRANCH  18  20
ENDBRANCH   1  18
TORSDOF 4
ENDMDL
MODEL 5
REMARK VINA RESULT: -4.699945039      1.808      2.979
REMARK  4 active torsions:
REMARK  status: ('A' for Active; 'I' for Inactive)
REMARK    1  A    between atoms: N1_1  and  N2_4 
REMARK    2  A    between atoms: N2_4  and  C1_6 
REMARK    3  A    between atoms: C2_9  and  C3_10 
REMARK       I    between atoms: C3_10  and  N4_12 
REMARK    4  A    between atoms: N4_12  and  N5_14 
ROOT
HETATM    1  C1  UNL     1       1.573 -14.243   0.159  1.00  0.00     0.711 A 
HETATM    2  N3  UNL     1       2.799 -14.546   0.626  1.00  0.00    -0.178 N 
ATOM      3  H3  UNL     1       2.953 -14.567   1.633  1.00  0.00     0.185 HD
HETATM    4  C2  UNL     1       3.829 -14.823  -0.200  1.00  0.00     0.187 A 
HETATM    5  C4  UNL     1       3.574 -14.785  -1.548  1.00  0.00     0.293 A 
HETATM    6  O2  UNL     1       4.533 -15.044  -2.332  1.00  0.00    -0.264 OA
HETATM    7  N6  UNL     1       2.342 -14.480  -1.981  1.00  0.00    -0.250 N 
ATOM      8  H6  UNL     1       2.171 -14.456  -2.986  1.00  0.00     0.191 HD
HETATM    9  N7  UNL     1       1.341 -14.210  -1.162  1.00  0.00    -0.128 N 
ATOM     10  H7  UNL     1       0.417 -13.981  -1.525  1.00  0.00     0.205 HD
ENDROOT
BRANCH   4  11
HETATM   11  C3  UNL     1       5.156 -15.151   0.336  1.00  0.00     0.292 C 
HETATM   12  O1  UNL     1       5.574 -14.454   1.287  1.00  0.00    -0.264 OA
HETATM   13  N4  UNL     1       5.929 -16.200  -0.190  1.00  0.00    -0.271 N 
ATOM     14  H4  UNL     1       5.578 -16.762  -0.966  1.00  0.00     0.189 HD
BRANCH  13  15
HETATM   15  N5  UNL     1       7.185 -16.466   0.362  1.00  0.00    -0.342 N 
ATOM     16  H52 UNL     1       8.020 -16.084  -0.085  1.00  0.00     0.176 HD
ATOM     17  H51 UNL     1       7.249 -17.039   1.204  1.00  0.00     0.176 HD
ENDBRANCH  13  15
ENDBRANCH   4  11
BRANCH   1  18
HETATM   18  N2  UNL     1       0.668 -13.995   1.041  1.00  0.00    -0.137 N 
ATOM     19  H2  UNL     1       0.936 -13.401   1.826  1.00  0.00     0.205 HD
BRANCH  18  20
HETATM   20  N1  UNL     1      -0.624 -14.458   1.020  1.00  0.00    -0.331 N 
ATOM     21  H12 UNL     1      -1.280 -13.923   0.451  1.00  0.00     0.177 HD
ATOM     22  H11 UNL     1      -0.974 -15.277   1.518  1.00  0.00     0.177 HD
ENDBRANCH  18  20
ENDBRANCH   1  18
TORSDOF 4
ENDMDL
