MODEL 1
REMARK VINA RESULT: -5.245642986      0.000      0.000
REMARK  4 active torsions:
REMARK  status: ('A' for Active; 'I' for Inactive)
REMARK    1  A    between atoms: N1_1  and  C1_4 
REMARK    2  A    between atoms: C2_7  and  C3_8 
REMARK    3  A    between atoms: C4_13  and  N5_14 
REMARK    4  A    between atoms: N5_14  and  N6_16 
ROOT
HETATM    1  C1  UNL     1       1.750 -14.333  -0.311  1.00  0.00     0.692 A 
HETATM    2  N2  UNL     1       3.031 -14.561  -0.035  1.00  0.00    -0.171 N 
ATOM      3  H2  UNL     1       3.341 -14.554   0.937  1.00  0.00     0.186 HD
HETATM    4  C2  UNL     1       3.928 -14.803  -1.013  1.00  0.00     0.201 A 
HETATM    5  N4  UNL     1       3.492 -14.808  -2.277  1.00  0.00    -0.169 N 
ATOM      6  H4  UNL     1       4.165 -14.991  -3.022  1.00  0.00     0.186 HD
HETATM    7  C4  UNL     1       2.207 -14.584  -2.612  1.00  0.00     0.712 A 
HETATM    8  N7  UNL     1       1.341 -14.347  -1.608  1.00  0.00    -0.021 N 
ATOM      9  H7  UNL     1       0.360 -14.174  -1.824  1.00  0.00     0.203 HD
ENDROOT
BRANCH   7  10
HETATM   10  N5  UNL     1       1.770 -14.586  -3.823  1.00  0.00    -0.138 N 
ATOM     11  H5  UNL     1       2.457 -14.455  -4.566  1.00  0.00     0.205 HD
BRANCH  10  12
HETATM   12  N6  UNL     1       0.464 -14.750  -4.199  1.00  0.00    -0.331 N 
ATOM     13  H62 UNL     1      -0.062 -13.895  -4.377  1.00  0.00     0.177 HD
ATOM     14  H61 UNL     1      -0.014 -15.644  -4.312  1.00  0.00     0.177 HD
ENDBRANCH  10  12
ENDBRANCH   7  10
BRANCH   4  15
HETATM   15  C3  UNL     1       5.338 -15.051  -0.676  1.00  0.00     0.299 C 
HETATM   16  N3  UNL     1       5.783 -15.028   0.668  1.00  0.00    -0.054 NA
HETATM   17  O1  UNL     1       6.156 -15.285  -1.587  1.00  0.00    -0.268 OA
ENDBRANCH   4  15
BRANCH   1  18
HETATM   18  N1  UNL     1       0.939 -14.108   0.665  1.00  0.00    -0.234 N 
ATOM     19  H12 UNL     1       0.403 -14.853   1.112  1.00  0.00     0.174 HD
ATOM     20  H11 UNL     1       0.833 -13.151   1.000  1.00  0.00     0.174 HD
ENDBRANCH   1  18
TORSDOF 4
ENDMDL
MODEL 2
REMARK VINA RESULT: -5.186132141      1.033      1.033
REMARK  4 active torsions:
REMARK  status: ('A' for Active; 'I' for Inactive)
REMARK    1  A    between atoms: N1_1  and  C1_4 
REMARK    2  A    between atoms: C2_7  and  C3_8 
REMARK    3  A    between atoms: C4_13  and  N5_14 
REMARK    4  A    between atoms: N5_14  and  N6_16 
ROOT
HETATM    1  C1  UNL     1       1.420 -14.387  -0.130  1.00  0.00     0.692 A 
HETATM    2  N2  UNL     1       2.672 -14.544   0.289  1.00  0.00    -0.171 N 
ATOM      3  H2  UNL     1       2.865 -14.565   1.290  1.00  0.00     0.186 HD
HETATM    4  C2  UNL     1       3.693 -14.678  -0.583  1.00  0.00     0.201 A 
HETATM    5  N4  UNL     1       3.409 -14.648  -1.889  1.00  0.00    -0.169 N 
ATOM      6  H4  UNL     1       4.176 -14.749  -2.555  1.00  0.00     0.186 HD
HETATM    7  C4  UNL     1       2.160 -14.492  -2.367  1.00  0.00     0.712 A 
HETATM    8  N7  UNL     1       1.168 -14.362  -1.466  1.00  0.00    -0.021 N 
ATOM      9  H7  UNL     1       0.208 -14.243  -1.791  1.00  0.00     0.203 HD
ENDROOT
BRANCH   7  10
HETATM   10  N5  UNL     1       1.869 -14.462  -3.620  1.00  0.00    -0.138 N 
ATOM     11  H5  UNL     1       2.619 -14.215  -4.267  1.00  0.00     0.205 HD
BRANCH  10  12
HETATM   12  N6  UNL     1       0.640 -14.733  -4.161  1.00  0.00    -0.331 N 
ATOM     13  H62 UNL     1       0.229 -13.995  -4.733  1.00  0.00     0.177 HD
ATOM     14  H61 UNL     1       0.115 -15.598  -4.037  1.00  0.00     0.177 HD
ENDBRANCH  10  12
ENDBRANCH   7  10
BRANCH   4  15
HETATM   15  C3  UNL     1       5.068 -14.850  -0.089  1.00  0.00     0.299 C 
HETATM   16  N3  UNL     1       6.078 -15.392  -0.919  1.00  0.00    -0.054 NA
HETATM   17  O1  UNL     1       5.348 -14.515   1.078  1.00  0.00    -0.268 OA
ENDBRANCH   4  15
BRANCH   1  18
HETATM   18  N1  UNL     1       0.486 -14.264   0.751  1.00  0.00    -0.234 N 
ATOM     19  H12 UNL     1       0.685 -14.115   1.741  1.00  0.00     0.174 HD
ATOM     20  H11 UNL     1      -0.485 -14.318   0.443  1.00  0.00     0.174 HD
ENDBRANCH   1  18
TORSDOF 4
ENDMDL
MODEL 3
REMARK VINA RESULT: -5.139566075      0.471      2.757
REMARK  4 active torsions:
REMARK  status: ('A' for Active; 'I' for Inactive)
REMARK    1  A    between atoms: N1_1  and  C1_4 
REMARK    2  A    between atoms: C2_7  and  C3_8 
REMARK    3  A    between atoms: C4_13  and  N5_14 
REMARK    4  A    between atoms: N5_14  and  N6_16 
ROOT
HETATM    1  C1  UNL     1       2.224 -14.510  -2.408  1.00  0.00     0.692 A 
HETATM    2  N2  UNL     1       3.507 -14.781  -2.190  1.00  0.00    -0.171 N 
ATOM      3  H2  UNL     1       4.118 -14.976  -2.984  1.00  0.00     0.186 HD
HETATM    4  C2  UNL     1       4.019 -14.802  -0.942  1.00  0.00     0.201 A 
HETATM    5  N4  UNL     1       3.194 -14.541   0.078  1.00  0.00    -0.169 N 
ATOM      6  H4  UNL     1       3.574 -14.555   1.025  1.00  0.00     0.186 HD
HETATM    7  C4  UNL     1       1.888 -14.260  -0.086  1.00  0.00     0.712 A 
HETATM    8  N7  UNL     1       1.414 -14.248  -1.347  1.00  0.00    -0.021 N 
ATOM      9  H7  UNL     1       0.429 -14.038  -1.510  1.00  0.00     0.203 HD
ENDROOT
BRANCH   7  10
HETATM   10  N5  UNL     1       1.081 -14.006   0.883  1.00  0.00    -0.138 N 
ATOM     11  H5  UNL     1       1.464 -13.515   1.692  1.00  0.00     0.205 HD
BRANCH  10  12
HETATM   12  N6  UNL     1      -0.247 -14.337   0.923  1.00  0.00    -0.331 N 
ATOM     13  H62 UNL     1      -0.472 -15.242   1.337  1.00  0.00     0.177 HD
ATOM     14  H61 UNL     1      -1.014 -13.759   0.578  1.00  0.00     0.177 HD
ENDBRANCH  10  12
ENDBRANCH   7  10
BRANCH   4  15
HETATM   15  C3  UNL     1       5.443 -15.106  -0.733  1.00  0.00     0.299 C 
HETATM   16  N3  UNL     1       5.983 -15.208   0.571  1.00  0.00    -0.054 NA
HETATM   17  O1  UNL     1       6.187 -15.274  -1.719  1.00  0.00    -0.268 OA
ENDBRANCH   4  15
BRANCH   1  18
HETATM   18  N1  UNL     1       1.792 -14.504  -3.623  1.00  0.00    -0.234 N 
ATOM     19  H12 UNL     1       1.314 -15.305  -4.036  1.00  0.00     0.174 HD
ATOM     20  H11 UNL     1       1.934 -13.667  -4.187  1.00  0.00     0.174 HD
ENDBRANCH   1  18
TORSDOF 4
ENDMDL
MODEL 4
REMARK VINA RESULT: -4.945987304      1.185      1.218
REMARK  4 active torsions:
REMARK  status: ('A' for Active; 'I' for Inactive)
REMARK    1  A    between atoms: N1_1  and  C1_4 
REMARK    2  A    between atoms: C2_7  and  C3_8 
REMARK    3  A    between atoms: C4_13  and  N5_14 
REMARK    4  A    between atoms: N5_14  and  N6_16 
ROOT
HETATM    1  C1  UNL     1       1.495 -14.315   0.184  1.00  0.00     0.692 A 
HETATM    2  N2  UNL     1       2.627 -14.548   0.840  1.00  0.00    -0.171 N 
ATOM      3  H2  UNL     1       2.632 -14.502   1.860  1.00  0.00     0.186 HD
HETATM    4  C2  UNL     1       3.770 -14.843   0.187  1.00  0.00     0.201 A 
HETATM    5  N4  UNL     1       3.732 -14.898  -1.148  1.00  0.00    -0.169 N 
ATOM      6  H4  UNL     1       4.592 -15.121  -1.650  1.00  0.00     0.186 HD
HETATM    7  C4  UNL     1       2.613 -14.671  -1.862  1.00  0.00     0.712 A 
HETATM    8  N7  UNL     1       1.493 -14.379  -1.174  1.00  0.00    -0.021 N 
ATOM      9  H7  UNL     1       0.626 -14.203  -1.682  1.00  0.00     0.203 HD
ENDROOT
BRANCH   7  10
HETATM   10  N5  UNL     1       2.560 -14.720  -3.147  1.00  0.00    -0.138 N 
ATOM     11  H5  UNL     1       3.388 -15.062  -3.636  1.00  0.00     0.205 HD
BRANCH  10  12
HETATM   12  N6  UNL     1       1.487 -14.353  -3.915  1.00  0.00    -0.331 N 
ATOM     13  H62 UNL     1       0.633 -14.896  -3.782  1.00  0.00     0.177 HD
ATOM     14  H61 UNL     1       1.476 -13.594  -4.596  1.00  0.00     0.177 HD
ENDBRANCH  10  12
ENDBRANCH   7  10
BRANCH   4  15
HETATM   15  C3  UNL     1       5.007 -15.096   0.942  1.00  0.00     0.299 C 
HETATM   16  N3  UNL     1       4.970 -15.413   2.320  1.00  0.00    -0.054 NA
HETATM   17  O1  UNL     1       6.107 -15.029   0.358  1.00  0.00    -0.268 OA
ENDBRANCH   4  15
BRANCH   1  18
HETATM   18  N1  UNL     1       0.434 -14.036   0.862  1.00  0.00    -0.234 N 
ATOM     19  H12 UNL     1       0.228 -14.479   1.759  1.00  0.00     0.174 HD
ATOM     20  H11 UNL     1      -0.218 -13.349   0.487  1.00  0.00     0.174 HD
ENDBRANCH   1  18
TORSDOF 4
ENDMDL
MODEL 5
REMARK VINA RESULT: -4.833717291      1.198      2.983
REMARK  4 active torsions:
REMARK  status: ('A' for Active; 'I' for Inactive)
REMARK    1  A    between atoms: N1_1  and  C1_4 
REMARK    2  A    between atoms: C2_7  and  C3_8 
REMARK    3  A    between atoms: C4_13  and  N5_14 
REMARK    4  A    between atoms: N5_14  and  N6_16 
ROOT
HETATM    1  C1  UNL     1       2.096 -14.483  -2.253  1.00  0.00     0.692 A 
HETATM    2  N2  UNL     1       3.348 -14.632  -1.830  1.00  0.00    -0.171 N 
ATOM      3  H2  UNL     1       4.099 -14.719  -2.515  1.00  0.00     0.186 HD
HETATM    4  C2  UNL     1       3.646 -14.671  -0.516  1.00  0.00     0.201 A 
HETATM    5  N4  UNL     1       2.641 -14.553   0.358  1.00  0.00    -0.169 N 
ATOM      6  H4  UNL     1       2.858 -14.581   1.355  1.00  0.00     0.186 HD
HETATM    7  C4  UNL     1       1.356 -14.400  -0.015  1.00  0.00     0.712 A 
HETATM    8  N7  UNL     1       1.099 -14.366  -1.337  1.00  0.00    -0.021 N 
ATOM      9  H7  UNL     1       0.137 -14.249  -1.656  1.00  0.00     0.203 HD
ENDROOT
BRANCH   7  10
HETATM   10  N5  UNL     1       0.377 -14.284   0.812  1.00  0.00    -0.138 N 
ATOM     11  H5  UNL     1       0.222 -13.365   1.227  1.00  0.00     0.205 HD
BRANCH  10  12
HETATM   12  N6  UNL     1      -0.476 -15.289   1.184  1.00  0.00    -0.331 N 
ATOM     13  H62 UNL     1      -0.352 -16.182   0.706  1.00  0.00     0.177 HD
ATOM     14  H61 UNL     1      -1.211 -15.215   1.887  1.00  0.00     0.177 HD
ENDBRANCH  10  12
ENDBRANCH   7  10
BRANCH   4  15
HETATM   15  C3  UNL     1       5.041 -14.837  -0.079  1.00  0.00     0.299 C 
HETATM   16  N3  UNL     1       6.022 -15.362  -0.953  1.00  0.00    -0.054 NA
HETATM   17  O1  UNL     1       5.364 -14.512   1.080  1.00  0.00    -0.268 OA
ENDBRANCH   4  15
BRANCH   1  18
HETATM   18  N1  UNL     1       1.873 -14.453  -3.523  1.00  0.00    -0.234 N 
ATOM     19  H12 UNL     1       2.458 -14.954  -4.192  1.00  0.00     0.174 HD
ATOM     20  H11 UNL     1       1.082 -13.909  -3.866  1.00  0.00     0.174 HD
ENDBRANCH   1  18
TORSDOF 4
ENDMDL
