MODEL 1
REMARK VINA RESULT: -5.316060049      0.000      0.000
REMARK  3 active torsions:
REMARK  status: ('A' for Active; 'I' for Inactive)
REMARK    1  A    between atoms: N1_1  and  N2_4 
REMARK       I    between atoms: N2_4  and  C1_6 
REMARK       I    between atoms: C1_6  and  N3_8 
REMARK    2  A    between atoms: N3_8  and  N4_10 
REMARK    3  A    between atoms: N4_10  and  C2_12 
ROOT
HETATM    1  N4  UNL     1       3.860 -13.737  -0.413  1.00  0.00    -0.127 N 
ATOM      2  H4  UNL     1       4.252 -13.036   0.215  1.00  0.00     0.206 HD
ENDROOT
BRANCH   1   3
HETATM    3  N3  UNL     1       4.688 -14.345  -1.329  1.00  0.00    -0.236 N 
HETATM    4  C1  UNL     1       5.816 -15.090  -0.905  1.00  0.00     0.353 C 
HETATM    5  N2  UNL     1       6.695 -15.733  -1.828  1.00  0.00    -0.257 N 
HETATM    6  O1  UNL     1       6.048 -15.186   0.314  1.00  0.00    -0.244 OA
ATOM      7  H2  UNL     1       6.521 -15.666  -2.830  1.00  0.00     0.191 HD
ATOM      8  H3  UNL     1       4.486 -14.258  -2.325  1.00  0.00     0.192 HD
BRANCH   5   9
HETATM    9  N1  UNL     1       7.784 -16.448  -1.360  1.00  0.00    -0.341 N 
ATOM     10  H12 UNL     1       7.808 -17.459  -1.497  1.00  0.00     0.177 HD
ATOM     11  H11 UNL     1       8.547 -15.964  -0.887  1.00  0.00     0.177 HD
ENDBRANCH   5   9
ENDBRANCH   1   3
BRANCH   1  12
HETATM   12  C2  UNL     1       2.593 -14.025  -0.319  1.00  0.00     0.711 A 
HETATM   13  N5  UNL     1       1.892 -14.469  -1.379  1.00  0.00    -0.196 N 
HETATM   14  C3  UNL     1       0.606 -14.751  -1.246  1.00  0.00     0.152 A 
ATOM     15  H5  UNL     1       2.351 -14.587  -2.282  1.00  0.00     0.183 HD
HETATM   16  C4  UNL     1      -0.019 -14.587  -0.005  1.00  0.00     0.147 A 
HETATM   17  N6  UNL     1      -1.384 -14.873   0.190  1.00  0.00    -0.080 NA
HETATM   18  N7  UNL     1       0.726 -14.139   1.030  1.00  0.00    -0.272 N 
HETATM   19  N8  UNL     1       2.012 -13.859   0.889  1.00  0.00    -0.129 N 
ATOM     20  H7  UNL     1       0.286 -14.014   1.941  1.00  0.00     0.189 HD
ATOM     21  H8  UNL     1       2.557 -13.522   1.683  1.00  0.00     0.205 HD
ENDBRANCH   1  12
TORSDOF 3
ENDMDL
MODEL 2
REMARK VINA RESULT: -5.104608638      3.391      5.210
REMARK  3 active torsions:
REMARK  status: ('A' for Active; 'I' for Inactive)
REMARK    1  A    between atoms: N1_1  and  N2_4 
REMARK       I    between atoms: N2_4  and  C1_6 
REMARK       I    between atoms: C1_6  and  N3_8 
REMARK    2  A    between atoms: N3_8  and  N4_10 
REMARK    3  A    between atoms: N4_10  and  C2_12 
ROOT
HETATM    1  N4  UNL     1       3.231 -14.850  -2.806  1.00  0.00    -0.127 N 
ATOM      2  H4  UNL     1       3.890 -15.056  -3.556  1.00  0.00     0.206 HD
ENDROOT
BRANCH   1   3
HETATM    3  N3  UNL     1       1.986 -14.362  -3.130  1.00  0.00    -0.236 N 
HETATM    4  C1  UNL     1       1.064 -15.153  -3.859  1.00  0.00     0.353 C 
HETATM    5  N2  UNL     1      -0.235 -14.679  -4.212  1.00  0.00    -0.257 N 
HETATM    6  O1  UNL     1       1.400 -16.301  -4.203  1.00  0.00    -0.244 OA
ATOM      7  H2  UNL     1      -0.528 -13.741  -3.939  1.00  0.00     0.191 HD
ATOM      8  H3  UNL     1       1.724 -13.419  -2.843  1.00  0.00     0.192 HD
BRANCH   5   9
HETATM    9  N1  UNL     1      -1.097 -15.493  -4.926  1.00  0.00    -0.341 N 
ATOM     10  H12 UNL     1      -0.859 -15.746  -5.886  1.00  0.00     0.177 HD
ATOM     11  H11 UNL     1      -1.956 -15.830  -4.492  1.00  0.00     0.177 HD
ENDBRANCH   5   9
ENDBRANCH   1   3
BRANCH   1  12
HETATM   12  C2  UNL     1       3.599 -15.057  -1.574  1.00  0.00     0.711 A 
HETATM   13  N5  UNL     1       3.330 -16.216  -0.945  1.00  0.00    -0.196 N 
HETATM   14  C3  UNL     1       3.719 -16.392   0.308  1.00  0.00     0.152 A 
ATOM     15  H5  UNL     1       2.826 -16.958  -1.432  1.00  0.00     0.183 HD
HETATM   16  C4  UNL     1       4.409 -15.372   0.972  1.00  0.00     0.147 A 
HETATM   17  N6  UNL     1       4.846 -15.508   2.305  1.00  0.00    -0.080 NA
HETATM   18  N7  UNL     1       4.657 -14.226   0.300  1.00  0.00    -0.272 N 
HETATM   19  N8  UNL     1       4.264 -14.058  -0.953  1.00  0.00    -0.129 N 
ATOM     20  H7  UNL     1       5.159 -13.473   0.769  1.00  0.00     0.189 HD
ATOM     21  H8  UNL     1       4.461 -13.186  -1.444  1.00  0.00     0.205 HD
ENDBRANCH   1  12
TORSDOF 3
ENDMDL
MODEL 3
REMARK VINA RESULT: -5.037053266      3.117      5.522
REMARK  3 active torsions:
REMARK  status: ('A' for Active; 'I' for Inactive)
REMARK    1  A    between atoms: N1_1  and  N2_4 
REMARK       I    between atoms: N2_4  and  C1_6 
REMARK       I    between atoms: C1_6  and  N3_8 
REMARK    2  A    between atoms: N3_8  and  N4_10 
REMARK    3  A    between atoms: N4_10  and  C2_12 
ROOT
HETATM    1  N4  UNL     1       2.821 -14.864  -3.234  1.00  0.00    -0.127 N 
ATOM      2  H4  UNL     1       3.364 -15.305  -3.976  1.00  0.00     0.206 HD
ENDROOT
BRANCH   1   3
HETATM    3  N3  UNL     1       1.578 -14.355  -3.534  1.00  0.00    -0.236 N 
HETATM    4  C1  UNL     1       0.554 -15.192  -4.042  1.00  0.00     0.353 C 
HETATM    5  N2  UNL     1      -0.745 -14.698  -4.364  1.00  0.00    -0.257 N 
HETATM    6  O1  UNL     1       0.799 -16.401  -4.214  1.00  0.00    -0.244 OA
ATOM      7  H2  UNL     1      -0.964 -13.711  -4.229  1.00  0.00     0.191 HD
ATOM      8  H3  UNL     1       1.392 -13.363  -3.389  1.00  0.00     0.192 HD
BRANCH   5   9
HETATM    9  N1  UNL     1      -1.709 -15.559  -4.859  1.00  0.00    -0.341 N 
ATOM     10  H12 UNL     1      -1.426 -16.481  -5.192  1.00  0.00     0.177 HD
ATOM     11  H11 UNL     1      -2.686 -15.268  -4.886  1.00  0.00     0.177 HD
ENDBRANCH   5   9
ENDBRANCH   1   3
BRANCH   1  12
HETATM   12  C2  UNL     1       3.329 -14.802  -2.036  1.00  0.00     0.711 A 
HETATM   13  N5  UNL     1       2.560 -14.568  -0.957  1.00  0.00    -0.196 N 
HETATM   14  C3  UNL     1       3.112 -14.512   0.245  1.00  0.00     0.152 A 
ATOM     15  H5  UNL     1       1.555 -14.433  -1.065  1.00  0.00     0.183 HD
HETATM   16  C4  UNL     1       4.491 -14.697   0.388  1.00  0.00     0.147 A 
HETATM   17  N6  UNL     1       5.128 -14.646   1.643  1.00  0.00    -0.080 NA
HETATM   18  N7  UNL     1       5.222 -14.929  -0.725  1.00  0.00    -0.272 N 
HETATM   19  N8  UNL     1       4.664 -14.984  -1.923  1.00  0.00    -0.129 N 
ATOM     20  H7  UNL     1       6.229 -15.066  -0.639  1.00  0.00     0.189 HD
ATOM     21  H8  UNL     1       5.232 -15.161  -2.752  1.00  0.00     0.205 HD
ENDBRANCH   1  12
TORSDOF 3
ENDMDL
MODEL 4
REMARK VINA RESULT: -5.008863913      2.824      5.472
REMARK  3 active torsions:
REMARK  status: ('A' for Active; 'I' for Inactive)
REMARK    1  A    between atoms: N1_1  and  N2_4 
REMARK       I    between atoms: N2_4  and  C1_6 
REMARK       I    between atoms: C1_6  and  N3_8 
REMARK    2  A    between atoms: N3_8  and  N4_10 
REMARK    3  A    between atoms: N4_10  and  C2_12 
ROOT
HETATM    1  N4  UNL     1       2.659 -13.891  -1.574  1.00  0.00    -0.127 N 
ATOM      2  H4  UNL     1       2.093 -13.315  -0.951  1.00  0.00     0.206 HD
ENDROOT
BRANCH   1   3
HETATM    3  N3  UNL     1       2.210 -14.123  -2.854  1.00  0.00    -0.236 N 
HETATM    4  C1  UNL     1       0.916 -14.650  -3.085  1.00  0.00     0.353 C 
HETATM    5  N2  UNL     1       0.419 -14.903  -4.399  1.00  0.00    -0.257 N 
HETATM    6  O1  UNL     1       0.188 -14.901  -2.107  1.00  0.00    -0.244 OA
ATOM      7  H2  UNL     1       1.001 -14.703  -5.212  1.00  0.00     0.191 HD
ATOM      8  H3  UNL     1       2.818 -13.913  -3.646  1.00  0.00     0.192 HD
BRANCH   5   9
HETATM    9  N1  UNL     1      -0.854 -15.420  -4.568  1.00  0.00    -0.341 N 
ATOM     10  H12 UNL     1      -1.611 -14.792  -4.841  1.00  0.00     0.177 HD
ATOM     11  H11 UNL     1      -1.024 -16.414  -4.421  1.00  0.00     0.177 HD
ENDBRANCH   5   9
ENDBRANCH   1   3
BRANCH   1  12
HETATM   12  C2  UNL     1       3.782 -14.378  -1.130  1.00  0.00     0.711 A 
HETATM   13  N5  UNL     1       4.653 -14.997  -1.948  1.00  0.00    -0.196 N 
HETATM   14  C3  UNL     1       5.785 -15.481  -1.460  1.00  0.00     0.152 A 
ATOM     15  H5  UNL     1       4.442 -15.094  -2.941  1.00  0.00     0.183 HD
HETATM   16  C4  UNL     1       6.070 -15.346  -0.097  1.00  0.00     0.147 A 
HETATM   17  N6  UNL     1       7.259 -15.843   0.472  1.00  0.00    -0.080 NA
HETATM   18  N7  UNL     1       5.165 -14.717   0.685  1.00  0.00    -0.272 N 
HETATM   19  N8  UNL     1       4.035 -14.236   0.190  1.00  0.00    -0.129 N 
ATOM     20  H7  UNL     1       5.357 -14.611   1.681  1.00  0.00     0.189 HD
ATOM     21  H8  UNL     1       3.364 -13.764   0.797  1.00  0.00     0.205 HD
ENDBRANCH   1  12
TORSDOF 3
ENDMDL
MODEL 5
REMARK VINA RESULT: -4.925317763      1.797      6.192
REMARK  3 active torsions:
REMARK  status: ('A' for Active; 'I' for Inactive)
REMARK    1  A    between atoms: N1_1  and  N2_4 
REMARK       I    between atoms: N2_4  and  C1_6 
REMARK       I    between atoms: C1_6  and  N3_8 
REMARK    2  A    between atoms: N3_8  and  N4_10 
REMARK    3  A    between atoms: N4_10  and  C2_12 
ROOT
HETATM    1  N4  UNL     1       4.901 -14.690  -1.285  1.00  0.00    -0.127 N 
ATOM      2  H4  UNL     1       4.666 -14.546  -2.267  1.00  0.00     0.206 HD
ENDROOT
BRANCH   1   3
HETATM    3  N3  UNL     1       4.151 -14.054  -0.323  1.00  0.00    -0.236 N 
HETATM    4  C1  UNL     1       2.779 -14.362  -0.149  1.00  0.00     0.353 C 
HETATM    5  N2  UNL     1       1.972 -13.721   0.838  1.00  0.00    -0.257 N 
HETATM    6  O1  UNL     1       2.260 -15.221  -0.886  1.00  0.00    -0.244 OA
ATOM      7  H2  UNL     1       2.380 -13.014   1.450  1.00  0.00     0.191 HD
ATOM      8  H3  UNL     1       4.589 -13.351   0.273  1.00  0.00     0.192 HD
BRANCH   5   9
HETATM    9  N1  UNL     1       0.636 -14.058   0.964  1.00  0.00    -0.341 N 
ATOM     10  H12 UNL     1      -0.062 -13.315   0.990  1.00  0.00     0.177 HD
ATOM     11  H11 UNL     1       0.363 -15.039   1.031  1.00  0.00     0.177 HD
ENDBRANCH   5   9
ENDBRANCH   1   3
BRANCH   1  12
HETATM   12  C2  UNL     1       5.900 -15.471  -0.987  1.00  0.00     0.711 A 
HETATM   13  N5  UNL     1       5.957 -16.122   0.190  1.00  0.00    -0.196 N 
HETATM   14  C3  UNL     1       6.988 -16.908   0.458  1.00  0.00     0.152 A 
ATOM     15  H5  UNL     1       5.208 -16.010   0.873  1.00  0.00     0.183 HD
HETATM   16  C4  UNL     1       8.013 -17.058  -0.482  1.00  0.00     0.147 A 
HETATM   17  N6  UNL     1       9.132 -17.881  -0.247  1.00  0.00    -0.080 NA
HETATM   18  N7  UNL     1       7.912 -16.384  -1.650  1.00  0.00    -0.272 N 
HETATM   19  N8  UNL     1       6.878 -15.601  -1.911  1.00  0.00    -0.129 N 
ATOM     20  H7  UNL     1       8.650 -16.482  -2.346  1.00  0.00     0.189 HD
ATOM     21  H8  UNL     1       6.819 -15.100  -2.798  1.00  0.00     0.205 HD
ENDBRANCH   1  12
TORSDOF 3
ENDMDL
