MODEL 1
REMARK VINA RESULT: -5.012855806      0.000      0.000
REMARK  2 active torsions:
REMARK  status: ('A' for Active; 'I' for Inactive)
REMARK    1  A    between atoms: N1_1  and  C1_4 
REMARK    2  A    between atoms: N4_13  and  N5_14 
REMARK       I    between atoms: N5_14  and  C4_16 
ROOT
HETATM    1  C1  UNL     1       2.239 -14.449  -1.523  1.00  0.00     0.705 A 
HETATM    2  N2  UNL     1       0.968 -14.390  -1.075  1.00  0.00    -0.139 N 
ATOM      3  H2  UNL     1       0.219 -14.317  -1.763  1.00  0.00     0.189 HD
HETATM    4  C2  UNL     1       0.634 -14.424   0.220  1.00  0.00     0.342 A 
HETATM    5  O1  UNL     1      -0.555 -14.369   0.626  1.00  0.00    -0.246 OA
HETATM    6  N3  UNL     1       1.617 -14.521   1.108  1.00  0.00    -0.258 N 
ATOM      7  H3  UNL     1       1.397 -14.550   2.104  1.00  0.00     0.175 HD
HETATM    8  C3  UNL     1       2.917 -14.583   0.702  1.00  0.00     0.364 A 
HETATM    9  O2  UNL     1       3.759 -14.673   1.630  1.00  0.00    -0.244 OA
HETATM   10  N4  UNL     1       3.253 -14.550  -0.589  1.00  0.00    -0.028 N 
ENDROOT
BRANCH  10  11
HETATM   11  N5  UNL     1       4.535 -14.608  -1.079  1.00  0.00    -0.229 N 
HETATM   12  C4  UNL     1       5.573 -15.513  -0.985  1.00  0.00     0.348 C 
HETATM   13  N6  UNL     1       6.845 -15.245  -1.656  1.00  0.00    -0.038 NA
HETATM   14  O3  UNL     1       5.542 -16.585  -0.362  1.00  0.00    -0.249 OA
ATOM     15  H5  UNL     1       4.776 -13.792  -1.642  1.00  0.00     0.192 HD
ENDBRANCH  10  11
BRANCH   1  16
HETATM   16  N1  UNL     1       2.399 -14.407  -2.770  1.00  0.00    -0.233 N 
ATOM     17  H12 UNL     1       1.741 -14.000  -3.435  1.00  0.00     0.174 HD
ATOM     18  H11 UNL     1       3.259 -14.816  -3.133  1.00  0.00     0.174 HD
ENDBRANCH   1  16
TORSDOF 2
ENDMDL
MODEL 2
REMARK VINA RESULT: -4.953101269      2.509      3.233
REMARK  2 active torsions:
REMARK  status: ('A' for Active; 'I' for Inactive)
REMARK    1  A    between atoms: N1_1  and  C1_4 
REMARK    2  A    between atoms: N4_13  and  N5_14 
REMARK       I    between atoms: N5_14  and  C4_16 
ROOT
HETATM    1  C1  UNL     1       3.030 -14.312  -1.399  1.00  0.00     0.705 A 
HETATM    2  N2  UNL     1       2.516 -14.250  -2.645  1.00  0.00    -0.139 N 
ATOM      3  H2  UNL     1       2.504 -13.346  -3.116  1.00  0.00     0.189 HD
HETATM    4  C2  UNL     1       2.022 -15.308  -3.298  1.00  0.00     0.342 A 
HETATM    5  O1  UNL     1       1.546 -15.239  -4.460  1.00  0.00    -0.246 OA
HETATM    6  N3  UNL     1       2.043 -16.482  -2.675  1.00  0.00    -0.258 N 
ATOM      7  H3  UNL     1       1.675 -17.309  -3.145  1.00  0.00     0.175 HD
HETATM    8  C3  UNL     1       2.553 -16.592  -1.415  1.00  0.00     0.364 A 
HETATM    9  O2  UNL     1       2.520 -17.750  -0.929  1.00  0.00    -0.244 OA
HETATM   10  N4  UNL     1       3.046 -15.538  -0.762  1.00  0.00    -0.028 N 
ENDROOT
BRANCH  10  11
HETATM   11  N5  UNL     1       3.576 -15.565   0.504  1.00  0.00    -0.229 N 
HETATM   12  C4  UNL     1       4.825 -15.330   1.043  1.00  0.00     0.348 C 
HETATM   13  N6  UNL     1       5.040 -15.454   2.485  1.00  0.00    -0.038 NA
HETATM   14  O3  UNL     1       5.837 -15.007   0.403  1.00  0.00    -0.249 OA
ATOM     15  H5  UNL     1       2.886 -15.818   1.212  1.00  0.00     0.192 HD
ENDBRANCH  10  11
BRANCH   1  16
HETATM   16  N1  UNL     1       3.457 -13.233  -0.913  1.00  0.00    -0.233 N 
ATOM     17  H12 UNL     1       2.878 -12.440  -0.638  1.00  0.00     0.174 HD
ATOM     18  H11 UNL     1       4.467 -13.157  -0.791  1.00  0.00     0.174 HD
ENDBRANCH   1  16
TORSDOF 2
ENDMDL
MODEL 3
REMARK VINA RESULT: -4.834808551      1.927      4.906
REMARK  2 active torsions:
REMARK  status: ('A' for Active; 'I' for Inactive)
REMARK    1  A    between atoms: N1_1  and  C1_4 
REMARK    2  A    between atoms: N4_13  and  N5_14 
REMARK       I    between atoms: N5_14  and  C4_16 
ROOT
HETATM    1  C1  UNL     1       3.297 -15.401   1.664  1.00  0.00     0.705 A 
HETATM    2  N2  UNL     1       4.616 -15.632   1.504  1.00  0.00    -0.139 N 
ATOM      3  H2  UNL     1       5.092 -16.202   2.203  1.00  0.00     0.189 HD
HETATM    4  C2  UNL     1       5.335 -15.155   0.481  1.00  0.00     0.342 A 
HETATM    5  O1  UNL     1       6.565 -15.378   0.342  1.00  0.00    -0.246 OA
HETATM    6  N3  UNL     1       4.705 -14.414  -0.423  1.00  0.00    -0.258 N 
ATOM      7  H3  UNL     1       5.223 -14.037  -1.216  1.00  0.00     0.175 HD
HETATM    8  C3  UNL     1       3.371 -14.155  -0.303  1.00  0.00     0.364 A 
HETATM    9  O2  UNL     1       2.885 -13.444  -1.217  1.00  0.00    -0.244 OA
HETATM   10  N4  UNL     1       2.652 -14.628   0.717  1.00  0.00    -0.028 N 
ENDROOT
BRANCH  10  11
HETATM   11  N5  UNL     1       1.310 -14.413   0.909  1.00  0.00    -0.229 N 
HETATM   12  C4  UNL     1       0.152 -14.921   0.354  1.00  0.00     0.348 C 
HETATM   13  N6  UNL     1      -1.153 -14.448   0.815  1.00  0.00    -0.038 NA
HETATM   14  O3  UNL     1       0.097 -15.779  -0.539  1.00  0.00    -0.249 OA
ATOM     15  H5  UNL     1       1.125 -13.715   1.630  1.00  0.00     0.192 HD
ENDBRANCH  10  11
BRANCH   1  16
HETATM   16  N1  UNL     1       2.754 -15.914   2.676  1.00  0.00    -0.233 N 
ATOM     17  H12 UNL     1       2.976 -16.831   3.064  1.00  0.00     0.174 HD
ATOM     18  H11 UNL     1       2.035 -15.358   3.139  1.00  0.00     0.174 HD
ENDBRANCH   1  16
TORSDOF 2
ENDMDL
MODEL 4
REMARK VINA RESULT: -4.814187448      1.645      4.436
REMARK  2 active torsions:
REMARK  status: ('A' for Active; 'I' for Inactive)
REMARK    1  A    between atoms: N1_1  and  C1_4 
REMARK    2  A    between atoms: N4_13  and  N5_14 
REMARK       I    between atoms: N5_14  and  C4_16 
ROOT
HETATM    1  C1  UNL     1       2.275 -15.072  -1.898  1.00  0.00     0.705 A 
HETATM    2  N2  UNL     1       3.607 -15.149  -2.096  1.00  0.00    -0.139 N 
ATOM      3  H2  UNL     1       3.942 -15.593  -2.950  1.00  0.00     0.189 HD
HETATM    4  C2  UNL     1       4.514 -14.675  -1.234  1.00  0.00     0.342 A 
HETATM    5  O1  UNL     1       5.754 -14.752  -1.428  1.00  0.00    -0.246 OA
HETATM    6  N3  UNL     1       4.067 -14.097  -0.124  1.00  0.00    -0.258 N 
ATOM      7  H3  UNL     1       4.732 -13.725   0.554  1.00  0.00     0.175 HD
HETATM    8  C3  UNL     1       2.729 -13.997   0.118  1.00  0.00     0.364 A 
HETATM    9  O2  UNL     1       2.425 -13.432   1.198  1.00  0.00    -0.244 OA
HETATM   10  N4  UNL     1       1.822 -14.469  -0.741  1.00  0.00    -0.028 N 
ENDROOT
BRANCH  10  11
HETATM   11  N5  UNL     1       0.461 -14.407  -0.571  1.00  0.00    -0.229 N 
HETATM   12  C4  UNL     1      -0.462 -15.119   0.169  1.00  0.00     0.348 C 
HETATM   13  N6  UNL     1      -1.881 -14.770   0.108  1.00  0.00    -0.038 NA
HETATM   14  O3  UNL     1      -0.204 -16.073   0.919  1.00  0.00    -0.249 OA
ATOM     15  H5  UNL     1       0.031 -13.663  -1.121  1.00  0.00     0.192 HD
ENDBRANCH  10  11
BRANCH   1  16
HETATM   16  N1  UNL     1       1.544 -15.562  -2.797  1.00  0.00    -0.233 N 
ATOM     17  H12 UNL     1       1.837 -15.758  -3.755  1.00  0.00     0.174 HD
ATOM     18  H11 UNL     1       0.582 -15.776  -2.536  1.00  0.00     0.174 HD
ENDBRANCH   1  16
TORSDOF 2
ENDMDL
MODEL 5
REMARK VINA RESULT: -4.807139062      1.313      4.302
REMARK  2 active torsions:
REMARK  status: ('A' for Active; 'I' for Inactive)
REMARK    1  A    between atoms: N1_1  and  C1_4 
REMARK    2  A    between atoms: N4_13  and  N5_14 
REMARK       I    between atoms: N5_14  and  C4_16 
ROOT
HETATM    1  C1  UNL     1       3.031 -14.583  -1.723  1.00  0.00     0.705 A 
HETATM    2  N2  UNL     1       4.307 -14.827  -2.088  1.00  0.00    -0.139 N 
ATOM      3  H2  UNL     1       4.534 -14.811  -3.081  1.00  0.00     0.189 HD
HETATM    4  C2  UNL     1       5.290 -15.089  -1.219  1.00  0.00     0.342 A 
HETATM    5  O1  UNL     1       6.476 -15.315  -1.571  1.00  0.00    -0.246 OA
HETATM    6  N3  UNL     1       4.983 -15.107   0.073  1.00  0.00    -0.258 N 
ATOM      7  H3  UNL     1       5.709 -15.303   0.762  1.00  0.00     0.175 HD
HETATM    8  C3  UNL     1       3.706 -14.866   0.488  1.00  0.00     0.364 A 
HETATM    9  O2  UNL     1       3.536 -14.909   1.732  1.00  0.00    -0.244 OA
HETATM   10  N4  UNL     1       2.724 -14.605  -0.376  1.00  0.00    -0.028 N 
ENDROOT
BRANCH  10  11
HETATM   11  N5  UNL     1       1.417 -14.352  -0.040  1.00  0.00    -0.229 N 
HETATM   12  C4  UNL     1       0.352 -15.125   0.378  1.00  0.00     0.348 C 
HETATM   13  N6  UNL     1      -0.943 -14.505   0.656  1.00  0.00    -0.038 NA
HETATM   14  O3  UNL     1       0.376 -16.353   0.552  1.00  0.00    -0.249 OA
ATOM     15  H5  UNL     1       1.176 -13.364  -0.118  1.00  0.00     0.192 HD
ENDBRANCH  10  11
BRANCH   1  16
HETATM   16  N1  UNL     1       2.215 -14.353  -2.653  1.00  0.00    -0.233 N 
ATOM     17  H12 UNL     1       2.208 -14.819  -3.561  1.00  0.00     0.174 HD
ATOM     18  H11 UNL     1       1.508 -13.641  -2.473  1.00  0.00     0.174 HD
ENDBRANCH   1  16
TORSDOF 2
ENDMDL
