MODEL 1
REMARK VINA RESULT: -4.762572742      0.000      0.000
REMARK  3 active torsions:
REMARK  status: ('A' for Active; 'I' for Inactive)
REMARK    1  A    between atoms: C4_11  and  C5_12 
REMARK    2  A    between atoms: C5_12  and  N4_13 
REMARK    3  A    between atoms: C5_12  and  N5_17 
ROOT
HETATM    1  N1  UNL     1       2.297 -14.366  -2.494  1.00  0.00    -0.082 NA
HETATM    2  C1  UNL     1       3.342 -14.702  -1.598  1.00  0.00     0.135 A 
HETATM    3  N2  UNL     1       4.602 -14.909  -2.072  1.00  0.00    -0.296 N 
ATOM      4  H2  UNL     1       4.809 -14.825  -3.068  1.00  0.00     0.171 HD
HETATM    5  C2  UNL     1       5.567 -15.226  -1.192  1.00  0.00     0.328 A 
HETATM    6  O1  UNL     1       6.755 -15.425  -1.602  1.00  0.00    -0.247 OA
HETATM    7  N3  UNL     1       5.300 -15.337   0.126  1.00  0.00    -0.275 N 
ATOM      8  H3  UNL     1       6.057 -15.579   0.766  1.00  0.00     0.173 HD
HETATM    9  C3  UNL     1       4.063 -15.137   0.621  1.00  0.00     0.262 A 
HETATM   10  O2  UNL     1       3.797 -15.237   1.851  1.00  0.00    -0.267 OA
HETATM   11  C4  UNL     1       3.053 -14.810  -0.259  1.00  0.00     0.108 A 
ENDROOT
BRANCH  11  12
HETATM   12  C5  UNL     1       1.680 -14.585   0.251  1.00  0.00     0.419 C 
BRANCH  12  13
HETATM   13  N4  UNL     1       1.635 -13.513   1.229  1.00  0.00    -0.046 N 
ATOM     14  H43 UNL     1       2.063 -12.662   0.866  1.00  0.00     0.277 HD
ATOM     15  H42 UNL     1       0.682 -13.171   1.360  1.00  0.00     0.277 HD
ATOM     16  H41 UNL     1       2.054 -13.790   2.116  1.00  0.00     0.277 HD
ENDBRANCH  12  13
BRANCH  12  17
HETATM   17  N5  UNL     1       1.077 -15.733   0.847  1.00  0.00    -0.046 N 
ATOM     18  H53 UNL     1       0.067 -15.719   0.705  1.00  0.00     0.277 HD
ATOM     19  H52 UNL     1       1.315 -16.574   0.321  1.00  0.00     0.277 HD
ATOM     20  H51 UNL     1       1.295 -15.858   1.835  1.00  0.00     0.277 HD
ENDBRANCH  12  17
ENDBRANCH  11  12
TORSDOF 3
ENDMDL
MODEL 2
REMARK VINA RESULT: -4.684291289      1.488      2.345
REMARK  3 active torsions:
REMARK  status: ('A' for Active; 'I' for Inactive)
REMARK    1  A    between atoms: C4_11  and  C5_12 
REMARK    2  A    between atoms: C5_12  and  N4_13 
REMARK    3  A    between atoms: C5_12  and  N5_17 
ROOT
HETATM    1  N1  UNL     1       3.804 -15.414   1.945  1.00  0.00    -0.082 NA
HETATM    2  C1  UNL     1       4.096 -15.217   0.572  1.00  0.00     0.135 A 
HETATM    3  N2  UNL     1       5.356 -15.447   0.106  1.00  0.00    -0.296 N 
ATOM      4  H2  UNL     1       6.098 -15.761   0.733  1.00  0.00     0.171 HD
HETATM    5  C2  UNL     1       5.594 -15.250  -1.202  1.00  0.00     0.328 A 
HETATM    6  O1  UNL     1       6.760 -15.455  -1.669  1.00  0.00    -0.247 OA
HETATM    7  N3  UNL     1       4.617 -14.836  -2.034  1.00  0.00    -0.275 N 
ATOM      8  H3  UNL     1       4.833 -14.696  -3.021  1.00  0.00     0.173 HD
HETATM    9  C3  UNL     1       3.364 -14.601  -1.599  1.00  0.00     0.262 A 
HETATM   10  O2  UNL     1       2.437 -14.214  -2.365  1.00  0.00    -0.267 OA
HETATM   11  C4  UNL     1       3.089 -14.796  -0.262  1.00  0.00     0.108 A 
ENDROOT
BRANCH  11  12
HETATM   12  C5  UNL     1       1.721 -14.546   0.251  1.00  0.00     0.419 C 
BRANCH  12  13
HETATM   13  N4  UNL     1       1.702 -13.499   1.255  1.00  0.00    -0.046 N 
ATOM     14  H43 UNL     1       2.436 -13.638   1.950  1.00  0.00     0.277 HD
ATOM     15  H42 UNL     1       2.015 -12.608   0.869  1.00  0.00     0.277 HD
ATOM     16  H41 UNL     1       0.787 -13.411   1.696  1.00  0.00     0.277 HD
ENDBRANCH  12  13
BRANCH  12  17
HETATM   17  N5  UNL     1       1.086 -15.692   0.815  1.00  0.00    -0.046 N 
ATOM     18  H53 UNL     1       0.238 -15.921   0.296  1.00  0.00     0.277 HD
ATOM     19  H52 UNL     1       1.635 -16.531   0.631  1.00  0.00     0.277 HD
ATOM     20  H51 UNL     1       0.882 -15.612   1.811  1.00  0.00     0.277 HD
ENDBRANCH  12  17
ENDBRANCH  11  12
TORSDOF 3
ENDMDL
MODEL 3
REMARK VINA RESULT: -4.585150809      2.418      4.071
REMARK  3 active torsions:
REMARK  status: ('A' for Active; 'I' for Inactive)
REMARK    1  A    between atoms: C4_11  and  C5_12 
REMARK    2  A    between atoms: C5_12  and  N4_13 
REMARK    3  A    between atoms: C5_12  and  N5_17 
ROOT
HETATM    1  N1  UNL     1       4.681 -14.869  -2.071  1.00  0.00    -0.082 NA
HETATM    2  C1  UNL     1       3.443 -14.611  -1.432  1.00  0.00     0.135 A 
HETATM    3  N2  UNL     1       3.424 -14.062  -0.185  1.00  0.00    -0.296 N 
ATOM      4  H2  UNL     1       4.291 -13.831   0.300  1.00  0.00     0.171 HD
HETATM    5  C2  UNL     1       2.230 -13.832   0.388  1.00  0.00     0.328 A 
HETATM    6  O1  UNL     1       2.178 -13.320   1.552  1.00  0.00    -0.247 OA
HETATM    7  N3  UNL     1       1.080 -14.134  -0.249  1.00  0.00    -0.275 N 
ATOM      8  H3  UNL     1       0.192 -13.946   0.216  1.00  0.00     0.173 HD
HETATM    9  C3  UNL     1       1.071 -14.677  -1.481  1.00  0.00     0.262 A 
HETATM   10  O2  UNL     1       0.004 -14.966  -2.092  1.00  0.00    -0.267 OA
HETATM   11  C4  UNL     1       2.281 -14.925  -2.096  1.00  0.00     0.108 A 
ENDROOT
BRANCH  11  12
HETATM   12  C5  UNL     1       2.307 -15.523  -3.451  1.00  0.00     0.419 C 
BRANCH  12  13
HETATM   13  N4  UNL     1       1.701 -14.650  -4.440  1.00  0.00    -0.046 N 
ATOM     14  H43 UNL     1       0.829 -15.042  -4.794  1.00  0.00     0.277 HD
ATOM     15  H42 UNL     1       1.332 -13.802  -4.009  1.00  0.00     0.277 HD
ATOM     16  H41 UNL     1       2.345 -14.431  -5.199  1.00  0.00     0.277 HD
ENDBRANCH  12  13
BRANCH  12  17
HETATM   17  N5  UNL     1       1.663 -16.792  -3.548  1.00  0.00    -0.046 N 
ATOM     18  H53 UNL     1       2.351 -17.544  -3.525  1.00  0.00     0.277 HD
ATOM     19  H52 UNL     1       1.152 -16.998  -2.689  1.00  0.00     0.277 HD
ATOM     20  H51 UNL     1       1.052 -16.894  -4.358  1.00  0.00     0.277 HD
ENDBRANCH  12  17
ENDBRANCH  11  12
TORSDOF 3
ENDMDL
MODEL 4
REMARK VINA RESULT: -4.411342540      2.638      4.435
REMARK  3 active torsions:
REMARK  status: ('A' for Active; 'I' for Inactive)
REMARK    1  A    between atoms: C4_11  and  C5_12 
REMARK    2  A    between atoms: C5_12  and  N4_13 
REMARK    3  A    between atoms: C5_12  and  N5_17 
ROOT
HETATM    1  N1  UNL     1      -1.356 -15.321  -0.795  1.00  0.00    -0.082 NA
HETATM    2  C1  UNL     1      -0.011 -14.874  -0.816  1.00  0.00     0.135 A 
HETATM    3  N2  UNL     1       0.537 -14.321   0.303  1.00  0.00    -0.296 N 
ATOM      4  H2  UNL     1      -0.007 -14.223   1.161  1.00  0.00     0.171 HD
HETATM    5  C2  UNL     1       1.815 -13.909   0.245  1.00  0.00     0.328 A 
HETATM    6  O1  UNL     1       2.357 -13.388   1.271  1.00  0.00    -0.247 OA
HETATM    7  N3  UNL     1       2.539 -14.036  -0.886  1.00  0.00    -0.275 N 
ATOM      8  H3  UNL     1       3.506 -13.713  -0.894  1.00  0.00     0.173 HD
HETATM    9  C3  UNL     1       2.021 -14.580  -2.005  1.00  0.00     0.262 A 
HETATM   10  O2  UNL     1       2.685 -14.707  -3.072  1.00  0.00    -0.267 OA
HETATM   11  C4  UNL     1       0.712 -15.012  -1.976  1.00  0.00     0.108 A 
ENDROOT
BRANCH  11  12
HETATM   12  C5  UNL     1       0.110 -15.613  -3.189  1.00  0.00     0.419 C 
BRANCH  12  13
HETATM   13  N4  UNL     1       0.745 -16.869  -3.543  1.00  0.00    -0.046 N 
ATOM     14  H43 UNL     1       0.977 -17.414  -2.713  1.00  0.00     0.277 HD
ATOM     15  H42 UNL     1       0.081 -17.512  -3.976  1.00  0.00     0.277 HD
ATOM     16  H41 UNL     1       1.564 -16.728  -4.134  1.00  0.00     0.277 HD
ENDBRANCH  12  13
BRANCH  12  17
HETATM   17  N5  UNL     1       0.148 -14.775  -4.343  1.00  0.00    -0.046 N 
ATOM     18  H53 UNL     1      -0.708 -14.225  -4.412  1.00  0.00     0.277 HD
ATOM     19  H52 UNL     1       0.828 -14.025  -4.216  1.00  0.00     0.277 HD
ATOM     20  H51 UNL     1       0.324 -15.269  -5.217  1.00  0.00     0.277 HD
ENDBRANCH  12  17
ENDBRANCH  11  12
TORSDOF 3
ENDMDL
MODEL 5
REMARK VINA RESULT: -4.408880250      2.429      4.476
REMARK  3 active torsions:
REMARK  status: ('A' for Active; 'I' for Inactive)
REMARK    1  A    between atoms: C4_11  and  C5_12 
REMARK    2  A    between atoms: C5_12  and  N4_13 
REMARK    3  A    between atoms: C5_12  and  N5_17 
ROOT
HETATM    1  N1  UNL     1       0.881 -15.262  -3.004  1.00  0.00    -0.082 NA
HETATM    2  C1  UNL     1       0.655 -14.917  -1.648  1.00  0.00     0.135 A 
HETATM    3  N2  UNL     1      -0.589 -15.059  -1.109  1.00  0.00    -0.296 N 
ATOM      4  H2  UNL     1      -1.366 -15.411  -1.669  1.00  0.00     0.171 HD
HETATM    5  C2  UNL     1      -0.763 -14.721   0.180  1.00  0.00     0.328 A 
HETATM    6  O1  UNL     1      -1.912 -14.841   0.713  1.00  0.00    -0.247 OA
HETATM    7  N3  UNL     1       0.261 -14.255   0.924  1.00  0.00    -0.275 N 
ATOM      8  H3  UNL     1       0.092 -14.009   1.899  1.00  0.00     0.173 HD
HETATM    9  C3  UNL     1       1.500 -14.107   0.416  1.00  0.00     0.262 A 
HETATM   10  O2  UNL     1       2.469 -13.673   1.099  1.00  0.00    -0.267 OA
HETATM   11  C4  UNL     1       1.710 -14.445  -0.904  1.00  0.00     0.108 A 
ENDROOT
BRANCH  11  12
HETATM   12  C5  UNL     1       3.060 -14.293  -1.495  1.00  0.00     0.419 C 
BRANCH  12  13
HETATM   13  N4  UNL     1       4.009 -15.231  -0.926  1.00  0.00    -0.046 N 
ATOM     14  H43 UNL     1       4.473 -14.839  -0.107  1.00  0.00     0.277 HD
ATOM     15  H42 UNL     1       3.533 -16.016  -0.481  1.00  0.00     0.277 HD
ATOM     16  H41 UNL     1       4.687 -15.552  -1.617  1.00  0.00     0.277 HD
ENDBRANCH  12  13
BRANCH  12  17
HETATM   17  N5  UNL     1       3.618 -12.986  -1.362  1.00  0.00    -0.046 N 
ATOM     18  H53 UNL     1       4.510 -13.029  -0.869  1.00  0.00     0.277 HD
ATOM     19  H52 UNL     1       3.935 -12.640  -2.267  1.00  0.00     0.277 HD
ATOM     20  H51 UNL     1       2.999 -12.307  -0.918  1.00  0.00     0.277 HD
ENDBRANCH  12  17
ENDBRANCH  11  12
TORSDOF 3
ENDMDL
