MODEL 1
REMARK VINA RESULT: -6.338461502      0.000      0.000
REMARK  12 active torsions:
REMARK  status: ('A' for Active; 'I' for Inactive)
REMARK    1  A    between atoms: N1_1  and  N2_4 
REMARK    2  A    between atoms: N3_7  and  C2_8 
REMARK    3  A    between atoms: C2_8  and  C3_9 
REMARK    4  A    between atoms: C3_9  and  O1_10 
REMARK    5  A    between atoms: C3_9  and  C4_12 
REMARK    6  A    between atoms: C4_12  and  O3_14 
REMARK    7  A    between atoms: O3_14  and  O4_15 
REMARK    8  A    between atoms: C6_18  and  N4_19 
REMARK    9  A    between atoms: C7_23  and  O5_24 
REMARK   10  A    between atoms: C8_26  and  O6_27 
REMARK   11  A    between atoms: C8_26  and  C9_29 
REMARK       I    between atoms: C9_29  and  N5_31 
REMARK   12  A    between atoms: N5_31  and  C10_33 
ROOT
HETATM    1  N2  UNL     1     -15.828 -21.782  37.225  1.00  0.00    -0.292 N 
ATOM      2  H2  UNL     1     -16.190 -22.654  36.841  1.00  0.00     0.187 HD
HETATM    3  C1  UNL     1     -16.229 -20.678  36.691  1.00  0.00     0.145 C 
HETATM    4  N3  UNL     1     -17.140 -20.823  35.617  1.00  0.00    -0.341 N 
HETATM    5  C5  UNL     1     -18.154 -19.754  35.490  1.00  0.00     0.165 C 
HETATM    6  C6  UNL     1     -17.639 -18.414  35.877  1.00  0.00     0.234 C 
HETATM    7  C7  UNL     1     -16.175 -18.338  36.159  1.00  0.00     0.202 C 
HETATM    8  C8  UNL     1     -15.749 -19.365  37.195  1.00  0.00     0.226 C 
ENDROOT
BRANCH   8   9
HETATM    9  O6  UNL     1     -16.278 -19.071  38.449  1.00  0.00    -0.371 OA
ATOM     10  H6  UNL     1     -15.923 -18.263  38.798  1.00  0.00     0.211 HD
ENDBRANCH   8   9
BRANCH   8  11
HETATM   11  C9  UNL     1     -14.267 -19.378  37.216  1.00  0.00     0.263 C 
HETATM   12  O7  UNL     1     -13.609 -19.583  38.283  1.00  0.00    -0.270 OA
HETATM   13  N5  UNL     1     -13.511 -19.163  36.034  1.00  0.00    -0.353 N 
ATOM     14  H5  UNL     1     -14.009 -18.997  35.159  1.00  0.00     0.163 HD
BRANCH  13  15
HETATM   15  C10 UNL     1     -12.062 -19.169  36.018  1.00  0.00     0.087 C 
HETATM   16  C11 UNL     1     -11.586 -20.303  35.170  1.00  0.00     0.052 C 
HETATM   17  C12 UNL     1     -10.154 -20.204  34.746  1.00  0.00     0.234 C 
HETATM   18  N6  UNL     1      -9.636 -18.861  34.744  1.00  0.00    -0.075 N 
HETATM   19  C13 UNL     1     -10.692 -17.976  34.329  1.00  0.00     0.234 C 
ATOM     20  H62 UNL     1      -9.228 -18.595  35.641  1.00  0.00     0.277 HD
ATOM     21  H61 UNL     1      -8.794 -18.764  34.177  1.00  0.00     0.277 HD
HETATM   22  C14 UNL     1     -11.612 -17.817  35.535  1.00  0.00     0.052 C 
ENDBRANCH  13  15
ENDBRANCH   8  11
BRANCH   7  23
HETATM   23  O5  UNL     1     -15.870 -17.046  36.562  1.00  0.00    -0.389 OA
ATOM     24  H5  UNL     1     -16.251 -16.900  37.421  1.00  0.00     0.210 HD
ENDBRANCH   7  23
BRANCH   1  25
HETATM   25  N1  UNL     1     -14.933 -21.862  38.292  1.00  0.00    -0.344 N 
ATOM     26  H12 UNL     1     -13.979 -21.547  38.115  1.00  0.00     0.176 HD
ATOM     27  H11 UNL     1     -15.173 -22.209  39.221  1.00  0.00     0.176 HD
ENDBRANCH   1  25
BRANCH   4  28
HETATM   28  C2  UNL     1     -17.198 -21.858  34.669  1.00  0.00     0.107 C 
BRANCH  28  29
HETATM   29  C3  UNL     1     -16.502 -21.762  33.375  1.00  0.00     0.258 C 
BRANCH  29  30
HETATM   30  O1  UNL     1     -17.023 -22.602  32.390  1.00  0.00    -0.380 OA
ATOM     31  H1  UNL     1     -17.552 -22.153  31.741  1.00  0.00     0.211 HD
ENDBRANCH  29  30
BRANCH  29  32
HETATM   32  C4  UNL     1     -15.107 -22.219  33.596  1.00  0.00     0.322 C 
HETATM   33  O2  UNL     1     -14.776 -22.960  34.556  1.00  0.00    -0.259 OA
BRANCH  32  34
HETATM   34  O3  UNL     1     -14.117 -21.828  32.724  1.00  0.00    -0.158 OA
BRANCH  34  35
HETATM   35  O4  UNL     1     -14.275 -21.828  31.388  1.00  0.00    -0.242 OA
ATOM     36  H4  UNL     1     -15.100 -21.622  30.964  1.00  0.00     0.254 HD
ENDBRANCH  34  35
ENDBRANCH  32  34
ENDBRANCH  29  32
ENDBRANCH  28  29
ENDBRANCH   4  28
BRANCH   6  37
HETATM   37  N4  UNL     1     -18.383 -17.822  36.980  1.00  0.00    -0.071 N 
ATOM     38  H43 UNL     1     -18.396 -16.804  36.909  1.00  0.00     0.274 HD
ATOM     39  H42 UNL     1     -19.382 -18.006  36.888  1.00  0.00     0.274 HD
ATOM     40  H41 UNL     1     -18.040 -18.121  37.892  1.00  0.00     0.274 HD
ENDBRANCH   6  37
TORSDOF 12
ENDMDL
MODEL 2
REMARK VINA RESULT: -5.866074882      1.179      1.615
REMARK  12 active torsions:
REMARK  status: ('A' for Active; 'I' for Inactive)
REMARK    1  A    between atoms: N1_1  and  N2_4 
REMARK    2  A    between atoms: N3_7  and  C2_8 
REMARK    3  A    between atoms: C2_8  and  C3_9 
REMARK    4  A    between atoms: C3_9  and  O1_10 
REMARK    5  A    between atoms: C3_9  and  C4_12 
REMARK    6  A    between atoms: C4_12  and  O3_14 
REMARK    7  A    between atoms: O3_14  and  O4_15 
REMARK    8  A    between atoms: C6_18  and  N4_19 
REMARK    9  A    between atoms: C7_23  and  O5_24 
REMARK   10  A    between atoms: C8_26  and  O6_27 
REMARK   11  A    between atoms: C8_26  and  C9_29 
REMARK       I    between atoms: C9_29  and  N5_31 
REMARK   12  A    between atoms: N5_31  and  C10_33 
ROOT
HETATM    1  N2  UNL     1     -16.072 -20.948  36.033  1.00  0.00    -0.292 N 
ATOM      2  H2  UNL     1     -16.523 -21.501  35.304  1.00  0.00     0.187 HD
HETATM    3  C1  UNL     1     -16.268 -19.673  36.029  1.00  0.00     0.145 C 
HETATM    4  N3  UNL     1     -17.102 -19.195  34.990  1.00  0.00    -0.341 N 
HETATM    5  C5  UNL     1     -17.941 -18.025  35.330  1.00  0.00     0.165 C 
HETATM    6  C6  UNL     1     -17.274 -17.083  36.268  1.00  0.00     0.234 C 
HETATM    7  C7  UNL     1     -15.840 -17.374  36.569  1.00  0.00     0.202 C 
HETATM    8  C8  UNL     1     -15.649 -18.800  37.059  1.00  0.00     0.226 C 
ENDROOT
BRANCH   8   9
HETATM    9  O6  UNL     1     -16.228 -18.990  38.310  1.00  0.00    -0.371 OA
ATOM     10  H6  UNL     1     -16.530 -18.171  38.685  1.00  0.00     0.211 HD
ENDBRANCH   8   9
BRANCH   8  11
HETATM   11  C9  UNL     1     -14.190 -19.061  37.087  1.00  0.00     0.263 C 
HETATM   12  O7  UNL     1     -13.629 -19.652  38.062  1.00  0.00    -0.270 OA
HETATM   13  N5  UNL     1     -13.349 -18.662  36.015  1.00  0.00    -0.353 N 
ATOM     14  H5  UNL     1     -13.768 -18.187  35.216  1.00  0.00     0.163 HD
BRANCH  13  15
HETATM   15  C10 UNL     1     -11.920 -18.901  36.010  1.00  0.00     0.087 C 
HETATM   16  C11 UNL     1     -11.635 -20.155  35.249  1.00  0.00     0.052 C 
HETATM   17  C12 UNL     1     -10.208 -20.319  34.829  1.00  0.00     0.234 C 
HETATM   18  N6  UNL     1      -9.482 -19.080  34.733  1.00  0.00    -0.075 N 
HETATM   19  C13 UNL     1     -10.384 -18.069  34.248  1.00  0.00     0.234 C 
ATOM     20  H62 UNL     1      -9.032 -18.818  35.611  1.00  0.00     0.277 HD
ATOM     21  H61 UNL     1      -8.638 -19.160  34.166  1.00  0.00     0.277 HD
HETATM   22  C14 UNL     1     -11.261 -17.678  35.432  1.00  0.00     0.052 C 
ENDBRANCH  13  15
ENDBRANCH   8  11
BRANCH   7  23
HETATM   23  O5  UNL     1     -15.389 -16.448  37.498  1.00  0.00    -0.389 OA
ATOM     24  H5  UNL     1     -16.126 -16.167  38.027  1.00  0.00     0.210 HD
ENDBRANCH   7  23
BRANCH   1  25
HETATM   25  N1  UNL     1     -15.285 -21.622  36.968  1.00  0.00    -0.344 N 
ATOM     26  H12 UNL     1     -14.998 -21.093  37.791  1.00  0.00     0.176 HD
ATOM     27  H11 UNL     1     -14.987 -22.593  36.878  1.00  0.00     0.176 HD
ENDBRANCH   1  25
BRANCH   4  28
HETATM   28  C2  UNL     1     -17.231 -19.699  33.686  1.00  0.00     0.107 C 
BRANCH  28  29
HETATM   29  C3  UNL     1     -18.207 -20.751  33.354  1.00  0.00     0.258 C 
BRANCH  29  30
HETATM   30  O1  UNL     1     -19.053 -21.089  34.411  1.00  0.00    -0.380 OA
ATOM     31  H1  UNL     1     -19.682 -21.769  34.198  1.00  0.00     0.211 HD
ENDBRANCH  29  30
BRANCH  29  32
HETATM   32  C4  UNL     1     -17.434 -21.981  33.049  1.00  0.00     0.322 C 
HETATM   33  O2  UNL     1     -17.981 -23.071  32.743  1.00  0.00    -0.259 OA
BRANCH  32  34
HETATM   34  O3  UNL     1     -16.059 -21.950  33.095  1.00  0.00    -0.158 OA
BRANCH  34  35
HETATM   35  O4  UNL     1     -15.333 -22.784  33.861  1.00  0.00    -0.242 OA
ATOM     36  H4  UNL     1     -14.465 -22.569  34.182  1.00  0.00     0.254 HD
ENDBRANCH  34  35
ENDBRANCH  32  34
ENDBRANCH  29  32
ENDBRANCH  28  29
ENDBRANCH   4  28
BRANCH   6  37
HETATM   37  N4  UNL     1     -18.012 -16.909  37.511  1.00  0.00    -0.071 N 
ATOM     38  H43 UNL     1     -18.958 -16.571  37.331  1.00  0.00     0.274 HD
ATOM     39  H42 UNL     1     -18.236 -17.810  37.933  1.00  0.00     0.274 HD
ATOM     40  H41 UNL     1     -17.528 -16.304  38.175  1.00  0.00     0.274 HD
ENDBRANCH   6  37
TORSDOF 12
ENDMDL
MODEL 3
REMARK VINA RESULT: -5.829708274      1.484      1.738
REMARK  12 active torsions:
REMARK  status: ('A' for Active; 'I' for Inactive)
REMARK    1  A    between atoms: N1_1  and  N2_4 
REMARK    2  A    between atoms: N3_7  and  C2_8 
REMARK    3  A    between atoms: C2_8  and  C3_9 
REMARK    4  A    between atoms: C3_9  and  O1_10 
REMARK    5  A    between atoms: C3_9  and  C4_12 
REMARK    6  A    between atoms: C4_12  and  O3_14 
REMARK    7  A    between atoms: O3_14  and  O4_15 
REMARK    8  A    between atoms: C6_18  and  N4_19 
REMARK    9  A    between atoms: C7_23  and  O5_24 
REMARK   10  A    between atoms: C8_26  and  O6_27 
REMARK   11  A    between atoms: C8_26  and  C9_29 
REMARK       I    between atoms: C9_29  and  N5_31 
REMARK   12  A    between atoms: N5_31  and  C10_33 
ROOT
HETATM    1  N2  UNL     1     -15.105 -22.162  36.705  1.00  0.00    -0.292 N 
ATOM      2  H2  UNL     1     -15.654 -22.639  35.990  1.00  0.00     0.187 HD
HETATM    3  C1  UNL     1     -15.503 -20.997  37.091  1.00  0.00     0.145 C 
HETATM    4  N3  UNL     1     -16.675 -20.520  36.457  1.00  0.00    -0.341 N 
HETATM    5  C5  UNL     1     -17.557 -19.678  37.295  1.00  0.00     0.165 C 
HETATM    6  C6  UNL     1     -16.807 -18.824  38.255  1.00  0.00     0.234 C 
HETATM    7  C7  UNL     1     -15.321 -18.829  38.103  1.00  0.00     0.202 C 
HETATM    8  C8  UNL     1     -14.759 -20.240  38.131  1.00  0.00     0.226 C 
ENDROOT
BRANCH   8   9
HETATM    9  O6  UNL     1     -14.900 -20.819  39.388  1.00  0.00    -0.371 OA
ATOM     10  H6  UNL     1     -15.271 -20.209  40.015  1.00  0.00     0.211 HD
ENDBRANCH   8   9
BRANCH   8  11
HETATM   11  C9  UNL     1     -13.335 -20.152  37.726  1.00  0.00     0.263 C 
HETATM   12  O7  UNL     1     -12.421 -20.795  38.329  1.00  0.00    -0.270 OA
HETATM   13  N5  UNL     1     -12.928 -19.340  36.635  1.00  0.00    -0.353 N 
ATOM     14  H5  UNL     1     -13.638 -18.811  36.128  1.00  0.00     0.163 HD
BRANCH  13  15
HETATM   15  C10 UNL     1     -11.546 -19.231  36.213  1.00  0.00     0.087 C 
HETATM   16  C11 UNL     1     -11.244 -20.321  35.237  1.00  0.00     0.052 C 
HETATM   17  C12 UNL     1     -10.002 -20.108  34.430  1.00  0.00     0.234 C 
HETATM   18  N6  UNL     1      -9.608 -18.728  34.317  1.00  0.00    -0.075 N 
HETATM   19  C13 UNL     1     -10.802 -17.928  34.238  1.00  0.00     0.234 C 
ATOM     20  H62 UNL     1      -8.985 -18.432  35.069  1.00  0.00     0.277 HD
ATOM     21  H61 UNL     1      -8.970 -18.562  33.538  1.00  0.00     0.277 HD
HETATM   22  C14 UNL     1     -11.354 -17.847  35.657  1.00  0.00     0.052 C 
ENDBRANCH  13  15
ENDBRANCH   8  11
BRANCH   7  23
HETATM   23  O5  UNL     1     -14.774 -18.039  39.104  1.00  0.00    -0.389 OA
ATOM     24  H5  UNL     1     -14.591 -18.589  39.857  1.00  0.00     0.210 HD
ENDBRANCH   7  23
BRANCH   1  25
HETATM   25  N1  UNL     1     -13.975 -22.814  37.201  1.00  0.00    -0.344 N 
ATOM     26  H12 UNL     1     -13.875 -23.801  36.966  1.00  0.00     0.176 HD
ATOM     27  H11 UNL     1     -13.257 -22.369  37.773  1.00  0.00     0.176 HD
ENDBRANCH   1  25
BRANCH   4  28
HETATM   28  C2  UNL     1     -17.100 -20.754  35.140  1.00  0.00     0.107 C 
BRANCH  28  29
HETATM   29  C3  UNL     1     -16.166 -20.694  34.003  1.00  0.00     0.258 C 
BRANCH  29  30
HETATM   30  O1  UNL     1     -16.335 -19.572  33.191  1.00  0.00    -0.380 OA
ATOM     31  H1  UNL     1     -16.783 -18.852  33.619  1.00  0.00     0.211 HD
ENDBRANCH  29  30
BRANCH  29  32
HETATM   32  C4  UNL     1     -16.459 -21.864  33.137  1.00  0.00     0.322 C 
HETATM   33  O2  UNL     1     -17.433 -22.635  33.338  1.00  0.00    -0.259 OA
BRANCH  32  34
HETATM   34  O3  UNL     1     -15.646 -22.135  32.061  1.00  0.00    -0.158 OA
BRANCH  34  35
HETATM   35  O4  UNL     1     -14.360 -21.743  31.998  1.00  0.00    -0.242 OA
ATOM     36  H4  UNL     1     -14.021 -21.189  31.304  1.00  0.00     0.254 HD
ENDBRANCH  34  35
ENDBRANCH  32  34
ENDBRANCH  29  32
ENDBRANCH  28  29
ENDBRANCH   4  28
BRANCH   6  37
HETATM   37  N4  UNL     1     -17.160 -19.093  39.642  1.00  0.00    -0.071 N 
ATOM     38  H43 UNL     1     -18.150 -18.909  39.810  1.00  0.00     0.274 HD
ATOM     39  H42 UNL     1     -17.144 -20.094  39.836  1.00  0.00     0.274 HD
ATOM     40  H41 UNL     1     -16.575 -18.583  40.303  1.00  0.00     0.274 HD
ENDBRANCH   6  37
TORSDOF 12
ENDMDL
MODEL 4
REMARK VINA RESULT: -5.669283862      2.620      5.643
REMARK  12 active torsions:
REMARK  status: ('A' for Active; 'I' for Inactive)
REMARK    1  A    between atoms: N1_1  and  N2_4 
REMARK    2  A    between atoms: N3_7  and  C2_8 
REMARK    3  A    between atoms: C2_8  and  C3_9 
REMARK    4  A    between atoms: C3_9  and  O1_10 
REMARK    5  A    between atoms: C3_9  and  C4_12 
REMARK    6  A    between atoms: C4_12  and  O3_14 
REMARK    7  A    between atoms: O3_14  and  O4_15 
REMARK    8  A    between atoms: C6_18  and  N4_19 
REMARK    9  A    between atoms: C7_23  and  O5_24 
REMARK   10  A    between atoms: C8_26  and  O6_27 
REMARK   11  A    between atoms: C8_26  and  C9_29 
REMARK       I    between atoms: C9_29  and  N5_31 
REMARK   12  A    between atoms: N5_31  and  C10_33 
ROOT
HETATM    1  N2  UNL     1     -14.166 -18.978  37.403  1.00  0.00    -0.292 N 
ATOM      2  H2  UNL     1     -13.212 -18.837  37.736  1.00  0.00     0.187 HD
HETATM    3  C1  UNL     1     -14.573 -20.191  37.245  1.00  0.00     0.145 C 
HETATM    4  N3  UNL     1     -13.623 -21.193  37.560  1.00  0.00    -0.341 N 
HETATM    5  C5  UNL     1     -14.176 -22.444  38.124  1.00  0.00     0.165 C 
HETATM    6  C6  UNL     1     -15.502 -22.803  37.554  1.00  0.00     0.234 C 
HETATM    7  C7  UNL     1     -15.969 -21.958  36.414  1.00  0.00     0.202 C 
HETATM    8  C8  UNL     1     -15.950 -20.481  36.766  1.00  0.00     0.226 C 
ENDROOT
BRANCH   8   9
HETATM    9  O6  UNL     1     -16.905 -20.176  37.731  1.00  0.00    -0.371 OA
ATOM     10  H6  UNL     1     -16.992 -20.873  38.370  1.00  0.00     0.211 HD
ENDBRANCH   8   9
BRANCH   8  11
HETATM   11  C9  UNL     1     -16.182 -19.728  35.510  1.00  0.00     0.263 C 
HETATM   12  O7  UNL     1     -15.242 -19.467  34.696  1.00  0.00    -0.270 OA
HETATM   13  N5  UNL     1     -17.476 -19.265  35.157  1.00  0.00    -0.353 N 
ATOM     14  H5  UNL     1     -18.253 -19.459  35.787  1.00  0.00     0.163 HD
BRANCH  13  15
HETATM   15  C10 UNL     1     -17.738 -18.526  33.938  1.00  0.00     0.087 C 
HETATM   16  C11 UNL     1     -18.598 -19.353  33.038  1.00  0.00     0.052 C 
HETATM   17  C12 UNL     1     -19.265 -18.589  31.938  1.00  0.00     0.234 C 
HETATM   18  N6  UNL     1     -19.420 -17.185  32.212  1.00  0.00    -0.075 N 
HETATM   19  C13 UNL     1     -19.692 -17.033  33.617  1.00  0.00     0.234 C 
ATOM     20  H62 UNL     1     -18.621 -16.631  31.904  1.00  0.00     0.277 HD
ATOM     21  H61 UNL     1     -20.127 -16.744  31.624  1.00  0.00     0.277 HD
HETATM   22  C14 UNL     1     -18.357 -17.213  34.331  1.00  0.00     0.052 C 
ENDBRANCH  13  15
ENDBRANCH   8  11
BRANCH   7  23
HETATM   23  O5  UNL     1     -17.237 -22.381  36.043  1.00  0.00    -0.389 OA
ATOM     24  H5  UNL     1     -17.845 -21.663  36.172  1.00  0.00     0.210 HD
ENDBRANCH   7  23
BRANCH   1  25
HETATM   25  N1  UNL     1     -14.941 -17.846  37.150  1.00  0.00    -0.344 N 
ATOM     26  H12 UNL     1     -14.815 -17.397  36.243  1.00  0.00     0.176 HD
ATOM     27  H11 UNL     1     -15.614 -17.450  37.806  1.00  0.00     0.176 HD
ENDBRANCH   1  25
BRANCH   4  28
HETATM   28  C2  UNL     1     -12.229 -21.137  37.409  1.00  0.00     0.107 C 
BRANCH  28  29
HETATM   29  C3  UNL     1     -11.564 -21.600  36.179  1.00  0.00     0.258 C 
BRANCH  29  30
HETATM   30  O1  UNL     1     -10.246 -22.015  36.370  1.00  0.00    -0.380 OA
ATOM     31  H1  UNL     1      -9.876 -22.478  35.628  1.00  0.00     0.211 HD
ENDBRANCH  29  30
BRANCH  29  32
HETATM   32  C4  UNL     1     -11.489 -20.436  35.260  1.00  0.00     0.322 C 
HETATM   33  O2  UNL     1     -11.337 -20.556  34.018  1.00  0.00    -0.259 OA
BRANCH  32  34
HETATM   34  O3  UNL     1     -11.590 -19.161  35.768  1.00  0.00    -0.158 OA
BRANCH  34  35
HETATM   35  O4  UNL     1     -12.443 -18.243  35.279  1.00  0.00    -0.242 OA
ATOM     36  H4  UNL     1     -13.201 -17.933  35.761  1.00  0.00     0.254 HD
ENDBRANCH  34  35
ENDBRANCH  32  34
ENDBRANCH  29  32
ENDBRANCH  28  29
ENDBRANCH   4  28
BRANCH   6  37
HETATM   37  N4  UNL     1     -16.547 -22.882  38.566  1.00  0.00    -0.071 N 
ATOM     38  H43 UNL     1     -16.770 -23.853  38.786  1.00  0.00     0.274 HD
ATOM     39  H42 UNL     1     -16.198 -22.583  39.476  1.00  0.00     0.274 HD
ATOM     40  H41 UNL     1     -17.386 -22.364  38.307  1.00  0.00     0.274 HD
ENDBRANCH   6  37
TORSDOF 12
ENDMDL
MODEL 5
REMARK VINA RESULT: -5.626098506      2.911      5.901
REMARK  12 active torsions:
REMARK  status: ('A' for Active; 'I' for Inactive)
REMARK    1  A    between atoms: N1_1  and  N2_4 
REMARK    2  A    between atoms: N3_7  and  C2_8 
REMARK    3  A    between atoms: C2_8  and  C3_9 
REMARK    4  A    between atoms: C3_9  and  O1_10 
REMARK    5  A    between atoms: C3_9  and  C4_12 
REMARK    6  A    between atoms: C4_12  and  O3_14 
REMARK    7  A    between atoms: O3_14  and  O4_15 
REMARK    8  A    between atoms: C6_18  and  N4_19 
REMARK    9  A    between atoms: C7_23  and  O5_24 
REMARK   10  A    between atoms: C8_26  and  O6_27 
REMARK   11  A    between atoms: C8_26  and  C9_29 
REMARK       I    between atoms: C9_29  and  N5_31 
REMARK   12  A    between atoms: N5_31  and  C10_33 
ROOT
HETATM    1  N2  UNL     1     -14.385 -18.776  36.956  1.00  0.00    -0.292 N 
ATOM      2  H2  UNL     1     -13.452 -18.516  37.276  1.00  0.00     0.187 HD
HETATM    3  C1  UNL     1     -14.640 -20.030  36.802  1.00  0.00     0.145 C 
HETATM    4  N3  UNL     1     -13.568 -20.906  37.102  1.00  0.00    -0.341 N 
HETATM    5  C5  UNL     1     -13.952 -22.216  37.671  1.00  0.00     0.165 C 
HETATM    6  C6  UNL     1     -15.231 -22.738  37.119  1.00  0.00     0.234 C 
HETATM    7  C7  UNL     1     -15.815 -21.958  35.987  1.00  0.00     0.202 C 
HETATM    8  C8  UNL     1     -15.976 -20.489  36.341  1.00  0.00     0.226 C 
ENDROOT
BRANCH   8   9
HETATM    9  O6  UNL     1     -16.948 -20.306  37.320  1.00  0.00    -0.371 OA
ATOM     10  H6  UNL     1     -16.757 -20.808  38.103  1.00  0.00     0.211 HD
ENDBRANCH   8   9
BRANCH   8  11
HETATM   11  C9  UNL     1     -16.318 -19.772  35.089  1.00  0.00     0.263 C 
HETATM   12  O7  UNL     1     -15.450 -19.525  34.195  1.00  0.00    -0.270 OA
HETATM   13  N5  UNL     1     -17.641 -19.328  34.832  1.00  0.00    -0.353 N 
ATOM     14  H5  UNL     1     -18.362 -19.511  35.530  1.00  0.00     0.163 HD
BRANCH  13  15
HETATM   15  C10 UNL     1     -18.010 -18.623  33.621  1.00  0.00     0.087 C 
HETATM   16  C11 UNL     1     -19.122 -19.358  32.945  1.00  0.00     0.052 C 
HETATM   17  C12 UNL     1     -19.859 -18.562  31.915  1.00  0.00     0.234 C 
HETATM   18  N6  UNL     1     -19.768 -17.137  32.102  1.00  0.00    -0.075 N 
HETATM   19  C13 UNL     1     -19.763 -16.872  33.516  1.00  0.00     0.234 C 
ATOM     20  H62 UNL     1     -18.967 -16.727  31.622  1.00  0.00     0.277 HD
ATOM     21  H61 UNL     1     -20.499 -16.627  31.607  1.00  0.00     0.277 HD
HETATM   22  C14 UNL     1     -18.361 -17.213  34.009  1.00  0.00     0.052 C 
ENDBRANCH  13  15
ENDBRANCH   8  11
BRANCH   7  23
HETATM   23  O5  UNL     1     -17.026 -22.536  35.633  1.00  0.00    -0.389 OA
ATOM     24  H5  UNL     1     -16.865 -23.183  34.956  1.00  0.00     0.210 HD
ENDBRANCH   7  23
BRANCH   1  25
HETATM   25  N1  UNL     1     -15.300 -17.750  36.716  1.00  0.00    -0.344 N 
ATOM     26  H12 UNL     1     -15.768 -17.755  35.810  1.00  0.00     0.176 HD
ATOM     27  H11 UNL     1     -15.523 -17.009  37.380  1.00  0.00     0.176 HD
ENDBRANCH   1  25
BRANCH   4  28
HETATM   28  C2  UNL     1     -12.194 -20.676  36.931  1.00  0.00     0.107 C 
BRANCH  28  29
HETATM   29  C3  UNL     1     -11.582 -20.596  35.594  1.00  0.00     0.258 C 
BRANCH  29  30
HETATM   30  O1  UNL     1     -10.400 -21.326  35.469  1.00  0.00    -0.380 OA
ATOM     31  H1  UNL     1      -9.673 -20.970  35.966  1.00  0.00     0.211 HD
ENDBRANCH  29  30
BRANCH  29  32
HETATM   32  C4  UNL     1     -11.203 -19.178  35.373  1.00  0.00     0.322 C 
HETATM   33  O2  UNL     1     -12.050 -18.266  35.190  1.00  0.00    -0.259 OA
BRANCH  32  34
HETATM   34  O3  UNL     1      -9.874 -18.822  35.364  1.00  0.00    -0.158 OA
BRANCH  34  35
HETATM   35  O4  UNL     1      -9.130 -18.796  34.243  1.00  0.00    -0.242 OA
ATOM     36  H4  UNL     1      -8.203 -18.586  34.242  1.00  0.00     0.254 HD
ENDBRANCH  34  35
ENDBRANCH  32  34
ENDBRANCH  29  32
ENDBRANCH  28  29
ENDBRANCH   4  28
BRANCH   6  37
HETATM   37  N4  UNL     1     -16.243 -22.947  38.145  1.00  0.00    -0.071 N 
ATOM     38  H43 UNL     1     -16.556 -23.918  38.158  1.00  0.00     0.274 HD
ATOM     39  H42 UNL     1     -15.835 -22.893  39.078  1.00  0.00     0.274 HD
ATOM     40  H41 UNL     1     -17.034 -22.309  38.054  1.00  0.00     0.274 HD
ENDBRANCH   6  37
TORSDOF 12
ENDMDL
