MODEL 1
REMARK VINA RESULT: -6.469866767      0.000      0.000
REMARK  12 active torsions:
REMARK  status: ('A' for Active; 'I' for Inactive)
REMARK    1  A    between atoms: N1_1  and  N2_4 
REMARK    2  A    between atoms: N2_4  and  N3_5 
REMARK    3  A    between atoms: N3_5  and  C1_7 
REMARK    4  A    between atoms: C1_7  and  C2_8 
REMARK    5  A    between atoms: C2_8  and  N4_9 
REMARK    6  A    between atoms: N5_11  and  C4_13 
REMARK    7  A    between atoms: C5_17  and  C6_18 
REMARK    8  A    between atoms: C6_18  and  O1_19 
REMARK    9  A    between atoms: C7_21  and  O2_22 
REMARK   10  A    between atoms: C8_24  and  O3_25 
REMARK   11  A    between atoms: C9_29  and  N8_30 
REMARK   12  A    between atoms: C12_38  and  N10_39 
ROOT
HETATM    1  N4  UNL     1     -11.983 -20.916  37.521  1.00  0.00    -0.165 N 
HETATM    2  C3  UNL     1     -13.244 -21.372  37.260  1.00  0.00     0.685 A 
HETATM    3  N5  UNL     1     -13.791 -21.006  36.177  1.00  0.00    -0.194 N 
ATOM      4  H5  UNL     1     -13.245 -20.392  35.573  1.00  0.00     0.180 HD
HETATM    5  N7  UNL     1     -13.886 -22.184  38.121  1.00  0.00    -0.176 N 
ATOM      6  H7  UNL     1     -14.826 -22.505  37.892  1.00  0.00     0.186 HD
HETATM    7  C9  UNL     1     -13.320 -22.582  39.274  1.00  0.00     0.134 A 
HETATM    8  C10 UNL     1     -12.048 -22.141  39.569  1.00  0.00     0.122 A 
HETATM    9  C11 UNL     1     -11.439 -22.525  40.732  1.00  0.00     0.277 A 
HETATM   10  O4  UNL     1     -12.056 -23.279  41.515  1.00  0.00    -0.266 OA
HETATM   11  N9  UNL     1     -10.197 -22.069  40.975  1.00  0.00    -0.155 N 
ATOM     12  H9  UNL     1      -9.727 -22.346  41.837  1.00  0.00     0.187 HD
HETATM   13  C12 UNL     1      -9.561 -21.263  40.118  1.00  0.00     0.680 A 
HETATM   14  N11 UNL     1     -10.143 -20.877  38.975  1.00  0.00    -0.175 N 
ATOM     15  H11 UNL     1      -9.645 -20.263  38.332  1.00  0.00     0.186 HD
HETATM   16  C13 UNL     1     -11.377 -21.298  38.677  1.00  0.00     0.158 A 
ENDROOT
BRANCH   1  17
HETATM   17  C2  UNL     1     -11.342 -20.051  36.565  1.00  0.00     0.171 C 
BRANCH  17  18
HETATM   18  C1  UNL     1     -10.614 -20.830  35.488  1.00  0.00     0.176 C 
BRANCH  18  19
HETATM   19  N3  UNL     1     -10.188 -19.964  34.406  1.00  0.00    -0.251 N 
ATOM     20  H3  UNL     1     -10.190 -20.288  33.438  1.00  0.00     0.197 HD
BRANCH  19  21
HETATM   21  N2  UNL     1      -9.822 -18.821  34.697  1.00  0.00    -0.249 NA
BRANCH  21  22
HETATM   22  N1  UNL     1      -9.454 -17.662  34.844  1.00  0.00    -0.261 N 
ATOM     23  H12 UNL     1      -8.644 -17.965  34.302  1.00  0.00     0.193 HD
ATOM     24  H11 UNL     1      -9.248 -16.680  35.028  1.00  0.00     0.193 HD
ENDBRANCH  21  22
ENDBRANCH  19  21
ENDBRANCH  18  19
ENDBRANCH  17  18
ENDBRANCH   1  17
BRANCH   3  25
HETATM   25  C4  UNL     1     -15.092 -21.366  35.718  1.00  0.00     0.331 C 
HETATM   26  N6  UNL     1     -15.020 -22.070  34.428  1.00  0.00    -0.042 N 
HETATM   27  C5  UNL     1     -16.361 -21.979  33.882  1.00  0.00     0.242 C 
ATOM     28  H62 UNL     1     -14.294 -21.719  33.804  1.00  0.00     0.280 HD
ATOM     29  H61 UNL     1     -14.664 -23.024  34.495  1.00  0.00     0.280 HD
HETATM   30  C7  UNL     1     -16.900 -20.676  34.378  1.00  0.00     0.183 C 
HETATM   31  C8  UNL     1     -15.850 -20.118  35.310  1.00  0.00     0.199 C 
BRANCH  27  32
HETATM   32  C6  UNL     1     -16.251 -22.067  32.389  1.00  0.00     0.199 C 
BRANCH  32  33
HETATM   33  O1  UNL     1     -15.040 -21.529  31.949  1.00  0.00    -0.399 OA
ATOM     34  H1  UNL     1     -15.078 -21.325  31.021  1.00  0.00     0.209 HD
ENDBRANCH  32  33
ENDBRANCH  27  32
BRANCH  30  35
HETATM   35  O2  UNL     1     -17.191 -19.819  33.332  1.00  0.00    -0.391 OA
ATOM     36  H2  UNL     1     -17.575 -19.009  33.645  1.00  0.00     0.210 HD
ENDBRANCH  30  35
BRANCH  31  37
HETATM   37  O3  UNL     1     -15.004 -19.224  34.658  1.00  0.00    -0.389 OA
ATOM     38  H3  UNL     1     -15.456 -18.407  34.482  1.00  0.00     0.210 HD
ENDBRANCH  31  37
ENDBRANCH   3  25
BRANCH   7  39
HETATM   39  N8  UNL     1     -13.896 -23.357  40.127  1.00  0.00    -0.384 N 
ATOM     40  H82 UNL     1     -14.884 -23.567  39.984  1.00  0.00     0.157 HD
ATOM     41  H81 UNL     1     -13.423 -23.769  40.932  1.00  0.00     0.157 HD
ENDBRANCH   7  39
BRANCH  13  42
HETATM   42  N10 UNL     1      -8.358 -20.874  40.446  1.00  0.00    -0.234 N 
ATOM     43 2H10 UNL     1      -7.815 -21.350  41.166  1.00  0.00     0.174 HD
ATOM     44 1H10 UNL     1      -7.977 -20.070  39.949  1.00  0.00     0.174 HD
ENDBRANCH  13  42
TORSDOF 12
ENDMDL
MODEL 2
REMARK VINA RESULT: -6.189897910      3.895      7.754
REMARK  12 active torsions:
REMARK  status: ('A' for Active; 'I' for Inactive)
REMARK    1  A    between atoms: N1_1  and  N2_4 
REMARK    2  A    between atoms: N2_4  and  N3_5 
REMARK    3  A    between atoms: N3_5  and  C1_7 
REMARK    4  A    between atoms: C1_7  and  C2_8 
REMARK    5  A    between atoms: C2_8  and  N4_9 
REMARK    6  A    between atoms: N5_11  and  C4_13 
REMARK    7  A    between atoms: C5_17  and  C6_18 
REMARK    8  A    between atoms: C6_18  and  O1_19 
REMARK    9  A    between atoms: C7_21  and  O2_22 
REMARK   10  A    between atoms: C8_24  and  O3_25 
REMARK   11  A    between atoms: C9_29  and  N8_30 
REMARK   12  A    between atoms: C12_38  and  N10_39 
ROOT
HETATM    1  N4  UNL     1     -16.231 -20.071  35.184  1.00  0.00    -0.165 N 
HETATM    2  C3  UNL     1     -15.131 -19.451  35.706  1.00  0.00     0.685 A 
HETATM    3  N5  UNL     1     -14.030 -20.079  35.672  1.00  0.00    -0.194 N 
ATOM      4  H5  UNL     1     -14.045 -21.009  35.253  1.00  0.00     0.180 HD
HETATM    5  N7  UNL     1     -15.210 -18.218  36.238  1.00  0.00    -0.176 N 
ATOM      6  H7  UNL     1     -14.367 -17.787  36.618  1.00  0.00     0.186 HD
HETATM    7  C9  UNL     1     -16.369 -17.539  36.281  1.00  0.00     0.134 A 
HETATM    8  C10 UNL     1     -17.499 -18.133  35.763  1.00  0.00     0.122 A 
HETATM    9  C11 UNL     1     -18.697 -17.473  35.789  1.00  0.00     0.277 A 
HETATM   10  O4  UNL     1     -18.744 -16.328  36.288  1.00  0.00    -0.266 OA
HETATM   11  N9  UNL     1     -19.772 -18.094  35.270  1.00  0.00    -0.155 N 
ATOM     12  H9  UNL     1     -20.673 -17.617  35.279  1.00  0.00     0.187 HD
HETATM   13  C12 UNL     1     -19.691 -19.319  34.741  1.00  0.00     0.680 A 
HETATM   14  N11 UNL     1     -18.526 -19.980  34.709  1.00  0.00    -0.175 N 
ATOM     15  H11 UNL     1     -18.481 -20.914  34.302  1.00  0.00     0.186 HD
HETATM   16  C13 UNL     1     -17.422 -19.415  35.209  1.00  0.00     0.158 A 
ENDROOT
BRANCH   1  17
HETATM   17  C2  UNL     1     -16.090 -21.391  34.626  1.00  0.00     0.171 C 
BRANCH  17  18
HETATM   18  C1  UNL     1     -15.887 -21.357  33.125  1.00  0.00     0.176 C 
BRANCH  18  19
HETATM   19  N3  UNL     1     -16.667 -22.385  32.462  1.00  0.00    -0.251 N 
ATOM     20  H3  UNL     1     -16.308 -22.874  31.642  1.00  0.00     0.197 HD
BRANCH  19  21
HETATM   21  N2  UNL     1     -17.782 -22.645  32.926  1.00  0.00    -0.249 NA
BRANCH  21  22
HETATM   22  N1  UNL     1     -18.920 -22.956  33.255  1.00  0.00    -0.261 N 
ATOM     23  H12 UNL     1     -19.029 -21.956  33.422  1.00  0.00     0.193 HD
ATOM     24  H11 UNL     1     -19.836 -23.329  33.504  1.00  0.00     0.193 HD
ENDBRANCH  21  22
ENDBRANCH  19  21
ENDBRANCH  18  19
ENDBRANCH  17  18
ENDBRANCH   1  17
BRANCH   3  25
HETATM   25  C4  UNL     1     -12.773 -19.616  36.161  1.00  0.00     0.331 C 
HETATM   26  N6  UNL     1     -12.426 -18.314  35.571  1.00  0.00    -0.042 N 
HETATM   27  C5  UNL     1     -10.997 -18.180  35.786  1.00  0.00     0.242 C 
ATOM     28  H62 UNL     1     -12.709 -18.210  34.597  1.00  0.00     0.280 HD
ATOM     29  H61 UNL     1     -12.975 -17.534  35.935  1.00  0.00     0.280 HD
HETATM   30  C7  UNL     1     -10.459 -19.573  35.732  1.00  0.00     0.183 C 
HETATM   31  C8  UNL     1     -11.660 -20.480  35.599  1.00  0.00     0.199 C 
BRANCH  27  32
HETATM   32  C6  UNL     1     -10.460 -17.274  34.718  1.00  0.00     0.199 C 
BRANCH  32  33
HETATM   33  O1  UNL     1     -11.099 -17.510  33.500  1.00  0.00    -0.399 OA
ATOM     34  H1  UNL     1     -11.529 -16.723  33.186  1.00  0.00     0.209 HD
ENDBRANCH  32  33
ENDBRANCH  27  32
BRANCH  30  35
HETATM   35  O2  UNL     1      -9.561 -19.727  34.692  1.00  0.00    -0.391 OA
ATOM     36  H2  UNL     1      -9.233 -18.888  34.389  1.00  0.00     0.210 HD
ENDBRANCH  30  35
BRANCH  31  37
HETATM   37  O3  UNL     1     -11.918 -20.804  34.269  1.00  0.00    -0.389 OA
ATOM     38  H3  UNL     1     -12.085 -21.735  34.180  1.00  0.00     0.210 HD
ENDBRANCH  31  37
ENDBRANCH   3  25
BRANCH   7  39
HETATM   39  N8  UNL     1     -16.492 -16.357  36.781  1.00  0.00    -0.384 N 
ATOM     40  H82 UNL     1     -15.643 -15.887  37.098  1.00  0.00     0.157 HD
ATOM     41  H81 UNL     1     -17.383 -15.870  36.877  1.00  0.00     0.157 HD
ENDBRANCH   7  39
BRANCH  13  42
HETATM   42  N10 UNL     1     -20.791 -19.837  34.263  1.00  0.00    -0.234 N 
ATOM     43 2H10 UNL     1     -21.518 -19.261  33.839  1.00  0.00     0.174 HD
ATOM     44 1H10 UNL     1     -20.898 -20.849  34.331  1.00  0.00     0.174 HD
ENDBRANCH  13  42
TORSDOF 12
ENDMDL
MODEL 3
REMARK VINA RESULT: -6.167137569      3.882      8.701
REMARK  12 active torsions:
REMARK  status: ('A' for Active; 'I' for Inactive)
REMARK    1  A    between atoms: N1_1  and  N2_4 
REMARK    2  A    between atoms: N2_4  and  N3_5 
REMARK    3  A    between atoms: N3_5  and  C1_7 
REMARK    4  A    between atoms: C1_7  and  C2_8 
REMARK    5  A    between atoms: C2_8  and  N4_9 
REMARK    6  A    between atoms: N5_11  and  C4_13 
REMARK    7  A    between atoms: C5_17  and  C6_18 
REMARK    8  A    between atoms: C6_18  and  O1_19 
REMARK    9  A    between atoms: C7_21  and  O2_22 
REMARK   10  A    between atoms: C8_24  and  O3_25 
REMARK   11  A    between atoms: C9_29  and  N8_30 
REMARK   12  A    between atoms: C12_38  and  N10_39 
ROOT
HETATM    1  N4  UNL     1     -18.450 -20.338  34.190  1.00  0.00    -0.165 N 
HETATM    2  C3  UNL     1     -17.427 -19.752  34.881  1.00  0.00     0.685 A 
HETATM    3  N5  UNL     1     -16.674 -20.505  35.570  1.00  0.00    -0.194 N 
ATOM      4  H5  UNL     1     -16.888 -21.502  35.558  1.00  0.00     0.180 HD
HETATM    5  N7  UNL     1     -17.222 -18.423  34.833  1.00  0.00    -0.176 N 
ATOM      6  H7  UNL     1     -16.448 -18.021  35.361  1.00  0.00     0.186 HD
HETATM    7  C9  UNL     1     -18.011 -17.611  34.107  1.00  0.00     0.134 A 
HETATM    8  C10 UNL     1     -19.052 -18.169  33.397  1.00  0.00     0.122 A 
HETATM    9  C11 UNL     1     -19.876 -17.375  32.648  1.00  0.00     0.277 A 
HETATM   10  O4  UNL     1     -19.665 -16.143  32.619  1.00  0.00    -0.266 OA
HETATM   11  N9  UNL     1     -20.878 -17.966  31.972  1.00  0.00    -0.155 N 
ATOM     12  H9  UNL     1     -21.501 -17.390  31.406  1.00  0.00     0.187 HD
HETATM   13  C12 UNL     1     -21.079 -19.286  32.020  1.00  0.00     0.680 A 
HETATM   14  N11 UNL     1     -20.282 -20.078  32.750  1.00  0.00    -0.175 N 
ATOM     15  H11 UNL     1     -20.449 -21.083  32.777  1.00  0.00     0.186 HD
HETATM   16  C13 UNL     1     -19.269 -19.550  33.444  1.00  0.00     0.158 A 
ENDROOT
BRANCH   1  17
HETATM   17  C2  UNL     1     -18.623 -21.765  34.276  1.00  0.00     0.171 C 
BRANCH  17  18
HETATM   18  C1  UNL     1     -18.212 -22.468  32.998  1.00  0.00     0.176 C 
BRANCH  18  19
HETATM   19  N3  UNL     1     -16.925 -21.995  32.524  1.00  0.00    -0.251 N 
ATOM     20  H3  UNL     1     -16.857 -21.348  31.738  1.00  0.00     0.197 HD
BRANCH  19  21
HETATM   21  N2  UNL     1     -15.916 -22.404  33.106  1.00  0.00    -0.249 NA
BRANCH  21  22
HETATM   22  N1  UNL     1     -14.839 -22.720  33.598  1.00  0.00    -0.261 N 
ATOM     23  H12 UNL     1     -14.807 -23.389  32.828  1.00  0.00     0.193 HD
ATOM     24  H11 UNL     1     -13.964 -22.899  34.090  1.00  0.00     0.193 HD
ENDBRANCH  21  22
ENDBRANCH  19  21
ENDBRANCH  18  19
ENDBRANCH  17  18
ENDBRANCH   1  17
BRANCH   3  25
HETATM   25  C4  UNL     1     -15.559 -20.098  36.359  1.00  0.00     0.331 C 
HETATM   26  N6  UNL     1     -14.391 -19.807  35.512  1.00  0.00    -0.042 N 
HETATM   27  C5  UNL     1     -13.259 -19.846  36.417  1.00  0.00     0.242 C 
ATOM     28  H62 UNL     1     -14.299 -20.426  34.707  1.00  0.00     0.280 HD
ATOM     29  H61 UNL     1     -14.469 -18.939  34.981  1.00  0.00     0.280 HD
HETATM   30  C7  UNL     1     -13.620 -20.857  37.457  1.00  0.00     0.183 C 
HETATM   31  C8  UNL     1     -15.038 -21.280  37.152  1.00  0.00     0.199 C 
BRANCH  27  32
HETATM   32  C6  UNL     1     -12.044 -20.203  35.612  1.00  0.00     0.199 C 
BRANCH  32  33
HETATM   33  O1  UNL     1     -12.393 -20.985  34.509  1.00  0.00    -0.399 OA
ATOM     34  H1  UNL     1     -12.998 -21.673  34.761  1.00  0.00     0.209 HD
ENDBRANCH  32  33
ENDBRANCH  27  32
BRANCH  30  35
HETATM   35  O2  UNL     1     -12.737 -21.921  37.453  1.00  0.00    -0.391 OA
ATOM     36  H2  UNL     1     -13.138 -22.706  37.808  1.00  0.00     0.210 HD
ENDBRANCH  30  35
BRANCH  31  37
HETATM   37  O3  UNL     1     -15.076 -22.440  36.380  1.00  0.00    -0.389 OA
ATOM     38  H3  UNL     1     -15.332 -23.184  36.912  1.00  0.00     0.210 HD
ENDBRANCH  31  37
ENDBRANCH   3  25
BRANCH   7  39
HETATM   39  N8  UNL     1     -17.853 -16.334  34.032  1.00  0.00    -0.384 N 
ATOM     40  H82 UNL     1     -18.008 -15.788  34.880  1.00  0.00     0.157 HD
ATOM     41  H81 UNL     1     -17.584 -15.844  33.179  1.00  0.00     0.157 HD
ENDBRANCH   7  39
BRANCH  13  42
HETATM   42  N10 UNL     1     -22.080 -19.763  31.329  1.00  0.00    -0.234 N 
ATOM     43 2H10 UNL     1     -22.358 -19.360  30.435  1.00  0.00     0.174 HD
ATOM     44 1H10 UNL     1     -22.578 -20.562  31.720  1.00  0.00     0.174 HD
ENDBRANCH  13  42
TORSDOF 12
ENDMDL
MODEL 4
REMARK VINA RESULT: -6.134596369      3.606      6.883
REMARK  12 active torsions:
REMARK  status: ('A' for Active; 'I' for Inactive)
REMARK    1  A    between atoms: N1_1  and  N2_4 
REMARK    2  A    between atoms: N2_4  and  N3_5 
REMARK    3  A    between atoms: N3_5  and  C1_7 
REMARK    4  A    between atoms: C1_7  and  C2_8 
REMARK    5  A    between atoms: C2_8  and  N4_9 
REMARK    6  A    between atoms: N5_11  and  C4_13 
REMARK    7  A    between atoms: C5_17  and  C6_18 
REMARK    8  A    between atoms: C6_18  and  O1_19 
REMARK    9  A    between atoms: C7_21  and  O2_22 
REMARK   10  A    between atoms: C8_24  and  O3_25 
REMARK   11  A    between atoms: C9_29  and  N8_30 
REMARK   12  A    between atoms: C12_38  and  N10_39 
ROOT
HETATM    1  N4  UNL     1     -16.331 -20.962  35.297  1.00  0.00    -0.165 N 
HETATM    2  C3  UNL     1     -15.198 -20.709  36.019  1.00  0.00     0.685 A 
HETATM    3  N5  UNL     1     -14.299 -20.001  35.473  1.00  0.00    -0.194 N 
ATOM      4  H5  UNL     1     -14.487 -19.669  34.528  1.00  0.00     0.180 HD
HETATM    5  N7  UNL     1     -15.041 -21.191  37.265  1.00  0.00    -0.176 N 
ATOM      6  H7  UNL     1     -14.183 -20.980  37.774  1.00  0.00     0.186 HD
HETATM    7  C9  UNL     1     -15.986 -21.942  37.858  1.00  0.00     0.134 A 
HETATM    8  C10 UNL     1     -17.141 -22.217  37.159  1.00  0.00     0.122 A 
HETATM    9  C11 UNL     1     -18.125 -22.978  37.728  1.00  0.00     0.277 A 
HETATM   10  O4  UNL     1     -17.955 -23.414  38.888  1.00  0.00    -0.266 OA
HETATM   11  N9  UNL     1     -19.235 -23.218  37.007  1.00  0.00    -0.155 N 
ATOM     12  H9  UNL     1     -19.979 -23.783  37.417  1.00  0.00     0.187 HD
HETATM   13  C12 UNL     1     -19.389 -22.738  35.769  1.00  0.00     0.680 A 
HETATM   14  N11 UNL     1     -18.435 -21.992  35.196  1.00  0.00    -0.175 N 
ATOM     15  H11 UNL     1     -18.568 -21.633  34.252  1.00  0.00     0.186 HD
HETATM   16  C13 UNL     1     -17.309 -21.718  35.863  1.00  0.00     0.158 A 
ENDROOT
BRANCH   1  17
HETATM   17  C2  UNL     1     -16.448 -20.420  33.968  1.00  0.00     0.171 C 
BRANCH  17  18
HETATM   18  C1  UNL     1     -17.444 -19.281  33.901  1.00  0.00     0.176 C 
BRANCH  18  19
HETATM   19  N3  UNL     1     -17.374 -18.591  32.628  1.00  0.00    -0.251 N 
ATOM     20  H3  UNL     1     -16.478 -18.389  32.184  1.00  0.00     0.197 HD
BRANCH  19  21
HETATM   21  N2  UNL     1     -18.439 -18.256  32.100  1.00  0.00    -0.249 NA
BRANCH  21  22
HETATM   22  N1  UNL     1     -19.424 -17.808  31.525  1.00  0.00    -0.261 N 
ATOM     23  H12 UNL     1     -19.908 -18.065  32.386  1.00  0.00     0.193 HD
ATOM     24  H11 UNL     1     -20.171 -17.413  30.954  1.00  0.00     0.193 HD
ENDBRANCH  21  22
ENDBRANCH  19  21
ENDBRANCH  18  19
ENDBRANCH  17  18
ENDBRANCH   1  17
BRANCH   3  25
HETATM   25  C4  UNL     1     -13.051 -19.623  36.049  1.00  0.00     0.331 C 
HETATM   26  N6  UNL     1     -12.601 -18.322  35.529  1.00  0.00    -0.042 N 
HETATM   27  C5  UNL     1     -11.183 -18.273  35.829  1.00  0.00     0.242 C 
ATOM     28  H62 UNL     1     -12.821 -18.172  34.544  1.00  0.00     0.280 HD
ATOM     29  H61 UNL     1     -13.130 -17.527  35.888  1.00  0.00     0.280 HD
HETATM   30  C7  UNL     1     -10.716 -19.690  35.756  1.00  0.00     0.183 C 
HETATM   31  C8  UNL     1     -11.953 -20.526  35.522  1.00  0.00     0.199 C 
BRANCH  27  32
HETATM   32  C6  UNL     1     -10.537 -17.363  34.827  1.00  0.00     0.199 C 
BRANCH  32  33
HETATM   33  O1  UNL     1     -11.084 -17.555  33.558  1.00  0.00    -0.399 OA
ATOM     34  H1  UNL     1     -10.504 -17.219  32.885  1.00  0.00     0.209 HD
ENDBRANCH  32  33
ENDBRANCH  27  32
BRANCH  30  35
HETATM   35  O2  UNL     1      -9.768 -19.858  34.764  1.00  0.00    -0.391 OA
ATOM     36  H2  UNL     1     -10.050 -20.495  34.118  1.00  0.00     0.210 HD
ENDBRANCH  30  35
BRANCH  31  37
HETATM   37  O3  UNL     1     -12.148 -20.792  34.168  1.00  0.00    -0.389 OA
ATOM     38  H3  UNL     1     -11.887 -20.045  33.642  1.00  0.00     0.210 HD
ENDBRANCH  31  37
ENDBRANCH   3  25
BRANCH   7  39
HETATM   39  N8  UNL     1     -15.878 -22.425  39.048  1.00  0.00    -0.384 N 
ATOM     40  H82 UNL     1     -15.003 -22.264  39.546  1.00  0.00     0.157 HD
ATOM     41  H81 UNL     1     -16.614 -22.955  39.515  1.00  0.00     0.157 HD
ENDBRANCH   7  39
BRANCH  13  42
HETATM   42  N10 UNL     1     -20.503 -23.028  35.151  1.00  0.00    -0.234 N 
ATOM     43 2H10 UNL     1     -20.586 -23.843  34.544  1.00  0.00     0.174 HD
ATOM     44 1H10 UNL     1     -21.295 -22.403  35.300  1.00  0.00     0.174 HD
ENDBRANCH  13  42
TORSDOF 12
ENDMDL
MODEL 5
REMARK VINA RESULT: -6.121367101      3.990      6.472
REMARK  12 active torsions:
REMARK  status: ('A' for Active; 'I' for Inactive)
REMARK    1  A    between atoms: N1_1  and  N2_4 
REMARK    2  A    between atoms: N2_4  and  N3_5 
REMARK    3  A    between atoms: N3_5  and  C1_7 
REMARK    4  A    between atoms: C1_7  and  C2_8 
REMARK    5  A    between atoms: C2_8  and  N4_9 
REMARK    6  A    between atoms: N5_11  and  C4_13 
REMARK    7  A    between atoms: C5_17  and  C6_18 
REMARK    8  A    between atoms: C6_18  and  O1_19 
REMARK    9  A    between atoms: C7_21  and  O2_22 
REMARK   10  A    between atoms: C8_24  and  O3_25 
REMARK   11  A    between atoms: C9_29  and  N8_30 
REMARK   12  A    between atoms: C12_38  and  N10_39 
ROOT
HETATM    1  N4  UNL     1     -16.224 -19.734  37.367  1.00  0.00    -0.165 N 
HETATM    2  C3  UNL     1     -14.880 -19.530  37.509  1.00  0.00     0.685 A 
HETATM    3  N5  UNL     1     -14.117 -19.982  36.603  1.00  0.00    -0.194 N 
ATOM      4  H5  UNL     1     -14.565 -20.469  35.827  1.00  0.00     0.180 HD
HETATM    5  N7  UNL     1     -14.380 -18.873  38.572  1.00  0.00    -0.176 N 
ATOM      6  H7  UNL     1     -13.372 -18.739  38.644  1.00  0.00     0.186 HD
HETATM    7  C9  UNL     1     -15.176 -18.387  39.541  1.00  0.00     0.134 A 
HETATM    8  C10 UNL     1     -16.537 -18.574  39.430  1.00  0.00     0.122 A 
HETATM    9  C11 UNL     1     -17.378 -18.094  40.395  1.00  0.00     0.277 A 
HETATM   10  O4  UNL     1     -16.891 -17.487  41.373  1.00  0.00    -0.266 OA
HETATM   11  N9  UNL     1     -18.699 -18.301  40.242  1.00  0.00    -0.155 N 
ATOM     12  H9  UNL     1     -19.341 -17.949  40.952  1.00  0.00     0.187 HD
HETATM   13  C12 UNL     1     -19.192 -18.953  39.185  1.00  0.00     0.680 A 
HETATM   14  N11 UNL     1     -18.382 -19.430  38.231  1.00  0.00    -0.175 N 
ATOM     15  H11 UNL     1     -18.774 -19.926  37.431  1.00  0.00     0.186 HD
HETATM   16  C13 UNL     1     -17.060 -19.257  38.327  1.00  0.00     0.158 A 
ENDROOT
BRANCH   1  17
HETATM   17  C2  UNL     1     -16.704 -20.443  36.209  1.00  0.00     0.171 C 
BRANCH  17  18
HETATM   18  C1  UNL     1     -17.148 -19.502  35.108  1.00  0.00     0.176 C 
BRANCH  18  19
HETATM   19  N3  UNL     1     -16.237 -19.539  33.980  1.00  0.00    -0.251 N 
ATOM     20  H3  UNL     1     -15.987 -18.689  33.475  1.00  0.00     0.197 HD
BRANCH  19  21
HETATM   21  N2  UNL     1     -15.775 -20.637  33.654  1.00  0.00    -0.249 NA
BRANCH  21  22
HETATM   22  N1  UNL     1     -15.393 -21.712  33.208  1.00  0.00    -0.261 N 
ATOM     23  H12 UNL     1     -15.779 -22.086  34.075  1.00  0.00     0.193 HD
ATOM     24  H11 UNL     1     -15.036 -22.546  32.741  1.00  0.00     0.193 HD
ENDBRANCH  21  22
ENDBRANCH  19  21
ENDBRANCH  18  19
ENDBRANCH  17  18
ENDBRANCH   1  17
BRANCH   3  25
HETATM   25  C4  UNL     1     -12.695 -19.878  36.560  1.00  0.00     0.331 C 
HETATM   26  N6  UNL     1     -12.277 -18.612  35.939  1.00  0.00    -0.042 N 
HETATM   27  C5  UNL     1     -10.893 -18.824  35.562  1.00  0.00     0.242 C 
ATOM     28  H62 UNL     1     -12.874 -18.311  35.169  1.00  0.00     0.280 HD
ATOM     29  H61 UNL     1     -12.426 -17.792  36.527  1.00  0.00     0.280 HD
HETATM   30  C7  UNL     1     -10.792 -20.279  35.233  1.00  0.00     0.183 C 
HETATM   31  C8  UNL     1     -12.143 -20.874  35.559  1.00  0.00     0.199 C 
BRANCH  27  32
HETATM   32  C6  UNL     1     -10.590 -17.914  34.409  1.00  0.00     0.199 C 
BRANCH  32  33
HETATM   33  O1  UNL     1      -9.212 -17.750  34.255  1.00  0.00    -0.399 OA
ATOM     34  H1  UNL     1      -8.914 -16.965  34.701  1.00  0.00     0.209 HD
ENDBRANCH  32  33
ENDBRANCH  27  32
BRANCH  30  35
HETATM   35  O2  UNL     1     -10.432 -20.474  33.913  1.00  0.00    -0.391 OA
ATOM     36  H2  UNL     1     -10.458 -21.394  33.678  1.00  0.00     0.210 HD
ENDBRANCH  30  35
BRANCH  31  37
HETATM   37  O3  UNL     1     -12.963 -20.940  34.434  1.00  0.00    -0.389 OA
ATOM     38  H3  UNL     1     -12.653 -21.611  33.837  1.00  0.00     0.210 HD
ENDBRANCH  31  37
ENDBRANCH   3  25
BRANCH   7  39
HETATM   39  N8  UNL     1     -14.743 -17.752  40.576  1.00  0.00    -0.384 N 
ATOM     40  H82 UNL     1     -14.874 -18.191  41.488  1.00  0.00     0.157 HD
ATOM     41  H81 UNL     1     -14.282 -16.844  40.534  1.00  0.00     0.157 HD
ENDBRANCH   7  39
BRANCH  13  42
HETATM   42  N10 UNL     1     -20.489 -19.103  39.128  1.00  0.00    -0.234 N 
ATOM     43 2H10 UNL     1     -21.123 -18.305  39.110  1.00  0.00     0.174 HD
ATOM     44 1H10 UNL     1     -20.847 -20.057  39.102  1.00  0.00     0.174 HD
ENDBRANCH  13  42
TORSDOF 12
ENDMDL
