MODEL 1
REMARK VINA RESULT: -6.473406514      0.000      0.000
REMARK  12 active torsions:
REMARK  status: ('A' for Active; 'I' for Inactive)
REMARK    1  A    between atoms: N1_1  and  C1_4 
REMARK    2  A    between atoms: C2_7  and  N3_8 
REMARK    3  A    between atoms: N3_8  and  O1_10 
REMARK    4  A    between atoms: C3_14  and  N5_15 
REMARK       I    between atoms: N5_15  and  C4_17 
REMARK    5  A    between atoms: C4_17  and  C5_19 
REMARK    6  A    between atoms: N8_24  and  C7_25 
REMARK    7  A    between atoms: C7_25  and  C8_26 
REMARK    8  A    between atoms: C8_26  and  N9_27 
REMARK    9  A    between atoms: C10_32  and  O3_33 
REMARK   10  A    between atoms: C11_35  and  C12_36 
REMARK   11  A    between atoms: C12_36  and  O4_37 
REMARK   12  A    between atoms: O4_37  and  N10_38 
ROOT
HETATM    1  C5  UNL     1     -15.515 -19.686  36.660  1.00  0.00     0.185 C 
HETATM    2  N6  UNL     1     -15.211 -20.258  35.334  1.00  0.00    -0.351 N 
ATOM      3  H6  UNL     1     -14.239 -20.418  35.069  1.00  0.00     0.163 HD
HETATM    4  C6  UNL     1     -16.167 -20.564  34.489  1.00  0.00     0.187 C 
HETATM    5  N7  UNL     1     -15.739 -21.112  33.234  1.00  0.00    -0.064 NA
HETATM    6  N8  UNL     1     -17.580 -20.428  34.644  1.00  0.00    -0.352 N 
HETATM    7  C9  UNL     1     -18.250 -20.116  35.889  1.00  0.00     0.157 C 
HETATM    8  C10 UNL     1     -17.864 -18.827  36.512  1.00  0.00     0.144 C 
HETATM    9  C11 UNL     1     -16.372 -18.510  36.425  1.00  0.00     0.074 C 
ENDROOT
BRANCH   1  10
HETATM   10  C4  UNL     1     -14.288 -19.516  37.414  1.00  0.00     0.259 C 
HETATM   11  N5  UNL     1     -13.147 -18.952  36.782  1.00  0.00    -0.157 N 
ATOM     12  H5  UNL     1     -13.157 -17.943  36.630  1.00  0.00     0.187 HD
HETATM   13  O2  UNL     1     -14.155 -19.841  38.622  1.00  0.00    -0.270 OA
BRANCH  11  14
HETATM   14  C3  UNL     1     -12.120 -19.579  36.388  1.00  0.00     0.714 A 
HETATM   15  N4  UNL     1     -11.296 -18.924  35.529  1.00  0.00    -0.019 N 
HETATM   16  C2  UNL     1     -10.188 -19.493  35.055  1.00  0.00     0.731 A 
ATOM     17  H4  UNL     1     -11.531 -17.974  35.241  1.00  0.00     0.203 HD
HETATM   18  N2  UNL     1      -9.852 -20.734  35.409  1.00  0.00    -0.020 N 
HETATM   19  C1  UNL     1     -10.647 -21.405  36.255  1.00  0.00     0.705 A 
ATOM     20  H2  UNL     1      -9.004 -21.166  35.042  1.00  0.00     0.203 HD
HETATM   21  N11 UNL     1     -11.764 -20.826  36.731  1.00  0.00    -0.021 N 
ATOM     22  H11 UNL     1     -12.358 -21.351  37.373  1.00  0.00     0.203 HD
BRANCH  16  23
HETATM   23  N3  UNL     1      -9.418 -18.853  34.240  1.00  0.00    -0.098 N 
ATOM     24  H3  UNL     1      -8.803 -19.368  33.609  1.00  0.00     0.213 HD
BRANCH  23  25
HETATM   25  O1  UNL     1      -9.425 -17.494  34.223  1.00  0.00    -0.276 OA
ATOM     26  H1  UNL     1      -8.649 -17.018  33.953  1.00  0.00     0.245 HD
ENDBRANCH  23  25
ENDBRANCH  16  23
BRANCH  19  27
HETATM   27  N1  UNL     1     -10.283 -22.604  36.570  1.00  0.00    -0.234 N 
ATOM     28  H12 UNL     1      -9.560 -22.804  37.261  1.00  0.00     0.174 HD
ATOM     29  H11 UNL     1     -10.758 -23.370  36.092  1.00  0.00     0.174 HD
ENDBRANCH  19  27
ENDBRANCH  11  14
ENDBRANCH   1  10
BRANCH   9  30
HETATM   30  C12 UNL     1     -16.135 -17.295  37.252  1.00  0.00     0.210 C 
BRANCH  30  31
HETATM   31  O4  UNL     1     -16.353 -16.102  36.536  1.00  0.00    -0.287 OA
BRANCH  31  32
HETATM   32  N10 UNL     1     -17.249 -15.319  37.182  1.00  0.00    -0.311 N 
ATOM     33 2H10 UNL     1     -18.050 -15.679  37.702  1.00  0.00     0.184 HD
ATOM     34 1H10 UNL     1     -17.005 -14.334  37.072  1.00  0.00     0.184 HD
ENDBRANCH  31  32
ENDBRANCH  30  31
ENDBRANCH   9  30
BRANCH   8  35
HETATM   35  O3  UNL     1     -18.532 -17.773  35.848  1.00  0.00    -0.393 OA
ATOM     36  H3  UNL     1     -18.703 -17.073  36.467  1.00  0.00     0.210 HD
ENDBRANCH   8  35
BRANCH   6  37
HETATM   37  C7  UNL     1     -18.414 -20.620  33.463  1.00  0.00     0.152 C 
BRANCH  37  38
HETATM   38  C8  UNL     1     -18.806 -19.309  32.840  1.00  0.00     0.249 C 
BRANCH  38  39
HETATM   39  N9  UNL     1     -17.679 -18.405  32.712  1.00  0.00    -0.078 N 
ATOM     40  H93 UNL     1     -16.841 -18.796  33.143  1.00  0.00     0.274 HD
ATOM     41  H92 UNL     1     -17.356 -18.352  31.747  1.00  0.00     0.274 HD
ATOM     42  H91 UNL     1     -17.886 -17.478  33.083  1.00  0.00     0.274 HD
ENDBRANCH  38  39
ENDBRANCH  37  38
ENDBRANCH   6  37
TORSDOF 12
ENDMDL
MODEL 2
REMARK VINA RESULT: -6.452607336      1.893      3.124
REMARK  12 active torsions:
REMARK  status: ('A' for Active; 'I' for Inactive)
REMARK    1  A    between atoms: N1_1  and  C1_4 
REMARK    2  A    between atoms: C2_7  and  N3_8 
REMARK    3  A    between atoms: N3_8  and  O1_10 
REMARK    4  A    between atoms: C3_14  and  N5_15 
REMARK       I    between atoms: N5_15  and  C4_17 
REMARK    5  A    between atoms: C4_17  and  C5_19 
REMARK    6  A    between atoms: N8_24  and  C7_25 
REMARK    7  A    between atoms: C7_25  and  C8_26 
REMARK    8  A    between atoms: C8_26  and  N9_27 
REMARK    9  A    between atoms: C10_32  and  O3_33 
REMARK   10  A    between atoms: C11_35  and  C12_36 
REMARK   11  A    between atoms: C12_36  and  O4_37 
REMARK   12  A    between atoms: O4_37  and  N10_38 
ROOT
HETATM    1  C5  UNL     1     -15.780 -19.776  35.444  1.00  0.00     0.185 C 
HETATM    2  N6  UNL     1     -17.039 -19.136  35.872  1.00  0.00    -0.351 N 
ATOM      3  H6  UNL     1     -17.094 -18.708  36.796  1.00  0.00     0.163 HD
HETATM    4  C6  UNL     1     -18.089 -19.107  35.085  1.00  0.00     0.187 C 
HETATM    5  N7  UNL     1     -19.250 -18.455  35.619  1.00  0.00    -0.064 NA
HETATM    6  N8  UNL     1     -18.239 -19.635  33.767  1.00  0.00    -0.352 N 
HETATM    7  C9  UNL     1     -17.154 -20.129  32.944  1.00  0.00     0.157 C 
HETATM    8  C10 UNL     1     -16.387 -21.260  33.518  1.00  0.00     0.144 C 
HETATM    9  C11 UNL     1     -16.126 -21.145  35.019  1.00  0.00     0.074 C 
ENDROOT
BRANCH   1  10
HETATM   10  C4  UNL     1     -14.767 -19.598  36.467  1.00  0.00     0.259 C 
HETATM   11  N5  UNL     1     -13.529 -18.989  36.130  1.00  0.00    -0.157 N 
ATOM     12  H5  UNL     1     -13.533 -17.977  36.002  1.00  0.00     0.187 HD
HETATM   13  O2  UNL     1     -14.909 -19.952  37.665  1.00  0.00    -0.270 OA
BRANCH  11  14
HETATM   14  C3  UNL     1     -12.420 -19.580  35.973  1.00  0.00     0.714 A 
HETATM   15  N4  UNL     1     -11.481 -18.934  35.234  1.00  0.00    -0.019 N 
HETATM   16  C2  UNL     1     -10.281 -19.467  35.009  1.00  0.00     0.731 A 
ATOM     17  H4  UNL     1     -11.701 -18.018  34.842  1.00  0.00     0.203 HD
HETATM   18  N2  UNL     1      -9.962 -20.664  35.504  1.00  0.00    -0.020 N 
HETATM   19  C1  UNL     1     -10.869 -21.326  36.237  1.00  0.00     0.705 A 
ATOM     20  H2  UNL     1      -9.043 -21.069  35.327  1.00  0.00     0.203 HD
HETATM   21  N11 UNL     1     -12.079 -20.782  36.462  1.00  0.00    -0.021 N 
ATOM     22  H11 UNL     1     -12.757 -21.300  37.021  1.00  0.00     0.203 HD
BRANCH  16  23
HETATM   23  N3  UNL     1      -9.403 -18.836  34.304  1.00  0.00    -0.098 N 
ATOM     24  H3  UNL     1      -8.686 -19.356  33.798  1.00  0.00     0.213 HD
BRANCH  23  25
HETATM   25  O1  UNL     1      -9.434 -17.479  34.236  1.00  0.00    -0.276 OA
ATOM     26  H1  UNL     1      -8.834 -17.019  33.660  1.00  0.00     0.245 HD
ENDBRANCH  23  25
ENDBRANCH  16  23
BRANCH  19  27
HETATM   27  N1  UNL     1     -10.517 -22.481  36.697  1.00  0.00    -0.234 N 
ATOM     28  H12 UNL     1     -10.997 -23.347  36.455  1.00  0.00     0.174 HD
ATOM     29  H11 UNL     1      -9.717 -22.501  37.328  1.00  0.00     0.174 HD
ENDBRANCH  19  27
ENDBRANCH  11  14
ENDBRANCH   1  10
BRANCH   9  30
HETATM   30  C12 UNL     1     -15.198 -22.248  35.387  1.00  0.00     0.210 C 
BRANCH  30  31
HETATM   31  O4  UNL     1     -15.645 -22.983  36.501  1.00  0.00    -0.287 OA
BRANCH  31  32
HETATM   32  N10 UNL     1     -14.638 -23.155  37.390  1.00  0.00    -0.311 N 
ATOM     33 2H10 UNL     1     -13.967 -22.428  37.639  1.00  0.00     0.184 HD
ATOM     34 1H10 UNL     1     -14.653 -24.104  37.766  1.00  0.00     0.184 HD
ENDBRANCH  31  32
ENDBRANCH  30  31
ENDBRANCH   9  30
BRANCH   8  35
HETATM   35  O3  UNL     1     -17.117 -22.456  33.334  1.00  0.00    -0.393 OA
ATOM     36  H3  UNL     1     -16.574 -23.086  32.876  1.00  0.00     0.210 HD
ENDBRANCH   8  35
BRANCH   6  37
HETATM   37  C7  UNL     1     -19.583 -19.680  33.203  1.00  0.00     0.152 C 
BRANCH  37  38
HETATM   38  C8  UNL     1     -19.731 -18.737  32.041  1.00  0.00     0.249 C 
BRANCH  38  39
HETATM   39  N9  UNL     1     -19.576 -17.351  32.438  1.00  0.00    -0.078 N 
ATOM     40  H93 UNL     1     -20.343 -16.778  32.086  1.00  0.00     0.274 HD
ATOM     41  H92 UNL     1     -19.732 -17.234  33.439  1.00  0.00     0.274 HD
ATOM     42  H91 UNL     1     -18.672 -16.970  32.159  1.00  0.00     0.274 HD
ENDBRANCH  38  39
ENDBRANCH  37  38
ENDBRANCH   6  37
TORSDOF 12
ENDMDL
MODEL 3
REMARK VINA RESULT: -6.382188426      1.180      1.913
REMARK  12 active torsions:
REMARK  status: ('A' for Active; 'I' for Inactive)
REMARK    1  A    between atoms: N1_1  and  C1_4 
REMARK    2  A    between atoms: C2_7  and  N3_8 
REMARK    3  A    between atoms: N3_8  and  O1_10 
REMARK    4  A    between atoms: C3_14  and  N5_15 
REMARK       I    between atoms: N5_15  and  C4_17 
REMARK    5  A    between atoms: C4_17  and  C5_19 
REMARK    6  A    between atoms: N8_24  and  C7_25 
REMARK    7  A    between atoms: C7_25  and  C8_26 
REMARK    8  A    between atoms: C8_26  and  N9_27 
REMARK    9  A    between atoms: C10_32  and  O3_33 
REMARK   10  A    between atoms: C11_35  and  C12_36 
REMARK   11  A    between atoms: C12_36  and  O4_37 
REMARK   12  A    between atoms: O4_37  and  N10_38 
ROOT
HETATM    1  C5  UNL     1     -15.573 -19.318  36.547  1.00  0.00     0.185 C 
HETATM    2  N6  UNL     1     -15.264 -19.960  35.255  1.00  0.00    -0.351 N 
ATOM      3  H6  UNL     1     -14.290 -20.106  34.989  1.00  0.00     0.163 HD
HETATM    4  C6  UNL     1     -16.218 -20.348  34.442  1.00  0.00     0.187 C 
HETATM    5  N7  UNL     1     -15.786 -20.959  33.219  1.00  0.00    -0.064 NA
HETATM    6  N8  UNL     1     -17.633 -20.247  34.606  1.00  0.00    -0.352 N 
HETATM    7  C9  UNL     1     -18.301 -19.879  35.838  1.00  0.00     0.157 C 
HETATM    8  C10 UNL     1     -17.949 -18.543  36.375  1.00  0.00     0.144 C 
HETATM    9  C11 UNL     1     -16.469 -18.185  36.251  1.00  0.00     0.074 C 
ENDROOT
BRANCH   1  10
HETATM   10  C4  UNL     1     -14.343 -19.063  37.274  1.00  0.00     0.259 C 
HETATM   11  N5  UNL     1     -13.271 -18.391  36.628  1.00  0.00    -0.157 N 
ATOM     12  H5  UNL     1     -13.369 -17.383  36.503  1.00  0.00     0.187 HD
HETATM   13  O2  UNL     1     -14.152 -19.404  38.469  1.00  0.00    -0.270 OA
BRANCH  11  14
HETATM   14  C3  UNL     1     -12.207 -18.920  36.192  1.00  0.00     0.714 A 
HETATM   15  N4  UNL     1     -11.981 -20.214  36.539  1.00  0.00    -0.019 N 
HETATM   16  C2  UNL     1     -10.892 -20.866  36.133  1.00  0.00     0.731 A 
ATOM     17  H4  UNL     1     -12.662 -20.699  37.125  1.00  0.00     0.203 HD
HETATM   18  N2  UNL     1      -9.980 -20.262  35.369  1.00  0.00    -0.020 N 
HETATM   19  C1  UNL     1     -10.176 -18.985  35.012  1.00  0.00     0.705 A 
ATOM     20  H2  UNL     1      -9.147 -20.764  35.063  1.00  0.00     0.203 HD
HETATM   21  N11 UNL     1     -11.278 -18.332  35.424  1.00  0.00    -0.021 N 
ATOM     22  H11 UNL     1     -11.411 -17.360  35.143  1.00  0.00     0.203 HD
BRANCH  16  23
HETATM   23  N3  UNL     1     -10.696 -22.095  36.474  1.00  0.00    -0.098 N 
ATOM     24  H3  UNL     1     -10.930 -22.406  37.416  1.00  0.00     0.213 HD
BRANCH  23  25
HETATM   25  O1  UNL     1     -10.179 -22.975  35.576  1.00  0.00    -0.276 OA
ATOM     26  H1  UNL     1     -10.246 -22.798  34.645  1.00  0.00     0.245 HD
ENDBRANCH  23  25
ENDBRANCH  16  23
BRANCH  19  27
HETATM   27  N1  UNL     1      -9.267 -18.440  34.272  1.00  0.00    -0.234 N 
ATOM     28  H12 UNL     1      -8.863 -17.525  34.468  1.00  0.00     0.174 HD
ATOM     29  H11 UNL     1      -8.956 -18.971  33.459  1.00  0.00     0.174 HD
ENDBRANCH  19  27
ENDBRANCH  11  14
ENDBRANCH   1  10
BRANCH   9  30
HETATM   30  C12 UNL     1     -16.263 -16.915  36.998  1.00  0.00     0.210 C 
BRANCH  30  31
HETATM   31  O4  UNL     1     -16.708 -15.787  36.282  1.00  0.00    -0.287 OA
BRANCH  31  32
HETATM   32  N10 UNL     1     -17.500 -15.014  37.062  1.00  0.00    -0.311 N 
ATOM     33 2H10 UNL     1     -17.500 -13.994  37.039  1.00  0.00     0.184 HD
ATOM     34 1H10 UNL     1     -18.084 -15.594  37.664  1.00  0.00     0.184 HD
ENDBRANCH  31  32
ENDBRANCH  30  31
ENDBRANCH   9  30
BRANCH   8  35
HETATM   35  O3  UNL     1     -18.657 -17.553  35.656  1.00  0.00    -0.393 OA
ATOM     36  H3  UNL     1     -18.043 -17.042  35.141  1.00  0.00     0.210 HD
ENDBRANCH   8  35
BRANCH   6  37
HETATM   37  C7  UNL     1     -18.473 -20.537  33.449  1.00  0.00     0.152 C 
BRANCH  37  38
HETATM   38  C8  UNL     1     -18.902 -19.281  32.744  1.00  0.00     0.249 C 
BRANCH  38  39
HETATM   39  N9  UNL     1     -17.803 -18.353  32.561  1.00  0.00    -0.078 N 
ATOM     40  H93 UNL     1     -17.255 -18.257  33.416  1.00  0.00     0.274 HD
ATOM     41  H92 UNL     1     -17.086 -18.746  31.952  1.00  0.00     0.274 HD
ATOM     42  H91 UNL     1     -18.118 -17.445  32.220  1.00  0.00     0.274 HD
ENDBRANCH  38  39
ENDBRANCH  37  38
ENDBRANCH   6  37
TORSDOF 12
ENDMDL
MODEL 4
REMARK VINA RESULT: -6.312389540      2.868      4.024
REMARK  12 active torsions:
REMARK  status: ('A' for Active; 'I' for Inactive)
REMARK    1  A    between atoms: N1_1  and  C1_4 
REMARK    2  A    between atoms: C2_7  and  N3_8 
REMARK    3  A    between atoms: N3_8  and  O1_10 
REMARK    4  A    between atoms: C3_14  and  N5_15 
REMARK       I    between atoms: N5_15  and  C4_17 
REMARK    5  A    between atoms: C4_17  and  C5_19 
REMARK    6  A    between atoms: N8_24  and  C7_25 
REMARK    7  A    between atoms: C7_25  and  C8_26 
REMARK    8  A    between atoms: C8_26  and  N9_27 
REMARK    9  A    between atoms: C10_32  and  O3_33 
REMARK   10  A    between atoms: C11_35  and  C12_36 
REMARK   11  A    between atoms: C12_36  and  O4_37 
REMARK   12  A    between atoms: O4_37  and  N10_38 
ROOT
HETATM    1  C5  UNL     1     -15.967 -21.341  35.892  1.00  0.00     0.185 C 
HETATM    2  N6  UNL     1     -17.226 -21.758  36.539  1.00  0.00    -0.351 N 
ATOM      3  H6  UNL     1     -17.214 -22.530  37.206  1.00  0.00     0.163 HD
HETATM    4  C6  UNL     1     -18.361 -21.155  36.273  1.00  0.00     0.187 C 
HETATM    5  N7  UNL     1     -19.511 -21.657  36.968  1.00  0.00    -0.064 NA
HETATM    6  N8  UNL     1     -18.612 -20.066  35.385  1.00  0.00    -0.352 N 
HETATM    7  C9  UNL     1     -17.588 -19.258  34.754  1.00  0.00     0.157 C 
HETATM    8  C10 UNL     1     -16.641 -19.999  33.887  1.00  0.00     0.144 C 
HETATM    9  C11 UNL     1     -16.214 -21.358  34.439  1.00  0.00     0.074 C 
ENDROOT
BRANCH   1  10
HETATM   10  C4  UNL     1     -14.863 -22.118  36.422  1.00  0.00     0.259 C 
HETATM   11  N5  UNL     1     -13.740 -21.452  36.983  1.00  0.00    -0.157 N 
ATOM     12  H5  UNL     1     -13.862 -21.049  37.912  1.00  0.00     0.187 HD
HETATM   13  O2  UNL     1     -14.825 -23.375  36.421  1.00  0.00    -0.270 OA
BRANCH  11  14
HETATM   14  C3  UNL     1     -12.605 -21.309  36.442  1.00  0.00     0.714 A 
HETATM   15  N4  UNL     1     -11.667 -22.248  36.732  1.00  0.00    -0.019 N 
HETATM   16  C2  UNL     1     -10.440 -22.191  36.215  1.00  0.00     0.731 A 
ATOM     17  H4  UNL     1     -11.908 -23.014  37.361  1.00  0.00     0.203 HD
HETATM   18  N2  UNL     1     -10.090 -21.202  35.392  1.00  0.00    -0.020 N 
HETATM   19  C1  UNL     1     -10.996 -20.260  35.088  1.00  0.00     0.705 A 
ATOM     20  H2  UNL     1      -9.150 -21.162  35.000  1.00  0.00     0.203 HD
HETATM   21  N11 UNL     1     -12.233 -20.322  35.612  1.00  0.00    -0.021 N 
ATOM     22  H11 UNL     1     -12.909 -19.598  35.371  1.00  0.00     0.203 HD
BRANCH  16  23
HETATM   23  N3  UNL     1      -9.563 -23.094  36.503  1.00  0.00    -0.098 N 
ATOM     24  H3  UNL     1      -9.147 -23.656  35.761  1.00  0.00     0.213 HD
BRANCH  23  25
HETATM   25  O1  UNL     1      -9.194 -23.294  37.796  1.00  0.00    -0.276 OA
ATOM     26  H1  UNL     1      -9.463 -24.084  38.250  1.00  0.00     0.245 HD
ENDBRANCH  23  25
ENDBRANCH  16  23
BRANCH  19  27
HETATM   27  N1  UNL     1     -10.614 -19.321  34.287  1.00  0.00    -0.234 N 
ATOM     28  H12 UNL     1      -9.709 -18.857  34.363  1.00  0.00     0.174 HD
ATOM     29  H11 UNL     1     -11.266 -19.049  33.552  1.00  0.00     0.174 HD
ENDBRANCH  19  27
ENDBRANCH  11  14
ENDBRANCH   1  10
BRANCH   9  30
HETATM   30  C12 UNL     1     -15.136 -21.870  33.552  1.00  0.00     0.210 C 
BRANCH  30  31
HETATM   31  O4  UNL     1     -15.638 -22.540  32.420  1.00  0.00    -0.287 OA
BRANCH  31  32
HETATM   32  N10 UNL     1     -15.180 -21.961  31.285  1.00  0.00    -0.311 N 
ATOM     33 2H10 UNL     1     -14.929 -22.479  30.442  1.00  0.00     0.184 HD
ATOM     34 1H10 UNL     1     -15.126 -20.949  31.398  1.00  0.00     0.184 HD
ENDBRANCH  31  32
ENDBRANCH  30  31
ENDBRANCH   9  30
BRANCH   8  35
HETATM   35  O3  UNL     1     -17.256 -20.254  32.640  1.00  0.00    -0.393 OA
ATOM     36  H3  UNL     1     -17.247 -21.189  32.473  1.00  0.00     0.210 HD
ENDBRANCH   8  35
BRANCH   6  37
HETATM   37  C7  UNL     1     -20.002 -19.738  35.090  1.00  0.00     0.152 C 
BRANCH  37  38
HETATM   38  C8  UNL     1     -20.490 -20.442  33.855  1.00  0.00     0.249 C 
BRANCH  38  39
HETATM   39  N9  UNL     1     -20.352 -19.622  32.667  1.00  0.00    -0.078 N 
ATOM     40  H93 UNL     1     -19.471 -19.812  32.188  1.00  0.00     0.274 HD
ATOM     41  H92 UNL     1     -21.000 -19.917  31.937  1.00  0.00     0.274 HD
ATOM     42  H91 UNL     1     -20.454 -18.628  32.871  1.00  0.00     0.274 HD
ENDBRANCH  38  39
ENDBRANCH  37  38
ENDBRANCH   6  37
TORSDOF 12
ENDMDL
MODEL 5
REMARK VINA RESULT: -6.311793344      2.279      3.722
REMARK  12 active torsions:
REMARK  status: ('A' for Active; 'I' for Inactive)
REMARK    1  A    between atoms: N1_1  and  C1_4 
REMARK    2  A    between atoms: C2_7  and  N3_8 
REMARK    3  A    between atoms: N3_8  and  O1_10 
REMARK    4  A    between atoms: C3_14  and  N5_15 
REMARK       I    between atoms: N5_15  and  C4_17 
REMARK    5  A    between atoms: C4_17  and  C5_19 
REMARK    6  A    between atoms: N8_24  and  C7_25 
REMARK    7  A    between atoms: C7_25  and  C8_26 
REMARK    8  A    between atoms: C8_26  and  N9_27 
REMARK    9  A    between atoms: C10_32  and  O3_33 
REMARK   10  A    between atoms: C11_35  and  C12_36 
REMARK   11  A    between atoms: C12_36  and  O4_37 
REMARK   12  A    between atoms: O4_37  and  N10_38 
ROOT
HETATM    1  C5  UNL     1     -15.779 -19.917  35.627  1.00  0.00     0.185 C 
HETATM    2  N6  UNL     1     -17.097 -19.647  36.232  1.00  0.00    -0.351 N 
ATOM      3  H6  UNL     1     -17.149 -19.352  37.207  1.00  0.00     0.163 HD
HETATM    4  C6  UNL     1     -18.204 -19.780  35.540  1.00  0.00     0.187 C 
HETATM    5  N7  UNL     1     -19.419 -19.488  36.245  1.00  0.00    -0.064 NA
HETATM    6  N8  UNL     1     -18.370 -20.176  34.178  1.00  0.00    -0.352 N 
HETATM    7  C9  UNL     1     -17.295 -20.301  33.216  1.00  0.00     0.157 C 
HETATM    8  C10 UNL     1     -16.235 -21.275  33.571  1.00  0.00     0.144 C 
HETATM    9  C11 UNL     1     -15.849 -21.272  35.049  1.00  0.00     0.074 C 
ENDROOT
BRANCH   1  10
HETATM   10  C4  UNL     1     -14.730 -19.620  36.584  1.00  0.00     0.259 C 
HETATM   11  N5  UNL     1     -13.637 -18.799  36.195  1.00  0.00    -0.157 N 
ATOM     12  H5  UNL     1     -13.816 -17.797  36.126  1.00  0.00     0.187 HD
HETATM   13  O2  UNL     1     -14.716 -20.047  37.766  1.00  0.00    -0.270 OA
BRANCH  11  14
HETATM   14  C3  UNL     1     -12.463 -19.190  35.925  1.00  0.00     0.714 A 
HETATM   15  N4  UNL     1     -12.112 -20.424  36.372  1.00  0.00    -0.019 N 
HETATM   16  C2  UNL     1     -10.901 -20.931  36.141  1.00  0.00     0.731 A 
ATOM     17  H4  UNL     1     -12.792 -20.976  36.896  1.00  0.00     0.203 HD
HETATM   18  N2  UNL     1      -9.988 -20.236  35.462  1.00  0.00    -0.020 N 
HETATM   19  C1  UNL     1     -10.306 -19.014  35.010  1.00  0.00     0.705 A 
ATOM     20  H2  UNL     1      -9.062 -20.627  35.290  1.00  0.00     0.203 HD
HETATM   21  N11 UNL     1     -11.531 -18.508  35.244  1.00  0.00    -0.021 N 
ATOM     22  H11 UNL     1     -11.756 -17.577  34.894  1.00  0.00     0.203 HD
BRANCH  16  23
HETATM   23  N3  UNL     1     -10.588 -22.106  36.574  1.00  0.00    -0.098 N 
ATOM     24  H3  UNL     1     -10.597 -22.300  37.575  1.00  0.00     0.213 HD
BRANCH  23  25
HETATM   25  O1  UNL     1     -10.245 -23.084  35.695  1.00  0.00    -0.276 OA
ATOM     26  H1  UNL     1      -9.368 -23.110  35.331  1.00  0.00     0.245 HD
ENDBRANCH  23  25
ENDBRANCH  16  23
BRANCH  19  27
HETATM   27  N1  UNL     1      -9.391 -18.377  34.357  1.00  0.00    -0.234 N 
ATOM     28  H12 UNL     1      -8.463 -18.760  34.181  1.00  0.00     0.174 HD
ATOM     29  H11 UNL     1      -9.633 -17.449  34.012  1.00  0.00     0.174 HD
ENDBRANCH  19  27
ENDBRANCH  11  14
ENDBRANCH   1  10
BRANCH   9  30
HETATM   30  C12 UNL     1     -14.661 -22.156  35.192  1.00  0.00     0.210 C 
BRANCH  30  31
HETATM   31  O4  UNL     1     -14.936 -23.314  35.946  1.00  0.00    -0.287 OA
BRANCH  31  32
HETATM   32  N10 UNL     1     -14.528 -23.153  37.227  1.00  0.00    -0.311 N 
ATOM     33 2H10 UNL     1     -13.600 -23.409  37.566  1.00  0.00     0.184 HD
ATOM     34 1H10 UNL     1     -15.274 -22.744  37.790  1.00  0.00     0.184 HD
ENDBRANCH  31  32
ENDBRANCH  30  31
ENDBRANCH   9  30
BRANCH   8  35
HETATM   35  O3  UNL     1     -16.691 -22.582  33.284  1.00  0.00    -0.393 OA
ATOM     36  H3  UNL     1     -16.270 -22.892  32.491  1.00  0.00     0.210 HD
ENDBRANCH   8  35
BRANCH   6  37
HETATM   37  C7  UNL     1     -19.721 -20.475  33.718  1.00  0.00     0.152 C 
BRANCH  37  38
HETATM   38  C8  UNL     1     -20.228 -19.431  32.763  1.00  0.00     0.249 C 
BRANCH  38  39
HETATM   39  N9  UNL     1     -20.747 -18.265  33.452  1.00  0.00    -0.078 N 
ATOM     40  H93 UNL     1     -20.470 -18.263  34.434  1.00  0.00     0.274 HD
ATOM     41  H92 UNL     1     -20.273 -17.415  33.148  1.00  0.00     0.274 HD
ATOM     42  H91 UNL     1     -21.758 -18.179  33.353  1.00  0.00     0.274 HD
ENDBRANCH  38  39
ENDBRANCH  37  38
ENDBRANCH   6  37
TORSDOF 12
ENDMDL
