MODEL 1
REMARK VINA RESULT: -7.084697497      0.000      0.000
REMARK  6 active torsions:
REMARK  status: ('A' for Active; 'I' for Inactive)
REMARK    1  A    between atoms: O1_2  and  C2_3 
REMARK    2  A    between atoms: C12_13  and  C13_14 
REMARK    3  A    between atoms: C13_14  and  C15_16 
REMARK    4  A    between atoms: C15_16  and  O2_19 
REMARK    5  A    between atoms: C20_25  and  O5_26 
REMARK    6  A    between atoms: C21_28  and  C22_29 
ROOT
HETATM    1  C2  UNL     1       3.573   4.647  27.327  1.00  0.00     0.148 C 
HETATM    2  C3  UNL     1       3.105   4.583  25.951  1.00  0.00     0.005 C 
HETATM    3  C4  UNL     1       1.916   4.474  25.413  1.00  0.00    -0.001 C 
HETATM    4  C5  UNL     1       0.607   4.379  26.020  1.00  0.00    -0.000 C 
HETATM    5  C6  UNL     1      -0.273   5.244  26.426  1.00  0.00     0.001 C 
HETATM    6  C7  UNL     1      -0.409   6.655  26.479  1.00  0.00     0.007 C 
HETATM    7  C8  UNL     1      -0.190   7.663  25.616  1.00  0.00    -0.062 C 
HETATM    8  C9  UNL     1      -0.531   9.047  26.201  1.00  0.00     0.048 C 
HETATM    9  C10 UNL     1       0.288   7.634  24.271  1.00  0.00     0.005 C 
HETATM   10  C11 UNL     1       1.391   7.776  23.604  1.00  0.00     0.006 C 
HETATM   11  C12 UNL     1       2.787   8.083  24.075  1.00  0.00     0.161 C 
HETATM   12  O3  UNL     1       3.731   7.571  23.212  1.00  0.00    -0.311 OA
HETATM   13  C18 UNL     1       4.826   6.805  23.292  1.00  0.00     0.262 C 
HETATM   14  O4  UNL     1       4.803   5.710  22.617  1.00  0.00    -0.265 OA
HETATM   15  C19 UNL     1       6.070   7.051  24.058  1.00  0.00     0.147 C 
HETATM   16  C20 UNL     1       7.123   6.030  24.002  1.00  0.00     0.163 C 
HETATM   17  C21 UNL     1       6.865   4.650  24.409  1.00  0.00     0.005 C 
HETATM   18  C23 UNL     1       6.446   4.176  25.529  1.00  0.00    -0.009 C 
HETATM   19  C24 UNL     1       6.070   4.819  26.814  1.00  0.00     0.011 C 
HETATM   20  C25 UNL     1       7.288   4.730  27.775  1.00  0.00     0.015 C 
HETATM   21  C26 UNL     1       4.966   4.074  27.506  1.00  0.00     0.022 C 
HETATM   22  C27 UNL     1       5.241   3.892  28.969  1.00  0.00     0.013 C 
ENDROOT
BRANCH  11  23
HETATM   23  C13 UNL     1       2.930   9.560  24.318  1.00  0.00     0.048 C 
HETATM   24  C14 UNL     1       3.051   9.929  25.797  1.00  0.00     0.016 C 
BRANCH  23  25
HETATM   25  C15 UNL     1       3.943  10.317  23.576  1.00  0.00     0.056 C 
HETATM   26  C16 UNL     1       5.346  10.347  24.028  1.00  0.00     0.045 C 
HETATM   27  C17 UNL     1       3.512  11.775  23.322  1.00  0.00     0.045 C 
BRANCH  25  28
HETATM   28  O2  UNL     1       3.962   9.766  22.258  1.00  0.00    -0.390 OA
ATOM     29  H2  UNL     1       4.292  10.452  21.691  1.00  0.00     0.210 HD
ENDBRANCH  25  28
ENDBRANCH  23  25
ENDBRANCH  11  23
BRANCH  16  30
HETATM   30  O5  UNL     1       8.261   6.505  24.717  1.00  0.00    -0.390 OA
ATOM     31  H5  UNL     1       8.919   6.785  24.092  1.00  0.00     0.210 HD
ENDBRANCH  16  30
BRANCH  17  32
HETATM   32  C22 UNL     1       7.177   3.642  23.337  1.00  0.00     0.268 C 
HETATM   33  O6  UNL     1       8.012   3.888  22.429  1.00  0.00    -0.302 OA
ENDBRANCH  17  32
BRANCH   1  34
HETATM   34  O1  UNL     1       3.551   5.942  27.818  1.00  0.00    -0.386 OA
HETATM   35  C1  UNL     1       2.508   6.184  28.709  1.00  0.00     0.202 C 
ENDBRANCH   1  34
TORSDOF 6
ENDMDL
MODEL 2
REMARK VINA RESULT: -6.992196659      2.336      6.403
REMARK  6 active torsions:
REMARK  status: ('A' for Active; 'I' for Inactive)
REMARK    1  A    between atoms: O1_2  and  C2_3 
REMARK    2  A    between atoms: C12_13  and  C13_14 
REMARK    3  A    between atoms: C13_14  and  C15_16 
REMARK    4  A    between atoms: C15_16  and  O2_19 
REMARK    5  A    between atoms: C20_25  and  O5_26 
REMARK    6  A    between atoms: C21_28  and  C22_29 
ROOT
HETATM    1  C2  UNL     1      -0.116   9.564  26.420  1.00  0.00     0.148 C 
HETATM    2  C3  UNL     1       1.260   9.339  26.834  1.00  0.00     0.005 C 
HETATM    3  C4  UNL     1       1.813   8.539  27.711  1.00  0.00    -0.001 C 
HETATM    4  C5  UNL     1       1.227   7.564  28.604  1.00  0.00    -0.000 C 
HETATM    5  C6  UNL     1       0.906   6.309  28.499  1.00  0.00     0.001 C 
HETATM    6  C7  UNL     1       0.964   5.293  27.512  1.00  0.00     0.007 C 
HETATM    7  C8  UNL     1       1.898   4.865  26.642  1.00  0.00    -0.062 C 
HETATM    8  C9  UNL     1       1.427   3.675  25.784  1.00  0.00     0.048 C 
HETATM    9  C10 UNL     1       3.227   5.335  26.415  1.00  0.00     0.005 C 
HETATM   10  C11 UNL     1       3.880   6.127  25.622  1.00  0.00     0.006 C 
HETATM   11  C12 UNL     1       3.405   6.962  24.463  1.00  0.00     0.161 C 
HETATM   12  O3  UNL     1       4.207   8.067  24.280  1.00  0.00    -0.311 OA
HETATM   13  C18 UNL     1       4.046   9.389  24.149  1.00  0.00     0.262 C 
HETATM   14  O4  UNL     1       4.635  10.122  25.027  1.00  0.00    -0.265 OA
HETATM   15  C19 UNL     1       3.276  10.128  23.121  1.00  0.00     0.147 C 
HETATM   16  C20 UNL     1       3.232  11.592  23.219  1.00  0.00     0.163 C 
HETATM   17  C21 UNL     1       2.726  12.259  24.416  1.00  0.00     0.005 C 
HETATM   18  C23 UNL     1       1.582  12.173  24.998  1.00  0.00    -0.009 C 
HETATM   19  C24 UNL     1       0.358  11.388  24.694  1.00  0.00     0.011 C 
HETATM   20  C25 UNL     1      -0.632  12.310  23.930  1.00  0.00     0.015 C 
HETATM   21  C26 UNL     1      -0.366  10.983  25.945  1.00  0.00     0.022 C 
HETATM   22  C27 UNL     1      -1.844  11.214  25.839  1.00  0.00     0.013 C 
ENDROOT
BRANCH  11  23
HETATM   23  C13 UNL     1       3.273   6.102  23.236  1.00  0.00     0.048 C 
HETATM   24  C14 UNL     1       1.903   6.200  22.564  1.00  0.00     0.016 C 
BRANCH  23  25
HETATM   25  C15 UNL     1       4.298   6.176  22.191  1.00  0.00     0.056 C 
HETATM   26  C16 UNL     1       4.279   7.256  21.188  1.00  0.00     0.045 C 
HETATM   27  C17 UNL     1       4.453   4.845  21.430  1.00  0.00     0.045 C 
BRANCH  25  28
HETATM   28  O2  UNL     1       5.549   6.290  22.873  1.00  0.00    -0.390 OA
ATOM     29  H2  UNL     1       6.176   6.585  22.224  1.00  0.00     0.210 HD
ENDBRANCH  25  28
ENDBRANCH  23  25
ENDBRANCH  11  23
BRANCH  16  30
HETATM   30  O5  UNL     1       2.532  12.105  22.087  1.00  0.00    -0.390 OA
ATOM     31  H5  UNL     1       2.806  13.003  21.940  1.00  0.00     0.210 HD
ENDBRANCH  16  30
BRANCH  17  32
HETATM   32  C22 UNL     1       3.712  13.216  25.029  1.00  0.00     0.268 C 
HETATM   33  O6  UNL     1       4.552  13.832  24.324  1.00  0.00    -0.302 OA
ENDBRANCH  17  32
BRANCH   1  34
HETATM   34  O1  UNL     1      -0.505   8.681  25.427  1.00  0.00    -0.386 OA
HETATM   35  C1  UNL     1       0.546   7.933  24.901  1.00  0.00     0.202 C 
ENDBRANCH   1  34
TORSDOF 6
ENDMDL
MODEL 3
REMARK VINA RESULT: -6.751540092      2.422      6.972
REMARK  6 active torsions:
REMARK  status: ('A' for Active; 'I' for Inactive)
REMARK    1  A    between atoms: O1_2  and  C2_3 
REMARK    2  A    between atoms: C12_13  and  C13_14 
REMARK    3  A    between atoms: C13_14  and  C15_16 
REMARK    4  A    between atoms: C15_16  and  O2_19 
REMARK    5  A    between atoms: C20_25  and  O5_26 
REMARK    6  A    between atoms: C21_28  and  C22_29 
ROOT
HETATM    1  C2  UNL     1       5.273   9.309  23.126  1.00  0.00     0.148 C 
HETATM    2  C3  UNL     1       3.978   8.758  22.757  1.00  0.00     0.005 C 
HETATM    3  C4  UNL     1       3.594   7.583  22.327  1.00  0.00    -0.001 C 
HETATM    4  C5  UNL     1       4.348   6.378  22.063  1.00  0.00    -0.000 C 
HETATM    5  C6  UNL     1       4.730   5.365  22.782  1.00  0.00     0.001 C 
HETATM    6  C7  UNL     1       4.608   4.931  24.127  1.00  0.00     0.007 C 
HETATM    7  C8  UNL     1       3.599   4.857  25.014  1.00  0.00    -0.062 C 
HETATM    8  C9  UNL     1       4.028   4.272  26.373  1.00  0.00     0.048 C 
HETATM    9  C10 UNL     1       2.225   5.222  24.876  1.00  0.00     0.005 C 
HETATM   10  C11 UNL     1       1.428   6.212  25.135  1.00  0.00     0.006 C 
HETATM   11  C12 UNL     1       1.698   7.541  25.788  1.00  0.00     0.161 C 
HETATM   12  O3  UNL     1       0.813   8.501  25.352  1.00  0.00    -0.311 OA
HETATM   13  C18 UNL     1       0.873   9.740  24.846  1.00  0.00     0.262 C 
HETATM   14  O4  UNL     1       0.357   9.901  23.679  1.00  0.00    -0.265 OA
HETATM   15  C19 UNL     1       1.458  10.958  25.454  1.00  0.00     0.147 C 
HETATM   16  C20 UNL     1       1.423  12.199  24.672  1.00  0.00     0.163 C 
HETATM   17  C21 UNL     1       2.037  12.280  23.349  1.00  0.00     0.005 C 
HETATM   18  C23 UNL     1       3.250  12.063  22.977  1.00  0.00    -0.009 C 
HETATM   19  C24 UNL     1       4.470  11.659  23.721  1.00  0.00     0.011 C 
HETATM   20  C25 UNL     1       5.295  12.940  24.029  1.00  0.00     0.015 C 
HETATM   21  C26 UNL     1       5.373  10.803  22.882  1.00  0.00     0.022 C 
HETATM   22  C27 UNL     1       6.808  11.225  22.987  1.00  0.00     0.013 C 
ENDROOT
BRANCH  11  23
HETATM   23  C13 UNL     1       1.724   7.378  27.283  1.00  0.00     0.048 C 
HETATM   24  C14 UNL     1       2.398   8.540  28.013  1.00  0.00     0.016 C 
BRANCH  23  25
HETATM   25  C15 UNL     1       0.484   7.053  27.994  1.00  0.00     0.056 C 
HETATM   26  C16 UNL     1      -0.492   6.110  27.419  1.00  0.00     0.045 C 
HETATM   27  C17 UNL     1      -0.293   8.315  28.418  1.00  0.00     0.045 C 
BRANCH  25  28
HETATM   28  O2  UNL     1       0.882   6.498  29.248  1.00  0.00    -0.390 OA
ATOM     29  H2  UNL     1       0.079   6.263  29.698  1.00  0.00     0.210 HD
ENDBRANCH  25  28
ENDBRANCH  23  25
ENDBRANCH  11  23
BRANCH  16  30
HETATM   30  O5  UNL     1       1.939  13.260  25.474  1.00  0.00    -0.390 OA
ATOM     31  H5  UNL     1       2.343  13.904  24.904  1.00  0.00     0.210 HD
ENDBRANCH  16  30
BRANCH  17  32
HETATM   32  C22 UNL     1       1.081  12.717  22.272  1.00  0.00     0.268 C 
HETATM   33  O6  UNL     1      -0.125  12.968  22.529  1.00  0.00    -0.302 OA
ENDBRANCH  17  32
BRANCH   1  34
HETATM   34  O1  UNL     1       5.586   9.045  24.449  1.00  0.00    -0.386 OA
HETATM   35  C1  UNL     1       6.585   8.087  24.607  1.00  0.00     0.202 C 
ENDBRANCH   1  34
TORSDOF 6
ENDMDL
MODEL 4
REMARK VINA RESULT: -6.713005525      2.205      4.291
REMARK  6 active torsions:
REMARK  status: ('A' for Active; 'I' for Inactive)
REMARK    1  A    between atoms: O1_2  and  C2_3 
REMARK    2  A    between atoms: C12_13  and  C13_14 
REMARK    3  A    between atoms: C13_14  and  C15_16 
REMARK    4  A    between atoms: C15_16  and  O2_19 
REMARK    5  A    between atoms: C20_25  and  O5_26 
REMARK    6  A    between atoms: C21_28  and  C22_29 
ROOT
HETATM    1  C2  UNL     1       1.091   8.446  26.451  1.00  0.00     0.148 C 
HETATM    2  C3  UNL     1       0.998   8.609  25.009  1.00  0.00     0.005 C 
HETATM    3  C4  UNL     1       0.351   9.450  24.242  1.00  0.00    -0.001 C 
HETATM    4  C5  UNL     1      -0.525  10.552  24.572  1.00  0.00    -0.000 C 
HETATM    5  C6  UNL     1      -0.344  11.810  24.843  1.00  0.00     0.001 C 
HETATM    6  C7  UNL     1       0.744  12.714  24.944  1.00  0.00     0.007 C 
HETATM    7  C8  UNL     1       1.831  12.980  24.197  1.00  0.00    -0.062 C 
HETATM    8  C9  UNL     1       2.704  14.108  24.777  1.00  0.00     0.048 C 
HETATM    9  C10 UNL     1       2.272  12.391  22.973  1.00  0.00     0.005 C 
HETATM   10  C11 UNL     1       3.085  11.476  22.546  1.00  0.00     0.006 C 
HETATM   11  C12 UNL     1       4.018  10.566  23.299  1.00  0.00     0.161 C 
HETATM   12  O3  UNL     1       4.233   9.392  22.613  1.00  0.00    -0.311 OA
HETATM   13  C18 UNL     1       4.176   8.078  22.866  1.00  0.00     0.262 C 
HETATM   14  O4  UNL     1       3.359   7.397  22.141  1.00  0.00    -0.265 OA
HETATM   15  C19 UNL     1       4.930   7.298  23.875  1.00  0.00     0.147 C 
HETATM   16  C20 UNL     1       4.659   5.859  23.972  1.00  0.00     0.163 C 
HETATM   17  C21 UNL     1       3.314   5.357  24.245  1.00  0.00     0.005 C 
HETATM   18  C23 UNL     1       2.522   5.587  25.233  1.00  0.00    -0.009 C 
HETATM   19  C24 UNL     1       2.655   6.427  26.451  1.00  0.00     0.011 C 
HETATM   20  C25 UNL     1       3.088   5.508  27.627  1.00  0.00     0.015 C 
HETATM   21  C26 UNL     1       1.337   7.009  26.870  1.00  0.00     0.022 C 
HETATM   22  C27 UNL     1       1.109   6.880  28.347  1.00  0.00     0.013 C 
ENDROOT
BRANCH  11  23
HETATM   23  C13 UNL     1       5.282  11.304  23.645  1.00  0.00     0.048 C 
HETATM   24  C14 UNL     1       5.421  11.615  25.135  1.00  0.00     0.016 C 
BRANCH  23  25
HETATM   25  C15 UNL     1       6.569  10.792  23.165  1.00  0.00     0.056 C 
HETATM   26  C16 UNL     1       6.695  10.210  21.817  1.00  0.00     0.045 C 
HETATM   27  C17 UNL     1       7.208   9.799  24.156  1.00  0.00     0.045 C 
BRANCH  25  28
HETATM   28  O2  UNL     1       7.473  11.897  23.207  1.00  0.00    -0.390 OA
ATOM     29  H2  UNL     1       7.554  12.135  24.123  1.00  0.00     0.210 HD
ENDBRANCH  25  28
ENDBRANCH  23  25
ENDBRANCH  11  23
BRANCH  16  30
HETATM   30  O5  UNL     1       5.555   5.287  24.923  1.00  0.00    -0.390 OA
ATOM     31  H5  UNL     1       5.277   5.541  25.795  1.00  0.00     0.210 HD
ENDBRANCH  16  30
BRANCH  17  32
HETATM   32  C22 UNL     1       2.811   4.396  23.202  1.00  0.00     0.268 C 
HETATM   33  O6  UNL     1       3.521   4.069  22.216  1.00  0.00    -0.302 OA
ENDBRANCH  17  32
BRANCH   1  34
HETATM   34  O1  UNL     1       2.077   9.251  26.997  1.00  0.00    -0.386 OA
HETATM   35  C1  UNL     1       2.887   9.867  26.045  1.00  0.00     0.202 C 
ENDBRANCH   1  34
TORSDOF 6
ENDMDL
MODEL 5
REMARK VINA RESULT: -6.708800347      1.935      4.320
REMARK  6 active torsions:
REMARK  status: ('A' for Active; 'I' for Inactive)
REMARK    1  A    between atoms: O1_2  and  C2_3 
REMARK    2  A    between atoms: C12_13  and  C13_14 
REMARK    3  A    between atoms: C13_14  and  C15_16 
REMARK    4  A    between atoms: C15_16  and  O2_19 
REMARK    5  A    between atoms: C20_25  and  O5_26 
REMARK    6  A    between atoms: C21_28  and  C22_29 
ROOT
HETATM    1  C2  UNL     1       4.742   5.194  24.370  1.00  0.00     0.148 C 
HETATM    2  C3  UNL     1       3.612   5.808  23.688  1.00  0.00     0.005 C 
HETATM    3  C4  UNL     1       2.412   5.384  23.381  1.00  0.00    -0.001 C 
HETATM    4  C5  UNL     1       1.767   4.113  23.623  1.00  0.00    -0.000 C 
HETATM    5  C6  UNL     1       1.080   3.612  24.607  1.00  0.00     0.001 C 
HETATM    6  C7  UNL     1       0.624   4.027  25.884  1.00  0.00     0.007 C 
HETATM    7  C8  UNL     1       0.031   5.134  26.367  1.00  0.00    -0.062 C 
HETATM    8  C9  UNL     1      -0.275   5.049  27.874  1.00  0.00     0.048 C 
HETATM    9  C10 UNL     1      -0.356   6.336  25.700  1.00  0.00     0.005 C 
HETATM   10  C11 UNL     1       0.083   7.536  25.478  1.00  0.00     0.006 C 
HETATM   11  C12 UNL     1       1.353   8.211  25.922  1.00  0.00     0.161 C 
HETATM   12  O3  UNL     1       1.732   9.195  25.036  1.00  0.00    -0.311 OA
HETATM   13  C18 UNL     1       2.835   9.539  24.360  1.00  0.00     0.262 C 
HETATM   14  O4  UNL     1       2.729   9.565  23.078  1.00  0.00    -0.265 OA
HETATM   15  C19 UNL     1       4.171   9.896  24.892  1.00  0.00     0.147 C 
HETATM   16  C20 UNL     1       5.232  10.207  23.927  1.00  0.00     0.163 C 
HETATM   17  C21 UNL     1       5.637   9.245  22.905  1.00  0.00     0.005 C 
HETATM   18  C23 UNL     1       6.077   8.041  23.020  1.00  0.00    -0.009 C 
HETATM   19  C24 UNL     1       6.342   7.178  24.200  1.00  0.00     0.011 C 
HETATM   20  C25 UNL     1       7.859   7.259  24.527  1.00  0.00     0.015 C 
HETATM   21  C26 UNL     1       6.080   5.731  23.899  1.00  0.00     0.022 C 
HETATM   22  C27 UNL     1       7.175   4.843  24.410  1.00  0.00     0.013 C 
ENDROOT
BRANCH  11  23
HETATM   23  C13 UNL     1       1.203   8.699  27.337  1.00  0.00     0.048 C 
HETATM   24  C14 UNL     1      -0.241   9.018  27.725  1.00  0.00     0.016 C 
BRANCH  23  25
HETATM   25  C15 UNL     1       1.809   7.933  28.431  1.00  0.00     0.056 C 
HETATM   26  C16 UNL     1       2.578   6.706  28.159  1.00  0.00     0.045 C 
HETATM   27  C17 UNL     1       0.794   7.601  29.543  1.00  0.00     0.045 C 
BRANCH  25  28
HETATM   28  O2  UNL     1       2.707   8.828  29.089  1.00  0.00    -0.390 OA
ATOM     29  H2  UNL     1       3.089   8.336  29.806  1.00  0.00     0.210 HD
ENDBRANCH  25  28
ENDBRANCH  23  25
ENDBRANCH  11  23
BRANCH  16  30
HETATM   30  O5  UNL     1       6.395  10.619  24.643  1.00  0.00    -0.390 OA
ATOM     31  H5  UNL     1       6.206  11.438  25.087  1.00  0.00     0.210 HD
ENDBRANCH  16  30
BRANCH  17  32
HETATM   32  C22 UNL     1       5.541   9.785  21.504  1.00  0.00     0.268 C 
HETATM   33  O6  UNL     1       4.969   9.136  20.590  1.00  0.00    -0.302 OA
ENDBRANCH  17  32
BRANCH   1  34
HETATM   34  O1  UNL     1       4.654   5.340  25.744  1.00  0.00    -0.386 OA
HETATM   35  C1  UNL     1       4.355   4.155  26.414  1.00  0.00     0.202 C 
ENDBRANCH   1  34
TORSDOF 6
ENDMDL
