MODEL 1
REMARK VINA RESULT: -8.463923769      0.000      0.000
REMARK  7 active torsions:
REMARK  status: ('A' for Active; 'I' for Inactive)
REMARK    1  A    between atoms: O1_2  and  C2_3 
REMARK    2  A    between atoms: C2_3  and  C3_5 
REMARK    3  A    between atoms: C8_10  and  O3_11 
REMARK    4  A    between atoms: C15_20  and  O5_22 
REMARK    5  A    between atoms: C17_24  and  C18_25 
REMARK    6  A    between atoms: C19_26  and  S1_27 
REMARK    7  A    between atoms: S1_27  and  C20_29 
ROOT
HETATM    1  C3  UNL     1       0.154  11.497  24.589  1.00  0.00     0.053 C 
HETATM    2  C4  UNL     1       1.437  12.168  24.790  1.00  0.00     0.027 C 
HETATM    3  C5  UNL     1      -0.661  11.214  25.860  1.00  0.00     0.005 C 
HETATM    4  C6  UNL     1       0.176  10.559  26.921  1.00  0.00     0.015 C 
HETATM    5  C7  UNL     1       1.106   9.518  26.463  1.00  0.00     0.045 C 
HETATM    6  C8  UNL     1       0.897   8.220  27.203  1.00  0.00     0.107 A 
HETATM    7  C9  UNL     1       1.509   8.071  28.502  1.00  0.00     0.026 A 
HETATM    8  C10 UNL     1       2.325   7.082  28.805  1.00  0.00    -0.013 A 
HETATM    9  C11 UNL     1       2.893   7.044  30.214  1.00  0.00     0.052 C 
HETATM   10  C12 UNL     1       2.718   6.077  27.837  1.00  0.00     0.178 A 
HETATM   11  O4  UNL     1       3.487   5.128  28.079  1.00  0.00    -0.288 OA
HETATM   12  C13 UNL     1       2.139   6.254  26.512  1.00  0.00     0.064 A 
HETATM   13  C14 UNL     1       1.327   7.218  26.220  1.00  0.00    -0.003 A 
HETATM   14  C15 UNL     1       0.677   7.696  24.903  1.00  0.00     0.093 C 
HETATM   15  C16 UNL     1       1.378   6.983  23.765  1.00  0.00     0.052 C 
HETATM   16  C17 UNL     1       0.961   9.167  24.979  1.00  0.00     0.025 C 
HETATM   17  C24 UNL     1      -0.003  10.059  24.296  1.00  0.00     0.020 C 
HETATM   18  C25 UNL     1      -1.354  10.203  24.973  1.00  0.00     0.013 C 
ENDROOT
BRANCH  16  19
HETATM   19  C18 UNL     1       2.296   9.347  24.301  1.00  0.00    -0.003 C 
HETATM   20  C19 UNL     1       3.362   9.624  25.001  1.00  0.00     0.080 C 
BRANCH  20  21
HETATM   21  S1  UNL     1       4.936   9.835  24.194  1.00  0.00     0.063 S 
HETATM   22  O6  UNL     1       4.878   9.168  22.678  1.00  0.00    -0.249 OA
BRANCH  21  23
HETATM   23  C20 UNL     1       5.349  11.519  24.205  1.00  0.00     0.085 C 
HETATM   24  C21 UNL     1       6.616  11.875  24.097  1.00  0.00    -0.079 C 
HETATM   25  C22 UNL     1       6.977  13.325  24.107  1.00  0.00     0.043 C 
HETATM   26  C23 UNL     1       7.677  10.849  23.968  1.00  0.00     0.043 C 
ENDBRANCH  21  23
ENDBRANCH  20  21
ENDBRANCH  16  19
BRANCH  14  27
HETATM   27  O5  UNL     1      -0.645   7.352  24.849  1.00  0.00    -0.384 OA
ATOM     28  H5  UNL     1      -0.950   7.294  23.951  1.00  0.00     0.211 HD
ENDBRANCH  14  27
BRANCH   6  29
HETATM   29  O3  UNL     1      -0.495   8.020  27.456  1.00  0.00    -0.381 OA
ATOM     30  H3  UNL     1      -0.756   7.153  27.169  1.00  0.00     0.211 HD
ENDBRANCH   6  29
BRANCH   1  31
HETATM   31  C2  UNL     1      -0.707  12.333  23.671  1.00  0.00     0.267 C 
HETATM   32  O2  UNL     1      -1.941  12.487  23.850  1.00  0.00    -0.264 OA
BRANCH  31  33
HETATM   33  O1  UNL     1      -0.137  12.969  22.574  1.00  0.00    -0.326 OA
HETATM   34  C1  UNL     1      -0.698  13.002  21.300  1.00  0.00     0.213 C 
ENDBRANCH  31  33
ENDBRANCH   1  31
TORSDOF 7
ENDMDL
MODEL 2
REMARK VINA RESULT: -8.071632143      1.473      1.782
REMARK  7 active torsions:
REMARK  status: ('A' for Active; 'I' for Inactive)
REMARK    1  A    between atoms: O1_2  and  C2_3 
REMARK    2  A    between atoms: C2_3  and  C3_5 
REMARK    3  A    between atoms: C8_10  and  O3_11 
REMARK    4  A    between atoms: C15_20  and  O5_22 
REMARK    5  A    between atoms: C17_24  and  C18_25 
REMARK    6  A    between atoms: C19_26  and  S1_27 
REMARK    7  A    between atoms: S1_27  and  C20_29 
ROOT
HETATM    1  C3  UNL     1       1.021  10.879  24.848  1.00  0.00     0.053 C 
HETATM    2  C4  UNL     1       2.425  11.278  24.780  1.00  0.00     0.027 C 
HETATM    3  C5  UNL     1       0.507  10.469  26.236  1.00  0.00     0.005 C 
HETATM    4  C6  UNL     1       1.424   9.479  26.897  1.00  0.00     0.015 C 
HETATM    5  C7  UNL     1       1.968   8.423  26.035  1.00  0.00     0.045 C 
HETATM    6  C8  UNL     1       1.680   7.049  26.588  1.00  0.00     0.107 A 
HETATM    7  C9  UNL     1       2.550   6.534  27.618  1.00  0.00     0.026 A 
HETATM    8  C10 UNL     1       3.187   5.385  27.515  1.00  0.00    -0.013 A 
HETATM    9  C11 UNL     1       4.067   4.961  28.680  1.00  0.00     0.052 C 
HETATM   10  C12 UNL     1       3.106   4.557  26.329  1.00  0.00     0.178 A 
HETATM   11  O4  UNL     1       3.692   3.467  26.188  1.00  0.00    -0.288 OA
HETATM   12  C13 UNL     1       2.266   5.099  25.269  1.00  0.00     0.064 A 
HETATM   13  C14 UNL     1       1.630   6.220  25.377  1.00  0.00    -0.003 A 
HETATM   14  C15 UNL     1       0.789   7.063  24.393  1.00  0.00     0.093 C 
HETATM   15  C16 UNL     1       1.017   6.502  23.004  1.00  0.00     0.052 C 
HETATM   16  C17 UNL     1       1.388   8.420  24.617  1.00  0.00     0.025 C 
HETATM   17  C24 UNL     1       0.495   9.578  24.387  1.00  0.00     0.020 C 
HETATM   18  C25 UNL     1      -0.583   9.792  25.435  1.00  0.00     0.013 C 
ENDROOT
BRANCH  16  19
HETATM   19  C18 UNL     1       2.518   8.522  23.625  1.00  0.00    -0.003 C 
HETATM   20  C19 UNL     1       3.756   8.390  24.017  1.00  0.00     0.080 C 
BRANCH  20  21
HETATM   21  S1  UNL     1       5.088   8.511  22.839  1.00  0.00     0.063 S 
HETATM   22  O6  UNL     1       4.467   8.630  21.308  1.00  0.00    -0.249 OA
BRANCH  21  23
HETATM   23  C20 UNL     1       6.112   9.837  23.288  1.00  0.00     0.085 C 
HETATM   24  C21 UNL     1       7.292   9.589  23.828  1.00  0.00    -0.079 C 
HETATM   25  C22 UNL     1       8.177  10.728  24.217  1.00  0.00     0.043 C 
HETATM   26  C23 UNL     1       7.739   8.194  24.050  1.00  0.00     0.043 C 
ENDBRANCH  21  23
ENDBRANCH  20  21
ENDBRANCH  16  19
BRANCH  14  27
HETATM   27  O5  UNL     1      -0.547   6.955  24.663  1.00  0.00    -0.384 OA
ATOM     28  H5  UNL     1      -0.941   6.240  24.175  1.00  0.00     0.211 HD
ENDBRANCH  14  27
BRANCH   6  29
HETATM   29  O3  UNL     1       0.385   7.026  27.191  1.00  0.00    -0.381 OA
ATOM     30  H3  UNL     1      -0.211   7.581  26.703  1.00  0.00     0.211 HD
ENDBRANCH   6  29
BRANCH   1  31
HETATM   31  C2  UNL     1       0.156  12.016  24.359  1.00  0.00     0.267 C 
HETATM   32  O2  UNL     1       0.453  13.224  24.540  1.00  0.00    -0.264 OA
BRANCH  31  33
HETATM   33  O1  UNL     1      -1.026  11.745  23.677  1.00  0.00    -0.326 OA
HETATM   34  C1  UNL     1      -1.658  12.630  22.809  1.00  0.00     0.213 C 
ENDBRANCH  31  33
ENDBRANCH   1  31
TORSDOF 7
ENDMDL
MODEL 3
REMARK VINA RESULT: -8.059056072      1.198      1.490
REMARK  7 active torsions:
REMARK  status: ('A' for Active; 'I' for Inactive)
REMARK    1  A    between atoms: O1_2  and  C2_3 
REMARK    2  A    between atoms: C2_3  and  C3_5 
REMARK    3  A    between atoms: C8_10  and  O3_11 
REMARK    4  A    between atoms: C15_20  and  O5_22 
REMARK    5  A    between atoms: C17_24  and  C18_25 
REMARK    6  A    between atoms: C19_26  and  S1_27 
REMARK    7  A    between atoms: S1_27  and  C20_29 
ROOT
HETATM    1  C3  UNL     1       0.110  11.504  24.551  1.00  0.00     0.053 C 
HETATM    2  C4  UNL     1       1.368  12.214  24.772  1.00  0.00     0.027 C 
HETATM    3  C5  UNL     1      -0.707  11.180  25.811  1.00  0.00     0.005 C 
HETATM    4  C6  UNL     1       0.141  10.539  26.873  1.00  0.00     0.015 C 
HETATM    5  C7  UNL     1       1.108   9.535  26.412  1.00  0.00     0.045 C 
HETATM    6  C8  UNL     1       0.934   8.222  27.135  1.00  0.00     0.107 A 
HETATM    7  C9  UNL     1       1.539   8.078  28.438  1.00  0.00     0.026 A 
HETATM    8  C10 UNL     1       2.384   7.111  28.738  1.00  0.00    -0.013 A 
HETATM    9  C11 UNL     1       2.940   7.076  30.151  1.00  0.00     0.052 C 
HETATM   10  C12 UNL     1       2.818   6.132  27.762  1.00  0.00     0.178 A 
HETATM   11  O4  UNL     1       3.615   5.205  28.000  1.00  0.00    -0.288 OA
HETATM   12  C13 UNL     1       2.246   6.305  26.434  1.00  0.00     0.064 A 
HETATM   13  C14 UNL     1       1.406   7.246  26.145  1.00  0.00    -0.003 A 
HETATM   14  C15 UNL     1       0.753   7.718  24.827  1.00  0.00     0.093 C 
HETATM   15  C16 UNL     1       1.487   7.042  23.688  1.00  0.00     0.052 C 
HETATM   16  C17 UNL     1       0.989   9.197  24.923  1.00  0.00     0.025 C 
HETATM   17  C24 UNL     1       0.003  10.064  24.240  1.00  0.00     0.020 C 
HETATM   18  C25 UNL     1      -1.359  10.157  24.906  1.00  0.00     0.013 C 
ENDROOT
BRANCH  16  19
HETATM   19  C18 UNL     1       2.323   9.427  24.259  1.00  0.00    -0.003 C 
HETATM   20  C19 UNL     1       3.362   9.778  24.967  1.00  0.00     0.080 C 
BRANCH  20  21
HETATM   21  S1  UNL     1       4.936  10.049  24.178  1.00  0.00     0.063 S 
HETATM   22  O6  UNL     1       5.600  11.462  24.733  1.00  0.00    -0.249 OA
BRANCH  21  23
HETATM   23  C20 UNL     1       5.935   8.655  24.432  1.00  0.00     0.085 C 
HETATM   24  C21 UNL     1       7.039   8.512  23.720  1.00  0.00    -0.079 C 
HETATM   25  C22 UNL     1       7.903   7.312  23.934  1.00  0.00     0.043 C 
HETATM   26  C23 UNL     1       7.421   9.529  22.713  1.00  0.00     0.043 C 
ENDBRANCH  21  23
ENDBRANCH  20  21
ENDBRANCH  16  19
BRANCH  14  27
HETATM   27  O5  UNL     1      -0.557   7.332  24.756  1.00  0.00    -0.384 OA
ATOM     28  H5  UNL     1      -1.142   8.065  24.911  1.00  0.00     0.211 HD
ENDBRANCH  14  27
BRANCH   6  29
HETATM   29  O3  UNL     1      -0.452   7.974  27.372  1.00  0.00    -0.381 OA
ATOM     30  H3  UNL     1      -0.903   8.790  27.552  1.00  0.00     0.211 HD
ENDBRANCH   6  29
BRANCH   1  31
HETATM   31  C2  UNL     1      -0.770  12.322  23.635  1.00  0.00     0.267 C 
HETATM   32  O2  UNL     1      -2.004  12.464  23.825  1.00  0.00    -0.264 OA
BRANCH  31  33
HETATM   33  O1  UNL     1      -0.217  12.955  22.527  1.00  0.00    -0.326 OA
HETATM   34  C1  UNL     1      -0.844  13.073  21.290  1.00  0.00     0.213 C 
ENDBRANCH  31  33
ENDBRANCH   1  31
TORSDOF 7
ENDMDL
MODEL 4
REMARK VINA RESULT: -8.042509853      2.562      6.981
REMARK  7 active torsions:
REMARK  status: ('A' for Active; 'I' for Inactive)
REMARK    1  A    between atoms: O1_2  and  C2_3 
REMARK    2  A    between atoms: C2_3  and  C3_5 
REMARK    3  A    between atoms: C8_10  and  O3_11 
REMARK    4  A    between atoms: C15_20  and  O5_22 
REMARK    5  A    between atoms: C17_24  and  C18_25 
REMARK    6  A    between atoms: C19_26  and  S1_27 
REMARK    7  A    between atoms: S1_27  and  C20_29 
ROOT
HETATM    1  C3  UNL     1       3.770   8.062  24.082  1.00  0.00     0.053 C 
HETATM    2  C4  UNL     1       3.657   7.797  25.514  1.00  0.00     0.027 C 
HETATM    3  C5  UNL     1       5.155   8.507  23.590  1.00  0.00     0.005 C 
HETATM    4  C6  UNL     1       5.712   9.620  24.431  1.00  0.00     0.015 C 
HETATM    5  C7  UNL     1       4.764  10.667  24.831  1.00  0.00     0.045 C 
HETATM    6  C8  UNL     1       5.249  12.039  24.432  1.00  0.00     0.107 A 
HETATM    7  C9  UNL     1       6.204  12.699  25.290  1.00  0.00     0.026 A 
HETATM    8  C10 UNL     1       6.003  13.896  25.806  1.00  0.00    -0.013 A 
HETATM    9  C11 UNL     1       7.096  14.474  26.688  1.00  0.00     0.052 C 
HETATM   10  C12 UNL     1       4.775  14.635  25.592  1.00  0.00     0.178 A 
HETATM   11  O4  UNL     1       4.542  15.766  26.060  1.00  0.00    -0.288 OA
HETATM   12  C13 UNL     1       3.791  13.950  24.765  1.00  0.00     0.064 A 
HETATM   13  C14 UNL     1       3.995  12.782  24.249  1.00  0.00    -0.003 A 
HETATM   14  C15 UNL     1       3.104  11.801  23.454  1.00  0.00     0.093 C 
HETATM   15  C16 UNL     1       1.676  12.293  23.566  1.00  0.00     0.052 C 
HETATM   16  C17 UNL     1       3.378  10.525  24.193  1.00  0.00     0.025 C 
HETATM   17  C24 UNL     1       3.260   9.274  23.411  1.00  0.00     0.020 C 
HETATM   18  C25 UNL     1       4.369   9.025  22.404  1.00  0.00     0.013 C 
ENDROOT
BRANCH  16  19
HETATM   19  C18 UNL     1       2.339  10.471  25.285  1.00  0.00    -0.003 C 
HETATM   20  C19 UNL     1       1.159   9.965  25.050  1.00  0.00     0.080 C 
BRANCH  20  21
HETATM   21  S1  UNL     1      -0.064   9.902  26.343  1.00  0.00     0.063 S 
HETATM   22  O6  UNL     1      -1.350  10.865  25.939  1.00  0.00    -0.249 OA
BRANCH  21  23
HETATM   23  C20 UNL     1      -0.490   8.246  26.630  1.00  0.00     0.085 C 
HETATM   24  C21 UNL     1       0.164   7.559  27.550  1.00  0.00    -0.079 C 
HETATM   25  C22 UNL     1      -0.198   6.132  27.801  1.00  0.00     0.043 C 
HETATM   26  C23 UNL     1       1.251   8.196  28.331  1.00  0.00     0.043 C 
ENDBRANCH  21  23
ENDBRANCH  20  21
ENDBRANCH  16  19
BRANCH  14  27
HETATM   27  O5  UNL     1       3.432  11.798  22.127  1.00  0.00    -0.384 OA
ATOM     28  H5  UNL     1       2.881  11.199  21.636  1.00  0.00     0.211 HD
ENDBRANCH  14  27
BRANCH   6  29
HETATM   29  O3  UNL     1       5.912  11.975  23.169  1.00  0.00    -0.381 OA
ATOM     30  H3  UNL     1       5.638  12.700  22.620  1.00  0.00     0.211 HD
ENDBRANCH   6  29
BRANCH   1  31
HETATM   31  C2  UNL     1       3.390   6.818  23.313  1.00  0.00     0.267 C 
HETATM   32  O2  UNL     1       4.178   5.852  23.151  1.00  0.00    -0.264 OA
BRANCH  31  33
HETATM   33  O1  UNL     1       2.124   6.712  22.749  1.00  0.00    -0.326 OA
HETATM   34  C1  UNL     1       0.943   6.587  23.476  1.00  0.00     0.213 C 
ENDBRANCH  31  33
ENDBRANCH   1  31
TORSDOF 7
ENDMDL
MODEL 5
REMARK VINA RESULT: -8.031725727      2.712      7.093
REMARK  7 active torsions:
REMARK  status: ('A' for Active; 'I' for Inactive)
REMARK    1  A    between atoms: O1_2  and  C2_3 
REMARK    2  A    between atoms: C2_3  and  C3_5 
REMARK    3  A    between atoms: C8_10  and  O3_11 
REMARK    4  A    between atoms: C15_20  and  O5_22 
REMARK    5  A    between atoms: C17_24  and  C18_25 
REMARK    6  A    between atoms: C19_26  and  S1_27 
REMARK    7  A    between atoms: S1_27  and  C20_29 
ROOT
HETATM    1  C3  UNL     1       3.994   7.553  23.739  1.00  0.00     0.053 C 
HETATM    2  C4  UNL     1       4.073   7.128  25.135  1.00  0.00     0.027 C 
HETATM    3  C5  UNL     1       5.313   8.018  23.104  1.00  0.00     0.005 C 
HETATM    4  C6  UNL     1       6.027   9.014  23.974  1.00  0.00     0.015 C 
HETATM    5  C7  UNL     1       5.188  10.031  24.619  1.00  0.00     0.045 C 
HETATM    6  C8  UNL     1       5.666  11.428  24.308  1.00  0.00     0.107 A 
HETATM    7  C9  UNL     1       6.758  11.962  25.086  1.00  0.00     0.026 A 
HETATM    8  C10 UNL     1       6.680  13.096  25.754  1.00  0.00    -0.013 A 
HETATM    9  C11 UNL     1       7.908  13.543  26.528  1.00  0.00     0.052 C 
HETATM   10  C12 UNL     1       5.465  13.885  25.802  1.00  0.00     0.178 A 
HETATM   11  O4  UNL     1       5.346  14.959  26.421  1.00  0.00    -0.288 OA
HETATM   12  C13 UNL     1       4.348  13.322  25.056  1.00  0.00     0.064 A 
HETATM   13  C14 UNL     1       4.430  12.216  24.390  1.00  0.00    -0.003 A 
HETATM   14  C15 UNL     1       3.397  11.355  23.629  1.00  0.00     0.093 C 
HETATM   15  C16 UNL     1       2.020  11.865  24.000  1.00  0.00     0.052 C 
HETATM   16  C17 UNL     1       3.721   9.997  24.176  1.00  0.00     0.025 C 
HETATM   17  C24 UNL     1       3.444   8.847  23.286  1.00  0.00     0.020 C 
HETATM   18  C25 UNL     1       4.390   8.687  22.109  1.00  0.00     0.013 C 
ENDROOT
BRANCH  16  19
HETATM   19  C18 UNL     1       2.845   9.842  25.393  1.00  0.00    -0.003 C 
HETATM   20  C19 UNL     1       1.616   9.420  25.274  1.00  0.00     0.080 C 
BRANCH  20  21
HETATM   21  S1  UNL     1       0.585   9.238  26.716  1.00  0.00     0.063 S 
HETATM   22  O6  UNL     1      -0.401  10.562  26.864  1.00  0.00    -0.249 OA
BRANCH  21  23
HETATM   23  C20 UNL     1      -0.271   7.734  26.605  1.00  0.00     0.085 C 
HETATM   24  C21 UNL     1       0.250   6.652  27.156  1.00  0.00    -0.079 C 
HETATM   25  C22 UNL     1      -0.484   5.353  27.063  1.00  0.00     0.043 C 
HETATM   26  C23 UNL     1       1.551   6.719  27.861  1.00  0.00     0.043 C 
ENDBRANCH  21  23
ENDBRANCH  20  21
ENDBRANCH  16  19
BRANCH  14  27
HETATM   27  O5  UNL     1       3.535  11.496  22.276  1.00  0.00    -0.384 OA
ATOM     28  H5  UNL     1       3.023  10.847  21.808  1.00  0.00     0.211 HD
ENDBRANCH  14  27
BRANCH   6  29
HETATM   29  O3  UNL     1       6.142  11.493  22.963  1.00  0.00    -0.381 OA
ATOM     30  H3  UNL     1       7.082  11.623  22.955  1.00  0.00     0.211 HD
ENDBRANCH   6  29
BRANCH   1  31
HETATM   31  C2  UNL     1       3.461   6.415  22.901  1.00  0.00     0.267 C 
HETATM   32  O2  UNL     1       2.257   6.337  22.548  1.00  0.00    -0.264 OA
BRANCH  31  33
HETATM   33  O1  UNL     1       4.315   5.398  22.490  1.00  0.00    -0.326 OA
HETATM   34  C1  UNL     1       4.204   4.712  21.284  1.00  0.00     0.213 C 
ENDBRANCH  31  33
ENDBRANCH   1  31
TORSDOF 7
ENDMDL
