MODEL 1
REMARK VINA RESULT: -6.641466899      0.000      0.000
REMARK  7 active torsions:
REMARK  status: ('A' for Active; 'I' for Inactive)
REMARK    1  A    between atoms: O1_2  and  C2_3 
REMARK    2  A    between atoms: C2_3  and  C3_5 
REMARK    3  A    between atoms: C15_17  and  O3_18 
REMARK    4  A    between atoms: C17_21  and  O4_22 
REMARK    5  A    between atoms: C20_26  and  C21_27 
REMARK    6  A    between atoms: C26_32  and  C27_33 
REMARK    7  A    between atoms: C27_33  and  O5_34 
ROOT
HETATM    1  C3  UNL     1       1.087   4.516  27.317  1.00  0.00     0.101 C 
HETATM    2  C4  UNL     1       0.103   4.616  26.124  1.00  0.00     0.016 C 
HETATM    3  C5  UNL     1      -0.397   5.974  26.446  1.00  0.00     0.007 C 
HETATM    4  C6  UNL     1       0.751   6.709  27.123  1.00  0.00     0.009 C 
HETATM    5  C7  UNL     1       0.875   8.110  26.819  1.00  0.00    -0.040 C 
HETATM    6  C8  UNL     1      -0.127   8.893  27.746  1.00  0.00     0.015 C 
HETATM    7  C9  UNL     1       2.118   8.877  26.936  1.00  0.00     0.015 C 
HETATM    8  C10 UNL     1       0.234   8.519  25.479  1.00  0.00     0.036 C 
HETATM    9  C11 UNL     1       0.776   7.814  24.337  1.00  0.00    -0.025 C 
HETATM   10  C12 UNL     1       1.755   6.981  24.040  1.00  0.00     0.004 C 
HETATM   11  C13 UNL     1       2.817   6.356  24.817  1.00  0.00    -0.037 C 
HETATM   12  C14 UNL     1       2.875   5.853  26.093  1.00  0.00    -0.032 C 
HETATM   13  C15 UNL     1       4.188   5.324  26.428  1.00  0.00     0.153 C 
HETATM   14  C16 UNL     1       5.072   4.824  25.345  1.00  0.00     0.109 C 
HETATM   15  C17 UNL     1       4.820   5.180  23.952  1.00  0.00     0.276 C 
HETATM   16  N1  UNL     1       5.872   6.036  23.430  1.00  0.00     0.127 N 
HETATM   17  C19 UNL     1       7.201   5.799  23.879  1.00  0.00     0.314 C 
HETATM   18  C20 UNL     1       5.156   7.136  24.104  1.00  0.00     0.247 C 
HETATM   19  C24 UNL     1       3.913   6.378  23.867  1.00  0.00     0.076 C 
HETATM   20  C25 UNL     1       3.548   6.518  22.406  1.00  0.00     0.028 C 
HETATM   21  C26 UNL     1       1.936   5.753  27.208  1.00  0.00     0.024 C 
ENDROOT
BRANCH   1  22
HETATM   22  C2  UNL     1       1.542   3.193  27.298  1.00  0.00     0.263 C 
HETATM   23  O2  UNL     1       2.059   2.592  28.289  1.00  0.00    -0.265 OA
BRANCH  22  24
HETATM   24  O1  UNL     1       1.451   2.406  26.130  1.00  0.00    -0.326 OA
HETATM   25  C1  UNL     1       2.599   1.887  25.499  1.00  0.00     0.213 C 
ENDBRANCH  22  24
ENDBRANCH   1  22
BRANCH  21  26
HETATM   26  C27 UNL     1       2.553   5.949  28.564  1.00  0.00     0.179 C 
BRANCH  26  27
HETATM   27  O5  UNL     1       1.570   6.185  29.569  1.00  0.00    -0.400 OA
ATOM     28  H5  UNL     1       1.211   5.376  29.914  1.00  0.00     0.209 HD
ENDBRANCH  26  27
ENDBRANCH  21  26
BRANCH  13  29
HETATM   29  O3  UNL     1       4.365   4.342  27.355  1.00  0.00    -0.391 OA
ATOM     30  H3  UNL     1       4.711   4.517  28.222  1.00  0.00     0.210 HD
ENDBRANCH  13  29
BRANCH  15  31
HETATM   31  O4  UNL     1       4.380   4.196  23.093  1.00  0.00    -0.356 OA
HETATM   32  C18 UNL     1       5.097   3.047  23.030  1.00  0.00     0.205 C 
ENDBRANCH  15  31
BRANCH  18  33
HETATM   33  C21 UNL     1       5.380   8.400  23.304  1.00  0.00     0.012 C 
HETATM   34  C22 UNL     1       6.823   8.902  23.485  1.00  0.00     0.012 C 
HETATM   35  C23 UNL     1       4.503   9.481  23.891  1.00  0.00     0.012 C 
ENDBRANCH  18  33
TORSDOF 7
ENDMDL
MODEL 2
REMARK VINA RESULT: -6.390008010      2.287      3.870
REMARK  7 active torsions:
REMARK  status: ('A' for Active; 'I' for Inactive)
REMARK    1  A    between atoms: O1_2  and  C2_3 
REMARK    2  A    between atoms: C2_3  and  C3_5 
REMARK    3  A    between atoms: C15_17  and  O3_18 
REMARK    4  A    between atoms: C17_21  and  O4_22 
REMARK    5  A    between atoms: C20_26  and  C21_27 
REMARK    6  A    between atoms: C26_32  and  C27_33 
REMARK    7  A    between atoms: C27_33  and  O5_34 
ROOT
HETATM    1  C3  UNL     1       2.029   5.916  24.003  1.00  0.00     0.101 C 
HETATM    2  C4  UNL     1       0.901   6.705  23.292  1.00  0.00     0.016 C 
HETATM    3  C5  UNL     1       0.242   7.186  24.530  1.00  0.00     0.007 C 
HETATM    4  C6  UNL     1       1.339   7.334  25.575  1.00  0.00     0.009 C 
HETATM    5  C7  UNL     1       1.207   8.445  26.481  1.00  0.00    -0.040 C 
HETATM    6  C8  UNL     1       0.220   8.013  27.628  1.00  0.00     0.015 C 
HETATM    7  C9  UNL     1       2.321   9.061  27.205  1.00  0.00     0.015 C 
HETATM    8  C10 UNL     1       0.349   9.601  25.933  1.00  0.00     0.036 C 
HETATM    9  C11 UNL     1       0.847  10.156  24.693  1.00  0.00    -0.025 C 
HETATM   10  C12 UNL     1       1.897  10.068  23.900  1.00  0.00     0.004 C 
HETATM   11  C13 UNL     1       3.131   9.294  23.946  1.00  0.00    -0.037 C 
HETATM   12  C14 UNL     1       3.424   8.017  24.354  1.00  0.00    -0.032 C 
HETATM   13  C15 UNL     1       4.835   7.691  24.208  1.00  0.00     0.153 C 
HETATM   14  C16 UNL     1       5.643   8.391  23.180  1.00  0.00     0.109 C 
HETATM   15  C17 UNL     1       5.168   9.632  22.574  1.00  0.00     0.276 C 
HETATM   16  N1  UNL     1       6.003  10.757  22.959  1.00  0.00     0.127 N 
HETATM   17  C19 UNL     1       7.397  10.524  23.113  1.00  0.00     0.314 C 
HETATM   18  C20 UNL     1       5.216  10.769  24.207  1.00  0.00     0.247 C 
HETATM   19  C24 UNL     1       4.084  10.251  23.415  1.00  0.00     0.076 C 
HETATM   20  C25 UNL     1       3.523  11.391  22.594  1.00  0.00     0.028 C 
HETATM   21  C26 UNL     1       2.658   6.916  24.934  1.00  0.00     0.024 C 
ENDROOT
BRANCH   1  22
HETATM   22  C2  UNL     1       2.676   5.214  22.981  1.00  0.00     0.263 C 
HETATM   23  O2  UNL     1       3.339   4.144  23.145  1.00  0.00    -0.265 OA
BRANCH  22  24
HETATM   24  O1  UNL     1       2.634   5.665  21.643  1.00  0.00    -0.326 OA
HETATM   25  C1  UNL     1       3.238   4.937  20.599  1.00  0.00     0.213 C 
ENDBRANCH  22  24
ENDBRANCH   1  22
BRANCH  21  26
HETATM   26  C27 UNL     1       3.401   6.110  25.962  1.00  0.00     0.179 C 
BRANCH  26  27
HETATM   27  O5  UNL     1       2.565   5.139  26.587  1.00  0.00    -0.400 OA
ATOM     28  H5  UNL     1       3.037   4.624  27.231  1.00  0.00     0.209 HD
ENDBRANCH  26  27
ENDBRANCH  21  26
BRANCH  13  29
HETATM   29  O3  UNL     1       5.275   6.414  24.032  1.00  0.00    -0.391 OA
ATOM     30  H3  UNL     1       5.907   6.008  24.613  1.00  0.00     0.210 HD
ENDBRANCH  13  29
BRANCH  15  31
HETATM   31  O4  UNL     1       4.782   9.610  21.251  1.00  0.00    -0.356 OA
HETATM   32  C18 UNL     1       4.720   8.406  20.632  1.00  0.00     0.205 C 
ENDBRANCH  15  31
BRANCH  18  33
HETATM   33  C21 UNL     1       5.141  12.197  24.700  1.00  0.00     0.012 C 
HETATM   34  C22 UNL     1       6.426  12.571  25.460  1.00  0.00     0.012 C 
HETATM   35  C23 UNL     1       4.033  12.276  25.724  1.00  0.00     0.012 C 
ENDBRANCH  18  33
TORSDOF 7
ENDMDL
MODEL 3
REMARK VINA RESULT: -6.210891368      0.840      1.041
REMARK  7 active torsions:
REMARK  status: ('A' for Active; 'I' for Inactive)
REMARK    1  A    between atoms: O1_2  and  C2_3 
REMARK    2  A    between atoms: C2_3  and  C3_5 
REMARK    3  A    between atoms: C15_17  and  O3_18 
REMARK    4  A    between atoms: C17_21  and  O4_22 
REMARK    5  A    between atoms: C20_26  and  C21_27 
REMARK    6  A    between atoms: C26_32  and  C27_33 
REMARK    7  A    between atoms: C27_33  and  O5_34 
ROOT
HETATM    1  C3  UNL     1       1.491   4.408  26.658  1.00  0.00     0.101 C 
HETATM    2  C4  UNL     1       0.584   4.626  25.420  1.00  0.00     0.016 C 
HETATM    3  C5  UNL     1      -0.059   5.868  25.914  1.00  0.00     0.007 C 
HETATM    4  C6  UNL     1       0.970   6.569  26.790  1.00  0.00     0.009 C 
HETATM    5  C7  UNL     1       0.985   8.006  26.725  1.00  0.00    -0.040 C 
HETATM    6  C8  UNL     1      -0.144   8.542  27.680  1.00  0.00     0.015 C 
HETATM    7  C9  UNL     1       2.141   8.839  27.063  1.00  0.00     0.015 C 
HETATM    8  C10 UNL     1       0.401   8.580  25.420  1.00  0.00     0.036 C 
HETATM    9  C11 UNL     1       1.080   8.120  24.228  1.00  0.00    -0.025 C 
HETATM   10  C12 UNL     1       2.149   7.429  23.882  1.00  0.00     0.004 C 
HETATM   11  C13 UNL     1       3.209   6.769  24.633  1.00  0.00    -0.037 C 
HETATM   12  C14 UNL     1       3.227   6.067  25.812  1.00  0.00    -0.032 C 
HETATM   13  C15 UNL     1       4.558   5.595  26.164  1.00  0.00     0.153 C 
HETATM   14  C16 UNL     1       5.555   5.354  25.091  1.00  0.00     0.109 C 
HETATM   15  C17 UNL     1       5.365   5.915  23.756  1.00  0.00     0.276 C 
HETATM   16  N1  UNL     1       6.367   6.927  23.466  1.00  0.00     0.127 N 
HETATM   17  C19 UNL     1       7.678   6.725  23.977  1.00  0.00     0.314 C 
HETATM   18  C20 UNL     1       5.510   7.839  24.246  1.00  0.00     0.247 C 
HETATM   19  C24 UNL     1       4.360   7.036  23.790  1.00  0.00     0.076 C 
HETATM   20  C25 UNL     1       4.083   7.387  22.346  1.00  0.00     0.028 C 
HETATM   21  C26 UNL     1       2.229   5.709  26.817  1.00  0.00     0.024 C 
ENDROOT
BRANCH   1  22
HETATM   22  C2  UNL     1       2.065   3.147  26.465  1.00  0.00     0.263 C 
HETATM   23  O2  UNL     1       2.646   2.771  25.401  1.00  0.00    -0.265 OA
BRANCH  22  24
HETATM   24  O1  UNL     1       2.037   2.168  27.482  1.00  0.00    -0.326 OA
HETATM   25  C1  UNL     1       0.879   1.411  27.747  1.00  0.00     0.213 C 
ENDBRANCH  22  24
ENDBRANCH   1  22
BRANCH  21  26
HETATM   26  C27 UNL     1       2.733   5.725  28.233  1.00  0.00     0.179 C 
BRANCH  26  27
HETATM   27  O5  UNL     1       1.675   5.883  29.175  1.00  0.00    -0.400 OA
ATOM     28  H5  UNL     1       1.059   6.556  28.909  1.00  0.00     0.209 HD
ENDBRANCH  26  27
ENDBRANCH  21  26
BRANCH  13  29
HETATM   29  O3  UNL     1       4.762   4.491  26.934  1.00  0.00    -0.391 OA
ATOM     30  H3  UNL     1       5.615   4.264  27.284  1.00  0.00     0.210 HD
ENDBRANCH  13  29
BRANCH  15  31
HETATM   31  O4  UNL     1       5.076   5.057  22.718  1.00  0.00    -0.356 OA
HETATM   32  C18 UNL     1       5.593   3.805  22.773  1.00  0.00     0.205 C 
ENDBRANCH  15  31
BRANCH  18  33
HETATM   33  C21 UNL     1       5.671   9.233  23.679  1.00  0.00     0.012 C 
HETATM   34  C22 UNL     1       7.072   9.783  23.994  1.00  0.00     0.012 C 
HETATM   35  C23 UNL     1       4.710  10.143  24.408  1.00  0.00     0.012 C 
ENDBRANCH  18  33
TORSDOF 7
ENDMDL
MODEL 4
REMARK VINA RESULT: -5.945707803      2.428      4.991
REMARK  7 active torsions:
REMARK  status: ('A' for Active; 'I' for Inactive)
REMARK    1  A    between atoms: O1_2  and  C2_3 
REMARK    2  A    between atoms: C2_3  and  C3_5 
REMARK    3  A    between atoms: C15_17  and  O3_18 
REMARK    4  A    between atoms: C17_21  and  O4_22 
REMARK    5  A    between atoms: C20_26  and  C21_27 
REMARK    6  A    between atoms: C26_32  and  C27_33 
REMARK    7  A    between atoms: C27_33  and  O5_34 
ROOT
HETATM    1  C3  UNL     1       2.267   8.337  25.025  1.00  0.00     0.101 C 
HETATM    2  C4  UNL     1       2.682   8.413  26.516  1.00  0.00     0.016 C 
HETATM    3  C5  UNL     1       1.616   7.515  27.021  1.00  0.00     0.007 C 
HETATM    4  C6  UNL     1       1.320   6.524  25.904  1.00  0.00     0.009 C 
HETATM    5  C7  UNL     1       1.013   5.179  26.314  1.00  0.00    -0.040 C 
HETATM    6  C8  UNL     1      -0.509   5.134  26.711  1.00  0.00     0.015 C 
HETATM    7  C9  UNL     1       1.178   3.996  25.466  1.00  0.00     0.015 C 
HETATM    8  C10 UNL     1       1.569   4.805  27.701  1.00  0.00     0.036 C 
HETATM    9  C11 UNL     1       3.007   4.934  27.803  1.00  0.00    -0.025 C 
HETATM   10  C12 UNL     1       4.054   5.171  27.036  1.00  0.00     0.004 C 
HETATM   11  C13 UNL     1       4.222   5.428  25.612  1.00  0.00    -0.037 C 
HETATM   12  C14 UNL     1       3.481   6.124  24.690  1.00  0.00    -0.032 C 
HETATM   13  C15 UNL     1       4.067   6.091  23.358  1.00  0.00     0.153 C 
HETATM   14  C16 UNL     1       5.532   5.905  23.210  1.00  0.00     0.109 C 
HETATM   15  C17 UNL     1       6.336   5.396  24.318  1.00  0.00     0.276 C 
HETATM   16  N1  UNL     1       6.866   4.077  24.018  1.00  0.00     0.127 N 
HETATM   17  C19 UNL     1       7.247   3.807  22.675  1.00  0.00     0.314 C 
HETATM   18  C20 UNL     1       5.539   3.575  24.420  1.00  0.00     0.247 C 
HETATM   19  C24 UNL     1       5.461   4.724  25.342  1.00  0.00     0.076 C 
HETATM   20  C25 UNL     1       6.357   4.437  26.527  1.00  0.00     0.028 C 
HETATM   21  C26 UNL     1       2.221   6.865  24.723  1.00  0.00     0.024 C 
ENDROOT
BRANCH   1  22
HETATM   22  C2  UNL     1       3.063   9.292  24.381  1.00  0.00     0.263 C 
HETATM   23  O2  UNL     1       2.788   9.828  23.265  1.00  0.00    -0.265 OA
BRANCH  22  24
HETATM   24  O1  UNL     1       4.273   9.741  24.954  1.00  0.00    -0.326 OA
HETATM   25  C1  UNL     1       5.479   9.740  24.225  1.00  0.00     0.213 C 
ENDBRANCH  22  24
ENDBRANCH   1  22
BRANCH  21  26
HETATM   26  C27 UNL     1       1.382   6.725  23.484  1.00  0.00     0.179 C 
BRANCH  26  27
HETATM   27  O5  UNL     1       0.065   7.239  23.670  1.00  0.00    -0.400 OA
ATOM     28  H5  UNL     1      -0.293   7.600  22.868  1.00  0.00     0.209 HD
ENDBRANCH  26  27
ENDBRANCH  21  26
BRANCH  13  29
HETATM   29  O3  UNL     1       3.856   7.076  22.442  1.00  0.00    -0.391 OA
ATOM     30  H3  UNL     1       4.549   7.416  21.890  1.00  0.00     0.210 HD
ENDBRANCH  13  29
BRANCH  15  31
HETATM   31  O4  UNL     1       7.213   6.257  24.942  1.00  0.00    -0.356 OA
HETATM   32  C18 UNL     1       7.992   7.041  24.157  1.00  0.00     0.205 C 
ENDBRANCH  15  31
BRANCH  18  33
HETATM   33  C21 UNL     1       5.720   2.197  25.017  1.00  0.00     0.012 C 
HETATM   34  C22 UNL     1       6.053   1.174  23.917  1.00  0.00     0.012 C 
HETATM   35  C23 UNL     1       4.388   1.758  25.582  1.00  0.00     0.012 C 
ENDBRANCH  18  33
TORSDOF 7
ENDMDL
MODEL 5
REMARK VINA RESULT: -5.817061362      1.537      2.036
REMARK  7 active torsions:
REMARK  status: ('A' for Active; 'I' for Inactive)
REMARK    1  A    between atoms: O1_2  and  C2_3 
REMARK    2  A    between atoms: C2_3  and  C3_5 
REMARK    3  A    between atoms: C15_17  and  O3_18 
REMARK    4  A    between atoms: C17_21  and  O4_22 
REMARK    5  A    between atoms: C20_26  and  C21_27 
REMARK    6  A    between atoms: C26_32  and  C27_33 
REMARK    7  A    between atoms: C27_33  and  O5_34 
ROOT
HETATM    1  C3  UNL     1       1.153   4.062  27.014  1.00  0.00     0.101 C 
HETATM    2  C4  UNL     1      -0.187   4.636  26.488  1.00  0.00     0.016 C 
HETATM    3  C5  UNL     1      -0.418   5.560  27.624  1.00  0.00     0.007 C 
HETATM    4  C6  UNL     1       0.956   5.981  28.125  1.00  0.00     0.009 C 
HETATM    5  C7  UNL     1       1.077   7.342  28.576  1.00  0.00    -0.040 C 
HETATM    6  C8  UNL     1       0.554   7.405  30.059  1.00  0.00     0.015 C 
HETATM    7  C9  UNL     1       2.336   8.089  28.628  1.00  0.00     0.015 C 
HETATM    8  C10 UNL     1       0.027   8.296  27.976  1.00  0.00     0.036 C 
HETATM    9  C11 UNL     1       0.053   8.352  26.531  1.00  0.00    -0.025 C 
HETATM   10  C12 UNL     1       0.781   7.921  25.519  1.00  0.00     0.004 C 
HETATM   11  C13 UNL     1       1.997   7.124  25.421  1.00  0.00    -0.037 C 
HETATM   12  C14 UNL     1       2.475   6.049  26.128  1.00  0.00    -0.032 C 
HETATM   13  C15 UNL     1       3.770   5.593  25.647  1.00  0.00     0.153 C 
HETATM   14  C16 UNL     1       4.152   5.835  24.233  1.00  0.00     0.109 C 
HETATM   15  C17 UNL     1       3.438   6.821  23.426  1.00  0.00     0.276 C 
HETATM   16  N1  UNL     1       4.294   7.947  23.096  1.00  0.00     0.127 N 
HETATM   17  C19 UNL     1       5.670   7.683  22.851  1.00  0.00     0.314 C 
HETATM   18  C20 UNL     1       3.970   8.445  24.446  1.00  0.00     0.247 C 
HETATM   19  C24 UNL     1       2.667   7.768  24.306  1.00  0.00     0.076 C 
HETATM   20  C25 UNL     1       1.806   8.591  23.374  1.00  0.00     0.028 C 
HETATM   21  C26 UNL     1       2.004   5.274  27.274  1.00  0.00     0.024 C 
ENDROOT
BRANCH   1  22
HETATM   22  C2  UNL     1       1.456   3.005  26.148  1.00  0.00     0.263 C 
HETATM   23  O2  UNL     1       2.175   2.004  26.452  1.00  0.00    -0.265 OA
BRANCH  22  24
HETATM   24  O1  UNL     1       0.963   2.979  24.825  1.00  0.00    -0.326 OA
HETATM   25  C1  UNL     1       1.809   2.728  23.727  1.00  0.00     0.213 C 
ENDBRANCH  22  24
ENDBRANCH   1  22
BRANCH  21  26
HETATM   26  C27 UNL     1       3.089   4.822  28.210  1.00  0.00     0.179 C 
BRANCH  26  27
HETATM   27  O5  UNL     1       2.899   3.475  28.637  1.00  0.00    -0.400 OA
ATOM     28  H5  UNL     1       3.722   3.005  28.713  1.00  0.00     0.209 HD
ENDBRANCH  26  27
ENDBRANCH  21  26
BRANCH  13  29
HETATM   29  O3  UNL     1       4.191   4.306  25.792  1.00  0.00    -0.391 OA
ATOM     30  H3  UNL     1       3.710   3.569  25.436  1.00  0.00     0.210 HD
ENDBRANCH  13  29
BRANCH  15  31
HETATM   31  O4  UNL     1       2.633   6.372  22.402  1.00  0.00    -0.356 OA
HETATM   32  C18 UNL     1       3.151   5.454  21.549  1.00  0.00     0.205 C 
ENDBRANCH  15  31
BRANCH  18  33
HETATM   33  C21 UNL     1       3.991   9.958  24.404  1.00  0.00     0.012 C 
HETATM   34  C22 UNL     1       5.432  10.479  24.542  1.00  0.00     0.012 C 
HETATM   35  C23 UNL     1       3.264  10.464  25.629  1.00  0.00     0.012 C 
ENDBRANCH  18  33
TORSDOF 7
ENDMDL
