MODEL 1
REMARK VINA RESULT: -9.175740784      0.000      0.000
REMARK  6 active torsions:
REMARK  status: ('A' for Active; 'I' for Inactive)
REMARK    1  A    between atoms: C6_6  and  O1_7 
REMARK    2  A    between atoms: O1_7  and  C7_8 
REMARK    3  A    between atoms: C7_8  and  C8_10 
REMARK    4  A    between atoms: C9_11  and  C10_12 
REMARK       I    between atoms: C10_12  and  N1_14 
REMARK    5  A    between atoms: C15_20  and  O4_21 
REMARK    6  A    between atoms: C20_26  and  O5_27 
ROOT
HETATM    1  C1  UNL     1       4.329   5.930  21.863  1.00  0.00     0.017 C 
HETATM    2  C2  UNL     1       3.521   6.697  22.587  1.00  0.00    -0.060 C 
HETATM    3  C3  UNL     1       2.384   6.091  23.321  1.00  0.00     0.036 C 
HETATM    4  C4  UNL     1       1.108   6.826  23.282  1.00  0.00     0.014 C 
HETATM    5  C5  UNL     1       0.476   7.050  24.663  1.00  0.00     0.054 C 
HETATM    6  C6  UNL     1       0.670   8.454  25.150  1.00  0.00     0.143 C 
HETATM    7  C12 UNL     1       1.595   8.684  26.255  1.00  0.00     0.019 C 
HETATM    8  C13 UNL     1       3.064   8.776  25.964  1.00  0.00     0.010 C 
HETATM    9  C14 UNL     1       3.474   9.841  25.021  1.00  0.00     0.033 C 
HETATM   10  C15 UNL     1       4.815   9.638  24.395  1.00  0.00     0.131 C 
HETATM   11  C17 UNL     1       5.008   8.546  23.427  1.00  0.00     0.008 C 
HETATM   12  C18 UNL     1       5.689   7.372  24.108  1.00  0.00     0.020 C 
HETATM   13  C19 UNL     1       6.076   9.069  22.437  1.00  0.00     0.020 C 
HETATM   14  C20 UNL     1       3.846   8.146  22.595  1.00  0.00     0.156 C 
HETATM   15  C21 UNL     1       1.467   7.726  27.421  1.00  0.00    -0.012 C 
HETATM   16  C22 UNL     1       1.965   8.387  28.698  1.00  0.00     0.010 C 
HETATM   17  C23 UNL     1       0.096   7.220  27.661  1.00  0.00     0.015 C 
HETATM   18  C24 UNL     1      -0.358   6.170  26.719  1.00  0.00     0.056 A 
HETATM   19  C25 UNL     1       0.366   5.000  26.310  1.00  0.00     0.165 A 
HETATM   20  O6  UNL     1       0.719   4.683  25.027  1.00  0.00    -0.368 OA
HETATM   21  C26 UNL     1       0.805   6.053  25.662  1.00  0.00     0.100 A 
ENDROOT
BRANCH   6  22
HETATM   22  O1  UNL     1      -0.589   9.063  25.495  1.00  0.00    -0.312 OA
BRANCH  22  23
HETATM   23  C7  UNL     1      -0.790  10.421  25.551  1.00  0.00     0.283 C 
HETATM   24  O2  UNL     1      -1.162  10.881  26.684  1.00  0.00    -0.260 OA
BRANCH  23  25
HETATM   25  C8  UNL     1      -0.597  11.303  24.407  1.00  0.00     0.088 C 
HETATM   26  C9  UNL     1      -1.627  11.784  23.767  1.00  0.00     0.080 C 
BRANCH  26  27
HETATM   27  C10 UNL     1      -1.482  12.653  22.641  1.00  0.00     0.240 C 
HETATM   28  O3  UNL     1      -0.326  12.956  22.241  1.00  0.00    -0.269 OA
HETATM   29  N1  UNL     1      -2.591  13.193  21.951  1.00  0.00    -0.362 N 
HETATM   30  C11 UNL     1      -2.375  14.078  20.803  1.00  0.00     0.149 C 
ATOM     31  H1  UNL     1      -3.539  12.966  22.252  1.00  0.00     0.162 HD
ENDBRANCH  26  27
ENDBRANCH  23  25
ENDBRANCH  22  23
ENDBRANCH   6  22
BRANCH  10  32
HETATM   32  O4  UNL     1       5.182  10.893  23.866  1.00  0.00    -0.390 OA
HETATM   33  C16 UNL     1       4.165  11.813  23.896  1.00  0.00     0.202 C 
ENDBRANCH  10  32
BRANCH  14  34
HETATM   34  O5  UNL     1       4.000   8.489  21.225  1.00  0.00    -0.390 OA
ATOM     35  H5  UNL     1       4.754   9.066  21.204  1.00  0.00     0.210 HD
ENDBRANCH  14  34
TORSDOF 6
ENDMDL
MODEL 2
REMARK VINA RESULT: -8.799193719      1.547      1.834
REMARK  6 active torsions:
REMARK  status: ('A' for Active; 'I' for Inactive)
REMARK    1  A    between atoms: C6_6  and  O1_7 
REMARK    2  A    between atoms: O1_7  and  C7_8 
REMARK    3  A    between atoms: C7_8  and  C8_10 
REMARK    4  A    between atoms: C9_11  and  C10_12 
REMARK       I    between atoms: C10_12  and  N1_14 
REMARK    5  A    between atoms: C15_20  and  O4_21 
REMARK    6  A    between atoms: C20_26  and  O5_27 
ROOT
HETATM    1  C1  UNL     1       4.318   5.979  21.838  1.00  0.00     0.017 C 
HETATM    2  C2  UNL     1       3.533   6.769  22.561  1.00  0.00    -0.060 C 
HETATM    3  C3  UNL     1       2.379   6.197  23.296  1.00  0.00     0.036 C 
HETATM    4  C4  UNL     1       1.125   6.968  23.256  1.00  0.00     0.014 C 
HETATM    5  C5  UNL     1       0.500   7.212  24.636  1.00  0.00     0.054 C 
HETATM    6  C6  UNL     1       0.734   8.610  25.122  1.00  0.00     0.143 C 
HETATM    7  C12 UNL     1       1.665   8.813  26.228  1.00  0.00     0.019 C 
HETATM    8  C13 UNL     1       3.136   8.864  25.937  1.00  0.00     0.010 C 
HETATM    9  C14 UNL     1       3.577   9.915  24.992  1.00  0.00     0.033 C 
HETATM   10  C15 UNL     1       4.911   9.673  24.367  1.00  0.00     0.131 C 
HETATM   11  C17 UNL     1       5.072   8.576  23.400  1.00  0.00     0.008 C 
HETATM   12  C18 UNL     1       5.720   7.383  24.082  1.00  0.00     0.020 C 
HETATM   13  C19 UNL     1       6.155   9.067  22.410  1.00  0.00     0.020 C 
HETATM   14  C20 UNL     1       3.899   8.209  22.568  1.00  0.00     0.156 C 
HETATM   15  C21 UNL     1       1.509   7.861  27.394  1.00  0.00    -0.012 C 
HETATM   16  C22 UNL     1       2.026   8.508  28.670  1.00  0.00     0.010 C 
HETATM   17  C23 UNL     1       0.124   7.395  27.635  1.00  0.00     0.015 C 
HETATM   18  C24 UNL     1      -0.359   6.357  26.693  1.00  0.00     0.056 A 
HETATM   19  C25 UNL     1       0.330   5.167  26.285  1.00  0.00     0.165 A 
HETATM   20  O6  UNL     1       0.674   4.839  25.003  1.00  0.00    -0.368 OA
HETATM   21  C26 UNL     1       0.800   6.206  25.636  1.00  0.00     0.100 A 
ENDROOT
BRANCH   6  22
HETATM   22  O1  UNL     1      -0.507   9.255  25.467  1.00  0.00    -0.312 OA
BRANCH  22  23
HETATM   23  C7  UNL     1      -0.830  10.536  25.093  1.00  0.00     0.283 C 
HETATM   24  O2  UNL     1      -2.052  10.731  24.773  1.00  0.00    -0.260 OA
BRANCH  23  25
HETATM   25  C8  UNL     1       0.139  11.625  25.055  1.00  0.00     0.088 C 
HETATM   26  C9  UNL     1       0.475  12.166  23.916  1.00  0.00     0.080 C 
BRANCH  26  27
HETATM   27  C10 UNL     1       1.421  13.235  23.835  1.00  0.00     0.240 C 
HETATM   28  O3  UNL     1       1.308  14.089  22.916  1.00  0.00    -0.269 OA
HETATM   29  N1  UNL     1       2.488  13.374  24.751  1.00  0.00    -0.362 N 
HETATM   30  C11 UNL     1       3.426  14.493  24.613  1.00  0.00     0.149 C 
ATOM     31  H1  UNL     1       2.605  12.698  25.506  1.00  0.00     0.162 HD
ENDBRANCH  26  27
ENDBRANCH  23  25
ENDBRANCH  22  23
ENDBRANCH   6  22
BRANCH  10  32
HETATM   32  O4  UNL     1       5.314  10.917  23.837  1.00  0.00    -0.390 OA
HETATM   33  C16 UNL     1       5.849  11.760  24.778  1.00  0.00     0.202 C 
ENDBRANCH  10  32
BRANCH  14  34
HETATM   34  O5  UNL     1       4.063   8.546  21.198  1.00  0.00    -0.390 OA
ATOM     35  H5  UNL     1       4.915   8.966  21.153  1.00  0.00     0.210 HD
ENDBRANCH  14  34
TORSDOF 6
ENDMDL
MODEL 3
REMARK VINA RESULT: -8.448263838      3.187      7.259
REMARK  6 active torsions:
REMARK  status: ('A' for Active; 'I' for Inactive)
REMARK    1  A    between atoms: C6_6  and  O1_7 
REMARK    2  A    between atoms: O1_7  and  C7_8 
REMARK    3  A    between atoms: C7_8  and  C8_10 
REMARK    4  A    between atoms: C9_11  and  C10_12 
REMARK       I    between atoms: C10_12  and  N1_14 
REMARK    5  A    between atoms: C15_20  and  O4_21 
REMARK    6  A    between atoms: C20_26  and  O5_27 
ROOT
HETATM    1  C1  UNL     1       0.358   9.302  26.709  1.00  0.00     0.017 C 
HETATM    2  C2  UNL     1       1.178   8.968  25.719  1.00  0.00    -0.060 C 
HETATM    3  C3  UNL     1       2.225   9.918  25.271  1.00  0.00     0.036 C 
HETATM    4  C4  UNL     1       2.428  10.038  23.817  1.00  0.00     0.014 C 
HETATM    5  C5  UNL     1       3.892   9.898  23.378  1.00  0.00     0.054 C 
HETATM    6  C6  UNL     1       4.173   8.553  22.779  1.00  0.00     0.143 C 
HETATM    7  C12 UNL     1       4.989   7.612  23.539  1.00  0.00     0.019 C 
HETATM    8  C13 UNL     1       4.339   6.793  24.616  1.00  0.00     0.010 C 
HETATM    9  C14 UNL     1       3.222   5.922  24.185  1.00  0.00     0.033 C 
HETATM   10  C15 UNL     1       2.310   5.487  25.283  1.00  0.00     0.131 C 
HETATM   11  C17 UNL     1       1.439   6.474  25.939  1.00  0.00     0.008 C 
HETATM   12  C18 UNL     1       2.045   6.890  27.268  1.00  0.00     0.020 C 
HETATM   13  C19 UNL     1       0.169   5.686  26.344  1.00  0.00     0.020 C 
HETATM   14  C20 UNL     1       0.961   7.622  25.129  1.00  0.00     0.156 C 
HETATM   15  C21 UNL     1       6.241   8.192  24.165  1.00  0.00    -0.012 C 
HETATM   16  C22 UNL     1       7.283   7.101  24.356  1.00  0.00     0.010 C 
HETATM   17  C23 UNL     1       6.859   9.301  23.402  1.00  0.00     0.015 C 
HETATM   18  C24 UNL     1       6.167  10.605  23.522  1.00  0.00     0.056 A 
HETATM   19  C25 UNL     1       5.712  11.239  24.727  1.00  0.00     0.165 A 
HETATM   20  O6  UNL     1       4.420  11.586  25.011  1.00  0.00    -0.368 OA
HETATM   21  C26 UNL     1       4.874  10.295  24.368  1.00  0.00     0.100 A 
ENDROOT
BRANCH   6  22
HETATM   22  O1  UNL     1       4.755   8.681  21.468  1.00  0.00    -0.312 OA
BRANCH  22  23
HETATM   23  C7  UNL     1       4.400   7.896  20.397  1.00  0.00     0.283 C 
HETATM   24  O2  UNL     1       4.412   8.474  19.257  1.00  0.00    -0.260 OA
BRANCH  23  25
HETATM   25  C8  UNL     1       4.030   6.492  20.525  1.00  0.00     0.088 C 
HETATM   26  C9  UNL     1       3.737   5.790  19.465  1.00  0.00     0.080 C 
BRANCH  26  27
HETATM   27  C10 UNL     1       3.370   4.411  19.547  1.00  0.00     0.240 C 
HETATM   28  O3  UNL     1       3.003   3.936  20.654  1.00  0.00    -0.269 OA
HETATM   29  N1  UNL     1       3.403   3.549  18.427  1.00  0.00    -0.362 N 
HETATM   30  C11 UNL     1       3.014   2.144  18.577  1.00  0.00     0.149 C 
ATOM     31  H1  UNL     1       3.697   3.905  17.517  1.00  0.00     0.162 HD
ENDBRANCH  26  27
ENDBRANCH  23  25
ENDBRANCH  22  23
ENDBRANCH   6  22
BRANCH  10  32
HETATM   32  O4  UNL     1       1.585   4.393  24.765  1.00  0.00    -0.390 OA
HETATM   33  C16 UNL     1       2.369   3.490  24.094  1.00  0.00     0.202 C 
ENDBRANCH  10  32
BRANCH  14  34
HETATM   34  O5  UNL     1      -0.432   7.568  24.856  1.00  0.00    -0.390 OA
ATOM     35  H5  UNL     1      -0.741   8.454  25.001  1.00  0.00     0.210 HD
ENDBRANCH  14  34
TORSDOF 6
ENDMDL
MODEL 4
REMARK VINA RESULT: -8.287717438      3.811      6.831
REMARK  6 active torsions:
REMARK  status: ('A' for Active; 'I' for Inactive)
REMARK    1  A    between atoms: C6_6  and  O1_7 
REMARK    2  A    between atoms: O1_7  and  C7_8 
REMARK    3  A    between atoms: C7_8  and  C8_10 
REMARK    4  A    between atoms: C9_11  and  C10_12 
REMARK       I    between atoms: C10_12  and  N1_14 
REMARK    5  A    between atoms: C15_20  and  O4_21 
REMARK    6  A    between atoms: C20_26  and  O5_27 
ROOT
HETATM    1  C1  UNL     1       8.876  12.740  25.372  1.00  0.00     0.017 C 
HETATM    2  C2  UNL     1       7.834  12.228  24.725  1.00  0.00    -0.060 C 
HETATM    3  C3  UNL     1       7.788  10.776  24.426  1.00  0.00     0.036 C 
HETATM    4  C4  UNL     1       7.302  10.395  23.089  1.00  0.00     0.014 C 
HETATM    5  C5  UNL     1       6.200   9.326  23.108  1.00  0.00     0.054 C 
HETATM    6  C6  UNL     1       4.843   9.912  22.861  1.00  0.00     0.143 C 
HETATM    7  C12 UNL     1       3.901   9.974  23.974  1.00  0.00     0.019 C 
HETATM    8  C13 UNL     1       4.010  11.106  24.954  1.00  0.00     0.010 C 
HETATM    9  C14 UNL     1       3.880  12.468  24.392  1.00  0.00     0.033 C 
HETATM   10  C15 UNL     1       4.436  13.555  25.252  1.00  0.00     0.131 C 
HETATM   11  C17 UNL     1       5.890  13.652  25.452  1.00  0.00     0.008 C 
HETATM   12  C18 UNL     1       6.262  13.061  26.800  1.00  0.00     0.020 C 
HETATM   13  C19 UNL     1       6.174  15.164  25.620  1.00  0.00     0.020 C 
HETATM   14  C20 UNL     1       6.772  13.195  24.348  1.00  0.00     0.156 C 
HETATM   15  C21 UNL     1       3.796   8.716  24.809  1.00  0.00    -0.012 C 
HETATM   16  C22 UNL     1       2.431   8.642  25.475  1.00  0.00     0.010 C 
HETATM   17  C23 UNL     1       4.021   7.455  24.064  1.00  0.00     0.015 C 
HETATM   18  C24 UNL     1       5.438   7.158  23.751  1.00  0.00     0.056 A 
HETATM   19  C25 UNL     1       6.557   7.222  24.649  1.00  0.00     0.165 A 
HETATM   20  O6  UNL     1       7.663   8.011  24.495  1.00  0.00    -0.368 OA
HETATM   21  C26 UNL     1       6.232   8.427  24.245  1.00  0.00     0.100 A 
ENDROOT
BRANCH   6  22
HETATM   22  O1  UNL     1       4.185   9.253  21.763  1.00  0.00    -0.312 OA
BRANCH  22  23
HETATM   23  C7  UNL     1       4.833   8.828  20.628  1.00  0.00     0.283 C 
HETATM   24  O2  UNL     1       5.823   9.544  20.253  1.00  0.00    -0.260 OA
BRANCH  23  25
HETATM   25  C8  UNL     1       4.439   7.640  19.882  1.00  0.00     0.088 C 
HETATM   26  C9  UNL     1       3.908   6.622  20.501  1.00  0.00     0.080 C 
BRANCH  26  27
HETATM   27  C10 UNL     1       3.507   5.438  19.807  1.00  0.00     0.240 C 
HETATM   28  O3  UNL     1       3.868   4.314  20.246  1.00  0.00    -0.269 OA
HETATM   29  N1  UNL     1       2.715   5.476  18.637  1.00  0.00    -0.362 N 
HETATM   30  C11 UNL     1       2.337   4.226  17.971  1.00  0.00     0.149 C 
ATOM     31  H1  UNL     1       2.407   6.372  18.257  1.00  0.00     0.162 HD
ENDBRANCH  26  27
ENDBRANCH  23  25
ENDBRANCH  22  23
ENDBRANCH   6  22
BRANCH  10  32
HETATM   32  O4  UNL     1       3.882  14.754  24.755  1.00  0.00    -0.390 OA
HETATM   33  C16 UNL     1       2.571  14.629  24.371  1.00  0.00     0.202 C 
ENDBRANCH  10  32
BRANCH  14  34
HETATM   34  O5  UNL     1       7.462  14.261  23.712  1.00  0.00    -0.390 OA
ATOM     35  H5  UNL     1       6.777  14.814  23.356  1.00  0.00     0.210 HD
ENDBRANCH  14  34
TORSDOF 6
ENDMDL
MODEL 5
REMARK VINA RESULT: -7.910536454      3.126      7.360
REMARK  6 active torsions:
REMARK  status: ('A' for Active; 'I' for Inactive)
REMARK    1  A    between atoms: C6_6  and  O1_7 
REMARK    2  A    between atoms: O1_7  and  C7_8 
REMARK    3  A    between atoms: C7_8  and  C8_10 
REMARK    4  A    between atoms: C9_11  and  C10_12 
REMARK       I    between atoms: C10_12  and  N1_14 
REMARK    5  A    between atoms: C15_20  and  O4_21 
REMARK    6  A    between atoms: C20_26  and  O5_27 
ROOT
HETATM    1  C1  UNL     1       0.377   9.577  26.719  1.00  0.00     0.017 C 
HETATM    2  C2  UNL     1       1.136   9.050  25.765  1.00  0.00    -0.060 C 
HETATM    3  C3  UNL     1       2.279   9.820  25.216  1.00  0.00     0.036 C 
HETATM    4  C4  UNL     1       2.470   9.765  23.757  1.00  0.00     0.014 C 
HETATM    5  C5  UNL     1       3.900   9.410  23.328  1.00  0.00     0.054 C 
HETATM    6  C6  UNL     1       4.015   7.987  22.872  1.00  0.00     0.143 C 
HETATM    7  C12 UNL     1       4.729   7.041  23.722  1.00  0.00     0.019 C 
HETATM    8  C13 UNL     1       4.006   6.419  24.881  1.00  0.00     0.010 C 
HETATM    9  C14 UNL     1       2.789   5.644  24.548  1.00  0.00     0.033 C 
HETATM   10  C15 UNL     1       1.851   5.434  25.691  1.00  0.00     0.131 C 
HETATM   11  C17 UNL     1       1.111   6.578  26.244  1.00  0.00     0.008 C 
HETATM   12  C18 UNL     1       1.783   7.056  27.519  1.00  0.00     0.020 C 
HETATM   13  C19 UNL     1      -0.234   5.990  26.734  1.00  0.00     0.020 C 
HETATM   14  C20 UNL     1       0.755   7.685  25.320  1.00  0.00     0.156 C 
HETATM   15  C21 UNL     1       6.049   7.533  24.278  1.00  0.00    -0.012 C 
HETATM   16  C22 UNL     1       6.962   6.353  24.578  1.00  0.00     0.010 C 
HETATM   17  C23 UNL     1       6.779   8.477  23.401  1.00  0.00     0.015 C 
HETATM   18  C24 UNL     1       6.244   9.859  23.387  1.00  0.00     0.056 A 
HETATM   19  C25 UNL     1       5.885  10.662  24.522  1.00  0.00     0.165 A 
HETATM   20  O6  UNL     1       4.647  11.184  24.774  1.00  0.00    -0.368 OA
HETATM   21  C26 UNL     1       4.938   9.790  24.267  1.00  0.00     0.100 A 
ENDROOT
BRANCH   6  22
HETATM   22  O1  UNL     1       4.585   7.910  21.551  1.00  0.00    -0.312 OA
BRANCH  22  23
HETATM   23  C7  UNL     1       4.128   7.062  20.572  1.00  0.00     0.283 C 
HETATM   24  O2  UNL     1       4.272   7.472  19.370  1.00  0.00    -0.260 OA
BRANCH  23  25
HETATM   25  C8  UNL     1       3.516   5.770  20.858  1.00  0.00     0.088 C 
HETATM   26  C9  UNL     1       4.262   4.718  21.054  1.00  0.00     0.080 C 
BRANCH  26  27
HETATM   27  C10 UNL     1       3.701   3.434  21.338  1.00  0.00     0.240 C 
HETATM   28  O3  UNL     1       4.279   2.678  22.164  1.00  0.00    -0.269 OA
HETATM   29  N1  UNL     1       2.516   2.971  20.723  1.00  0.00    -0.362 N 
HETATM   30  C11 UNL     1       1.992   1.643  21.056  1.00  0.00     0.149 C 
ATOM     31  H1  UNL     1       2.026   3.560  20.049  1.00  0.00     0.162 HD
ENDBRANCH  26  27
ENDBRANCH  23  25
ENDBRANCH  22  23
ENDBRANCH   6  22
BRANCH  10  32
HETATM   32  O4  UNL     1       0.996   4.385  25.292  1.00  0.00    -0.390 OA
HETATM   33  C16 UNL     1       1.592   3.494  24.436  1.00  0.00     0.202 C 
ENDBRANCH  10  32
BRANCH  14  34
HETATM   34  O5  UNL     1      -0.639   7.765  25.060  1.00  0.00    -0.390 OA
ATOM     35  H5  UNL     1      -0.811   8.693  24.953  1.00  0.00     0.210 HD
ENDBRANCH  14  34
TORSDOF 6
ENDMDL
