MODEL 1
REMARK VINA RESULT: -8.811458924      0.000      0.000
REMARK  12 active torsions:
REMARK  status: ('A' for Active; 'I' for Inactive)
REMARK    1  A    between atoms: C2_2  and  O1_3 
REMARK    2  A    between atoms: C2_2  and  C3_5 
REMARK    3  A    between atoms: C3_5  and  O2_6 
REMARK    4  A    between atoms: C3_5  and  C4_8 
REMARK    5  A    between atoms: C4_8  and  O3_9 
REMARK    6  A    between atoms: C4_8  and  C5_11 
REMARK    7  A    between atoms: C5_11  and  N1_12 
REMARK    8  A    between atoms: N1_12  and  O4_13 
REMARK    9  A    between atoms: N1_12  and  C6_15 
REMARK   10  A    between atoms: C6_15  and  C7_16 
REMARK   11  A    between atoms: C10_22  and  N3_23 
REMARK   12  A    between atoms: N3_23  and  N4_25 
ROOT
HETATM    1  C7  UNL     1      43.088 -70.281  31.206  1.00  0.00     0.047 A 
HETATM    2  C8  UNL     1      43.647 -70.841  32.332  1.00  0.00     0.101 A 
HETATM    3  C9  UNL     1      44.992 -71.153  32.413  1.00  0.00     0.261 A 
HETATM    4  O5  UNL     1      45.527 -71.663  33.426  1.00  0.00    -0.268 OA
HETATM    5  N2  UNL     1      45.769 -70.889  31.331  1.00  0.00    -0.155 N 
ATOM      6  H2  UNL     1      46.765 -71.106  31.353  1.00  0.00     0.187 HD
HETATM    7  C10 UNL     1      45.228 -70.346  30.237  1.00  0.00     0.701 A 
HETATM    8  N6  UNL     1      43.903 -70.041  30.165  1.00  0.00    -0.193 N 
ATOM      9  H6  UNL     1      43.525 -69.627  29.313  1.00  0.00     0.184 HD
ENDROOT
BRANCH   1  10
HETATM   10  C6  UNL     1      41.656 -69.928  31.069  1.00  0.00     0.178 C 
BRANCH  10  11
HETATM   11  N1  UNL     1      41.244 -69.008  32.141  1.00  0.00    -0.192 NA
BRANCH  11  12
HETATM   12  C5  UNL     1      41.163 -67.691  31.601  1.00  0.00     0.155 C 
BRANCH  12  13
HETATM   13  C4  UNL     1      41.106 -66.561  32.543  1.00  0.00     0.164 C 
BRANCH  13  14
HETATM   14  C3  UNL     1      41.032 -65.182  31.987  1.00  0.00     0.176 C 
BRANCH  14  15
HETATM   15  C2  UNL     1      42.013 -64.235  32.692  1.00  0.00     0.145 C 
HETATM   16  C1  UNL     1      41.294 -63.028  33.237  1.00  0.00     0.042 C 
BRANCH  15  17
HETATM   17  O1  UNL     1      43.044 -63.799  31.894  1.00  0.00    -0.393 OA
ATOM     18  H1  UNL     1      43.858 -63.913  32.369  1.00  0.00     0.210 HD
ENDBRANCH  15  17
ENDBRANCH  14  15
BRANCH  14  19
HETATM   19  O2  UNL     1      39.754 -64.689  32.418  1.00  0.00    -0.390 OA
ATOM     20  H2  UNL     1      39.285 -64.583  31.598  1.00  0.00     0.210 HD
ENDBRANCH  14  19
ENDBRANCH  13  14
BRANCH  13  21
HETATM   21  O3  UNL     1      42.268 -66.583  33.353  1.00  0.00    -0.392 OA
ATOM     22  H3  UNL     1      41.958 -66.499  34.248  1.00  0.00     0.210 HD
ENDBRANCH  13  21
ENDBRANCH  12  13
ENDBRANCH  11  12
BRANCH  11  23
HETATM   23  O4  UNL     1      40.050 -69.431  32.558  1.00  0.00    -0.313 OA
ATOM     24  H4  UNL     1      40.056 -70.366  32.722  1.00  0.00     0.237 HD
ENDBRANCH  11  23
ENDBRANCH  10  11
ENDBRANCH   1  10
BRANCH   7  25
HETATM   25  N3  UNL     1      45.997 -70.108  29.225  1.00  0.00    -0.118 N 
ATOM     26  H3  UNL     1      46.641 -69.318  29.263  1.00  0.00     0.207 HD
BRANCH  25  27
HETATM   27  N4  UNL     1      45.964 -70.908  28.082  1.00  0.00    -0.235 N 
HETATM   28  N5  UNL     1      45.317 -70.606  27.034  1.00  0.00    -0.330 N 
ATOM     29  H52 UNL     1      44.798 -69.728  27.043  1.00  0.00     0.178 HD
ATOM     30  H51 UNL     1      45.293 -71.191  26.198  1.00  0.00     0.178 HD
ATOM     31  H4  UNL     1      46.488 -71.783  28.091  1.00  0.00     0.208 HD
ENDBRANCH  25  27
ENDBRANCH   7  25
TORSDOF 12
ENDMDL
MODEL 2
REMARK VINA RESULT: -8.752412259      1.220      1.789
REMARK  12 active torsions:
REMARK  status: ('A' for Active; 'I' for Inactive)
REMARK    1  A    between atoms: C2_2  and  O1_3 
REMARK    2  A    between atoms: C2_2  and  C3_5 
REMARK    3  A    between atoms: C3_5  and  O2_6 
REMARK    4  A    between atoms: C3_5  and  C4_8 
REMARK    5  A    between atoms: C4_8  and  O3_9 
REMARK    6  A    between atoms: C4_8  and  C5_11 
REMARK    7  A    between atoms: C5_11  and  N1_12 
REMARK    8  A    between atoms: N1_12  and  O4_13 
REMARK    9  A    between atoms: N1_12  and  C6_15 
REMARK   10  A    between atoms: C6_15  and  C7_16 
REMARK   11  A    between atoms: C10_22  and  N3_23 
REMARK   12  A    between atoms: N3_23  and  N4_25 
ROOT
HETATM    1  C7  UNL     1      42.800 -69.674  31.115  1.00  0.00     0.047 A 
HETATM    2  C8  UNL     1      43.067 -70.428  32.235  1.00  0.00     0.101 A 
HETATM    3  C9  UNL     1      44.285 -71.053  32.433  1.00  0.00     0.261 A 
HETATM    4  O5  UNL     1      44.554 -71.745  33.443  1.00  0.00    -0.268 OA
HETATM    5  N2  UNL     1      45.235 -70.906  31.473  1.00  0.00    -0.155 N 
ATOM      6  H2  UNL     1      46.145 -71.352  31.584  1.00  0.00     0.187 HD
HETATM    7  C10 UNL     1      44.977 -70.174  30.385  1.00  0.00     0.701 A 
HETATM    8  N6  UNL     1      43.776 -69.561  30.198  1.00  0.00    -0.193 N 
ATOM      9  H6  UNL     1      43.615 -69.011  29.354  1.00  0.00     0.184 HD
ENDROOT
BRANCH   1  10
HETATM   10  C6  UNL     1      41.515 -68.985  30.856  1.00  0.00     0.178 C 
BRANCH  10  11
HETATM   11  N1  UNL     1      41.181 -68.078  31.967  1.00  0.00    -0.192 NA
BRANCH  11  12
HETATM   12  C5  UNL     1      40.964 -66.773  31.436  1.00  0.00     0.155 C 
BRANCH  12  13
HETATM   13  C4  UNL     1      41.080 -65.627  32.353  1.00  0.00     0.164 C 
BRANCH  13  14
HETATM   14  C3  UNL     1      41.399 -65.897  33.782  1.00  0.00     0.176 C 
BRANCH  14  15
HETATM   15  C2  UNL     1      41.555 -64.596  34.582  1.00  0.00     0.145 C 
HETATM   16  C1  UNL     1      42.607 -64.748  35.650  1.00  0.00     0.042 C 
BRANCH  15  17
HETATM   17  O1  UNL     1      40.395 -64.161  35.178  1.00  0.00    -0.393 OA
ATOM     18  H1  UNL     1      40.569 -63.325  35.594  1.00  0.00     0.210 HD
ENDBRANCH  15  17
ENDBRANCH  14  15
BRANCH  14  19
HETATM   19  O2  UNL     1      42.738 -66.415  33.759  1.00  0.00    -0.390 OA
ATOM     20  H2  UNL     1      42.888 -66.565  32.833  1.00  0.00     0.210 HD
ENDBRANCH  14  19
ENDBRANCH  13  14
BRANCH  13  21
HETATM   21  O3  UNL     1      39.849 -64.925  32.364  1.00  0.00    -0.392 OA
ATOM     22  H3  UNL     1      39.725 -64.614  31.475  1.00  0.00     0.210 HD
ENDBRANCH  13  21
ENDBRANCH  12  13
ENDBRANCH  11  12
BRANCH  11  23
HETATM   23  O4  UNL     1      40.069 -68.562  32.523  1.00  0.00    -0.313 OA
ATOM     24  H4  UNL     1      40.254 -69.338  33.039  1.00  0.00     0.237 HD
ENDBRANCH  11  23
ENDBRANCH  10  11
ENDBRANCH   1  10
BRANCH   7  25
HETATM   25  N3  UNL     1      45.904 -70.055  29.493  1.00  0.00    -0.118 N 
ATOM     26  H3  UNL     1      46.626 -69.345  29.615  1.00  0.00     0.207 HD
BRANCH  25  27
HETATM   27  N4  UNL     1      45.939 -70.876  28.364  1.00  0.00    -0.235 N 
HETATM   28  N5  UNL     1      45.380 -70.580  27.265  1.00  0.00    -0.330 N 
ATOM     29  H52 UNL     1      44.882 -69.690  27.220  1.00  0.00     0.178 HD
ATOM     30  H51 UNL     1      45.405 -71.179  26.440  1.00  0.00     0.178 HD
ATOM     31  H4  UNL     1      46.440 -71.761  28.427  1.00  0.00     0.208 HD
ENDBRANCH  25  27
ENDBRANCH   7  25
TORSDOF 12
ENDMDL
MODEL 3
REMARK VINA RESULT: -8.699674102      3.668      7.000
REMARK  12 active torsions:
REMARK  status: ('A' for Active; 'I' for Inactive)
REMARK    1  A    between atoms: C2_2  and  O1_3 
REMARK    2  A    between atoms: C2_2  and  C3_5 
REMARK    3  A    between atoms: C3_5  and  O2_6 
REMARK    4  A    between atoms: C3_5  and  C4_8 
REMARK    5  A    between atoms: C4_8  and  O3_9 
REMARK    6  A    between atoms: C4_8  and  C5_11 
REMARK    7  A    between atoms: C5_11  and  N1_12 
REMARK    8  A    between atoms: N1_12  and  O4_13 
REMARK    9  A    between atoms: N1_12  and  C6_15 
REMARK   10  A    between atoms: C6_15  and  C7_16 
REMARK   11  A    between atoms: C10_22  and  N3_23 
REMARK   12  A    between atoms: N3_23  and  N4_25 
ROOT
HETATM    1  C7  UNL     1      41.498 -64.887  32.468  1.00  0.00     0.047 A 
HETATM    2  C8  UNL     1      40.625 -64.066  33.146  1.00  0.00     0.101 A 
HETATM    3  C9  UNL     1      41.057 -63.124  34.062  1.00  0.00     0.261 A 
HETATM    4  O5  UNL     1      40.284 -62.365  34.693  1.00  0.00    -0.268 OA
HETATM    5  N2  UNL     1      42.393 -63.023  34.284  1.00  0.00    -0.155 N 
ATOM      6  H2  UNL     1      42.749 -62.340  34.952  1.00  0.00     0.187 HD
HETATM    7  C10 UNL     1      43.241 -63.819  33.626  1.00  0.00     0.701 A 
HETATM    8  N6  UNL     1      42.809 -64.744  32.726  1.00  0.00    -0.193 N 
ATOM      9  H6  UNL     1      43.486 -65.334  32.242  1.00  0.00     0.184 HD
ENDROOT
BRANCH   1  10
HETATM   10  C6  UNL     1      41.087 -65.910  31.479  1.00  0.00     0.178 C 
BRANCH  10  11
HETATM   11  N1  UNL     1      41.009 -67.238  32.110  1.00  0.00    -0.192 NA
BRANCH  11  12
HETATM   12  C5  UNL     1      40.956 -68.225  31.083  1.00  0.00     0.155 C 
BRANCH  12  13
HETATM   13  C4  UNL     1      41.305 -69.610  31.439  1.00  0.00     0.164 C 
BRANCH  13  14
HETATM   14  C3  UNL     1      42.649 -70.122  31.051  1.00  0.00     0.176 C 
BRANCH  14  15
HETATM   15  C2  UNL     1      43.515 -70.424  32.281  1.00  0.00     0.145 C 
HETATM   16  C1  UNL     1      44.290 -71.703  32.088  1.00  0.00     0.042 C 
BRANCH  15  17
HETATM   17  O1  UNL     1      42.809 -70.521  33.456  1.00  0.00    -0.393 OA
ATOM     18  H1  UNL     1      42.833 -69.677  33.889  1.00  0.00     0.210 HD
ENDBRANCH  15  17
ENDBRANCH  14  15
BRANCH  14  19
HETATM   19  O2  UNL     1      43.310 -68.986  30.470  1.00  0.00    -0.390 OA
ATOM     20  H2  UNL     1      43.091 -69.066  29.549  1.00  0.00     0.210 HD
ENDBRANCH  14  19
ENDBRANCH  13  14
BRANCH  13  21
HETATM   21  O3  UNL     1      40.374 -70.487  30.828  1.00  0.00    -0.392 OA
ATOM     22  H3  UNL     1      40.188 -71.154  31.478  1.00  0.00     0.210 HD
ENDBRANCH  13  21
ENDBRANCH  12  13
ENDBRANCH  11  12
BRANCH  11  23
HETATM   23  O4  UNL     1      42.114 -67.367  32.846  1.00  0.00    -0.313 OA
ATOM     24  H4  UNL     1      41.902 -67.474  33.765  1.00  0.00     0.237 HD
ENDBRANCH  11  23
ENDBRANCH  10  11
ENDBRANCH   1  10
BRANCH   7  25
HETATM   25  N3  UNL     1      44.506 -63.696  33.862  1.00  0.00    -0.118 N 
ATOM     26  H3  UNL     1      44.897 -64.098  34.714  1.00  0.00     0.207 HD
BRANCH  25  27
HETATM   27  N4  UNL     1      45.349 -63.023  32.975  1.00  0.00    -0.235 N 
HETATM   28  N5  UNL     1      46.089 -62.050  33.313  1.00  0.00    -0.330 N 
ATOM     29  H52 UNL     1      46.054 -61.755  34.289  1.00  0.00     0.178 HD
ATOM     30  H51 UNL     1      46.705 -61.558  32.665  1.00  0.00     0.178 HD
ATOM     31  H4  UNL     1      45.371 -63.332  32.004  1.00  0.00     0.208 HD
ENDBRANCH  25  27
ENDBRANCH   7  25
TORSDOF 12
ENDMDL
MODEL 4
REMARK VINA RESULT: -8.506287230      2.276      3.720
REMARK  12 active torsions:
REMARK  status: ('A' for Active; 'I' for Inactive)
REMARK    1  A    between atoms: C2_2  and  O1_3 
REMARK    2  A    between atoms: C2_2  and  C3_5 
REMARK    3  A    between atoms: C3_5  and  O2_6 
REMARK    4  A    between atoms: C3_5  and  C4_8 
REMARK    5  A    between atoms: C4_8  and  O3_9 
REMARK    6  A    between atoms: C4_8  and  C5_11 
REMARK    7  A    between atoms: C5_11  and  N1_12 
REMARK    8  A    between atoms: N1_12  and  O4_13 
REMARK    9  A    between atoms: N1_12  and  C6_15 
REMARK   10  A    between atoms: C6_15  and  C7_16 
REMARK   11  A    between atoms: C10_22  and  N3_23 
REMARK   12  A    between atoms: N3_23  and  N4_25 
ROOT
HETATM    1  C7  UNL     1      41.172 -67.553  31.300  1.00  0.00     0.047 A 
HETATM    2  C8  UNL     1      40.398 -68.391  32.071  1.00  0.00     0.101 A 
HETATM    3  C9  UNL     1      40.738 -69.712  32.298  1.00  0.00     0.261 A 
HETATM    4  O5  UNL     1      40.052 -70.496  32.996  1.00  0.00    -0.268 OA
HETATM    5  N2  UNL     1      41.881 -70.178  31.730  1.00  0.00    -0.155 N 
ATOM      6  H2  UNL     1      42.164 -71.146  31.875  1.00  0.00     0.187 HD
HETATM    7  C10 UNL     1      42.633 -69.366  30.981  1.00  0.00     0.701 A 
HETATM    8  N6  UNL     1      42.291 -68.066  30.763  1.00  0.00    -0.193 N 
ATOM      9  H6  UNL     1      42.891 -67.476  30.186  1.00  0.00     0.184 HD
ENDROOT
BRANCH   1  10
HETATM   10  C6  UNL     1      40.852 -66.133  31.027  1.00  0.00     0.178 C 
BRANCH  10  11
HETATM   11  N1  UNL     1      40.968 -65.331  32.255  1.00  0.00    -0.192 NA
BRANCH  11  12
HETATM   12  C5  UNL     1      41.863 -64.249  32.006  1.00  0.00     0.155 C 
BRANCH  12  13
HETATM   13  C4  UNL     1      42.763 -63.833  33.095  1.00  0.00     0.164 C 
BRANCH  13  14
HETATM   14  C3  UNL     1      42.204 -62.994  34.190  1.00  0.00     0.176 C 
BRANCH  14  15
HETATM   15  C2  UNL     1      41.784 -63.845  35.397  1.00  0.00     0.145 C 
HETATM   16  C1  UNL     1      42.744 -64.988  35.605  1.00  0.00     0.042 C 
BRANCH  15  17
HETATM   17  O1  UNL     1      40.513 -64.360  35.305  1.00  0.00    -0.393 OA
ATOM     18  H1  UNL     1      40.121 -64.046  34.499  1.00  0.00     0.210 HD
ENDBRANCH  15  17
ENDBRANCH  14  15
BRANCH  14  19
HETATM   19  O2  UNL     1      40.945 -62.528  33.679  1.00  0.00    -0.390 OA
ATOM     20  H2  UNL     1      40.319 -62.929  34.270  1.00  0.00     0.210 HD
ENDBRANCH  14  19
ENDBRANCH  13  14
BRANCH  13  21
HETATM   21  O3  UNL     1      43.828 -63.079  32.542  1.00  0.00    -0.392 OA
ATOM     22  H3  UNL     1      43.669 -62.180  32.810  1.00  0.00     0.210 HD
ENDBRANCH  13  21
ENDBRANCH  12  13
ENDBRANCH  11  12
BRANCH  11  23
HETATM   23  O4  UNL     1      39.740 -64.886  32.528  1.00  0.00    -0.313 OA
ATOM     24  H4  UNL     1      39.250 -65.524  33.033  1.00  0.00     0.237 HD
ENDBRANCH  11  23
ENDBRANCH  10  11
ENDBRANCH   1  10
BRANCH   7  25
HETATM   25  N3  UNL     1      43.714 -69.842  30.457  1.00  0.00    -0.118 N 
ATOM     26  H3  UNL     1      43.877 -69.724  29.457  1.00  0.00     0.207 HD
BRANCH  25  27
HETATM   27  N4  UNL     1      44.663 -70.514  31.229  1.00  0.00    -0.235 N 
HETATM   28  N5  UNL     1      45.904 -70.254  31.198  1.00  0.00    -0.330 N 
ATOM     29  H52 UNL     1      46.208 -69.511  30.569  1.00  0.00     0.178 HD
ATOM     30  H51 UNL     1      46.597 -70.746  31.762  1.00  0.00     0.178 HD
ATOM     31  H4  UNL     1      44.340 -71.255  31.851  1.00  0.00     0.208 HD
ENDBRANCH  25  27
ENDBRANCH   7  25
TORSDOF 12
ENDMDL
MODEL 5
REMARK VINA RESULT: -8.462024901      3.792      6.660
REMARK  12 active torsions:
REMARK  status: ('A' for Active; 'I' for Inactive)
REMARK    1  A    between atoms: C2_2  and  O1_3 
REMARK    2  A    between atoms: C2_2  and  C3_5 
REMARK    3  A    between atoms: C3_5  and  O2_6 
REMARK    4  A    between atoms: C3_5  and  C4_8 
REMARK    5  A    between atoms: C4_8  and  O3_9 
REMARK    6  A    between atoms: C4_8  and  C5_11 
REMARK    7  A    between atoms: C5_11  and  N1_12 
REMARK    8  A    between atoms: N1_12  and  O4_13 
REMARK    9  A    between atoms: N1_12  and  C6_15 
REMARK   10  A    between atoms: C6_15  and  C7_16 
REMARK   11  A    between atoms: C10_22  and  N3_23 
REMARK   12  A    between atoms: N3_23  and  N4_25 
ROOT
HETATM    1  C7  UNL     1      41.332 -65.313  32.982  1.00  0.00     0.047 A 
HETATM    2  C8  UNL     1      41.194 -65.204  34.347  1.00  0.00     0.101 A 
HETATM    3  C9  UNL     1      42.010 -64.389  35.110  1.00  0.00     0.261 A 
HETATM    4  O5  UNL     1      41.906 -64.271  36.354  1.00  0.00    -0.268 OA
HETATM    5  N2  UNL     1      42.976 -63.682  34.468  1.00  0.00    -0.155 N 
ATOM      6  H2  UNL     1      43.598 -63.071  34.997  1.00  0.00     0.187 HD
HETATM    7  C10 UNL     1      43.111 -63.787  33.143  1.00  0.00     0.701 A 
HETATM    8  N6  UNL     1      42.303 -64.591  32.399  1.00  0.00    -0.193 N 
ATOM      9  H6  UNL     1      42.436 -64.645  31.389  1.00  0.00     0.184 HD
ENDROOT
BRANCH   1  10
HETATM   10  C6  UNL     1      40.484 -66.169  32.120  1.00  0.00     0.178 C 
BRANCH  10  11
HETATM   11  N1  UNL     1      41.238 -67.347  31.661  1.00  0.00    -0.192 NA
BRANCH  11  12
HETATM   12  C5  UNL     1      40.412 -68.500  31.810  1.00  0.00     0.155 C 
BRANCH  12  13
HETATM   13  C4  UNL     1      41.072 -69.803  31.995  1.00  0.00     0.164 C 
BRANCH  13  14
HETATM   14  C3  UNL     1      42.525 -69.818  32.317  1.00  0.00     0.176 C 
BRANCH  14  15
HETATM   15  C2  UNL     1      43.356 -70.382  31.156  1.00  0.00     0.145 C 
HETATM   16  C1  UNL     1      44.513 -71.197  31.674  1.00  0.00     0.042 C 
BRANCH  15  17
HETATM   17  O1  UNL     1      43.851 -69.424  30.303  1.00  0.00    -0.393 OA
ATOM     18  H1  UNL     1      44.053 -68.647  30.811  1.00  0.00     0.210 HD
ENDBRANCH  15  17
ENDBRANCH  14  15
BRANCH  14  19
HETATM   19  O2  UNL     1      42.659 -70.834  33.323  1.00  0.00    -0.390 OA
ATOM     20  H2  UNL     1      42.229 -70.442  34.074  1.00  0.00     0.210 HD
ENDBRANCH  14  19
ENDBRANCH  13  14
BRANCH  13  21
HETATM   21  O3  UNL     1      40.939 -70.554  30.800  1.00  0.00    -0.392 OA
ATOM     22  H3  UNL     1      40.881 -71.462  31.076  1.00  0.00     0.210 HD
ENDBRANCH  13  21
ENDBRANCH  12  13
ENDBRANCH  11  12
BRANCH  11  23
HETATM   23  O4  UNL     1      41.528 -67.127  30.377  1.00  0.00    -0.313 OA
ATOM     24  H4  UNL     1      42.062 -67.828  30.022  1.00  0.00     0.237 HD
ENDBRANCH  11  23
ENDBRANCH  10  11
ENDBRANCH   1  10
BRANCH   7  25
HETATM   25  N3  UNL     1      44.041 -63.099  32.565  1.00  0.00    -0.118 N 
ATOM     26  H3  UNL     1      43.804 -62.518  31.761  1.00  0.00     0.207 HD
BRANCH  25  27
HETATM   27  N4  UNL     1      45.361 -63.136  33.017  1.00  0.00    -0.235 N 
HETATM   28  N5  UNL     1      45.994 -62.111  33.416  1.00  0.00    -0.330 N 
ATOM     29  H52 UNL     1      45.496 -61.221  33.400  1.00  0.00     0.178 HD
ATOM     30  H51 UNL     1      46.958 -62.138  33.747  1.00  0.00     0.178 HD
ATOM     31  H4  UNL     1      45.842 -64.034  33.026  1.00  0.00     0.208 HD
ENDBRANCH  25  27
ENDBRANCH   7  25
TORSDOF 12
ENDMDL
