MODEL 1
REMARK VINA RESULT: -7.740867552      0.000      0.000
REMARK  9 active torsions:
REMARK  status: ('A' for Active; 'I' for Inactive)
REMARK    1  A    between atoms: N1_2  and  C4_5 
REMARK    2  A    between atoms: C4_5  and  C5_6 
REMARK    3  A    between atoms: C5_6  and  C6_7 
REMARK    4  A    between atoms: C5_6  and  N2_10 
REMARK    5  A    between atoms: C6_7  and  O1_8 
REMARK    6  A    between atoms: N2_10  and  N3_11 
REMARK       I    between atoms: N3_11  and  C7_13 
REMARK       I    between atoms: C7_13  and  N10_27 
REMARK    7  A    between atoms: N4_14  and  N5_16 
REMARK       I    between atoms: C8_18  and  N7_20 
REMARK    8  A    between atoms: N7_20  and  N8_22 
REMARK    9  A    between atoms: N10_27  and  N11_29 
ROOT
HETATM    1  N3  UNL     1      43.785 -64.211  33.543  1.00  0.00    -0.133 N 
ATOM      2  H3  UNL     1      44.545 -64.287  32.868  1.00  0.00     0.201 HD
HETATM    3  C7  UNL     1      42.502 -64.820  33.255  1.00  0.00     0.727 C 
HETATM    4  N4  UNL     1      42.416 -66.047  33.041  1.00  0.00    -0.127 N 
ATOM      5  H4  UNL     1      43.346 -66.458  33.111  1.00  0.00     0.205 HD
HETATM    6  N10 UNL     1      41.376 -63.970  33.233  1.00  0.00    -0.070 N 
ATOM      7  H10 UNL     1      40.966 -63.685  32.344  1.00  0.00     0.212 HD
ENDROOT
BRANCH   1   8
HETATM    8  N2  UNL     1      43.982 -63.532  34.724  1.00  0.00    -0.117 NA
BRANCH   8   9
HETATM    9  C5  UNL     1      45.102 -62.609  34.714  1.00  0.00     0.149 C 
BRANCH   9  10
HETATM   10  C4  UNL     1      44.935 -61.503  35.696  1.00  0.00     0.261 C 
BRANCH  10  11
HETATM   11  N1  UNL     1      46.082 -60.694  35.959  1.00  0.00    -0.077 N 
HETATM   12  C1  UNL     1      45.589 -59.516  36.711  1.00  0.00     0.271 C 
HETATM   13  C2  UNL     1      47.003 -61.332  36.913  1.00  0.00     0.271 C 
HETATM   14  C3  UNL     1      46.778 -60.207  34.810  1.00  0.00     0.271 C 
ENDBRANCH  10  11
ENDBRANCH   9  10
BRANCH   9  15
HETATM   15  C6  UNL     1      45.302 -62.161  33.292  1.00  0.00     0.188 C 
BRANCH  15  16
HETATM   16  O1  UNL     1      46.176 -63.055  32.654  1.00  0.00    -0.399 OA
ATOM     17  H1  UNL     1      45.663 -63.708  32.192  1.00  0.00     0.209 HD
ENDBRANCH  15  16
ENDBRANCH   9  15
ENDBRANCH   8   9
ENDBRANCH   1   8
BRANCH   4  18
HETATM   18  N5  UNL     1      41.561 -66.990  32.761  1.00  0.00    -0.258 N 
HETATM   19  C8  UNL     1      41.277 -67.875  31.947  1.00  0.00     0.223 C 
HETATM   20  N6  UNL     1      40.090 -68.669  32.208  1.00  0.00    -0.061 NA
HETATM   21  N7  UNL     1      42.035 -68.171  30.769  1.00  0.00    -0.258 N 
ATOM     22  H7  UNL     1      41.948 -67.546  29.967  1.00  0.00     0.191 HD
ATOM     23  H5  UNL     1      40.854 -67.002  33.497  1.00  0.00     0.190 HD
BRANCH  21  24
HETATM   24  N8  UNL     1      42.877 -69.258  30.667  1.00  0.00    -0.247 N 
HETATM   25  N9  UNL     1      43.105 -70.000  31.662  1.00  0.00    -0.331 N 
ATOM     26  H92 UNL     1      42.652 -69.778  32.549  1.00  0.00     0.178 HD
ATOM     27  H91 UNL     1      43.728 -70.804  31.586  1.00  0.00     0.178 HD
ATOM     28  H8  UNL     1      43.322 -69.466  29.773  1.00  0.00     0.207 HD
ENDBRANCH  21  24
ENDBRANCH   4  18
BRANCH   6  29
HETATM   29  N11 UNL     1      40.831 -63.525  34.425  1.00  0.00    -0.024 N 
HETATM   30  O2  UNL     1      40.367 -62.360  34.565  1.00  0.00    -0.516 OA
HETATM   31  O3  UNL     1      40.749 -64.319  35.557  1.00  0.00    -0.516 OA
ENDBRANCH   6  29
TORSDOF 9
ENDMDL
MODEL 2
REMARK VINA RESULT: -7.559704077      3.259      5.671
REMARK  9 active torsions:
REMARK  status: ('A' for Active; 'I' for Inactive)
REMARK    1  A    between atoms: N1_2  and  C4_5 
REMARK    2  A    between atoms: C4_5  and  C5_6 
REMARK    3  A    between atoms: C5_6  and  C6_7 
REMARK    4  A    between atoms: C5_6  and  N2_10 
REMARK    5  A    between atoms: C6_7  and  O1_8 
REMARK    6  A    between atoms: N2_10  and  N3_11 
REMARK       I    between atoms: N3_11  and  C7_13 
REMARK       I    between atoms: C7_13  and  N10_27 
REMARK    7  A    between atoms: N4_14  and  N5_16 
REMARK       I    between atoms: C8_18  and  N7_20 
REMARK    8  A    between atoms: N7_20  and  N8_22 
REMARK    9  A    between atoms: N10_27  and  N11_29 
ROOT
HETATM    1  N3  UNL     1      41.873 -67.671  30.879  1.00  0.00    -0.133 N 
ATOM      2  H3  UNL     1      41.873 -67.070  30.056  1.00  0.00     0.201 HD
HETATM    3  C7  UNL     1      42.404 -69.016  30.790  1.00  0.00     0.727 C 
HETATM    4  N4  UNL     1      43.587 -69.209  30.443  1.00  0.00    -0.127 N 
ATOM      5  H4  UNL     1      44.027 -68.307  30.262  1.00  0.00     0.205 HD
HETATM    6  N10 UNL     1      41.531 -70.076  31.114  1.00  0.00    -0.070 N 
ATOM      7  H10 UNL     1      41.117 -70.643  30.375  1.00  0.00     0.212 HD
ENDROOT
BRANCH   1   8
HETATM    8  N2  UNL     1      41.367 -67.202  32.071  1.00  0.00    -0.117 NA
BRANCH   8   9
HETATM    9  C5  UNL     1      41.514 -65.772  32.271  1.00  0.00     0.149 C 
BRANCH   9  10
HETATM   10  C4  UNL     1      41.717 -65.417  33.702  1.00  0.00     0.261 C 
BRANCH  10  11
HETATM   11  N1  UNL     1      42.729 -64.452  33.991  1.00  0.00    -0.077 N 
HETATM   12  C1  UNL     1      42.144 -63.532  34.994  1.00  0.00     0.271 C 
HETATM   13  C2  UNL     1      43.869 -65.044  34.711  1.00  0.00     0.271 C 
HETATM   14  C3  UNL     1      43.168 -63.658  32.886  1.00  0.00     0.271 C 
ENDBRANCH  10  11
ENDBRANCH   9  10
BRANCH   9  15
HETATM   15  C6  UNL     1      40.335 -65.103  31.619  1.00  0.00     0.188 C 
BRANCH  15  16
HETATM   16  O1  UNL     1      39.681 -64.307  32.574  1.00  0.00    -0.399 OA
ATOM     17  H1  UNL     1      38.829 -64.058  32.234  1.00  0.00     0.209 HD
ENDBRANCH  15  16
ENDBRANCH   9  15
ENDBRANCH   8   9
ENDBRANCH   1   8
BRANCH   4  18
HETATM   18  N5  UNL     1      44.462 -70.152  30.228  1.00  0.00    -0.258 N 
HETATM   19  C8  UNL     1      45.516 -70.652  30.634  1.00  0.00     0.223 C 
HETATM   20  N6  UNL     1      46.041 -71.792  29.905  1.00  0.00    -0.061 NA
HETATM   21  N7  UNL     1      46.253 -70.185  31.770  1.00  0.00    -0.258 N 
ATOM     22  H7  UNL     1      46.811 -69.337  31.671  1.00  0.00     0.191 HD
ATOM     23  H5  UNL     1      44.158 -70.680  29.409  1.00  0.00     0.190 HD
BRANCH  21  24
HETATM   24  N8  UNL     1      46.244 -70.826  32.990  1.00  0.00    -0.247 N 
HETATM   25  N9  UNL     1      45.286 -70.672  33.799  1.00  0.00    -0.331 N 
ATOM     26  H92 UNL     1      44.515 -70.062  33.529  1.00  0.00     0.178 HD
ATOM     27  H91 UNL     1      45.279 -71.147  34.701  1.00  0.00     0.178 HD
ATOM     28  H8  UNL     1      47.022 -71.434  33.244  1.00  0.00     0.207 HD
ENDBRANCH  21  24
ENDBRANCH   4  18
BRANCH   6  29
HETATM   29  N11 UNL     1      41.241 -70.343  32.441  1.00  0.00    -0.024 N 
HETATM   30  O2  UNL     1      40.080 -70.220  32.919  1.00  0.00    -0.516 OA
HETATM   31  O3  UNL     1      42.198 -70.766  33.350  1.00  0.00    -0.516 OA
ENDBRANCH   6  29
TORSDOF 9
ENDMDL
MODEL 3
REMARK VINA RESULT: -7.446506801      3.336      7.663
REMARK  9 active torsions:
REMARK  status: ('A' for Active; 'I' for Inactive)
REMARK    1  A    between atoms: N1_2  and  C4_5 
REMARK    2  A    between atoms: C4_5  and  C5_6 
REMARK    3  A    between atoms: C5_6  and  C6_7 
REMARK    4  A    between atoms: C5_6  and  N2_10 
REMARK    5  A    between atoms: C6_7  and  O1_8 
REMARK    6  A    between atoms: N2_10  and  N3_11 
REMARK       I    between atoms: N3_11  and  C7_13 
REMARK       I    between atoms: C7_13  and  N10_27 
REMARK    7  A    between atoms: N4_14  and  N5_16 
REMARK       I    between atoms: C8_18  and  N7_20 
REMARK    8  A    between atoms: N7_20  and  N8_22 
REMARK    9  A    between atoms: N10_27  and  N11_29 
ROOT
HETATM    1  N3  UNL     1      42.300 -68.231  33.031  1.00  0.00    -0.133 N 
ATOM      2  H3  UNL     1      42.480 -68.882  33.795  1.00  0.00     0.201 HD
HETATM    3  C7  UNL     1      41.993 -66.845  33.322  1.00  0.00     0.727 C 
HETATM    4  N4  UNL     1      42.800 -66.137  33.959  1.00  0.00    -0.127 N 
ATOM      5  H4  UNL     1      43.618 -66.699  34.191  1.00  0.00     0.205 HD
HETATM    6  N10 UNL     1      40.759 -66.346  32.854  1.00  0.00    -0.070 N 
ATOM      7  H10 UNL     1      39.981 -66.215  33.500  1.00  0.00     0.212 HD
ENDROOT
BRANCH   1   8
HETATM    8  N2  UNL     1      42.348 -68.672  31.727  1.00  0.00    -0.117 NA
BRANCH   8   9
HETATM    9  C5  UNL     1      42.551 -70.101  31.578  1.00  0.00     0.149 C 
BRANCH   9  10
HETATM   10  C4  UNL     1      43.812 -70.423  30.855  1.00  0.00     0.261 C 
BRANCH  10  11
HETATM   11  N1  UNL     1      44.864 -71.009  31.622  1.00  0.00    -0.077 N 
HETATM   12  C1  UNL     1      44.980 -72.410  31.156  1.00  0.00     0.271 C 
HETATM   13  C2  UNL     1      46.178 -70.439  31.282  1.00  0.00     0.271 C 
HETATM   14  C3  UNL     1      44.662 -71.043  33.036  1.00  0.00     0.271 C 
ENDBRANCH  10  11
ENDBRANCH   9  10
BRANCH   9  15
HETATM   15  C6  UNL     1      41.306 -70.669  30.954  1.00  0.00     0.188 C 
BRANCH  15  16
HETATM   16  O1  UNL     1      40.285 -69.708  31.022  1.00  0.00    -0.399 OA
ATOM     17  H1  UNL     1      40.593 -68.971  31.536  1.00  0.00     0.209 HD
ENDBRANCH  15  16
ENDBRANCH   9  15
ENDBRANCH   8   9
ENDBRANCH   1   8
BRANCH   4  18
HETATM   18  N5  UNL     1      42.970 -64.935  34.434  1.00  0.00    -0.258 N 
HETATM   19  C8  UNL     1      42.701 -63.741  34.259  1.00  0.00     0.223 C 
HETATM   20  N6  UNL     1      43.231 -62.789  35.217  1.00  0.00    -0.061 NA
HETATM   21  N7  UNL     1      41.905 -63.236  33.182  1.00  0.00    -0.258 N 
ATOM     22  H7  UNL     1      42.328 -63.171  32.255  1.00  0.00     0.191 HD
ATOM     23  H5  UNL     1      43.548 -65.007  35.271  1.00  0.00     0.190 HD
BRANCH  21  24
HETATM   24  N8  UNL     1      40.596 -62.833  33.335  1.00  0.00    -0.247 N 
HETATM   25  N9  UNL     1      40.089 -62.690  34.483  1.00  0.00    -0.331 N 
ATOM     26  H92 UNL     1      40.671 -62.880  35.299  1.00  0.00     0.178 HD
ATOM     27  H91 UNL     1      39.121 -62.392  34.596  1.00  0.00     0.178 HD
ATOM     28  H8  UNL     1      40.028 -62.646  32.509  1.00  0.00     0.207 HD
ENDBRANCH  21  24
ENDBRANCH   4  18
BRANCH   6  29
HETATM   29  N11 UNL     1      40.610 -66.035  31.514  1.00  0.00    -0.024 N 
HETATM   30  O2  UNL     1      40.077 -64.961  31.122  1.00  0.00    -0.516 OA
HETATM   31  O3  UNL     1      41.032 -66.876  30.496  1.00  0.00    -0.516 OA
ENDBRANCH   6  29
TORSDOF 9
ENDMDL
MODEL 4
REMARK VINA RESULT: -7.435875269      3.272      5.770
REMARK  9 active torsions:
REMARK  status: ('A' for Active; 'I' for Inactive)
REMARK    1  A    between atoms: N1_2  and  C4_5 
REMARK    2  A    between atoms: C4_5  and  C5_6 
REMARK    3  A    between atoms: C5_6  and  C6_7 
REMARK    4  A    between atoms: C5_6  and  N2_10 
REMARK    5  A    between atoms: C6_7  and  O1_8 
REMARK    6  A    between atoms: N2_10  and  N3_11 
REMARK       I    between atoms: N3_11  and  C7_13 
REMARK       I    between atoms: C7_13  and  N10_27 
REMARK    7  A    between atoms: N4_14  and  N5_16 
REMARK       I    between atoms: C8_18  and  N7_20 
REMARK    8  A    between atoms: N7_20  and  N8_22 
REMARK    9  A    between atoms: N10_27  and  N11_29 
ROOT
HETATM    1  N3  UNL     1      41.875 -67.685  30.874  1.00  0.00    -0.133 N 
ATOM      2  H3  UNL     1      41.848 -67.086  30.050  1.00  0.00     0.201 HD
HETATM    3  C7  UNL     1      42.437 -69.017  30.780  1.00  0.00     0.727 C 
HETATM    4  N4  UNL     1      43.618 -69.183  30.414  1.00  0.00    -0.127 N 
ATOM      5  H4  UNL     1      44.034 -68.271  30.225  1.00  0.00     0.205 HD
HETATM    6  N10 UNL     1      41.594 -70.096  31.121  1.00  0.00    -0.070 N 
ATOM      7  H10 UNL     1      41.182 -70.675  30.390  1.00  0.00     0.212 HD
ENDROOT
BRANCH   1   8
HETATM    8  N2  UNL     1      41.377 -67.224  32.073  1.00  0.00    -0.117 NA
BRANCH   8   9
HETATM    9  C5  UNL     1      41.561 -65.802  32.300  1.00  0.00     0.149 C 
BRANCH   9  10
HETATM   10  C4  UNL     1      41.723 -65.474  33.743  1.00  0.00     0.261 C 
BRANCH  10  11
HETATM   11  N1  UNL     1      42.625 -64.416  34.067  1.00  0.00    -0.077 N 
HETATM   12  C1  UNL     1      43.804 -65.060  34.693  1.00  0.00     0.271 C 
HETATM   13  C2  UNL     1      43.194 -63.785  32.865  1.00  0.00     0.271 C 
HETATM   14  C3  UNL     1      42.135 -63.438  34.986  1.00  0.00     0.271 C 
ENDBRANCH  10  11
ENDBRANCH   9  10
BRANCH   9  15
HETATM   15  C6  UNL     1      40.429 -65.087  31.616  1.00  0.00     0.188 C 
BRANCH  15  16
HETATM   16  O1  UNL     1      39.678 -64.398  32.582  1.00  0.00    -0.399 OA
ATOM     17  H1  UNL     1      39.644 -63.478  32.345  1.00  0.00     0.209 HD
ENDBRANCH  15  16
ENDBRANCH   9  15
ENDBRANCH   8   9
ENDBRANCH   1   8
BRANCH   4  18
HETATM   18  N5  UNL     1      44.511 -70.106  30.188  1.00  0.00    -0.258 N 
HETATM   19  C8  UNL     1      45.561 -70.606  30.603  1.00  0.00     0.223 C 
HETATM   20  N6  UNL     1      46.121 -71.712  29.847  1.00  0.00    -0.061 NA
HETATM   21  N7  UNL     1      46.262 -70.173  31.775  1.00  0.00    -0.258 N 
ATOM     22  H7  UNL     1      46.811 -69.315  31.722  1.00  0.00     0.191 HD
ATOM     23  H5  UNL     1      44.236 -70.607  29.343  1.00  0.00     0.190 HD
BRANCH  21  24
HETATM   24  N8  UNL     1      46.230 -70.859  32.970  1.00  0.00    -0.247 N 
HETATM   25  N9  UNL     1      45.321 -70.644  33.820  1.00  0.00    -0.331 N 
ATOM     26  H92 UNL     1      44.607 -69.948  33.603  1.00  0.00     0.178 HD
ATOM     27  H91 UNL     1      45.298 -71.151  34.704  1.00  0.00     0.178 HD
ATOM     28  H8  UNL     1      46.951 -71.551  33.171  1.00  0.00     0.207 HD
ENDBRANCH  21  24
ENDBRANCH   4  18
BRANCH   6  29
HETATM   29  N11 UNL     1      41.331 -70.366  32.453  1.00  0.00    -0.024 N 
HETATM   30  O2  UNL     1      42.233 -70.703  33.268  1.00  0.00    -0.516 OA
HETATM   31  O3  UNL     1      40.059 -70.288  32.998  1.00  0.00    -0.516 OA
ENDBRANCH   6  29
TORSDOF 9
ENDMDL
MODEL 5
REMARK VINA RESULT: -7.417967970      4.512      8.213
REMARK  9 active torsions:
REMARK  status: ('A' for Active; 'I' for Inactive)
REMARK    1  A    between atoms: N1_2  and  C4_5 
REMARK    2  A    between atoms: C4_5  and  C5_6 
REMARK    3  A    between atoms: C5_6  and  C6_7 
REMARK    4  A    between atoms: C5_6  and  N2_10 
REMARK    5  A    between atoms: C6_7  and  O1_8 
REMARK    6  A    between atoms: N2_10  and  N3_11 
REMARK       I    between atoms: N3_11  and  C7_13 
REMARK       I    between atoms: C7_13  and  N10_27 
REMARK    7  A    between atoms: N4_14  and  N5_16 
REMARK       I    between atoms: C8_18  and  N7_20 
REMARK    8  A    between atoms: N7_20  and  N8_22 
REMARK    9  A    between atoms: N10_27  and  N11_29 
ROOT
HETATM    1  N3  UNL     1      43.054 -69.632  33.014  1.00  0.00    -0.133 N 
ATOM      2  H3  UNL     1      43.441 -69.686  33.956  1.00  0.00     0.201 HD
HETATM    3  C7  UNL     1      42.020 -68.662  32.713  1.00  0.00     0.727 C 
HETATM    4  N4  UNL     1      42.226 -67.443  32.881  1.00  0.00    -0.127 N 
ATOM      5  H4  UNL     1      43.174 -67.315  33.233  1.00  0.00     0.205 HD
HETATM    6  N10 UNL     1      40.792 -69.160  32.227  1.00  0.00    -0.070 N 
ATOM      7  H10 UNL     1      39.980 -69.208  32.842  1.00  0.00     0.212 HD
ENDROOT
BRANCH   1   8
HETATM    8  N2  UNL     1      43.517 -70.480  32.032  1.00  0.00    -0.117 NA
BRANCH   8   9
HETATM    9  C5  UNL     1      44.876 -70.950  32.229  1.00  0.00     0.149 C 
BRANCH   9  10
HETATM   10  C4  UNL     1      45.130 -72.250  31.550  1.00  0.00     0.261 C 
BRANCH  10  11
HETATM   11  N1  UNL     1      46.374 -72.388  30.863  1.00  0.00    -0.077 N 
HETATM   12  C1  UNL     1      46.437 -71.264  29.899  1.00  0.00     0.271 C 
HETATM   13  C2  UNL     1      47.524 -72.131  31.745  1.00  0.00     0.271 C 
HETATM   14  C3  UNL     1      46.547 -73.598  30.122  1.00  0.00     0.271 C 
ENDBRANCH  10  11
ENDBRANCH   9  10
BRANCH   9  15
HETATM   15  C6  UNL     1      45.142 -70.953  33.709  1.00  0.00     0.188 C 
BRANCH  15  16
HETATM   16  O1  UNL     1      46.077 -69.948  34.003  1.00  0.00    -0.399 OA
ATOM     17  H1  UNL     1      46.865 -70.105  33.496  1.00  0.00     0.209 HD
ENDBRANCH  15  16
ENDBRANCH   9  15
ENDBRANCH   8   9
ENDBRANCH   1   8
BRANCH   4  18
HETATM   18  N5  UNL     1      41.661 -66.273  32.767  1.00  0.00    -0.258 N 
HETATM   19  C8  UNL     1      41.841 -65.057  32.894  1.00  0.00     0.223 C 
HETATM   20  N6  UNL     1      40.726 -64.180  32.586  1.00  0.00    -0.061 NA
HETATM   21  N7  UNL     1      43.068 -64.457  33.321  1.00  0.00    -0.258 N 
ATOM     22  H7  UNL     1      43.307 -64.493  34.313  1.00  0.00     0.191 HD
ATOM     23  H5  UNL     1      40.702 -66.418  32.451  1.00  0.00     0.190 HD
BRANCH  21  24
HETATM   24  N8  UNL     1      43.944 -63.833  32.458  1.00  0.00    -0.247 N 
HETATM   25  N9  UNL     1      44.933 -63.180  32.894  1.00  0.00    -0.331 N 
ATOM     26  H92 UNL     1      45.072 -63.124  33.903  1.00  0.00     0.178 HD
ATOM     27  H91 UNL     1      45.580 -62.719  32.256  1.00  0.00     0.178 HD
ATOM     28  H8  UNL     1      43.791 -63.899  31.452  1.00  0.00     0.207 HD
ENDBRANCH  21  24
ENDBRANCH   4  18
BRANCH   6  29
HETATM   29  N11 UNL     1      40.696 -69.581  30.913  1.00  0.00    -0.024 N 
HETATM   30  O2  UNL     1      40.135 -70.662  30.586  1.00  0.00    -0.516 OA
HETATM   31  O3  UNL     1      41.205 -68.851  29.850  1.00  0.00    -0.516 OA
ENDBRANCH   6  29
TORSDOF 9
ENDMDL
