MODEL 1
REMARK VINA RESULT: -10.665081253      0.000      0.000
REMARK  2 active torsions:
REMARK  status: ('A' for Active; 'I' for Inactive)
REMARK    1  A    between atoms: C9_9  and  C10_10 
REMARK    2  A    between atoms: C11_11  and  C12_12 
ROOT
HETATM    1  C10 UNL     1      15.216  16.584  11.442  1.00  0.00     0.024 A 
HETATM    2  C11 UNL     1      15.278  16.127  12.732  1.00  0.00    -0.009 A 
HETATM    3  C21 UNL     1      14.132  15.702  13.355  1.00  0.00     0.002 A 
HETATM    4  C22 UNL     1      14.120  15.208  14.647  1.00  0.00     0.014 A 
HETATM    5  C23 UNL     1      12.977  14.764  15.269  1.00  0.00     0.001 A 
HETATM    6  C24 UNL     1      11.756  14.801  14.587  1.00  0.00     0.002 A 
HETATM    7  C25 UNL     1      11.739  15.288  13.298  1.00  0.00     0.030 A 
HETATM    8  C26 UNL     1      12.894  15.719  12.716  1.00  0.00     0.044 A 
HETATM    9  N2  UNL     1      12.858  16.169  11.460  1.00  0.00    -0.346 N 
ATOM     10  H2  UNL     1      11.967  16.195  10.965  1.00  0.00     0.167 HD
HETATM   11  C27 UNL     1      13.977  16.590  10.833  1.00  0.00     0.113 A 
HETATM   12  S1  UNL     1      13.793  17.121   9.281  1.00  0.00    -0.059 SA
ENDROOT
BRANCH   1  13
HETATM   13  C9  UNL     1      16.346  17.069  10.688  1.00  0.00    -0.015 A 
HETATM   14  C8  UNL     1      17.344  16.258  10.223  1.00  0.00     0.014 A 
HETATM   15  C7  UNL     1      18.408  16.731   9.506  1.00  0.00     0.013 A 
HETATM   16  C6  UNL     1      18.483  18.081   9.239  1.00  0.00    -0.025 A 
HETATM   17  C5  UNL     1      19.550  18.548   8.520  1.00  0.00     0.012 A 
HETATM   18  C30 UNL     1      17.485  18.969   9.693  1.00  0.00    -0.013 A 
HETATM   19  C4  UNL     1      19.658  19.862   8.240  1.00  0.00     0.001 A 
HETATM   20  C3  UNL     1      18.695  20.723   8.677  1.00  0.00     0.007 A 
HETATM   21  C2  UNL     1      17.559  20.311   9.428  1.00  0.00    -0.050 A 
HETATM   22  C1  UNL     1      16.577  21.281   9.864  1.00  0.00     0.049 C 
HETATM   23  C28 UNL     1      16.409  18.445  10.425  1.00  0.00    -0.039 A 
HETATM   24  C29 UNL     1      15.376  19.336  10.898  1.00  0.00     0.050 C 
ENDBRANCH   1  13
BRANCH   2  25
HETATM   25  C12 UNL     1      16.568  16.076  13.384  1.00  0.00     0.031 C 
HETATM   26  C13 UNL     1      17.108  16.997  14.144  1.00  0.00     0.045 A 
HETATM   27  C14 UNL     1      16.598  18.296  14.538  1.00  0.00     0.257 A 
HETATM   28  C20 UNL     1      18.428  16.828  14.799  1.00  0.00     0.006 A 
HETATM   29  O1  UNL     1      15.514  18.811  14.194  1.00  0.00    -0.267 OA
HETATM   30  N1  UNL     1      17.596  18.874  15.405  1.00  0.00    -0.322 N 
HETATM   31  C15 UNL     1      18.675  17.964  15.534  1.00  0.00     0.046 A 
ATOM     32  H1  UNL     1      17.535  19.788  15.853  1.00  0.00     0.169 HD
HETATM   33  C16 UNL     1      19.876  18.038  16.248  1.00  0.00     0.030 A 
HETATM   34  C17 UNL     1      20.755  16.979  16.188  1.00  0.00     0.002 A 
HETATM   35  C18 UNL     1      20.515  15.847  15.458  1.00  0.00     0.001 A 
HETATM   36  C19 UNL     1      19.330  15.775  14.752  1.00  0.00     0.015 A 
ENDBRANCH   2  25
TORSDOF 2
ENDMDL
MODEL 2
REMARK VINA RESULT: -9.529036377      0.656      1.811
REMARK  2 active torsions:
REMARK  status: ('A' for Active; 'I' for Inactive)
REMARK    1  A    between atoms: C9_9  and  C10_10 
REMARK    2  A    between atoms: C11_11  and  C12_12 
ROOT
HETATM    1  C10 UNL     1      14.798  17.189  11.412  1.00  0.00     0.024 A 
HETATM    2  C11 UNL     1      15.065  16.390  12.493  1.00  0.00    -0.009 A 
HETATM    3  C21 UNL     1      14.068  15.606  13.018  1.00  0.00     0.002 A 
HETATM    4  C22 UNL     1      14.269  14.759  14.093  1.00  0.00     0.014 A 
HETATM    5  C23 UNL     1      13.278  13.959  14.610  1.00  0.00     0.001 A 
HETATM    6  C24 UNL     1      11.999  13.982  14.044  1.00  0.00     0.002 A 
HETATM    7  C25 UNL     1      11.771  14.817  12.972  1.00  0.00     0.030 A 
HETATM    8  C26 UNL     1      12.780  15.596  12.487  1.00  0.00     0.044 A 
HETATM    9  N2  UNL     1      12.543  16.383  11.436  1.00  0.00    -0.346 N 
ATOM     10  H2  UNL     1      11.610  16.398  11.024  1.00  0.00     0.167 HD
HETATM   11  C27 UNL     1      13.513  17.159  10.907  1.00  0.00     0.113 A 
HETATM   12  S1  UNL     1      13.087  18.083   9.608  1.00  0.00    -0.059 SA
ENDROOT
BRANCH   1  13
HETATM   13  C9  UNL     1      15.755  18.064  10.783  1.00  0.00    -0.015 A 
HETATM   14  C8  UNL     1      15.623  19.425  10.751  1.00  0.00     0.014 A 
HETATM   15  C7  UNL     1      16.541  20.244  10.154  1.00  0.00     0.013 A 
HETATM   16  C6  UNL     1      17.647  19.680   9.556  1.00  0.00    -0.025 A 
HETATM   17  C5  UNL     1      18.562  20.504   8.959  1.00  0.00     0.012 A 
HETATM   18  C30 UNL     1      17.838  18.281   9.553  1.00  0.00    -0.013 A 
HETATM   19  C4  UNL     1      19.655  19.988   8.363  1.00  0.00     0.001 A 
HETATM   20  C3  UNL     1      19.843  18.638   8.360  1.00  0.00     0.007 A 
HETATM   21  C2  UNL     1      18.937  17.720   8.959  1.00  0.00    -0.050 A 
HETATM   22  C1  UNL     1      19.198  16.296   8.914  1.00  0.00     0.049 C 
HETATM   23  C28 UNL     1      16.875  17.475  10.177  1.00  0.00    -0.039 A 
HETATM   24  C29 UNL     1      17.052  16.042  10.188  1.00  0.00     0.050 C 
ENDBRANCH   1  13
BRANCH   2  25
HETATM   25  C12 UNL     1      16.411  16.374  13.023  1.00  0.00     0.031 C 
HETATM   26  C13 UNL     1      16.916  17.181  13.922  1.00  0.00     0.045 A 
HETATM   27  C14 UNL     1      16.306  18.293  14.624  1.00  0.00     0.257 A 
HETATM   28  C20 UNL     1      18.305  17.055  14.427  1.00  0.00     0.006 A 
HETATM   29  O1  UNL     1      15.142  18.723  14.480  1.00  0.00    -0.267 OA
HETATM   30  N1  UNL     1      17.314  18.806  15.521  1.00  0.00    -0.322 N 
HETATM   31  C15 UNL     1      18.495  18.038  15.371  1.00  0.00     0.046 A 
ATOM     32  H1  UNL     1      17.195  19.592  16.159  1.00  0.00     0.169 HD
HETATM   33  C16 UNL     1      19.745  18.119  15.995  1.00  0.00     0.030 A 
HETATM   34  C17 UNL     1      20.727  17.219  15.643  1.00  0.00     0.002 A 
HETATM   35  C18 UNL     1      20.544  16.240  14.704  1.00  0.00     0.001 A 
HETATM   36  C19 UNL     1      19.310  16.160  14.088  1.00  0.00     0.015 A 
ENDBRANCH   2  25
TORSDOF 2
ENDMDL
MODEL 3
REMARK VINA RESULT: -9.192193481      1.284      1.598
REMARK  2 active torsions:
REMARK  status: ('A' for Active; 'I' for Inactive)
REMARK    1  A    between atoms: C9_9  and  C10_10 
REMARK    2  A    between atoms: C11_11  and  C12_12 
ROOT
HETATM    1  C10 UNL     1      15.358  16.701  11.824  1.00  0.00     0.024 A 
HETATM    2  C11 UNL     1      15.244  16.811  13.185  1.00  0.00    -0.009 A 
HETATM    3  C21 UNL     1      14.113  16.349  13.809  1.00  0.00     0.002 A 
HETATM    4  C22 UNL     1      13.937  16.407  15.180  1.00  0.00     0.014 A 
HETATM    5  C23 UNL     1      12.813  15.929  15.811  1.00  0.00     0.001 A 
HETATM    6  C24 UNL     1      11.785  15.352  15.058  1.00  0.00     0.002 A 
HETATM    7  C25 UNL     1      11.934  15.281  13.691  1.00  0.00     0.030 A 
HETATM    8  C26 UNL     1      13.064  15.767  13.101  1.00  0.00     0.044 A 
HETATM    9  N2  UNL     1      13.197  15.670  11.777  1.00  0.00    -0.346 N 
ATOM     10  H2  UNL     1      12.447  15.248  11.229  1.00  0.00     0.167 HD
HETATM   11  C27 UNL     1      14.304  16.119  11.147  1.00  0.00     0.113 A 
HETATM   12  S1  UNL     1      14.341  15.938   9.507  1.00  0.00    -0.059 SA
ENDROOT
BRANCH   1  13
HETATM   13  C9  UNL     1      16.488  17.160  11.055  1.00  0.00    -0.015 A 
HETATM   14  C8  UNL     1      17.610  16.408  10.843  1.00  0.00     0.014 A 
HETATM   15  C7  UNL     1      18.673  16.854  10.108  1.00  0.00     0.013 A 
HETATM   16  C6  UNL     1      18.617  18.116   9.556  1.00  0.00    -0.025 A 
HETATM   17  C5  UNL     1      19.684  18.557   8.821  1.00  0.00     0.012 A 
HETATM   18  C30 UNL     1      17.486  18.941   9.740  1.00  0.00    -0.013 A 
HETATM   19  C4  UNL     1      19.665  19.786   8.266  1.00  0.00     0.001 A 
HETATM   20  C3  UNL     1      18.575  20.585   8.442  1.00  0.00     0.007 A 
HETATM   21  C2  UNL     1      17.430  20.195   9.191  1.00  0.00    -0.050 A 
HETATM   22  C1  UNL     1      16.308  21.097   9.340  1.00  0.00     0.049 C 
HETATM   23  C28 UNL     1      16.416  18.446  10.500  1.00  0.00    -0.039 A 
HETATM   24  C29 UNL     1      15.249  19.273  10.699  1.00  0.00     0.050 C 
ENDBRANCH   1  13
BRANCH   2  25
HETATM   25  C12 UNL     1      16.347  17.384  13.925  1.00  0.00     0.031 C 
HETATM   26  C13 UNL     1      17.264  16.740  14.603  1.00  0.00     0.045 A 
HETATM   27  C14 UNL     1      17.439  15.316  14.814  1.00  0.00     0.257 A 
HETATM   28  C20 UNL     1      18.381  17.425  15.299  1.00  0.00     0.006 A 
HETATM   29  O1  UNL     1      16.703  14.400  14.391  1.00  0.00    -0.267 OA
HETATM   30  N1  UNL     1      18.631  15.170  15.614  1.00  0.00    -0.322 N 
HETATM   31  C15 UNL     1      19.163  16.455  15.883  1.00  0.00     0.046 A 
ATOM     32  H1  UNL     1      19.026  14.286  15.933  1.00  0.00     0.169 HD
HETATM   33  C16 UNL     1      20.290  16.865  16.604  1.00  0.00     0.030 A 
HETATM   34  C17 UNL     1      20.569  18.211  16.700  1.00  0.00     0.002 A 
HETATM   35  C18 UNL     1      19.794  19.180  16.121  1.00  0.00     0.001 A 
HETATM   36  C19 UNL     1      18.681  18.775  15.410  1.00  0.00     0.015 A 
ENDBRANCH   2  25
TORSDOF 2
ENDMDL
MODEL 4
REMARK VINA RESULT: -8.384858766      3.071      6.600
REMARK  2 active torsions:
REMARK  status: ('A' for Active; 'I' for Inactive)
REMARK    1  A    between atoms: C9_9  and  C10_10 
REMARK    2  A    between atoms: C11_11  and  C12_12 
ROOT
HETATM    1  C10 UNL     1      15.626  19.945   9.470  1.00  0.00     0.024 A 
HETATM    2  C11 UNL     1      16.046  18.694   9.837  1.00  0.00    -0.009 A 
HETATM    3  C21 UNL     1      17.318  18.288   9.522  1.00  0.00     0.002 A 
HETATM    4  C22 UNL     1      17.819  17.048   9.878  1.00  0.00     0.014 A 
HETATM    5  C23 UNL     1      19.099  16.644   9.581  1.00  0.00     0.001 A 
HETATM    6  C24 UNL     1      19.956  17.506   8.888  1.00  0.00     0.002 A 
HETATM    7  C25 UNL     1      19.484  18.747   8.522  1.00  0.00     0.030 A 
HETATM    8  C26 UNL     1      18.207  19.111   8.835  1.00  0.00     0.044 A 
HETATM    9  N2  UNL     1      17.777  20.325   8.488  1.00  0.00    -0.346 N 
ATOM     10  H2  UNL     1      18.403  20.952   7.984  1.00  0.00     0.167 HD
HETATM   11  C27 UNL     1      16.528  20.740   8.791  1.00  0.00     0.113 A 
HETATM   12  S1  UNL     1      16.122  22.264   8.304  1.00  0.00    -0.059 SA
ENDROOT
BRANCH   1  13
HETATM   13  C9  UNL     1      14.312  20.479   9.731  1.00  0.00    -0.015 A 
HETATM   14  C8  UNL     1      14.092  21.756  10.168  1.00  0.00     0.014 A 
HETATM   15  C7  UNL     1      12.840  22.251  10.407  1.00  0.00     0.013 A 
HETATM   16  C6  UNL     1      11.750  21.432  10.202  1.00  0.00    -0.025 A 
HETATM   17  C5  UNL     1      10.500  21.933  10.443  1.00  0.00     0.012 A 
HETATM   18  C30 UNL     1      11.913  20.104   9.752  1.00  0.00    -0.013 A 
HETATM   19  C4  UNL     1       9.410  21.161  10.253  1.00  0.00     0.001 A 
HETATM   20  C3  UNL     1       9.564  19.879   9.819  1.00  0.00     0.007 A 
HETATM   21  C2  UNL     1      10.830  19.290   9.548  1.00  0.00    -0.050 A 
HETATM   22  C1  UNL     1      10.919  17.919   9.093  1.00  0.00     0.049 C 
HETATM   23  C28 UNL     1      13.213  19.633   9.517  1.00  0.00    -0.039 A 
HETATM   24  C29 UNL     1      13.402  18.278   9.057  1.00  0.00     0.050 C 
ENDBRANCH   1  13
BRANCH   2  25
HETATM   25  C12 UNL     1      15.135  17.851  10.581  1.00  0.00     0.031 C 
HETATM   26  C13 UNL     1      15.173  17.584  11.863  1.00  0.00     0.045 A 
HETATM   27  C14 UNL     1      16.105  18.030  12.880  1.00  0.00     0.257 A 
HETATM   28  C20 UNL     1      14.163  16.733  12.538  1.00  0.00     0.006 A 
HETATM   29  O1  UNL     1      17.103  18.762  12.713  1.00  0.00    -0.267 OA
HETATM   30  N1  UNL     1      15.651  17.454  14.123  1.00  0.00    -0.322 N 
HETATM   31  C15 UNL     1      14.487  16.685  13.874  1.00  0.00     0.046 A 
ATOM     32  H1  UNL     1      16.095  17.580  15.032  1.00  0.00     0.169 HD
HETATM   33  C16 UNL     1      13.668  15.932  14.723  1.00  0.00     0.030 A 
HETATM   34  C17 UNL     1      12.580  15.275  14.192  1.00  0.00     0.002 A 
HETATM   35  C18 UNL     1      12.253  15.320  12.864  1.00  0.00     0.001 A 
HETATM   36  C19 UNL     1      13.062  16.063  12.026  1.00  0.00     0.015 A 
ENDBRANCH   2  25
TORSDOF 2
ENDMDL
MODEL 5
REMARK VINA RESULT: -8.237579036      3.650      8.112
REMARK  2 active torsions:
REMARK  status: ('A' for Active; 'I' for Inactive)
REMARK    1  A    between atoms: C9_9  and  C10_10 
REMARK    2  A    between atoms: C11_11  and  C12_12 
ROOT
HETATM    1  C10 UNL     1      15.884  19.398   9.503  1.00  0.00     0.024 A 
HETATM    2  C11 UNL     1      15.110  20.434   9.048  1.00  0.00    -0.009 A 
HETATM    3  C21 UNL     1      15.694  21.456   8.343  1.00  0.00     0.002 A 
HETATM    4  C22 UNL     1      14.973  22.522   7.834  1.00  0.00     0.014 A 
HETATM    5  C23 UNL     1      15.551  23.539   7.112  1.00  0.00     0.001 A 
HETATM    6  C24 UNL     1      16.928  23.520   6.863  1.00  0.00     0.002 A 
HETATM    7  C25 UNL     1      17.669  22.469   7.357  1.00  0.00     0.030 A 
HETATM    8  C26 UNL     1      17.060  21.479   8.070  1.00  0.00     0.044 A 
HETATM    9  N2  UNL     1      17.793  20.461   8.523  1.00  0.00    -0.346 N 
ATOM     10  H2  UNL     1      18.797  20.448   8.340  1.00  0.00     0.167 HD
HETATM   11  C27 UNL     1      17.234  19.447   9.218  1.00  0.00     0.113 A 
HETATM   12  S1  UNL     1      18.254  18.250   9.719  1.00  0.00    -0.059 SA
ENDROOT
BRANCH   1  13
HETATM   13  C9  UNL     1      15.391  18.278  10.265  1.00  0.00    -0.015 A 
HETATM   14  C8  UNL     1      14.704  17.234   9.709  1.00  0.00     0.014 A 
HETATM   15  C7  UNL     1      14.245  16.176  10.443  1.00  0.00     0.013 A 
HETATM   16  C6  UNL     1      14.480  16.155  11.801  1.00  0.00    -0.025 A 
HETATM   17  C5  UNL     1      14.019  15.094  12.530  1.00  0.00     0.012 A 
HETATM   18  C30 UNL     1      15.182  17.205  12.433  1.00  0.00    -0.013 A 
HETATM   19  C4  UNL     1      14.230  15.040  13.861  1.00  0.00     0.001 A 
HETATM   20  C3  UNL     1      14.907  16.051  14.474  1.00  0.00     0.007 A 
HETATM   21  C2  UNL     1      15.416  17.185  13.783  1.00  0.00    -0.050 A 
HETATM   22  C1  UNL     1      16.124  18.225  14.499  1.00  0.00     0.049 C 
HETATM   23  C28 UNL     1      15.638  18.272  11.646  1.00  0.00    -0.039 A 
HETATM   24  C29 UNL     1      16.359  19.355  12.272  1.00  0.00     0.050 C 
ENDBRANCH   1  13
BRANCH   2  25
HETATM   25  C12 UNL     1      13.687  20.393   9.301  1.00  0.00     0.031 C 
HETATM   26  C13 UNL     1      12.959  21.317   9.878  1.00  0.00     0.045 A 
HETATM   27  C14 UNL     1      13.346  22.605  10.421  1.00  0.00     0.257 A 
HETATM   28  C20 UNL     1      11.491  21.191  10.056  1.00  0.00     0.006 A 
HETATM   29  O1  UNL     1      14.498  23.083  10.464  1.00  0.00    -0.267 OA
HETATM   30  N1  UNL     1      12.133  23.219  10.904  1.00  0.00    -0.322 N 
HETATM   31  C15 UNL     1      11.047  22.341  10.668  1.00  0.00     0.046 A 
ATOM     32  H1  UNL     1      12.068  24.137  11.344  1.00  0.00     0.169 HD
HETATM   33  C16 UNL     1       9.680  22.454  10.942  1.00  0.00     0.030 A 
HETATM   34  C17 UNL     1       8.840  21.419  10.591  1.00  0.00     0.002 A 
HETATM   35  C18 UNL     1       9.276  20.274   9.983  1.00  0.00     0.001 A 
HETATM   36  C19 UNL     1      10.627  20.162   9.712  1.00  0.00     0.015 A 
ENDBRANCH   2  25
TORSDOF 2
ENDMDL
