MODEL 1
REMARK VINA RESULT: -10.656089306      0.000      0.000
REMARK  4 active torsions:
REMARK  status: ('A' for Active; 'I' for Inactive)
REMARK    1  A    between atoms: C2_2  and  O1_3 
REMARK    2  A    between atoms: O1_3  and  C3_4 
REMARK       I    between atoms: C3_4  and  N1_6 
REMARK    3  A    between atoms: N1_6  and  C4_8 
REMARK    4  A    between atoms: C14_22  and  C15_23 
ROOT
HETATM    1  C4  UNL     1      16.189  17.184  12.580  1.00  0.00     0.122 A 
HETATM    2  N2  UNL     1      17.235  16.422  12.961  1.00  0.00    -0.351 N 
ATOM      3  H2  UNL     1      17.400  16.250  13.953  1.00  0.00     0.166 HD
HETATM    4  C5  UNL     1      18.060  15.889  12.046  1.00  0.00     0.090 A 
HETATM    5  C6  UNL     1      17.882  16.097  10.659  1.00  0.00     0.025 A 
HETATM    6  C7  UNL     1      16.820  16.876  10.306  1.00  0.00    -0.036 A 
HETATM    7  C8  UNL     1      15.942  17.436  11.243  1.00  0.00     0.044 A 
HETATM    8  C9  UNL     1      14.804  18.093  10.681  1.00  0.00     0.075 A 
HETATM    9  C10 UNL     1      14.373  19.072  10.049  1.00  0.00     0.072 A 
HETATM   10  N3  UNL     1      13.358  18.090  10.441  1.00  0.00    -0.351 N 
ATOM     11  H3  UNL     1      12.413  17.711  10.500  1.00  0.00     0.166 HD
HETATM   12  C11 UNL     1      14.861  20.285   9.399  1.00  0.00     0.004 A 
HETATM   13  C12 UNL     1      13.895  21.315   9.242  1.00  0.00     0.015 A 
HETATM   14  C13 UNL     1      14.070  22.493   8.584  1.00  0.00     0.013 A 
HETATM   15  C14 UNL     1      15.268  22.744   8.010  1.00  0.00    -0.025 A 
HETATM   16  C22 UNL     1      16.232  21.781   8.138  1.00  0.00     0.025 A 
HETATM   17  C23 UNL     1      16.069  20.534   8.831  1.00  0.00    -0.012 A 
HETATM   18  C24 UNL     1      17.337  19.778   8.836  1.00  0.00    -0.018 A 
HETATM   19  C25 UNL     1      18.518  20.595   8.881  1.00  0.00     0.013 A 
HETATM   20  C26 UNL     1      19.799  20.137   8.797  1.00  0.00     0.001 A 
HETATM   21  C27 UNL     1      20.017  18.806   8.659  1.00  0.00     0.001 A 
HETATM   22  C28 UNL     1      18.930  17.986   8.615  1.00  0.00     0.008 A 
HETATM   23  C29 UNL     1      17.597  18.465   8.709  1.00  0.00    -0.043 A 
HETATM   24  C30 UNL     1      16.683  17.256   8.832  1.00  0.00     0.079 C 
ENDROOT
BRANCH   1  25
HETATM   25  N1  UNL     1      15.428  17.664  13.495  1.00  0.00    -0.288 N 
HETATM   26  C3  UNL     1      15.171  17.126  14.748  1.00  0.00     0.366 C 
HETATM   27  O2  UNL     1      16.036  16.921  15.640  1.00  0.00    -0.238 OA
ATOM     28  H1  UNL     1      14.959  18.542  13.277  1.00  0.00     0.172 HD
BRANCH  26  29
HETATM   29  O1  UNL     1      13.863  16.780  15.062  1.00  0.00    -0.304 OA
BRANCH  29  30
HETATM   30  C2  UNL     1      13.030  15.985  14.276  1.00  0.00     0.176 C 
HETATM   31  C1  UNL     1      13.702  14.626  14.120  1.00  0.00     0.034 C 
ENDBRANCH  29  30
ENDBRANCH  26  29
ENDBRANCH   1  25
BRANCH  15  32
HETATM   32  C15 UNL     1      15.549  23.974   7.283  1.00  0.00    -0.025 A 
HETATM   33  C16 UNL     1      16.216  24.998   7.899  1.00  0.00     0.012 A 
HETATM   34  C17 UNL     1      16.494  26.185   7.216  1.00  0.00     0.001 A 
HETATM   35  C18 UNL     1      16.085  26.305   5.915  1.00  0.00     0.007 A 
HETATM   36  C19 UNL     1      15.408  25.281   5.270  1.00  0.00    -0.061 A 
HETATM   37  C20 UNL     1      14.971  25.425   3.862  1.00  0.00     0.048 C 
HETATM   38  C21 UNL     1      15.148  24.110   5.987  1.00  0.00     0.019 A 
ENDBRANCH  15  32
TORSDOF 4
ENDMDL
MODEL 2
REMARK VINA RESULT: -10.356252732      0.343      1.176
REMARK  4 active torsions:
REMARK  status: ('A' for Active; 'I' for Inactive)
REMARK    1  A    between atoms: C2_2  and  O1_3 
REMARK    2  A    between atoms: O1_3  and  C3_4 
REMARK       I    between atoms: C3_4  and  N1_6 
REMARK    3  A    between atoms: N1_6  and  C4_8 
REMARK    4  A    between atoms: C14_22  and  C15_23 
ROOT
HETATM    1  C4  UNL     1      16.127  17.058  12.506  1.00  0.00     0.122 A 
HETATM    2  N2  UNL     1      17.189  16.310  12.874  1.00  0.00    -0.351 N 
ATOM      3  H2  UNL     1      17.352  16.116  13.862  1.00  0.00     0.166 HD
HETATM    4  C5  UNL     1      18.032  15.821  11.950  1.00  0.00     0.090 A 
HETATM    5  C6  UNL     1      17.857  16.062  10.568  1.00  0.00     0.025 A 
HETATM    6  C7  UNL     1      16.779  16.826  10.229  1.00  0.00    -0.036 A 
HETATM    7  C8  UNL     1      15.883  17.340  11.175  1.00  0.00     0.044 A 
HETATM    8  C9  UNL     1      14.732  17.984  10.623  1.00  0.00     0.075 A 
HETATM    9  C10 UNL     1      14.282  18.969  10.014  1.00  0.00     0.072 A 
HETATM   10  N3  UNL     1      13.289  17.954  10.373  1.00  0.00    -0.351 N 
ATOM     11  H3  UNL     1      12.352  17.551  10.416  1.00  0.00     0.166 HD
HETATM   12  C11 UNL     1      14.745  20.211   9.400  1.00  0.00     0.004 A 
HETATM   13  C12 UNL     1      13.757  21.221   9.264  1.00  0.00     0.015 A 
HETATM   14  C13 UNL     1      13.907  22.420   8.639  1.00  0.00     0.013 A 
HETATM   15  C14 UNL     1      15.103  22.714   8.080  1.00  0.00    -0.025 A 
HETATM   16  C22 UNL     1      16.089  21.771   8.189  1.00  0.00     0.025 A 
HETATM   17  C23 UNL     1      15.951  20.503   8.847  1.00  0.00    -0.012 A 
HETATM   18  C24 UNL     1      17.236  19.777   8.841  1.00  0.00    -0.018 A 
HETATM   19  C25 UNL     1      18.397  20.620   8.915  1.00  0.00     0.013 A 
HETATM   20  C26 UNL     1      19.689  20.195   8.826  1.00  0.00     0.001 A 
HETATM   21  C27 UNL     1      19.939  18.873   8.655  1.00  0.00     0.001 A 
HETATM   22  C28 UNL     1      18.873  18.029   8.582  1.00  0.00     0.008 A 
HETATM   23  C29 UNL     1      17.528  18.474   8.680  1.00  0.00    -0.043 A 
HETATM   24  C30 UNL     1      16.642  17.241   8.764  1.00  0.00     0.079 C 
ENDROOT
BRANCH   1  25
HETATM   25  N1  UNL     1      15.350  17.494  13.429  1.00  0.00    -0.288 N 
HETATM   26  C3  UNL     1      15.230  17.021  14.727  1.00  0.00     0.366 C 
HETATM   27  O2  UNL     1      16.157  17.005  15.580  1.00  0.00    -0.238 OA
ATOM     28  H1  UNL     1      14.751  18.281  13.179  1.00  0.00     0.172 HD
BRANCH  26  29
HETATM   29  O1  UNL     1      14.001  16.523  15.138  1.00  0.00    -0.304 OA
BRANCH  29  30
HETATM   30  C2  UNL     1      13.033  15.976  14.296  1.00  0.00     0.176 C 
HETATM   31  C1  UNL     1      13.314  14.483  14.179  1.00  0.00     0.034 C 
ENDBRANCH  29  30
ENDBRANCH  26  29
ENDBRANCH   1  25
BRANCH  15  32
HETATM   32  C15 UNL     1      15.358  23.970   7.388  1.00  0.00    -0.025 A 
HETATM   33  C16 UNL     1      14.748  24.231   6.191  1.00  0.00     0.012 A 
HETATM   34  C17 UNL     1      14.982  25.430   5.515  1.00  0.00     0.001 A 
HETATM   35  C18 UNL     1      15.835  26.344   6.073  1.00  0.00     0.007 A 
HETATM   36  C19 UNL     1      16.464  26.102   7.284  1.00  0.00    -0.061 A 
HETATM   37  C20 UNL     1      17.386  27.100   7.877  1.00  0.00     0.048 C 
HETATM   38  C21 UNL     1      16.206  24.890   7.931  1.00  0.00     0.019 A 
ENDBRANCH  15  32
TORSDOF 4
ENDMDL
MODEL 3
REMARK VINA RESULT: -9.700384504      0.963      1.158
REMARK  4 active torsions:
REMARK  status: ('A' for Active; 'I' for Inactive)
REMARK    1  A    between atoms: C2_2  and  O1_3 
REMARK    2  A    between atoms: O1_3  and  C3_4 
REMARK       I    between atoms: C3_4  and  N1_6 
REMARK    3  A    between atoms: N1_6  and  C4_8 
REMARK    4  A    between atoms: C14_22  and  C15_23 
ROOT
HETATM    1  C4  UNL     1      16.136  16.823  12.476  1.00  0.00     0.122 A 
HETATM    2  N2  UNL     1      17.249  16.139  12.814  1.00  0.00    -0.351 N 
ATOM      3  H2  UNL     1      17.431  15.923  13.794  1.00  0.00     0.166 HD
HETATM    4  C5  UNL     1      18.119  15.741  11.872  1.00  0.00     0.090 A 
HETATM    5  C6  UNL     1      17.919  16.016  10.499  1.00  0.00     0.025 A 
HETATM    6  C7  UNL     1      16.789  16.713  10.190  1.00  0.00    -0.036 A 
HETATM    7  C8  UNL     1      15.865  17.132  11.156  1.00  0.00     0.044 A 
HETATM    8  C9  UNL     1      14.669  17.714  10.630  1.00  0.00     0.075 A 
HETATM    9  C10 UNL     1      14.149  18.685  10.057  1.00  0.00     0.072 A 
HETATM   10  N3  UNL     1      13.230  17.592  10.385  1.00  0.00    -0.351 N 
ATOM     11  H3  UNL     1      12.324  17.124  10.418  1.00  0.00     0.166 HD
HETATM   12  C11 UNL     1      14.521  19.976   9.484  1.00  0.00     0.004 A 
HETATM   13  C12 UNL     1      13.464  20.919   9.386  1.00  0.00     0.015 A 
HETATM   14  C13 UNL     1      13.528  22.146   8.802  1.00  0.00     0.013 A 
HETATM   15  C14 UNL     1      14.697  22.541   8.248  1.00  0.00    -0.025 A 
HETATM   16  C22 UNL     1      15.746  21.665   8.321  1.00  0.00     0.025 A 
HETATM   17  C23 UNL     1      15.700  20.369   8.936  1.00  0.00    -0.012 A 
HETATM   18  C24 UNL     1      17.033  19.734   8.901  1.00  0.00    -0.018 A 
HETATM   19  C25 UNL     1      18.133  20.653   8.999  1.00  0.00     0.013 A 
HETATM   20  C26 UNL     1      19.451  20.321   8.892  1.00  0.00     0.001 A 
HETATM   21  C27 UNL     1      19.791  19.027   8.675  1.00  0.00     0.001 A 
HETATM   22  C28 UNL     1      18.784  18.113   8.577  1.00  0.00     0.008 A 
HETATM   23  C29 UNL     1      17.412  18.461   8.695  1.00  0.00    -0.043 A 
HETATM   24  C30 UNL     1      16.614  17.167   8.741  1.00  0.00     0.079 C 
ENDROOT
BRANCH   1  25
HETATM   25  N1  UNL     1      15.337  17.174  13.416  1.00  0.00    -0.288 N 
HETATM   26  C3  UNL     1      15.311  16.706  14.722  1.00  0.00     0.366 C 
HETATM   27  O2  UNL     1      16.255  16.816  15.549  1.00  0.00    -0.238 OA
ATOM     28  H1  UNL     1      14.639  17.878  13.175  1.00  0.00     0.172 HD
BRANCH  26  29
HETATM   29  O1  UNL     1      14.163  16.067  15.172  1.00  0.00    -0.304 OA
BRANCH  29  30
HETATM   30  C2  UNL     1      13.229  15.424  14.360  1.00  0.00     0.176 C 
HETATM   31  C1  UNL     1      12.223  14.734  15.274  1.00  0.00     0.034 C 
ENDBRANCH  29  30
ENDBRANCH  26  29
ENDBRANCH   1  25
BRANCH  15  32
HETATM   32  C15 UNL     1      14.861  23.834   7.598  1.00  0.00    -0.025 A 
HETATM   33  C16 UNL     1      15.879  24.028   6.704  1.00  0.00     0.012 A 
HETATM   34  C17 UNL     1      16.050  25.262   6.071  1.00  0.00     0.001 A 
HETATM   35  C18 UNL     1      15.178  26.276   6.363  1.00  0.00     0.007 A 
HETATM   36  C19 UNL     1      14.139  26.103   7.264  1.00  0.00    -0.061 A 
HETATM   37  C20 UNL     1      13.203  27.210   7.571  1.00  0.00     0.048 C 
HETATM   38  C21 UNL     1      14.001  24.855   7.878  1.00  0.00     0.019 A 
ENDBRANCH  15  32
TORSDOF 4
ENDMDL
MODEL 4
REMARK VINA RESULT: -9.644621271      1.262      1.358
REMARK  4 active torsions:
REMARK  status: ('A' for Active; 'I' for Inactive)
REMARK    1  A    between atoms: C2_2  and  O1_3 
REMARK    2  A    between atoms: O1_3  and  C3_4 
REMARK       I    between atoms: C3_4  and  N1_6 
REMARK    3  A    between atoms: N1_6  and  C4_8 
REMARK    4  A    between atoms: C14_22  and  C15_23 
ROOT
HETATM    1  C4  UNL     1      16.105  16.765  12.276  1.00  0.00     0.122 A 
HETATM    2  N2  UNL     1      17.287  16.166  12.526  1.00  0.00    -0.351 N 
ATOM      3  H2  UNL     1      17.517  15.877  13.477  1.00  0.00     0.166 HD
HETATM    4  C5  UNL     1      18.165  15.947  11.533  1.00  0.00     0.090 A 
HETATM    5  C6  UNL     1      17.902  16.330  10.198  1.00  0.00     0.025 A 
HETATM    6  C7  UNL     1      16.702  16.938   9.979  1.00  0.00    -0.036 A 
HETATM    7  C8  UNL     1      15.768  17.170  10.997  1.00  0.00     0.044 A 
HETATM    8  C9  UNL     1      14.508  17.677  10.552  1.00  0.00     0.075 A 
HETATM    9  C10 UNL     1      13.880  18.642  10.085  1.00  0.00     0.072 A 
HETATM   10  N3  UNL     1      13.081  17.437  10.323  1.00  0.00    -0.351 N 
ATOM     11  H3  UNL     1      12.226  16.881  10.326  1.00  0.00     0.166 HD
HETATM   12  C11 UNL     1      14.110  20.012   9.634  1.00  0.00     0.004 A 
HETATM   13  C12 UNL     1      12.965  20.851   9.647  1.00  0.00     0.015 A 
HETATM   14  C13 UNL     1      12.893  22.128   9.184  1.00  0.00     0.013 A 
HETATM   15  C14 UNL     1      14.002  22.687   8.651  1.00  0.00    -0.025 A 
HETATM   16  C22 UNL     1      15.133  21.918   8.619  1.00  0.00     0.025 A 
HETATM   17  C23 UNL     1      15.230  20.570   9.106  1.00  0.00    -0.012 A 
HETATM   18  C24 UNL     1      16.616  20.077   8.985  1.00  0.00    -0.018 A 
HETATM   19  C25 UNL     1      17.625  21.087   9.152  1.00  0.00     0.013 A 
HETATM   20  C26 UNL     1      18.965  20.899   8.989  1.00  0.00     0.001 A 
HETATM   21  C27 UNL     1      19.422  19.671   8.641  1.00  0.00     0.001 A 
HETATM   22  C28 UNL     1      18.507  18.676   8.474  1.00  0.00     0.008 A 
HETATM   23  C29 UNL     1      17.112  18.873   8.650  1.00  0.00    -0.043 A 
HETATM   24  C30 UNL     1      16.444  17.508   8.583  1.00  0.00     0.079 C 
ENDROOT
BRANCH   1  25
HETATM   25  N1  UNL     1      15.301  16.944  13.259  1.00  0.00    -0.288 N 
HETATM   26  C3  UNL     1      14.456  16.010  13.841  1.00  0.00     0.366 C 
HETATM   27  O2  UNL     1      14.830  14.945  14.401  1.00  0.00    -0.238 OA
ATOM     28  H1  UNL     1      15.281  17.881  13.661  1.00  0.00     0.172 HD
BRANCH  26  29
HETATM   29  O1  UNL     1      13.089  16.250  13.815  1.00  0.00    -0.304 OA
BRANCH  29  30
HETATM   30  C2  UNL     1      12.112  15.395  14.327  1.00  0.00     0.176 C 
HETATM   31  C1  UNL     1      11.494  14.647  13.151  1.00  0.00     0.034 C 
ENDBRANCH  29  30
ENDBRANCH  26  29
ENDBRANCH   1  25
BRANCH  15  32
HETATM   32  C15 UNL     1      14.022  24.047   8.126  1.00  0.00    -0.025 A 
HETATM   33  C16 UNL     1      14.020  25.113   8.984  1.00  0.00     0.012 A 
HETATM   34  C17 UNL     1      14.040  26.422   8.498  1.00  0.00     0.001 A 
HETATM   35  C18 UNL     1      14.062  26.620   7.144  1.00  0.00     0.007 A 
HETATM   36  C19 UNL     1      14.066  25.556   6.256  1.00  0.00    -0.061 A 
HETATM   37  C20 UNL     1      14.089  25.785   4.792  1.00  0.00     0.048 C 
HETATM   38  C21 UNL     1      14.045  24.260   6.780  1.00  0.00     0.019 A 
ENDBRANCH  15  32
TORSDOF 4
ENDMDL
MODEL 5
REMARK VINA RESULT: -9.349077102      1.757      2.056
REMARK  4 active torsions:
REMARK  status: ('A' for Active; 'I' for Inactive)
REMARK    1  A    between atoms: C2_2  and  O1_3 
REMARK    2  A    between atoms: O1_3  and  C3_4 
REMARK       I    between atoms: C3_4  and  N1_6 
REMARK    3  A    between atoms: N1_6  and  C4_8 
REMARK    4  A    between atoms: C14_22  and  C15_23 
ROOT
HETATM    1  C4  UNL     1      16.034  16.832  12.204  1.00  0.00     0.122 A 
HETATM    2  N2  UNL     1      17.248  16.297  12.448  1.00  0.00    -0.351 N 
ATOM      3  H2  UNL     1      17.479  15.973  13.387  1.00  0.00     0.166 HD
HETATM    4  C5  UNL     1      18.156  16.187  11.464  1.00  0.00     0.090 A 
HETATM    5  C6  UNL     1      17.892  16.622  10.145  1.00  0.00     0.025 A 
HETATM    6  C7  UNL     1      16.659  17.163   9.932  1.00  0.00    -0.036 A 
HETATM    7  C8  UNL     1      15.695  17.281  10.941  1.00  0.00     0.044 A 
HETATM    8  C9  UNL     1      14.412  17.730  10.497  1.00  0.00     0.075 A 
HETATM    9  C10 UNL     1      13.731  18.676  10.067  1.00  0.00     0.072 A 
HETATM   10  N3  UNL     1      13.008  17.411  10.225  1.00  0.00    -0.351 N 
ATOM     11  H3  UNL     1      12.191  16.802  10.182  1.00  0.00     0.166 HD
HETATM   12  C11 UNL     1      13.880  20.079   9.692  1.00  0.00     0.004 A 
HETATM   13  C12 UNL     1      12.682  20.841   9.725  1.00  0.00     0.015 A 
HETATM   14  C13 UNL     1      12.536  22.134   9.326  1.00  0.00     0.013 A 
HETATM   15  C14 UNL     1      13.616  22.790   8.846  1.00  0.00    -0.025 A 
HETATM   16  C22 UNL     1      14.795  22.097   8.798  1.00  0.00     0.025 A 
HETATM   17  C23 UNL     1      14.970  20.735   9.217  1.00  0.00    -0.012 A 
HETATM   18  C24 UNL     1      16.387  20.339   9.100  1.00  0.00    -0.018 A 
HETATM   19  C25 UNL     1      17.325  21.400   9.340  1.00  0.00     0.013 A 
HETATM   20  C26 UNL     1      18.677  21.307   9.196  1.00  0.00     0.001 A 
HETATM   21  C27 UNL     1      19.220  20.131   8.795  1.00  0.00     0.001 A 
HETATM   22  C28 UNL     1      18.374  19.090   8.557  1.00  0.00     0.008 A 
HETATM   23  C29 UNL     1      16.966  19.188   8.713  1.00  0.00    -0.043 A 
HETATM   24  C30 UNL     1      16.390  17.789   8.563  1.00  0.00     0.079 C 
ENDROOT
BRANCH   1  25
HETATM   25  N1  UNL     1      15.203  16.906  13.179  1.00  0.00    -0.288 N 
HETATM   26  C3  UNL     1      14.398  15.895  13.683  1.00  0.00     0.366 C 
HETATM   27  O2  UNL     1      14.818  14.818  14.184  1.00  0.00    -0.238 OA
ATOM     28  H1  UNL     1      15.126  17.815  13.636  1.00  0.00     0.172 HD
BRANCH  26  29
HETATM   29  O1  UNL     1      13.021  16.065  13.641  1.00  0.00    -0.304 OA
BRANCH  29  30
HETATM   30  C2  UNL     1      12.118  15.177  13.056  1.00  0.00     0.176 C 
HETATM   31  C1  UNL     1      11.338  14.506  14.181  1.00  0.00     0.034 C 
ENDBRANCH  29  30
ENDBRANCH  26  29
ENDBRANCH   1  25
BRANCH  15  32
HETATM   32  C15 UNL     1      13.557  24.174   8.393  1.00  0.00    -0.025 A 
HETATM   33  C16 UNL     1      14.582  24.698   7.653  1.00  0.00     0.012 A 
HETATM   34  C17 UNL     1      14.541  26.022   7.210  1.00  0.00     0.001 A 
HETATM   35  C18 UNL     1      13.453  26.789   7.531  1.00  0.00     0.007 A 
HETATM   36  C19 UNL     1      12.403  26.280   8.279  1.00  0.00    -0.061 A 
HETATM   37  C20 UNL     1      11.232  27.121   8.619  1.00  0.00     0.048 C 
HETATM   38  C21 UNL     1      12.480  24.951   8.704  1.00  0.00     0.019 A 
ENDBRANCH  15  32
TORSDOF 4
ENDMDL
