MODEL 1
REMARK VINA RESULT: -4.729771353      0.000      0.000
REMARK  4 active torsions:
REMARK  status: ('A' for Active; 'I' for Inactive)
REMARK    1  A    between atoms: N1_1  and  C1_5 
REMARK    2  A    between atoms: C1_5  and  C2_6 
REMARK    3  A    between atoms: C1_5  and  C8_13 
REMARK    4  A    between atoms: C2_6  and  N2_7 
ROOT
HETATM    1  C1  UNL     1     -36.559 -15.622   2.121  1.00  0.00     0.266 C 
ENDROOT
BRANCH   1   2
HETATM    2  N1  UNL     1     -37.150 -16.359   1.004  1.00  0.00    -0.069 N 
ATOM      3  H13 UNL     1     -37.475 -17.289   1.270  1.00  0.00     0.275 HD
ATOM      4  H12 UNL     1     -38.051 -15.981   0.711  1.00  0.00     0.275 HD
ATOM      5  H11 UNL     1     -36.464 -16.379   0.250  1.00  0.00     0.275 HD
ENDBRANCH   1   2
BRANCH   1   6
HETATM    6  C2  UNL     1     -35.874 -16.609   3.000  1.00  0.00     0.310 C 
BRANCH   6   7
HETATM    7  N2  UNL     1     -36.557 -16.908   4.218  1.00  0.00     0.090 N 
HETATM    8  C3  UNL     1     -36.248 -15.899   5.199  1.00  0.00     0.272 C 
HETATM    9  C4  UNL     1     -34.814 -15.900   5.622  1.00  0.00     0.030 C 
HETATM   10  C5  UNL     1     -34.346 -17.254   6.060  1.00  0.00     0.003 C 
HETATM   11  C6  UNL     1     -34.882 -18.383   5.255  1.00  0.00     0.030 C 
HETATM   12  C7  UNL     1     -36.294 -18.190   4.779  1.00  0.00     0.272 C 
ENDBRANCH   6   7
ENDBRANCH   1   6
BRANCH   1  13
HETATM   13  C8  UNL     1     -35.497 -14.703   1.510  1.00  0.00     0.291 C 
HETATM   14  O1  UNL     1     -35.950 -13.417   1.392  1.00  0.00    -0.357 OA
HETATM   15  C9  UNL     1     -35.031 -12.565   1.957  1.00  0.00     0.197 C 
HETATM   16  C10 UNL     1     -34.298 -13.460   2.927  1.00  0.00     0.197 C 
HETATM   17  O2  UNL     1     -34.345 -14.693   2.287  1.00  0.00    -0.357 OA
ENDBRANCH   1  13
TORSDOF 4
ENDMDL
MODEL 2
REMARK VINA RESULT: -4.473870505      1.415      1.864
REMARK  4 active torsions:
REMARK  status: ('A' for Active; 'I' for Inactive)
REMARK    1  A    between atoms: N1_1  and  C1_5 
REMARK    2  A    between atoms: C1_5  and  C2_6 
REMARK    3  A    between atoms: C1_5  and  C8_13 
REMARK    4  A    between atoms: C2_6  and  N2_7 
ROOT
HETATM    1  C1  UNL     1     -36.138 -15.944   2.975  1.00  0.00     0.266 C 
ENDROOT
BRANCH   1   2
HETATM    2  N1  UNL     1     -36.750 -17.194   2.526  1.00  0.00    -0.069 N 
ATOM      3  H13 UNL     1     -36.484 -17.447   1.574  1.00  0.00     0.275 HD
ATOM      4  H12 UNL     1     -36.365 -18.015   2.994  1.00  0.00     0.275 HD
ATOM      5  H11 UNL     1     -37.758 -17.105   2.647  1.00  0.00     0.275 HD
ENDBRANCH   1   2
BRANCH   1   6
HETATM    6  C2  UNL     1     -34.975 -16.296   3.837  1.00  0.00     0.310 C 
BRANCH   6   7
HETATM    7  N2  UNL     1     -35.230 -16.248   5.241  1.00  0.00     0.090 N 
HETATM    8  C3  UNL     1     -35.511 -14.889   5.629  1.00  0.00     0.272 C 
HETATM    9  C4  UNL     1     -34.339 -13.973   5.480  1.00  0.00     0.030 C 
HETATM   10  C5  UNL     1     -33.111 -14.496   6.160  1.00  0.00     0.003 C 
HETATM   11  C6  UNL     1     -32.921 -15.966   6.047  1.00  0.00     0.030 C 
HETATM   12  C7  UNL     1     -34.197 -16.759   6.077  1.00  0.00     0.272 C 
ENDBRANCH   6   7
ENDBRANCH   1   6
BRANCH   1  13
HETATM   13  C8  UNL     1     -35.610 -15.251   1.714  1.00  0.00     0.291 C 
HETATM   14  O1  UNL     1     -36.575 -14.486   1.118  1.00  0.00    -0.357 OA
HETATM   15  C9  UNL     1     -36.072 -13.224   0.899  1.00  0.00     0.197 C 
HETATM   16  C10 UNL     1     -34.968 -13.121   1.923  1.00  0.00     0.197 C 
HETATM   17  O2  UNL     1     -34.525 -14.437   2.014  1.00  0.00    -0.357 OA
ENDBRANCH   1  13
TORSDOF 4
ENDMDL
MODEL 3
REMARK VINA RESULT: -4.457405355      2.446      4.608
REMARK  4 active torsions:
REMARK  status: ('A' for Active; 'I' for Inactive)
REMARK    1  A    between atoms: N1_1  and  C1_5 
REMARK    2  A    between atoms: C1_5  and  C2_6 
REMARK    3  A    between atoms: C1_5  and  C8_13 
REMARK    4  A    between atoms: C2_6  and  N2_7 
ROOT
HETATM    1  C1  UNL     1     -36.413 -16.976   4.550  1.00  0.00     0.266 C 
ENDROOT
BRANCH   1   2
HETATM    2  N1  UNL     1     -36.808 -18.329   4.160  1.00  0.00    -0.069 N 
ATOM      3  H13 UNL     1     -37.815 -18.480   4.216  1.00  0.00     0.275 HD
ATOM      4  H12 UNL     1     -36.703 -18.500   3.160  1.00  0.00     0.275 HD
ATOM      5  H11 UNL     1     -36.275 -18.983   4.733  1.00  0.00     0.275 HD
ENDBRANCH   1   2
BRANCH   1   6
HETATM    6  C2  UNL     1     -36.603 -16.093   3.366  1.00  0.00     0.310 C 
BRANCH   6   7
HETATM    7  N2  UNL     1     -35.532 -16.110   2.423  1.00  0.00     0.090 N 
HETATM    8  C3  UNL     1     -34.413 -15.375   2.956  1.00  0.00     0.272 C 
HETATM    9  C4  UNL     1     -34.684 -13.912   3.113  1.00  0.00     0.030 C 
HETATM   10  C5  UNL     1     -35.204 -13.286   1.856  1.00  0.00     0.003 C 
HETATM   11  C6  UNL     1     -36.152 -14.137   1.089  1.00  0.00     0.030 C 
HETATM   12  C7  UNL     1     -35.837 -15.605   1.127  1.00  0.00     0.272 C 
ENDBRANCH   6   7
ENDBRANCH   1   6
BRANCH   1  13
HETATM   13  C8  UNL     1     -37.400 -16.541   5.638  1.00  0.00     0.291 C 
HETATM   14  O1  UNL     1     -36.965 -16.900   6.885  1.00  0.00    -0.357 OA
HETATM   15  C9  UNL     1     -37.007 -15.798   7.707  1.00  0.00     0.197 C 
HETATM   16  C10 UNL     1     -36.933 -14.649   6.731  1.00  0.00     0.197 C 
HETATM   17  O2  UNL     1     -37.586 -15.165   5.617  1.00  0.00    -0.357 OA
ENDBRANCH   1  13
TORSDOF 4
ENDMDL
MODEL 4
REMARK VINA RESULT: -4.443225608      2.846      4.895
REMARK  4 active torsions:
REMARK  status: ('A' for Active; 'I' for Inactive)
REMARK    1  A    between atoms: N1_1  and  C1_5 
REMARK    2  A    between atoms: C1_5  and  C2_6 
REMARK    3  A    between atoms: C1_5  and  C8_13 
REMARK    4  A    between atoms: C2_6  and  N2_7 
ROOT
HETATM    1  C1  UNL     1     -35.911 -17.815   4.431  1.00  0.00     0.266 C 
ENDROOT
BRANCH   1   2
HETATM    2  N1  UNL     1     -36.847 -18.252   3.395  1.00  0.00    -0.069 N 
ATOM      3  H13 UNL     1     -37.315 -19.128   3.627  1.00  0.00     0.275 HD
ATOM      4  H12 UNL     1     -37.680 -17.666   3.341  1.00  0.00     0.275 HD
ATOM      5  H11 UNL     1     -36.334 -18.295   2.515  1.00  0.00     0.275 HD
ENDBRANCH   1   2
BRANCH   1   6
HETATM    6  C2  UNL     1     -35.741 -16.342   4.292  1.00  0.00     0.310 C 
BRANCH   6   7
HETATM    7  N2  UNL     1     -34.538 -15.934   3.640  1.00  0.00     0.090 N 
HETATM    8  C3  UNL     1     -33.431 -16.070   4.551  1.00  0.00     0.272 C 
HETATM    9  C4  UNL     1     -33.502 -15.136   5.717  1.00  0.00     0.030 C 
HETATM   10  C5  UNL     1     -33.698 -13.711   5.300  1.00  0.00     0.003 C 
HETATM   11  C6  UNL     1     -34.617 -13.526   4.146  1.00  0.00     0.030 C 
HETATM   12  C7  UNL     1     -34.537 -14.612   3.111  1.00  0.00     0.272 C 
ENDBRANCH   6   7
ENDBRANCH   1   6
BRANCH   1  13
HETATM   13  C8  UNL     1     -36.598 -18.095   5.772  1.00  0.00     0.291 C 
HETATM   14  O1  UNL     1     -36.399 -19.386   6.180  1.00  0.00    -0.357 OA
HETATM   15  C9  UNL     1     -35.935 -19.378   7.475  1.00  0.00     0.197 C 
HETATM   16  C10 UNL     1     -35.321 -18.004   7.602  1.00  0.00     0.197 C 
HETATM   17  O2  UNL     1     -36.123 -17.242   6.760  1.00  0.00    -0.357 OA
ENDBRANCH   1  13
TORSDOF 4
ENDMDL
MODEL 5
REMARK VINA RESULT: -4.401677440      2.190      3.153
REMARK  4 active torsions:
REMARK  status: ('A' for Active; 'I' for Inactive)
REMARK    1  A    between atoms: N1_1  and  C1_5 
REMARK    2  A    between atoms: C1_5  and  C2_6 
REMARK    3  A    between atoms: C1_5  and  C8_13 
REMARK    4  A    between atoms: C2_6  and  N2_7 
ROOT
HETATM    1  C1  UNL     1     -33.869 -14.578   3.025  1.00  0.00     0.266 C 
ENDROOT
BRANCH   1   2
HETATM    2  N1  UNL     1     -33.240 -13.267   2.866  1.00  0.00    -0.069 N 
ATOM      3  H13 UNL     1     -32.672 -13.200   2.021  1.00  0.00     0.275 HD
ATOM      4  H12 UNL     1     -33.908 -12.532   2.636  1.00  0.00     0.275 HD
ATOM      5  H11 UNL     1     -32.712 -13.073   3.716  1.00  0.00     0.275 HD
ENDBRANCH   1   2
BRANCH   1   6
HETATM    6  C2  UNL     1     -33.968 -14.855   4.485  1.00  0.00     0.310 C 
BRANCH   6   7
HETATM    7  N2  UNL     1     -33.131 -15.911   4.957  1.00  0.00     0.090 N 
HETATM    8  C3  UNL     1     -33.856 -17.155   4.908  1.00  0.00     0.272 C 
HETATM    9  C4  UNL     1     -35.011 -17.207   5.857  1.00  0.00     0.030 C 
HETATM   10  C5  UNL     1     -34.618 -16.854   7.259  1.00  0.00     0.003 C 
HETATM   11  C6  UNL     1     -33.623 -15.755   7.363  1.00  0.00     0.030 C 
HETATM   12  C7  UNL     1     -32.597 -15.742   6.266  1.00  0.00     0.272 C 
ENDBRANCH   6   7
ENDBRANCH   1   6
BRANCH   1  13
HETATM   13  C8  UNL     1     -35.288 -14.441   2.464  1.00  0.00     0.291 C 
HETATM   14  O1  UNL     1     -35.348 -14.815   1.149  1.00  0.00    -0.357 OA
HETATM   15  C9  UNL     1     -36.370 -15.723   0.988  1.00  0.00     0.197 C 
HETATM   16  C10 UNL     1     -36.526 -16.299   2.375  1.00  0.00     0.197 C 
HETATM   17  O2  UNL     1     -36.183 -15.221   3.184  1.00  0.00    -0.357 OA
ENDBRANCH   1  13
TORSDOF 4
ENDMDL
