MODEL 1
REMARK VINA RESULT: -4.836524192      0.000      0.000
REMARK  4 active torsions:
REMARK  status: ('A' for Active; 'I' for Inactive)
REMARK    1  A    between atoms: C2_2  and  C3_3 
REMARK    2  A    between atoms: C2_2  and  N2_10 
REMARK    3  A    between atoms: C3_3  and  N1_4 
REMARK    4  A    between atoms: N2_10  and  C9_12 
ROOT
HETATM    1  C9  UNL     1     -35.125 -13.409   1.840  1.00  0.00     0.186 C 
HETATM    2  N3  UNL     1     -35.030 -12.661   2.879  1.00  0.00    -0.290 N 
ATOM      3  H3  UNL     1     -35.736 -12.763   3.607  1.00  0.00     0.178 HD
HETATM    4  C10 UNL     1     -34.028 -11.721   3.075  1.00  0.00     0.182 C 
HETATM    5  N4  UNL     1     -33.166 -10.936   3.250  1.00  0.00    -0.172 NA
ENDROOT
BRANCH   1   6
HETATM    6  N2  UNL     1     -36.092 -14.371   1.566  1.00  0.00    -0.380 N 
ATOM      7  H2  UNL     1     -36.934 -14.021   1.109  1.00  0.00     0.160 HD
BRANCH   6   8
HETATM    8  C2  UNL     1     -36.081 -15.777   1.828  1.00  0.00     0.106 C 
HETATM    9  C1  UNL     1     -36.588 -16.608   0.640  1.00  0.00     0.034 C 
BRANCH   8  10
HETATM   10  C3  UNL     1     -36.855 -16.227   3.017  1.00  0.00     0.296 C 
BRANCH  10  11
HETATM   11  N1  UNL     1     -36.024 -16.061   4.217  1.00  0.00     0.090 N 
HETATM   12  C4  UNL     1     -34.661 -16.454   3.937  1.00  0.00     0.272 C 
HETATM   13  C5  UNL     1     -33.962 -17.248   4.971  1.00  0.00     0.030 C 
HETATM   14  C6  UNL     1     -34.743 -18.444   5.450  1.00  0.00     0.003 C 
HETATM   15  C7  UNL     1     -36.206 -18.321   5.102  1.00  0.00     0.030 C 
HETATM   16  C8  UNL     1     -36.593 -16.875   5.275  1.00  0.00     0.272 C 
ENDBRANCH  10  11
ENDBRANCH   8  10
ENDBRANCH   6   8
ENDBRANCH   1   6
TORSDOF 4
ENDMDL
MODEL 2
REMARK VINA RESULT: -4.812579162      2.030      4.051
REMARK  4 active torsions:
REMARK  status: ('A' for Active; 'I' for Inactive)
REMARK    1  A    between atoms: C2_2  and  C3_3 
REMARK    2  A    between atoms: C2_2  and  N2_10 
REMARK    3  A    between atoms: C3_3  and  N1_4 
REMARK    4  A    between atoms: N2_10  and  C9_12 
ROOT
HETATM    1  C9  UNL     1     -32.162 -11.477   3.165  1.00  0.00     0.186 C 
HETATM    2  N3  UNL     1     -31.094 -10.835   2.858  1.00  0.00    -0.290 N 
ATOM      3  H3  UNL     1     -30.994 -10.507   1.898  1.00  0.00     0.178 HD
HETATM    4  C10 UNL     1     -30.066 -10.559   3.748  1.00  0.00     0.182 C 
HETATM    5  N4  UNL     1     -29.202 -10.308   4.510  1.00  0.00    -0.172 NA
ENDROOT
BRANCH   1   6
HETATM    6  N2  UNL     1     -33.236 -11.794   2.338  1.00  0.00    -0.380 N 
ATOM      7  H2  UNL     1     -33.028 -11.800   1.340  1.00  0.00     0.160 HD
BRANCH   6   8
HETATM    8  C2  UNL     1     -34.588 -12.114   2.679  1.00  0.00     0.106 C 
HETATM    9  C1  UNL     1     -35.277 -11.001   3.482  1.00  0.00     0.034 C 
BRANCH   8  10
HETATM   10  C3  UNL     1     -34.789 -13.373   3.447  1.00  0.00     0.296 C 
BRANCH  10  11
HETATM   11  N1  UNL     1     -34.639 -14.515   2.535  1.00  0.00     0.090 N 
HETATM   12  C4  UNL     1     -35.619 -14.438   1.475  1.00  0.00     0.272 C 
HETATM   13  C5  UNL     1     -36.293 -15.697   1.088  1.00  0.00     0.030 C 
HETATM   14  C6  UNL     1     -36.869 -16.462   2.250  1.00  0.00     0.003 C 
HETATM   15  C7  UNL     1     -36.262 -16.013   3.558  1.00  0.00     0.030 C 
HETATM   16  C8  UNL     1     -34.803 -15.733   3.307  1.00  0.00     0.272 C 
ENDBRANCH  10  11
ENDBRANCH   8  10
ENDBRANCH   6   8
ENDBRANCH   1   6
TORSDOF 4
ENDMDL
MODEL 3
REMARK VINA RESULT: -4.731320232      1.889      5.052
REMARK  4 active torsions:
REMARK  status: ('A' for Active; 'I' for Inactive)
REMARK    1  A    between atoms: C2_2  and  C3_3 
REMARK    2  A    between atoms: C2_2  and  N2_10 
REMARK    3  A    between atoms: C3_3  and  N1_4 
REMARK    4  A    between atoms: N2_10  and  C9_12 
ROOT
HETATM    1  C9  UNL     1     -36.242 -17.828   4.494  1.00  0.00     0.186 C 
HETATM    2  N3  UNL     1     -35.138 -18.436   4.733  1.00  0.00    -0.290 N 
ATOM      3  H3  UNL     1     -34.553 -18.693   3.938  1.00  0.00     0.178 HD
HETATM    4  C10 UNL     1     -34.688 -18.768   6.003  1.00  0.00     0.182 C 
HETATM    5  N4  UNL     1     -34.297 -19.033   7.083  1.00  0.00    -0.172 NA
ENDROOT
BRANCH   1   6
HETATM    6  N2  UNL     1     -36.765 -17.459   3.258  1.00  0.00    -0.380 N 
ATOM      7  H2  UNL     1     -37.376 -18.150   2.822  1.00  0.00     0.160 HD
BRANCH   6   8
HETATM    8  C2  UNL     1     -36.573 -16.257   2.508  1.00  0.00     0.106 C 
HETATM    9  C1  UNL     1     -36.778 -16.458   0.999  1.00  0.00     0.034 C 
BRANCH   8  10
HETATM   10  C3  UNL     1     -35.252 -15.590   2.667  1.00  0.00     0.296 C 
BRANCH  10  11
HETATM   11  N1  UNL     1     -35.470 -14.170   2.978  1.00  0.00     0.090 N 
HETATM   12  C4  UNL     1     -34.833 -13.338   1.982  1.00  0.00     0.272 C 
HETATM   13  C5  UNL     1     -34.109 -12.142   2.467  1.00  0.00     0.030 C 
HETATM   14  C6  UNL     1     -33.138 -12.428   3.582  1.00  0.00     0.003 C 
HETATM   15  C7  UNL     1     -33.431 -13.755   4.239  1.00  0.00     0.030 C 
HETATM   16  C8  UNL     1     -34.928 -13.909   4.299  1.00  0.00     0.272 C 
ENDBRANCH  10  11
ENDBRANCH   8  10
ENDBRANCH   6   8
ENDBRANCH   1   6
TORSDOF 4
ENDMDL
MODEL 4
REMARK VINA RESULT: -4.576003933      1.293      1.836
REMARK  4 active torsions:
REMARK  status: ('A' for Active; 'I' for Inactive)
REMARK    1  A    between atoms: C2_2  and  C3_3 
REMARK    2  A    between atoms: C2_2  and  N2_10 
REMARK    3  A    between atoms: C3_3  and  N1_4 
REMARK    4  A    between atoms: N2_10  and  C9_12 
ROOT
HETATM    1  C9  UNL     1     -34.755 -12.677   2.339  1.00  0.00     0.186 C 
HETATM    2  N3  UNL     1     -33.481 -12.663   2.496  1.00  0.00    -0.290 N 
ATOM      3  H3  UNL     1     -32.949 -13.464   2.156  1.00  0.00     0.178 HD
HETATM    4  C10 UNL     1     -32.781 -11.629   3.101  1.00  0.00     0.182 C 
HETATM    5  N4  UNL     1     -32.184 -10.741   3.598  1.00  0.00    -0.172 NA
ENDROOT
BRANCH   1   6
HETATM    6  N2  UNL     1     -35.531 -13.668   1.746  1.00  0.00    -0.380 N 
ATOM      7  H2  UNL     1     -36.223 -13.334   1.075  1.00  0.00     0.160 HD
BRANCH   6   8
HETATM    8  C2  UNL     1     -35.505 -15.085   1.938  1.00  0.00     0.106 C 
HETATM    9  C1  UNL     1     -36.462 -15.831   0.996  1.00  0.00     0.034 C 
BRANCH   8  10
HETATM   10  C3  UNL     1     -35.810 -15.565   3.314  1.00  0.00     0.296 C 
BRANCH  10  11
HETATM   11  N1  UNL     1     -34.785 -16.538   3.716  1.00  0.00     0.090 N 
HETATM   12  C4  UNL     1     -35.303 -17.410   4.747  1.00  0.00     0.272 C 
HETATM   13  C5  UNL     1     -34.400 -17.730   5.875  1.00  0.00     0.030 C 
HETATM   14  C6  UNL     1     -33.766 -16.520   6.510  1.00  0.00     0.003 C 
HETATM   15  C7  UNL     1     -33.843 -15.318   5.599  1.00  0.00     0.030 C 
HETATM   16  C8  UNL     1     -33.627 -15.803   4.190  1.00  0.00     0.272 C 
ENDBRANCH  10  11
ENDBRANCH   8  10
ENDBRANCH   6   8
ENDBRANCH   1   6
TORSDOF 4
ENDMDL
MODEL 5
REMARK VINA RESULT: -4.545029794      3.105      6.287
REMARK  4 active torsions:
REMARK  status: ('A' for Active; 'I' for Inactive)
REMARK    1  A    between atoms: C2_2  and  C3_3 
REMARK    2  A    between atoms: C2_2  and  N2_10 
REMARK    3  A    between atoms: C3_3  and  N1_4 
REMARK    4  A    between atoms: N2_10  and  C9_12 
ROOT
HETATM    1  C9  UNL     1     -38.773 -17.607   6.838  1.00  0.00     0.186 C 
HETATM    2  N3  UNL     1     -40.051 -17.531   6.747  1.00  0.00    -0.290 N 
ATOM      3  H3  UNL     1     -40.449 -17.241   5.854  1.00  0.00     0.178 HD
HETATM    4  C10 UNL     1     -40.926 -17.819   7.784  1.00  0.00     0.182 C 
HETATM    5  N4  UNL     1     -41.670 -18.082   8.660  1.00  0.00    -0.172 NA
ENDROOT
BRANCH   1   6
HETATM    6  N2  UNL     1     -37.828 -17.338   5.852  1.00  0.00    -0.380 N 
ATOM      7  H2  UNL     1     -37.949 -16.450   5.366  1.00  0.00     0.160 HD
BRANCH   6   8
HETATM    8  C2  UNL     1     -36.712 -18.121   5.419  1.00  0.00     0.106 C 
HETATM    9  C1  UNL     1     -35.751 -18.471   6.565  1.00  0.00     0.034 C 
BRANCH   8  10
HETATM   10  C3  UNL     1     -35.879 -17.532   4.336  1.00  0.00     0.296 C 
BRANCH  10  11
HETATM   11  N1  UNL     1     -36.609 -16.408   3.733  1.00  0.00     0.090 N 
HETATM   12  C4  UNL     1     -36.799 -16.638   2.319  1.00  0.00     0.272 C 
HETATM   13  C5  UNL     1     -36.593 -15.486   1.415  1.00  0.00     0.030 C 
HETATM   14  C6  UNL     1     -35.290 -14.763   1.637  1.00  0.00     0.003 C 
HETATM   15  C7  UNL     1     -34.702 -15.093   2.987  1.00  0.00     0.030 C 
HETATM   16  C8  UNL     1     -35.843 -15.197   3.965  1.00  0.00     0.272 C 
ENDBRANCH  10  11
ENDBRANCH   8  10
ENDBRANCH   6   8
ENDBRANCH   1   6
TORSDOF 4
ENDMDL
