MODEL 1
REMARK VINA RESULT: -4.480258637      0.000      0.000
REMARK  5 active torsions:
REMARK  status: ('A' for Active; 'I' for Inactive)
REMARK    1  A    between atoms: C2_2  and  C4_4 
REMARK    2  A    between atoms: C2_2  and  C11_13 
REMARK    3  A    between atoms: C5_5  and  C6_6 
REMARK    4  A    between atoms: C6_6  and  N1_7 
REMARK    5  A    between atoms: C11_13  and  N2_14 
ROOT
HETATM    1  C4  UNL     1     -34.663 -12.089   4.964  1.00  0.00    -0.019 C 
HETATM    2  C5  UNL     1     -34.602 -12.922   3.901  1.00  0.00    -0.000 C 
ENDROOT
BRANCH   1   3
HETATM    3  C2  UNL     1     -35.307 -10.767   4.881  1.00  0.00    -0.007 C 
HETATM    4  C1  UNL     1     -34.393  -9.786   5.631  1.00  0.00     0.021 C 
HETATM    5  C3  UNL     1     -36.658 -10.824   5.555  1.00  0.00     0.021 C 
BRANCH   3   6
HETATM    6  C11 UNL     1     -35.525 -10.288   3.462  1.00  0.00     0.242 C 
BRANCH   6   7
HETATM    7  N2  UNL     1     -36.939 -10.315   3.179  1.00  0.00    -0.078 N 
ATOM      8  H23 UNL     1     -37.143 -10.165   2.191  1.00  0.00     0.274 HD
ATOM      9  H22 UNL     1     -37.337 -11.250   3.265  1.00  0.00     0.274 HD
ATOM     10  H21 UNL     1     -37.405  -9.635   3.781  1.00  0.00     0.274 HD
ENDBRANCH   6   7
ENDBRANCH   3   6
ENDBRANCH   1   3
BRANCH   2  11
HETATM   11  C6  UNL     1     -33.940 -14.201   4.111  1.00  0.00     0.299 C 
BRANCH  11  12
HETATM   12  N1  UNL     1     -34.256 -15.236   3.175  1.00  0.00     0.096 N 
HETATM   13  C7  UNL     1     -34.917 -16.376   3.750  1.00  0.00     0.299 C 
HETATM   14  C8  UNL     1     -36.436 -16.202   3.769  1.00  0.00     0.198 C 
HETATM   15  O1  UNL     1     -36.965 -16.159   2.489  1.00  0.00    -0.388 OA
HETATM   16  C9  UNL     1     -36.067 -15.650   1.560  1.00  0.00     0.198 C 
HETATM   17  C10 UNL     1     -35.208 -14.628   2.235  1.00  0.00     0.299 C 
ENDBRANCH  11  12
ENDBRANCH   2  11
TORSDOF 5
ENDMDL
MODEL 2
REMARK VINA RESULT: -4.386254320      2.143      2.628
REMARK  5 active torsions:
REMARK  status: ('A' for Active; 'I' for Inactive)
REMARK    1  A    between atoms: C2_2  and  C4_4 
REMARK    2  A    between atoms: C2_2  and  C11_13 
REMARK    3  A    between atoms: C5_5  and  C6_6 
REMARK    4  A    between atoms: C6_6  and  N1_7 
REMARK    5  A    between atoms: C11_13  and  N2_14 
ROOT
HETATM    1  C4  UNL     1     -33.712 -11.648   3.060  1.00  0.00    -0.019 C 
HETATM    2  C5  UNL     1     -34.333 -12.844   3.172  1.00  0.00    -0.000 C 
ENDROOT
BRANCH   1   3
HETATM    3  C2  UNL     1     -32.878 -11.098   4.142  1.00  0.00    -0.007 C 
HETATM    4  C1  UNL     1     -32.917 -12.120   5.287  1.00  0.00     0.021 C 
HETATM    5  C3  UNL     1     -33.465  -9.786   4.608  1.00  0.00     0.021 C 
BRANCH   3   6
HETATM    6  C11 UNL     1     -31.446 -10.837   3.729  1.00  0.00     0.242 C 
BRANCH   6   7
HETATM    7  N2  UNL     1     -31.373 -10.846   2.289  1.00  0.00    -0.078 N 
ATOM      8  H23 UNL     1     -30.445 -11.092   1.946  1.00  0.00     0.274 HD
ATOM      9  H22 UNL     1     -31.886 -11.625   1.876  1.00  0.00     0.274 HD
ATOM     10  H21 UNL     1     -31.691  -9.942   1.941  1.00  0.00     0.274 HD
ENDBRANCH   6   7
ENDBRANCH   3   6
ENDBRANCH   1   3
BRANCH   2  11
HETATM   11  C6  UNL     1     -35.128 -13.278   2.034  1.00  0.00     0.299 C 
BRANCH  11  12
HETATM   12  N1  UNL     1     -35.048 -14.667   1.701  1.00  0.00     0.096 N 
HETATM   13  C7  UNL     1     -34.993 -15.549   2.835  1.00  0.00     0.299 C 
HETATM   14  C8  UNL     1     -36.389 -15.947   3.313  1.00  0.00     0.198 C 
HETATM   15  O1  UNL     1     -37.058 -16.709   2.369  1.00  0.00    -0.388 OA
HETATM   16  C9  UNL     1     -36.660 -16.417   1.071  1.00  0.00     0.198 C 
HETATM   17  C10 UNL     1     -36.302 -14.966   0.996  1.00  0.00     0.299 C 
ENDBRANCH  11  12
ENDBRANCH   2  11
TORSDOF 5
ENDMDL
MODEL 3
REMARK VINA RESULT: -4.350626085      0.825      1.473
REMARK  5 active torsions:
REMARK  status: ('A' for Active; 'I' for Inactive)
REMARK    1  A    between atoms: C2_2  and  C4_4 
REMARK    2  A    between atoms: C2_2  and  C11_13 
REMARK    3  A    between atoms: C5_5  and  C6_6 
REMARK    4  A    between atoms: C6_6  and  N1_7 
REMARK    5  A    between atoms: C11_13  and  N2_14 
ROOT
HETATM    1  C4  UNL     1     -34.470 -11.790   4.881  1.00  0.00    -0.019 C 
HETATM    2  C5  UNL     1     -34.512 -12.612   3.809  1.00  0.00    -0.000 C 
ENDROOT
BRANCH   1   3
HETATM    3  C2  UNL     1     -35.270 -10.555   4.948  1.00  0.00    -0.007 C 
HETATM    4  C1  UNL     1     -35.925 -10.383   3.570  1.00  0.00     0.021 C 
HETATM    5  C3  UNL     1     -34.359  -9.384   5.231  1.00  0.00     0.021 C 
BRANCH   3   6
HETATM    6  C11 UNL     1     -36.331 -10.579   6.027  1.00  0.00     0.242 C 
BRANCH   6   7
HETATM    7  N2  UNL     1     -37.429 -11.399   5.575  1.00  0.00    -0.078 N 
ATOM      8  H23 UNL     1     -38.322 -11.109   5.973  1.00  0.00     0.274 HD
ATOM      9  H22 UNL     1     -37.655 -11.241   4.593  1.00  0.00     0.274 HD
ATOM     10  H21 UNL     1     -37.210 -12.375   5.774  1.00  0.00     0.274 HD
ENDBRANCH   6   7
ENDBRANCH   3   6
ENDBRANCH   1   3
BRANCH   2  11
HETATM   11  C6  UNL     1     -33.677 -13.801   3.863  1.00  0.00     0.299 C 
BRANCH  11  12
HETATM   12  N1  UNL     1     -34.066 -14.886   3.015  1.00  0.00     0.096 N 
HETATM   13  C7  UNL     1     -34.618 -16.016   3.710  1.00  0.00     0.299 C 
HETATM   14  C8  UNL     1     -36.130 -15.883   3.901  1.00  0.00     0.198 C 
HETATM   15  O1  UNL     1     -36.805 -15.912   2.692  1.00  0.00    -0.388 OA
HETATM   16  C9  UNL     1     -36.038 -15.421   1.643  1.00  0.00     0.198 C 
HETATM   17  C10 UNL     1     -35.140 -14.347   2.169  1.00  0.00     0.299 C 
ENDBRANCH  11  12
ENDBRANCH   2  11
TORSDOF 5
ENDMDL
MODEL 4
REMARK VINA RESULT: -4.324323776      2.530      5.451
REMARK  5 active torsions:
REMARK  status: ('A' for Active; 'I' for Inactive)
REMARK    1  A    between atoms: C2_2  and  C4_4 
REMARK    2  A    between atoms: C2_2  and  C11_13 
REMARK    3  A    between atoms: C5_5  and  C6_6 
REMARK    4  A    between atoms: C6_6  and  N1_7 
REMARK    5  A    between atoms: C11_13  and  N2_14 
ROOT
HETATM    1  C4  UNL     1     -35.680 -15.950   3.783  1.00  0.00    -0.019 C 
HETATM    2  C5  UNL     1     -34.684 -15.167   3.311  1.00  0.00    -0.000 C 
ENDROOT
BRANCH   1   3
HETATM    3  C2  UNL     1     -35.448 -16.959   4.830  1.00  0.00    -0.007 C 
HETATM    4  C1  UNL     1     -35.707 -16.264   6.175  1.00  0.00     0.021 C 
HETATM    5  C3  UNL     1     -34.012 -17.426   4.765  1.00  0.00     0.021 C 
BRANCH   3   6
HETATM    6  C11 UNL     1     -36.331 -18.180   4.700  1.00  0.00     0.242 C 
BRANCH   6   7
HETATM    7  N2  UNL     1     -36.841 -18.239   3.352  1.00  0.00    -0.078 N 
ATOM      8  H23 UNL     1     -37.088 -19.187   3.068  1.00  0.00     0.274 HD
ATOM      9  H22 UNL     1     -37.767 -17.821   3.266  1.00  0.00     0.274 HD
ATOM     10  H21 UNL     1     -36.159 -17.809   2.727  1.00  0.00     0.274 HD
ENDBRANCH   6   7
ENDBRANCH   3   6
ENDBRANCH   1   3
BRANCH   2  11
HETATM   11  C6  UNL     1     -35.041 -14.207   2.278  1.00  0.00     0.299 C 
BRANCH  11  12
HETATM   12  N1  UNL     1     -34.287 -12.991   2.258  1.00  0.00     0.096 N 
HETATM   13  C7  UNL     1     -35.042 -11.817   2.599  1.00  0.00     0.299 C 
HETATM   14  C8  UNL     1     -35.043 -11.559   4.106  1.00  0.00     0.198 C 
HETATM   15  O1  UNL     1     -33.776 -11.251   4.575  1.00  0.00    -0.388 OA
HETATM   16  C9  UNL     1     -32.771 -11.839   3.818  1.00  0.00     0.198 C 
HETATM   17  C10 UNL     1     -33.267 -13.153   3.303  1.00  0.00     0.299 C 
ENDBRANCH  11  12
ENDBRANCH   2  11
TORSDOF 5
ENDMDL
MODEL 5
REMARK VINA RESULT: -4.249941860      2.761      5.534
REMARK  5 active torsions:
REMARK  status: ('A' for Active; 'I' for Inactive)
REMARK    1  A    between atoms: C2_2  and  C4_4 
REMARK    2  A    between atoms: C2_2  and  C11_13 
REMARK    3  A    between atoms: C5_5  and  C6_6 
REMARK    4  A    between atoms: C6_6  and  N1_7 
REMARK    5  A    between atoms: C11_13  and  N2_14 
ROOT
HETATM    1  C4  UNL     1     -35.199 -15.014   4.141  1.00  0.00    -0.019 C 
HETATM    2  C5  UNL     1     -34.656 -14.713   2.940  1.00  0.00    -0.000 C 
ENDROOT
BRANCH   1   3
HETATM    3  C2  UNL     1     -35.945 -16.264   4.368  1.00  0.00    -0.007 C 
HETATM    4  C1  UNL     1     -36.993 -15.960   5.448  1.00  0.00     0.021 C 
HETATM    5  C3  UNL     1     -34.995 -17.330   4.863  1.00  0.00     0.021 C 
BRANCH   3   6
HETATM    6  C11 UNL     1     -36.622 -16.798   3.125  1.00  0.00     0.242 C 
BRANCH   6   7
HETATM    7  N2  UNL     1     -36.859 -18.211   3.300  1.00  0.00    -0.078 N 
ATOM      8  H23 UNL     1     -37.709 -18.526   2.833  1.00  0.00     0.274 HD
ATOM      9  H22 UNL     1     -36.193 -18.785   2.782  1.00  0.00     0.274 HD
ATOM     10  H21 UNL     1     -36.861 -18.419   4.298  1.00  0.00     0.274 HD
ENDBRANCH   6   7
ENDBRANCH   3   6
ENDBRANCH   1   3
BRANCH   2  11
HETATM   11  C6  UNL     1     -33.943 -13.449   2.843  1.00  0.00     0.299 C 
BRANCH  11  12
HETATM   12  N1  UNL     1     -34.164 -12.516   3.904  1.00  0.00     0.096 N 
HETATM   13  C7  UNL     1     -32.966 -12.062   4.557  1.00  0.00     0.299 C 
HETATM   14  C8  UNL     1     -32.374 -10.833   3.865  1.00  0.00     0.198 C 
HETATM   15  O1  UNL     1     -33.210  -9.733   3.967  1.00  0.00    -0.388 OA
HETATM   16  C9  UNL     1     -34.549 -10.090   4.056  1.00  0.00     0.198 C 
HETATM   17  C10 UNL     1     -34.766 -11.339   3.263  1.00  0.00     0.299 C 
ENDBRANCH  11  12
ENDBRANCH   2  11
TORSDOF 5
ENDMDL
