MODEL 1
REMARK VINA RESULT: -3.929944946      0.000      0.000
REMARK  0 active torsions:
REMARK  status: ('A' for Active; 'I' for Inactive)
ROOT
HETATM    1  C1  UNL     1      -4.198  18.759  -7.904  1.00  0.00     0.024 C 
HETATM    2  C2  UNL     1      -5.616  19.033  -8.224  1.00  0.00     0.078 C 
HETATM    3  C3  UNL     1      -6.234  18.138  -9.241  1.00  0.00     0.147 C 
HETATM    4  N1  UNL     1      -6.629  18.836 -10.388  1.00  0.00    -0.135 NA
HETATM    5  N2  UNL     1      -7.137  20.070 -10.108  1.00  0.00    -0.074 NA
HETATM    6  S1  UNL     1      -5.853  20.675  -9.011  1.00  0.00    -0.039 SA
ENDROOT
TORSDOF 0
ENDMDL
MODEL 2
REMARK VINA RESULT: -3.474944841      1.673      2.051
REMARK  0 active torsions:
REMARK  status: ('A' for Active; 'I' for Inactive)
ROOT
HETATM    1  C1  UNL     1      -5.842  20.624  -7.188  1.00  0.00     0.024 C 
HETATM    2  C2  UNL     1      -5.598  20.306  -8.613  1.00  0.00     0.078 C 
HETATM    3  C3  UNL     1      -6.477  21.007  -9.590  1.00  0.00     0.147 C 
HETATM    4  N1  UNL     1      -7.278  20.115 -10.313  1.00  0.00    -0.135 NA
HETATM    5  N2  UNL     1      -6.632  18.955 -10.624  1.00  0.00    -0.074 NA
HETATM    6  S1  UNL     1      -5.960  18.550  -9.011  1.00  0.00    -0.039 SA
ENDROOT
TORSDOF 0
ENDMDL
MODEL 3
REMARK VINA RESULT: -3.413812625      2.525      2.913
REMARK  0 active torsions:
REMARK  status: ('A' for Active; 'I' for Inactive)
ROOT
HETATM    1  C1  UNL     1      -8.488  21.749  -9.222  1.00  0.00     0.024 C 
HETATM    2  C2  UNL     1      -7.171  21.300  -9.725  1.00  0.00     0.078 C 
HETATM    3  C3  UNL     1      -7.208  20.270 -10.800  1.00  0.00     0.147 C 
HETATM    4  N1  UNL     1      -6.616  19.066 -10.398  1.00  0.00    -0.135 NA
HETATM    5  N2  UNL     1      -5.517  19.252  -9.613  1.00  0.00    -0.074 NA
HETATM    6  S1  UNL     1      -6.190  20.430  -8.439  1.00  0.00    -0.039 SA
ENDROOT
TORSDOF 0
ENDMDL
MODEL 4
REMARK VINA RESULT: -3.363857062      2.678      3.230
REMARK  0 active torsions:
REMARK  status: ('A' for Active; 'I' for Inactive)
ROOT
HETATM    1  C1  UNL     1      -7.786  21.521 -10.207  1.00  0.00     0.024 C 
HETATM    2  C2  UNL     1      -7.105  20.702  -9.180  1.00  0.00     0.078 C 
HETATM    3  C3  UNL     1      -5.940  21.344  -8.511  1.00  0.00     0.147 C 
HETATM    4  N1  UNL     1      -4.744  20.659  -8.761  1.00  0.00    -0.135 NA
HETATM    5  N2  UNL     1      -4.906  19.305  -8.790  1.00  0.00    -0.074 NA
HETATM    6  S1  UNL     1      -6.320  19.200  -9.889  1.00  0.00    -0.039 SA
ENDROOT
TORSDOF 0
ENDMDL
MODEL 5
REMARK VINA RESULT: -3.354476492      2.111      2.587
REMARK  0 active torsions:
REMARK  status: ('A' for Active; 'I' for Inactive)
ROOT
HETATM    1  C1  UNL     1      -7.743  21.218  -9.333  1.00  0.00     0.024 C 
HETATM    2  C2  UNL     1      -6.442  20.522  -9.440  1.00  0.00     0.078 C 
HETATM    3  C3  UNL     1      -6.455  19.245 -10.207  1.00  0.00     0.147 C 
HETATM    4  N1  UNL     1      -6.117  18.146  -9.407  1.00  0.00    -0.135 NA
HETATM    5  N2  UNL     1      -5.144  18.433  -8.496  1.00  0.00    -0.074 NA
HETATM    6  S1  UNL     1      -5.817  19.948  -7.812  1.00  0.00    -0.039 SA
ENDROOT
TORSDOF 0
ENDMDL
