MODEL 1
REMARK VINA RESULT: -4.477702867      0.000      0.000
REMARK  3 active torsions:
REMARK  status: ('A' for Active; 'I' for Inactive)
REMARK    1  A    between atoms: C2_2  and  C4_4 
REMARK    2  A    between atoms: C4_4  and  O1_5 
REMARK    3  A    between atoms: N1_7  and  O2_9 
ROOT
HETATM    1  C4  UNL     1      -6.614  19.412 -10.169  1.00  0.00     0.165 C 
HETATM    2  N1  UNL     1      -6.681  18.308  -9.513  1.00  0.00    -0.247 N 
ATOM      3  H1  UNL     1      -6.533  17.443 -10.034  1.00  0.00     0.196 HD
ENDROOT
BRANCH   1   4
HETATM    4  C2  UNL     1      -6.802  20.723  -9.576  1.00  0.00    -0.019 C 
HETATM    5  C1  UNL     1      -5.787  21.398  -9.092  1.00  0.00     0.023 C 
HETATM    6  C3  UNL     1      -8.154  21.325  -9.505  1.00  0.00     0.052 C 
ENDBRANCH   1   4
BRANCH   1   7
HETATM    7  O1  UNL     1      -6.343  19.364 -11.545  1.00  0.00    -0.344 OA
ATOM      8  H1  UNL     1      -6.545  20.141 -12.054  1.00  0.00     0.219 HD
ENDBRANCH   1   7
BRANCH   2   9
HETATM    9  O2  UNL     1      -6.935  18.199  -8.184  1.00  0.00    -0.288 OA
ATOM     10  H2  UNL     1      -7.771  18.378  -7.769  1.00  0.00     0.244 HD
ENDBRANCH   2   9
TORSDOF 3
ENDMDL
MODEL 2
REMARK VINA RESULT: -4.467379902      0.103      1.286
REMARK  3 active torsions:
REMARK  status: ('A' for Active; 'I' for Inactive)
REMARK    1  A    between atoms: C2_2  and  C4_4 
REMARK    2  A    between atoms: C4_4  and  O1_5 
REMARK    3  A    between atoms: N1_7  and  O2_9 
ROOT
HETATM    1  C4  UNL     1      -6.614  19.409 -10.196  1.00  0.00     0.165 C 
HETATM    2  N1  UNL     1      -6.670  18.314  -9.524  1.00  0.00    -0.247 N 
ATOM      3  H1  UNL     1      -6.515  17.443 -10.032  1.00  0.00     0.196 HD
ENDROOT
BRANCH   1   4
HETATM    4  C2  UNL     1      -6.813  20.726  -9.622  1.00  0.00    -0.019 C 
HETATM    5  C1  UNL     1      -7.992  21.302  -9.643  1.00  0.00     0.023 C 
HETATM    6  C3  UNL     1      -5.680  21.450  -9.000  1.00  0.00     0.052 C 
ENDBRANCH   1   4
BRANCH   1   7
HETATM    7  O1  UNL     1      -6.347  19.343 -11.573  1.00  0.00    -0.344 OA
ATOM      8  H1  UNL     1      -6.643  20.071 -12.107  1.00  0.00     0.219 HD
ENDBRANCH   1   7
BRANCH   2   9
HETATM    9  O2  UNL     1      -6.918  18.224  -8.192  1.00  0.00    -0.288 OA
ATOM     10  H2  UNL     1      -7.080  17.416  -7.718  1.00  0.00     0.244 HD
ENDBRANCH   2   9
TORSDOF 3
ENDMDL
MODEL 3
REMARK VINA RESULT: -4.423245821      2.060      2.729
REMARK  3 active torsions:
REMARK  status: ('A' for Active; 'I' for Inactive)
REMARK    1  A    between atoms: C2_2  and  C4_4 
REMARK    2  A    between atoms: C4_4  and  O1_5 
REMARK    3  A    between atoms: N1_7  and  O2_9 
ROOT
HETATM    1  C4  UNL     1      -6.274  18.724  -9.417  1.00  0.00     0.165 C 
HETATM    2  N1  UNL     1      -6.677  19.536 -10.329  1.00  0.00    -0.247 N 
ATOM      3  H1  UNL     1      -7.249  19.150 -11.081  1.00  0.00     0.196 HD
ENDROOT
BRANCH   1   4
HETATM    4  C2  UNL     1      -5.455  19.114  -8.285  1.00  0.00    -0.019 C 
HETATM    5  C1  UNL     1      -4.276  18.574  -8.085  1.00  0.00     0.023 C 
HETATM    6  C3  UNL     1      -5.940  20.135  -7.327  1.00  0.00     0.052 C 
ENDBRANCH   1   4
BRANCH   1   7
HETATM    7  O1  UNL     1      -6.640  17.372  -9.507  1.00  0.00    -0.344 OA
ATOM      8  H1  UNL     1      -5.953  16.750  -9.719  1.00  0.00     0.219 HD
ENDBRANCH   1   7
BRANCH   2   9
HETATM    9  O2  UNL     1      -6.403  20.864 -10.373  1.00  0.00    -0.288 OA
ATOM     10  H2  UNL     1      -5.740  21.270 -10.920  1.00  0.00     0.244 HD
ENDBRANCH   2   9
TORSDOF 3
ENDMDL
MODEL 4
REMARK VINA RESULT: -4.285014739      1.938      3.176
REMARK  3 active torsions:
REMARK  status: ('A' for Active; 'I' for Inactive)
REMARK    1  A    between atoms: C2_2  and  C4_4 
REMARK    2  A    between atoms: C4_4  and  O1_5 
REMARK    3  A    between atoms: N1_7  and  O2_9 
ROOT
HETATM    1  C4  UNL     1      -6.799  19.925  -9.670  1.00  0.00     0.165 C 
HETATM    2  N1  UNL     1      -6.913  20.157 -10.930  1.00  0.00    -0.247 N 
ATOM      3  H1  UNL     1      -7.385  21.019 -11.207  1.00  0.00     0.196 HD
ENDROOT
BRANCH   1   4
HETATM    4  C2  UNL     1      -6.158  18.748  -9.115  1.00  0.00    -0.019 C 
HETATM    5  C1  UNL     1      -6.690  17.557  -9.260  1.00  0.00     0.023 C 
HETATM    6  C3  UNL     1      -4.885  18.870  -8.369  1.00  0.00     0.052 C 
ENDBRANCH   1   4
BRANCH   1   7
HETATM    7  O1  UNL     1      -7.322  20.858  -8.761  1.00  0.00    -0.344 OA
ATOM      8  H1  UNL     1      -7.519  21.726  -9.096  1.00  0.00     0.219 HD
ENDBRANCH   1   7
BRANCH   2   9
HETATM    9  O2  UNL     1      -6.458  19.349 -11.921  1.00  0.00    -0.288 OA
ATOM     10  H2  UNL     1      -5.688  18.795 -11.866  1.00  0.00     0.244 HD
ENDBRANCH   2   9
TORSDOF 3
ENDMDL
MODEL 5
REMARK VINA RESULT: -4.259940141      0.846      2.403
REMARK  3 active torsions:
REMARK  status: ('A' for Active; 'I' for Inactive)
REMARK    1  A    between atoms: C2_2  and  C4_4 
REMARK    2  A    between atoms: C4_4  and  O1_5 
REMARK    3  A    between atoms: N1_7  and  O2_9 
ROOT
HETATM    1  C4  UNL     1      -6.718  19.785  -9.231  1.00  0.00     0.165 C 
HETATM    2  N1  UNL     1      -6.435  19.033 -10.235  1.00  0.00    -0.247 N 
ATOM      3  H1  UNL     1      -6.120  18.083 -10.035  1.00  0.00     0.196 HD
ENDROOT
BRANCH   1   4
HETATM    4  C2  UNL     1      -7.176  21.157  -9.346  1.00  0.00    -0.019 C 
HETATM    5  C1  UNL     1      -8.456  21.439  -9.416  1.00  0.00     0.023 C 
HETATM    6  C3  UNL     1      -6.201  22.271  -9.389  1.00  0.00     0.052 C 
ENDBRANCH   1   4
BRANCH   1   7
HETATM    7  O1  UNL     1      -6.580  19.263  -7.935  1.00  0.00    -0.344 OA
ATOM      8  H1  UNL     1      -7.205  18.600  -7.666  1.00  0.00     0.219 HD
ENDBRANCH   1   7
BRANCH   2   9
HETATM    9  O2  UNL     1      -6.521  19.401 -11.538  1.00  0.00    -0.288 OA
ATOM     10  H2  UNL     1      -6.889  18.870 -12.235  1.00  0.00     0.244 HD
ENDBRANCH   2   9
TORSDOF 3
ENDMDL
