MODEL 1
REMARK VINA RESULT: -3.692380385      0.000      0.000
REMARK  2 active torsions:
REMARK  status: ('A' for Active; 'I' for Inactive)
REMARK    1  A    between atoms: O1_1  and  C1_3 
REMARK    2  A    between atoms: C1_3  and  N1_5 
ROOT
HETATM    1  C1  UNL     1      -6.210  18.524  -9.541  1.00  0.00     0.218 C 
HETATM    2  S1  UNL     1      -5.142  18.790  -8.336  1.00  0.00    -0.033 SA
ENDROOT
BRANCH   1   3
HETATM    3  O1  UNL     1      -6.824  17.295  -9.580  1.00  0.00    -0.337 OA
ATOM      4  H1  UNL     1      -7.732  17.252  -9.305  1.00  0.00     0.220 HD
ENDBRANCH   1   3
BRANCH   1   5
HETATM    5  N1  UNL     1      -6.497  19.507 -10.509  1.00  0.00    -0.291 N 
HETATM    6  S2  UNL     1      -7.293  20.987  -9.985  1.00  0.00     0.045 SA
ATOM      7  H1  UNL     1      -6.250  19.364 -11.488  1.00  0.00     0.177 HD
ENDBRANCH   1   5
TORSDOF 2
ENDMDL
MODEL 2
REMARK VINA RESULT: -3.496907196      1.586      2.425
REMARK  2 active torsions:
REMARK  status: ('A' for Active; 'I' for Inactive)
REMARK    1  A    between atoms: O1_1  and  C1_3 
REMARK    2  A    between atoms: C1_3  and  N1_5 
ROOT
HETATM    1  C1  UNL     1      -6.138  18.337  -9.195  1.00  0.00     0.218 C 
HETATM    2  S1  UNL     1      -6.628  19.751  -9.845  1.00  0.00    -0.033 SA
ENDROOT
BRANCH   1   3
HETATM    3  O1  UNL     1      -6.855  17.210  -9.520  1.00  0.00    -0.337 OA
ATOM      4  H1  UNL     1      -6.711  16.433  -8.992  1.00  0.00     0.220 HD
ENDBRANCH   1   3
BRANCH   1   5
HETATM    5  N1  UNL     1      -5.026  18.262  -8.332  1.00  0.00    -0.291 N 
HETATM    6  S2  UNL     1      -4.423  19.752  -7.616  1.00  0.00     0.045 SA
ATOM      7  H1  UNL     1      -4.582  17.366  -8.129  1.00  0.00     0.177 HD
ENDBRANCH   1   5
TORSDOF 2
ENDMDL
MODEL 3
REMARK VINA RESULT: -3.454763585      1.757      1.757
REMARK  2 active torsions:
REMARK  status: ('A' for Active; 'I' for Inactive)
REMARK    1  A    between atoms: O1_1  and  C1_3 
REMARK    2  A    between atoms: C1_3  and  N1_5 
ROOT
HETATM    1  C1  UNL     1      -6.477  19.690 -10.243  1.00  0.00     0.218 C 
HETATM    2  S1  UNL     1      -6.196  18.619  -9.045  1.00  0.00    -0.033 SA
ENDROOT
BRANCH   1   3
HETATM    3  O1  UNL     1      -6.508  19.205 -11.529  1.00  0.00    -0.337 OA
ATOM      4  H1  UNL     1      -7.146  19.582 -12.123  1.00  0.00     0.220 HD
ENDBRANCH   1   3
BRANCH   1   5
HETATM    5  N1  UNL     1      -6.679  21.060  -9.982  1.00  0.00    -0.291 N 
HETATM    6  S2  UNL     1      -8.278  21.584  -9.468  1.00  0.00     0.045 SA
ATOM      7  H1  UNL     1      -5.917  21.730 -10.090  1.00  0.00     0.177 HD
ENDBRANCH   1   5
TORSDOF 2
ENDMDL
MODEL 4
REMARK VINA RESULT: -3.427380352      1.558      2.687
REMARK  2 active torsions:
REMARK  status: ('A' for Active; 'I' for Inactive)
REMARK    1  A    between atoms: O1_1  and  C1_3 
REMARK    2  A    between atoms: C1_3  and  N1_5 
ROOT
HETATM    1  C1  UNL     1      -6.519  19.425 -10.144  1.00  0.00     0.218 C 
HETATM    2  S1  UNL     1      -7.114  20.849  -9.615  1.00  0.00    -0.033 SA
ENDROOT
BRANCH   1   3
HETATM    3  O1  UNL     1      -6.467  19.229 -11.503  1.00  0.00    -0.337 OA
ATOM      4  H1  UNL     1      -7.157  19.618 -12.028  1.00  0.00     0.220 HD
ENDBRANCH   1   3
BRANCH   1   5
HETATM    5  N1  UNL     1      -6.076  18.428  -9.252  1.00  0.00    -0.291 N 
HETATM    6  S2  UNL     1      -4.732  18.804  -8.181  1.00  0.00     0.045 SA
ATOM      7  H1  UNL     1      -6.523  17.511  -9.229  1.00  0.00     0.177 HD
ENDBRANCH   1   5
TORSDOF 2
ENDMDL
MODEL 5
REMARK VINA RESULT: -3.130013975      2.722      2.761
REMARK  2 active torsions:
REMARK  status: ('A' for Active; 'I' for Inactive)
REMARK    1  A    between atoms: O1_1  and  C1_3 
REMARK    2  A    between atoms: C1_3  and  N1_5 
ROOT
HETATM    1  C1  UNL     1      -7.399  20.775  -9.813  1.00  0.00     0.218 C 
HETATM    2  S1  UNL     1      -6.406  19.481  -9.777  1.00  0.00    -0.033 SA
ENDROOT
BRANCH   1   3
HETATM    3  O1  UNL     1      -8.472  20.771  -8.954  1.00  0.00    -0.337 OA
ATOM      4  H1  UNL     1      -8.711  21.597  -8.550  1.00  0.00     0.220 HD
ENDBRANCH   1   3
BRANCH   1   5
HETATM    5  N1  UNL     1      -7.175  21.858 -10.686  1.00  0.00    -0.291 N 
HETATM    6  S2  UNL     1      -6.572  23.366 -10.008  1.00  0.00     0.045 SA
ATOM      7  H1  UNL     1      -7.358  21.770 -11.685  1.00  0.00     0.177 HD
ENDBRANCH   1   5
TORSDOF 2
ENDMDL
