MODEL 1
REMARK VINA RESULT: -6.844099282      0.000      0.000
REMARK  12 active torsions:
REMARK  status: ('A' for Active; 'I' for Inactive)
REMARK    1  A    between atoms: C2_2  and  C3_3 
REMARK    2  A    between atoms: C3_3  and  C4_4 
REMARK    3  A    between atoms: C4_4  and  C5_5 
REMARK    4  A    between atoms: C5_5  and  C6_6 
REMARK    5  A    between atoms: C6_6  and  S1_7 
REMARK    6  A    between atoms: S1_7  and  C7_8 
REMARK    7  A    between atoms: C7_8  and  C8_9 
REMARK    8  A    between atoms: C8_9  and  O1_10 
REMARK    9  A    between atoms: C10_16  and  C12_18 
REMARK   10  A    between atoms: C13_22  and  O2_23 
REMARK   11  A    between atoms: C14_25  and  O3_26 
REMARK   12  A    between atoms: C15_28  and  O4_29 
ROOT
HETATM    1  C8  UNL     1      11.682  41.589  -7.758  1.00  0.00     0.259 C 
HETATM    2  C9  UNL     1      12.921  41.458  -6.896  1.00  0.00     0.304 C 
HETATM    3  N1  UNL     1      12.383  40.686  -5.786  1.00  0.00    -0.034 N 
ATOM      4  H11 UNL     1      11.928  41.246  -5.065  1.00  0.00     0.280 HD
ATOM      5  H12 UNL     1      13.089  40.278  -5.174  1.00  0.00     0.280 HD
HETATM    6  C10 UNL     1      11.501  39.701  -6.442  1.00  0.00     0.317 C 
HETATM    7  C11 UNL     1      12.372  38.469  -6.599  1.00  0.00     0.081 C 
HETATM    8  N3  UNL     1      11.144  40.270  -7.718  1.00  0.00    -0.004 N 
ATOM      9  H31 UNL     1      11.438  39.694  -8.507  1.00  0.00     0.284 HD
ATOM     10  H32 UNL     1      10.141  40.241  -7.901  1.00  0.00     0.284 HD
ENDROOT
BRANCH   6  11
HETATM   11  C12 UNL     1      10.345  39.517  -5.528  1.00  0.00     0.284 C 
HETATM   12  N2  UNL     1       9.938  40.698  -4.843  1.00  0.00    -0.035 N 
HETATM   13  C13 UNL     1       8.962  40.237  -3.866  1.00  0.00     0.351 C 
ATOM     14  H22 UNL     1      10.708  41.233  -4.442  1.00  0.00     0.281 HD
ATOM     15  H21 UNL     1       9.595  41.437  -5.457  1.00  0.00     0.281 HD
HETATM   16  C14 UNL     1       9.210  38.754  -3.660  1.00  0.00     0.205 C 
HETATM   17  C15 UNL     1      10.537  38.543  -4.405  1.00  0.00     0.186 C 
BRANCH  13  18
HETATM   18  O2  UNL     1       9.195  40.852  -2.622  1.00  0.00    -0.368 OA
ATOM     19  H2  UNL     1       8.808  40.336  -1.925  1.00  0.00     0.212 HD
ENDBRANCH  13  18
BRANCH  16  20
HETATM   20  O3  UNL     1       9.310  38.415  -2.323  1.00  0.00    -0.389 OA
ATOM     21  H3  UNL     1       9.824  37.628  -2.185  1.00  0.00     0.210 HD
ENDBRANCH  16  20
BRANCH  17  22
HETATM   22  O4  UNL     1      11.535  38.852  -3.519  1.00  0.00    -0.391 OA
ATOM     23  H4  UNL     1      11.409  39.653  -3.025  1.00  0.00     0.210 HD
ENDBRANCH  17  22
ENDBRANCH   6  11
BRANCH   1  24
HETATM   24  C7  UNL     1      12.020  42.073  -9.147  1.00  0.00     0.144 C 
BRANCH  24  25
HETATM   25  S1  UNL     1      13.692  41.469  -9.522  1.00  0.00    -0.164 SA
BRANCH  25  26
HETATM   26  C6  UNL     1      13.664  40.029 -10.618  1.00  0.00     0.074 C 
BRANCH  26  27
HETATM   27  C5  UNL     1      13.912  38.803  -9.801  1.00  0.00     0.010 C 
BRANCH  27  28
HETATM   28  C4  UNL     1      13.324  37.553 -10.413  1.00  0.00     0.001 C 
BRANCH  28  29
HETATM   29  C3  UNL     1      13.607  37.468 -11.894  1.00  0.00    -0.000 C 
BRANCH  29  30
HETATM   30  C2  UNL     1      13.243  36.045 -12.327  1.00  0.00    -0.005 C 
HETATM   31  C1  UNL     1      13.487  35.898 -13.812  1.00  0.00     0.005 C 
ENDBRANCH  29  30
ENDBRANCH  28  29
ENDBRANCH  27  28
ENDBRANCH  26  27
ENDBRANCH  25  26
ENDBRANCH  24  25
ENDBRANCH   1  24
BRANCH   1  32
HETATM   32  O1  UNL     1      10.780  42.445  -7.140  1.00  0.00    -0.363 OA
ATOM     33  H1  UNL     1      11.050  43.351  -7.236  1.00  0.00     0.212 HD
ENDBRANCH   1  32
TORSDOF 12
ENDMDL
MODEL 2
REMARK VINA RESULT: -6.729685363      4.307      8.324
REMARK  12 active torsions:
REMARK  status: ('A' for Active; 'I' for Inactive)
REMARK    1  A    between atoms: C2_2  and  C3_3 
REMARK    2  A    between atoms: C3_3  and  C4_4 
REMARK    3  A    between atoms: C4_4  and  C5_5 
REMARK    4  A    between atoms: C5_5  and  C6_6 
REMARK    5  A    between atoms: C6_6  and  S1_7 
REMARK    6  A    between atoms: S1_7  and  C7_8 
REMARK    7  A    between atoms: C7_8  and  C8_9 
REMARK    8  A    between atoms: C8_9  and  O1_10 
REMARK    9  A    between atoms: C10_16  and  C12_18 
REMARK   10  A    between atoms: C13_22  and  O2_23 
REMARK   11  A    between atoms: C14_25  and  O3_26 
REMARK   12  A    between atoms: C15_28  and  O4_29 
ROOT
HETATM    1  C8  UNL     1      12.577  38.802  -8.376  1.00  0.00     0.259 C 
HETATM    2  C9  UNL     1      13.943  38.316  -7.934  1.00  0.00     0.304 C 
HETATM    3  N1  UNL     1      14.445  37.778  -9.189  1.00  0.00    -0.034 N 
ATOM      4  H11 UNL     1      14.155  36.819  -9.383  1.00  0.00     0.280 HD
ATOM      5  H12 UNL     1      15.447  37.590  -9.197  1.00  0.00     0.280 HD
HETATM    6  C10 UNL     1      14.001  38.765 -10.193  1.00  0.00     0.317 C 
HETATM    7  C11 UNL     1      15.193  39.689 -10.358  1.00  0.00     0.081 C 
HETATM    8  N3  UNL     1      12.872  39.447  -9.613  1.00  0.00    -0.004 N 
ATOM      9  H31 UNL     1      13.020  40.452  -9.514  1.00  0.00     0.284 HD
ATOM     10  H32 UNL     1      12.069  39.495 -10.240  1.00  0.00     0.284 HD
ENDROOT
BRANCH   6  11
HETATM   11  C12 UNL     1      13.664  37.984 -11.411  1.00  0.00     0.284 C 
HETATM   12  N2  UNL     1      13.039  36.729 -11.154  1.00  0.00    -0.035 N 
HETATM   13  C13 UNL     1      13.007  36.065 -12.450  1.00  0.00     0.351 C 
ATOM     14  H22 UNL     1      13.487  36.184 -10.418  1.00  0.00     0.281 HD
ATOM     15  H21 UNL     1      12.128  36.803 -10.702  1.00  0.00     0.281 HD
HETATM   16  C14 UNL     1      14.068  36.725 -13.311  1.00  0.00     0.205 C 
HETATM   17  C15 UNL     1      14.814  37.599 -12.290  1.00  0.00     0.186 C 
BRANCH  13  18
HETATM   18  O2  UNL     1      13.393  34.718 -12.313  1.00  0.00    -0.368 OA
ATOM     19  H2  UNL     1      13.686  34.376 -13.149  1.00  0.00     0.212 HD
ENDBRANCH  13  18
BRANCH  16  20
HETATM   20  O3  UNL     1      14.907  35.807 -13.915  1.00  0.00    -0.389 OA
ATOM     21  H3  UNL     1      15.825  36.022 -13.799  1.00  0.00     0.210 HD
ENDBRANCH  16  20
BRANCH  17  22
HETATM   22  O4  UNL     1      15.759  36.796 -11.709  1.00  0.00    -0.391 OA
ATOM     23  H4  UNL     1      15.526  35.879 -11.630  1.00  0.00     0.210 HD
ENDBRANCH  17  22
ENDBRANCH   6  11
BRANCH   1  24
HETATM   24  C7  UNL     1      11.949  39.707  -7.346  1.00  0.00     0.144 C 
BRANCH  24  25
HETATM   25  S1  UNL     1      11.413  38.648  -5.971  1.00  0.00    -0.164 SA
BRANCH  25  26
HETATM   26  C6  UNL     1      10.343  39.533  -4.809  1.00  0.00     0.074 C 
BRANCH  26  27
HETATM   27  C5  UNL     1       9.664  38.534  -3.930  1.00  0.00     0.010 C 
BRANCH  27  28
HETATM   28  C4  UNL     1       9.278  39.096  -2.582  1.00  0.00     0.001 C 
BRANCH  28  29
HETATM   29  C3  UNL     1       9.950  38.353  -1.452  1.00  0.00    -0.000 C 
BRANCH  29  30
HETATM   30  C2  UNL     1      10.034  36.886  -1.883  1.00  0.00    -0.005 C 
HETATM   31  C1  UNL     1       9.020  36.079  -1.105  1.00  0.00     0.005 C 
ENDBRANCH  29  30
ENDBRANCH  28  29
ENDBRANCH  27  28
ENDBRANCH  26  27
ENDBRANCH  25  26
ENDBRANCH  24  25
ENDBRANCH   1  24
BRANCH   1  32
HETATM   32  O1  UNL     1      11.763  37.709  -8.640  1.00  0.00    -0.363 OA
ATOM     33  H1  UNL     1      10.861  37.891  -8.403  1.00  0.00     0.212 HD
ENDBRANCH   1  32
TORSDOF 12
ENDMDL
MODEL 3
REMARK VINA RESULT: -6.531849922      1.660      2.455
REMARK  12 active torsions:
REMARK  status: ('A' for Active; 'I' for Inactive)
REMARK    1  A    between atoms: C2_2  and  C3_3 
REMARK    2  A    between atoms: C3_3  and  C4_4 
REMARK    3  A    between atoms: C4_4  and  C5_5 
REMARK    4  A    between atoms: C5_5  and  C6_6 
REMARK    5  A    between atoms: C6_6  and  S1_7 
REMARK    6  A    between atoms: S1_7  and  C7_8 
REMARK    7  A    between atoms: C7_8  and  C8_9 
REMARK    8  A    between atoms: C8_9  and  O1_10 
REMARK    9  A    between atoms: C10_16  and  C12_18 
REMARK   10  A    between atoms: C13_22  and  O2_23 
REMARK   11  A    between atoms: C14_25  and  O3_26 
REMARK   12  A    between atoms: C15_28  and  O4_29 
ROOT
HETATM    1  C8  UNL     1      12.829  38.700  -8.413  1.00  0.00     0.259 C 
HETATM    2  C9  UNL     1      12.504  40.029  -9.064  1.00  0.00     0.304 C 
HETATM    3  N1  UNL     1      11.461  40.507  -8.169  1.00  0.00    -0.034 N 
ATOM      4  H11 UNL     1      10.527  40.160  -8.386  1.00  0.00     0.280 HD
ATOM      5  H12 UNL     1      11.235  41.496  -8.275  1.00  0.00     0.280 HD
HETATM    6  C10 UNL     1      11.955  40.135  -6.829  1.00  0.00     0.317 C 
HETATM    7  C11 UNL     1      12.660  41.383  -6.333  1.00  0.00     0.081 C 
HETATM    8  N3  UNL     1      12.877  39.045  -7.030  1.00  0.00    -0.004 N 
ATOM      9  H31 UNL     1      13.821  39.255  -6.703  1.00  0.00     0.284 HD
ATOM     10  H32 UNL     1      12.699  38.252  -6.414  1.00  0.00     0.284 HD
ENDROOT
BRANCH   6  11
HETATM   11  C12 UNL     1      10.753  39.760  -6.041  1.00  0.00     0.284 C 
HETATM   12  N2  UNL     1      10.434  40.662  -4.985  1.00  0.00    -0.035 N 
HETATM   13  C13 UNL     1       9.382  39.990  -4.235  1.00  0.00     0.351 C 
ATOM     14  H22 UNL     1      11.235  40.941  -4.420  1.00  0.00     0.281 HD
ATOM     15  H21 UNL     1      10.186  41.600  -5.300  1.00  0.00     0.281 HD
HETATM   16  C14 UNL     1       9.481  38.512  -4.564  1.00  0.00     0.205 C 
HETATM   17  C15 UNL     1      10.810  38.441  -5.334  1.00  0.00     0.186 C 
BRANCH  13  18
HETATM   18  O2  UNL     1       9.625  40.103  -2.854  1.00  0.00    -0.368 OA
ATOM     19  H2  UNL     1       9.687  39.240  -2.461  1.00  0.00     0.212 HD
ENDBRANCH  13  18
BRANCH  16  20
HETATM   20  O3  UNL     1       9.498  37.717  -3.433  1.00  0.00    -0.389 OA
ATOM     21  H3  UNL     1       9.646  36.801  -3.634  1.00  0.00     0.210 HD
ENDBRANCH  16  20
BRANCH  17  22
HETATM   22  O4  UNL     1      11.798  38.317  -4.393  1.00  0.00    -0.391 OA
ATOM     23  H4  UNL     1      12.013  39.111  -3.918  1.00  0.00     0.210 HD
ENDBRANCH  17  22
ENDBRANCH   6  11
BRANCH   1  24
HETATM   24  C7  UNL     1      14.116  38.120  -8.946  1.00  0.00     0.144 C 
BRANCH  24  25
HETATM   25  S1  UNL     1      14.446  38.940 -10.532  1.00  0.00    -0.164 SA
BRANCH  25  26
HETATM   26  C6  UNL     1      13.679  38.067 -11.920  1.00  0.00     0.074 C 
BRANCH  26  27
HETATM   27  C5  UNL     1      13.374  36.668 -11.494  1.00  0.00     0.010 C 
BRANCH  27  28
HETATM   28  C4  UNL     1      13.365  35.686 -12.642  1.00  0.00     0.001 C 
BRANCH  28  29
HETATM   29  C3  UNL     1      14.020  36.261 -13.876  1.00  0.00    -0.000 C 
BRANCH  29  30
HETATM   30  C2  UNL     1      13.285  35.661 -15.078  1.00  0.00    -0.005 C 
HETATM   31  C1  UNL     1      13.815  36.288 -16.348  1.00  0.00     0.005 C 
ENDBRANCH  29  30
ENDBRANCH  28  29
ENDBRANCH  27  28
ENDBRANCH  26  27
ENDBRANCH  25  26
ENDBRANCH  24  25
ENDBRANCH   1  24
BRANCH   1  32
HETATM   32  O1  UNL     1      11.771  37.822  -8.604  1.00  0.00    -0.363 OA
ATOM     33  H1  UNL     1      11.021  38.269  -8.978  1.00  0.00     0.212 HD
ENDBRANCH   1  32
TORSDOF 12
ENDMDL
MODEL 4
REMARK VINA RESULT: -6.517887600      4.570      7.713
REMARK  12 active torsions:
REMARK  status: ('A' for Active; 'I' for Inactive)
REMARK    1  A    between atoms: C2_2  and  C3_3 
REMARK    2  A    between atoms: C3_3  and  C4_4 
REMARK    3  A    between atoms: C4_4  and  C5_5 
REMARK    4  A    between atoms: C5_5  and  C6_6 
REMARK    5  A    between atoms: C6_6  and  S1_7 
REMARK    6  A    between atoms: S1_7  and  C7_8 
REMARK    7  A    between atoms: C7_8  and  C8_9 
REMARK    8  A    between atoms: C8_9  and  O1_10 
REMARK    9  A    between atoms: C10_16  and  C12_18 
REMARK   10  A    between atoms: C13_22  and  O2_23 
REMARK   11  A    between atoms: C14_25  and  O3_26 
REMARK   12  A    between atoms: C15_28  and  O4_29 
ROOT
HETATM    1  C8  UNL     1      12.958  39.034  -8.864  1.00  0.00     0.259 C 
HETATM    2  C9  UNL     1      14.407  38.686  -8.592  1.00  0.00     0.304 C 
HETATM    3  N1  UNL     1      14.753  38.023  -9.840  1.00  0.00    -0.034 N 
ATOM      4  H11 UNL     1      14.509  37.033  -9.873  1.00  0.00     0.280 HD
ATOM      5  H12 UNL     1      15.753  37.893  -9.986  1.00  0.00     0.280 HD
HETATM    6  C10 UNL     1      14.089  38.849 -10.868  1.00  0.00     0.317 C 
HETATM    7  C11 UNL     1      15.169  39.811 -11.326  1.00  0.00     0.081 C 
HETATM    8  N3  UNL     1      13.012  39.535 -10.198  1.00  0.00    -0.004 N 
ATOM      9  H31 UNL     1      13.098  40.550 -10.240  1.00  0.00     0.284 HD
ATOM     10  H32 UNL     1      12.122  39.457 -10.690  1.00  0.00     0.284 HD
ENDROOT
BRANCH   6  11
HETATM   11  C12 UNL     1      13.631  37.903 -11.918  1.00  0.00     0.284 C 
HETATM   12  N2  UNL     1      13.198  36.638 -11.425  1.00  0.00    -0.035 N 
HETATM   13  C13 UNL     1      13.013  35.825 -12.619  1.00  0.00     0.351 C 
ATOM     14  H22 UNL     1      13.822  36.225 -10.733  1.00  0.00     0.281 HD
ATOM     15  H21 UNL     1      12.377  36.685 -10.823  1.00  0.00     0.281 HD
HETATM   16  C14 UNL     1      13.832  36.469 -13.723  1.00  0.00     0.205 C 
HETATM   17  C15 UNL     1      14.646  37.519 -12.951  1.00  0.00     0.186 C 
BRANCH  13  18
HETATM   18  O2  UNL     1      13.558  34.543 -12.421  1.00  0.00    -0.368 OA
ATOM     19  H2  UNL     1      12.870  33.925 -12.206  1.00  0.00     0.212 HD
ENDBRANCH  13  18
BRANCH  16  20
HETATM   20  O3  UNL     1      14.646  35.562 -14.376  1.00  0.00    -0.389 OA
ATOM     21  H3  UNL     1      15.363  35.259 -13.831  1.00  0.00     0.210 HD
ENDBRANCH  16  20
BRANCH  17  22
HETATM   22  O4  UNL     1      15.758  36.876 -12.475  1.00  0.00    -0.391 OA
ATOM     23  H4  UNL     1      16.231  37.330 -11.788  1.00  0.00     0.210 HD
ENDBRANCH  17  22
ENDBRANCH   6  11
BRANCH   1  24
HETATM   24  C7  UNL     1      12.426  40.025  -7.858  1.00  0.00     0.144 C 
BRANCH  24  25
HETATM   25  S1  UNL     1      11.847  41.469  -8.796  1.00  0.00    -0.164 SA
BRANCH  25  26
HETATM   26  C6  UNL     1      12.498  43.019  -8.125  1.00  0.00     0.074 C 
BRANCH  26  27
HETATM   27  C5  UNL     1      13.647  42.704  -7.224  1.00  0.00     0.010 C 
BRANCH  27  28
HETATM   28  C4  UNL     1      14.940  43.351  -7.663  1.00  0.00     0.001 C 
BRANCH  28  29
HETATM   29  C3  UNL     1      15.507  42.689  -8.897  1.00  0.00    -0.000 C 
BRANCH  29  30
HETATM   30  C2  UNL     1      16.793  43.444  -9.245  1.00  0.00    -0.005 C 
HETATM   31  C1  UNL     1      17.043  44.509  -8.201  1.00  0.00     0.005 C 
ENDBRANCH  29  30
ENDBRANCH  28  29
ENDBRANCH  27  28
ENDBRANCH  26  27
ENDBRANCH  25  26
ENDBRANCH  24  25
ENDBRANCH   1  24
BRANCH   1  32
HETATM   32  O1  UNL     1      12.197  37.872  -8.867  1.00  0.00    -0.363 OA
ATOM     33  H1  UNL     1      12.336  37.377  -9.666  1.00  0.00     0.212 HD
ENDBRANCH   1  32
TORSDOF 12
ENDMDL
MODEL 5
REMARK VINA RESULT: -6.473400537      6.196      8.983
REMARK  12 active torsions:
REMARK  status: ('A' for Active; 'I' for Inactive)
REMARK    1  A    between atoms: C2_2  and  C3_3 
REMARK    2  A    between atoms: C3_3  and  C4_4 
REMARK    3  A    between atoms: C4_4  and  C5_5 
REMARK    4  A    between atoms: C5_5  and  C6_6 
REMARK    5  A    between atoms: C6_6  and  S1_7 
REMARK    6  A    between atoms: S1_7  and  C7_8 
REMARK    7  A    between atoms: C7_8  and  C8_9 
REMARK    8  A    between atoms: C8_9  and  O1_10 
REMARK    9  A    between atoms: C10_16  and  C12_18 
REMARK   10  A    between atoms: C13_22  and  O2_23 
REMARK   11  A    between atoms: C14_25  and  O3_26 
REMARK   12  A    between atoms: C15_28  and  O4_29 
ROOT
HETATM    1  C8  UNL     1       8.227  43.368  -1.497  1.00  0.00     0.259 C 
HETATM    2  C9  UNL     1       8.457  43.693  -2.959  1.00  0.00     0.304 C 
HETATM    3  N1  UNL     1       8.775  42.369  -3.472  1.00  0.00    -0.034 N 
ATOM      4  H11 UNL     1       9.753  42.099  -3.366  1.00  0.00     0.280 HD
ATOM      5  H12 UNL     1       8.753  42.293  -4.488  1.00  0.00     0.280 HD
HETATM    6  C10 UNL     1       7.820  41.487  -2.773  1.00  0.00     0.317 C 
HETATM    7  C11 UNL     1       6.661  41.352  -3.742  1.00  0.00     0.081 C 
HETATM    8  N3  UNL     1       7.434  42.185  -1.572  1.00  0.00    -0.004 N 
ATOM      9  H31 UNL     1       6.432  42.373  -1.524  1.00  0.00     0.284 HD
ATOM     10  H32 UNL     1       7.499  41.606  -0.735  1.00  0.00     0.284 HD
ENDROOT
BRANCH   6  11
HETATM   11  C12 UNL     1       8.549  40.219  -2.515  1.00  0.00     0.284 C 
HETATM   12  N2  UNL     1       9.800  40.380  -1.853  1.00  0.00    -0.035 N 
HETATM   13  C13 UNL     1      10.416  39.061  -1.908  1.00  0.00     0.351 C 
ATOM     14  H22 UNL     1      10.380  41.127  -2.235  1.00  0.00     0.281 HD
ATOM     15  H21 UNL     1       9.726  40.766  -0.912  1.00  0.00     0.281 HD
HETATM   16  C14 UNL     1       9.745  38.307  -3.041  1.00  0.00     0.205 C 
HETATM   17  C15 UNL     1       8.923  39.413  -3.722  1.00  0.00     0.186 C 
BRANCH  13  18
HETATM   18  O2  UNL     1      11.774  39.176  -2.261  1.00  0.00    -0.368 OA
ATOM     19  H2  UNL     1      12.007  38.498  -2.884  1.00  0.00     0.212 HD
ENDBRANCH  13  18
BRANCH  16  20
HETATM   20  O3  UNL     1      10.656  37.733  -3.908  1.00  0.00    -0.389 OA
ATOM     21  H3  UNL     1      10.235  37.263  -4.619  1.00  0.00     0.210 HD
ENDBRANCH  16  20
BRANCH  17  22
HETATM   22  O4  UNL     1       9.764  40.033  -4.608  1.00  0.00    -0.391 OA
ATOM     23  H4  UNL     1       9.620  39.826  -5.523  1.00  0.00     0.210 HD
ENDBRANCH  17  22
ENDBRANCH   6  11
BRANCH   1  24
HETATM   24  C7  UNL     1       7.558  44.511  -0.773  1.00  0.00     0.144 C 
BRANCH  24  25
HETATM   25  S1  UNL     1       6.468  45.329  -1.973  1.00  0.00    -0.164 SA
BRANCH  25  26
HETATM   26  C6  UNL     1       4.816  44.589  -2.004  1.00  0.00     0.074 C 
BRANCH  26  27
HETATM   27  C5  UNL     1       4.549  43.962  -0.675  1.00  0.00     0.010 C 
BRANCH  27  28
HETATM   28  C4  UNL     1       3.505  42.872  -0.732  1.00  0.00     0.001 C 
BRANCH  28  29
HETATM   29  C3  UNL     1       3.808  41.861  -1.813  1.00  0.00    -0.000 C 
BRANCH  29  30
HETATM   30  C2  UNL     1       2.518  41.686  -2.619  1.00  0.00    -0.005 C 
HETATM   31  C1  UNL     1       2.830  41.820  -4.093  1.00  0.00     0.005 C 
ENDBRANCH  29  30
ENDBRANCH  28  29
ENDBRANCH  27  28
ENDBRANCH  26  27
ENDBRANCH  25  26
ENDBRANCH  24  25
ENDBRANCH   1  24
BRANCH   1  32
HETATM   32  O1  UNL     1       9.437  43.042  -0.901  1.00  0.00    -0.363 OA
ATOM     33  H1  UNL     1      10.032  43.783  -0.910  1.00  0.00     0.212 HD
ENDBRANCH   1  32
TORSDOF 12
ENDMDL
