MODEL 1
REMARK VINA RESULT: -7.048999565      0.000      0.000
REMARK  11 active torsions:
REMARK  status: ('A' for Active; 'I' for Inactive)
REMARK    1  A    between atoms: C2_2  and  C3_3 
REMARK    2  A    between atoms: C4_4  and  C5_5 
REMARK    3  A    between atoms: C5_5  and  N1_6 
REMARK    4  A    between atoms: N1_6  and  C7_8 
REMARK    5  A    between atoms: C7_8  and  C8_9 
REMARK    6  A    between atoms: C8_9  and  N2_10 
REMARK    7  A    between atoms: N2_10  and  C10_12 
REMARK    8  A    between atoms: C10_12  and  C11_13 
REMARK    9  A    between atoms: C11_13  and  O1_14 
REMARK   10  A    between atoms: C13_23  and  N6_24 
REMARK   11  A    between atoms: C14_29  and  N8_30 
ROOT
HETATM    1  C3  UNL     1      13.290  40.328  -8.746  1.00  0.00    -0.015 A 
HETATM    2  C4  UNL     1      14.128  39.435  -9.453  1.00  0.00     0.061 A 
HETATM    3  N3  UNL     1      14.331  38.173  -9.039  1.00  0.00    -0.301 N 
ATOM      4  H3  UNL     1      14.943  37.565  -9.582  1.00  0.00     0.186 HD
HETATM    5  N4  UNL     1      13.766  37.702  -7.959  1.00  0.00    -0.284 N 
ATOM      6  H4  UNL     1      13.944  36.739  -7.677  1.00  0.00     0.188 HD
HETATM    7  C12 UNL     1      12.954  38.468  -7.216  1.00  0.00     0.150 A 
HETATM    8  N5  UNL     1      12.365  37.993  -6.100  1.00  0.00    -0.175 N 
ATOM      9  H5  UNL     1      12.551  37.028  -5.825  1.00  0.00     0.186 HD
HETATM   10  C13 UNL     1      11.549  38.729  -5.335  1.00  0.00     0.679 A 
HETATM   11  N7  UNL     1      11.288  39.994  -5.675  1.00  0.00    -0.176 N 
ATOM     12  H7  UNL     1      10.666  40.564  -5.102  1.00  0.00     0.186 HD
HETATM   13  C14 UNL     1      11.865  40.520  -6.804  1.00  0.00     0.129 A 
HETATM   14  C15 UNL     1      12.707  39.798  -7.609  1.00  0.00     0.062 A 
ENDROOT
BRANCH   2  15
HETATM   15  C5  UNL     1      14.755  39.990 -10.671  1.00  0.00     0.330 C 
BRANCH  15  16
HETATM   16  N1  UNL     1      14.424  39.232 -11.890  1.00  0.00     0.091 N 
HETATM   17  C6  UNL     1      14.101  40.328 -12.840  1.00  0.00     0.310 C 
BRANCH  16  18
HETATM   18  C7  UNL     1      15.531  38.479 -12.400  1.00  0.00     0.302 C 
BRANCH  18  19
HETATM   19  C8  UNL     1      15.312  37.096 -12.856  1.00  0.00     0.302 C 
BRANCH  19  20
HETATM   20  N2  UNL     1      14.617  36.923 -14.117  1.00  0.00     0.087 N 
HETATM   21  C9  UNL     1      15.530  36.358 -15.122  1.00  0.00     0.310 C 
BRANCH  20  22
HETATM   22  C10 UNL     1      13.509  35.962 -13.934  1.00  0.00     0.297 C 
BRANCH  22  23
HETATM   23  C11 UNL     1      13.367  35.570 -12.504  1.00  0.00     0.194 C 
BRANCH  23  24
HETATM   24  O1  UNL     1      13.057  34.210 -12.351  1.00  0.00    -0.399 OA
ATOM     25  H1  UNL     1      12.227  33.981 -12.753  1.00  0.00     0.209 HD
ENDBRANCH  23  24
ENDBRANCH  22  23
ENDBRANCH  20  22
ENDBRANCH  19  20
ENDBRANCH  18  19
ENDBRANCH  16  18
ENDBRANCH  15  16
ENDBRANCH   2  15
BRANCH   1  26
HETATM   26  C2  UNL     1      13.029  41.683  -9.168  1.00  0.00     0.037 C 
HETATM   27  C1  UNL     1      14.104  42.705  -8.896  1.00  0.00     0.010 C 
ENDBRANCH   1  26
BRANCH  13  28
HETATM   28  N8  UNL     1      11.574  41.725  -7.099  1.00  0.00    -0.384 N 
ATOM     29  H82 UNL     1      12.020  42.497  -6.603  1.00  0.00     0.157 HD
ATOM     30  H81 UNL     1      10.898  41.870  -7.849  1.00  0.00     0.157 HD
ENDBRANCH  13  28
BRANCH  10  31
HETATM   31  N6  UNL     1      11.026  38.196  -4.273  1.00  0.00    -0.234 N 
ATOM     32  H62 UNL     1      10.122  37.726  -4.309  1.00  0.00     0.174 HD
ATOM     33  H61 UNL     1      11.531  38.251  -3.388  1.00  0.00     0.174 HD
ENDBRANCH  10  31
TORSDOF 11
ENDMDL
MODEL 2
REMARK VINA RESULT: -6.854402483      1.058      1.327
REMARK  11 active torsions:
REMARK  status: ('A' for Active; 'I' for Inactive)
REMARK    1  A    between atoms: C2_2  and  C3_3 
REMARK    2  A    between atoms: C4_4  and  C5_5 
REMARK    3  A    between atoms: C5_5  and  N1_6 
REMARK    4  A    between atoms: N1_6  and  C7_8 
REMARK    5  A    between atoms: C7_8  and  C8_9 
REMARK    6  A    between atoms: C8_9  and  N2_10 
REMARK    7  A    between atoms: N2_10  and  C10_12 
REMARK    8  A    between atoms: C10_12  and  C11_13 
REMARK    9  A    between atoms: C11_13  and  O1_14 
REMARK   10  A    between atoms: C13_23  and  N6_24 
REMARK   11  A    between atoms: C14_29  and  N8_30 
ROOT
HETATM    1  C3  UNL     1      12.991  40.241  -8.348  1.00  0.00    -0.015 A 
HETATM    2  C4  UNL     1      13.863  39.357  -9.023  1.00  0.00     0.061 A 
HETATM    3  N3  UNL     1      14.087  38.107  -8.584  1.00  0.00    -0.301 N 
ATOM      4  H3  UNL     1      14.724  37.505  -9.105  1.00  0.00     0.186 HD
HETATM    5  N4  UNL     1      13.511  37.641  -7.507  1.00  0.00    -0.284 N 
ATOM      6  H4  UNL     1      13.707  36.687  -7.206  1.00  0.00     0.188 HD
HETATM    7  C12 UNL     1      12.667  38.400  -6.794  1.00  0.00     0.150 A 
HETATM    8  N5  UNL     1      12.067  37.929  -5.681  1.00  0.00    -0.175 N 
ATOM      9  H5  UNL     1      12.270  36.973  -5.387  1.00  0.00     0.186 HD
HETATM   10  C13 UNL     1      11.219  38.658  -4.945  1.00  0.00     0.679 A 
HETATM   11  N7  UNL     1      10.935  39.911  -5.312  1.00  0.00    -0.176 N 
ATOM     12  H7  UNL     1      10.289  40.475  -4.761  1.00  0.00     0.186 HD
HETATM   13  C14 UNL     1      11.522  40.432  -6.437  1.00  0.00     0.129 A 
HETATM   14  C15 UNL     1      12.397  39.716  -7.214  1.00  0.00     0.062 A 
ENDROOT
BRANCH   2  15
HETATM   15  C5  UNL     1      14.501  39.907 -10.237  1.00  0.00     0.330 C 
BRANCH  15  16
HETATM   16  N1  UNL     1      13.698  39.704 -11.456  1.00  0.00     0.091 N 
HETATM   17  C6  UNL     1      14.468  40.497 -12.451  1.00  0.00     0.310 C 
BRANCH  16  18
HETATM   18  C7  UNL     1      13.655  38.336 -11.877  1.00  0.00     0.302 C 
BRANCH  18  19
HETATM   19  C8  UNL     1      14.805  37.769 -12.603  1.00  0.00     0.302 C 
BRANCH  19  20
HETATM   20  N2  UNL     1      14.864  36.325 -12.715  1.00  0.00     0.087 N 
HETATM   21  C9  UNL     1      14.998  35.720 -11.381  1.00  0.00     0.310 C 
BRANCH  20  22
HETATM   22  C10 UNL     1      13.600  35.831 -13.301  1.00  0.00     0.297 C 
BRANCH  22  23
HETATM   23  C11 UNL     1      13.639  35.885 -14.789  1.00  0.00     0.194 C 
BRANCH  23  24
HETATM   24  O1  UNL     1      12.921  34.836 -15.381  1.00  0.00    -0.399 OA
ATOM     25  H1  UNL     1      12.953  34.866 -16.331  1.00  0.00     0.209 HD
ENDBRANCH  23  24
ENDBRANCH  22  23
ENDBRANCH  20  22
ENDBRANCH  19  20
ENDBRANCH  18  19
ENDBRANCH  16  18
ENDBRANCH  15  16
ENDBRANCH   2  15
BRANCH   1  26
HETATM   26  C2  UNL     1      12.706  41.582  -8.798  1.00  0.00     0.037 C 
HETATM   27  C1  UNL     1      13.761  42.630  -8.542  1.00  0.00     0.010 C 
ENDBRANCH   1  26
BRANCH  13  28
HETATM   28  N8  UNL     1      11.209  41.624  -6.758  1.00  0.00    -0.384 N 
ATOM     29  H82 UNL     1      10.229  41.886  -6.863  1.00  0.00     0.157 HD
ATOM     30  H81 UNL     1      11.973  42.288  -6.887  1.00  0.00     0.157 HD
ENDBRANCH  13  28
BRANCH  10  31
HETATM   31  N6  UNL     1      10.687  38.131  -3.885  1.00  0.00    -0.234 N 
ATOM     32  H62 UNL     1      11.184  37.428  -3.338  1.00  0.00     0.174 HD
ATOM     33  H61 UNL     1       9.755  38.428  -3.596  1.00  0.00     0.174 HD
ENDBRANCH  10  31
TORSDOF 11
ENDMDL
MODEL 3
REMARK VINA RESULT: -6.627416021      1.496      1.752
REMARK  11 active torsions:
REMARK  status: ('A' for Active; 'I' for Inactive)
REMARK    1  A    between atoms: C2_2  and  C3_3 
REMARK    2  A    between atoms: C4_4  and  C5_5 
REMARK    3  A    between atoms: C5_5  and  N1_6 
REMARK    4  A    between atoms: N1_6  and  C7_8 
REMARK    5  A    between atoms: C7_8  and  C8_9 
REMARK    6  A    between atoms: C8_9  and  N2_10 
REMARK    7  A    between atoms: N2_10  and  C10_12 
REMARK    8  A    between atoms: C10_12  and  C11_13 
REMARK    9  A    between atoms: C11_13  and  O1_14 
REMARK   10  A    between atoms: C13_23  and  N6_24 
REMARK   11  A    between atoms: C14_29  and  N8_30 
ROOT
HETATM    1  C3  UNL     1      13.108  40.085  -8.587  1.00  0.00    -0.015 A 
HETATM    2  C4  UNL     1      13.938  39.124  -9.208  1.00  0.00     0.061 A 
HETATM    3  N3  UNL     1      14.141  37.908  -8.672  1.00  0.00    -0.301 N 
ATOM      4  H3  UNL     1      14.747  37.248  -9.158  1.00  0.00     0.186 HD
HETATM    5  N4  UNL     1      13.583  37.549  -7.547  1.00  0.00    -0.284 N 
ATOM      6  H4  UNL     1      13.762  36.618  -7.172  1.00  0.00     0.188 HD
HETATM    7  C12 UNL     1      12.779  38.387  -6.878  1.00  0.00     0.150 A 
HETATM    8  N5  UNL     1      12.198  38.027  -5.715  1.00  0.00    -0.175 N 
ATOM      9  H5  UNL     1      12.383  37.093  -5.348  1.00  0.00     0.186 HD
HETATM   10  C13 UNL     1      11.390  38.837  -5.021  1.00  0.00     0.679 A 
HETATM   11  N7  UNL     1      11.129  40.064  -5.483  1.00  0.00    -0.176 N 
ATOM     12  H7  UNL     1      10.512  40.689  -4.964  1.00  0.00     0.186 HD
HETATM   13  C14 UNL     1      11.698  40.474  -6.662  1.00  0.00     0.129 A 
HETATM   14  C15 UNL     1      12.532  39.672  -7.398  1.00  0.00     0.062 A 
ENDROOT
BRANCH   2  15
HETATM   15  C5  UNL     1      14.557  39.554 -10.479  1.00  0.00     0.330 C 
BRANCH  15  16
HETATM   16  N1  UNL     1      13.708  39.292 -11.655  1.00  0.00     0.091 N 
HETATM   17  C6  UNL     1      14.432  40.042 -12.715  1.00  0.00     0.310 C 
BRANCH  16  18
HETATM   18  C7  UNL     1      13.658  37.905 -12.011  1.00  0.00     0.302 C 
BRANCH  18  19
HETATM   19  C8  UNL     1      13.972  37.506 -13.394  1.00  0.00     0.302 C 
BRANCH  19  20
HETATM   20  N2  UNL     1      14.921  36.424 -13.566  1.00  0.00     0.087 N 
HETATM   21  C9  UNL     1      15.566  36.523 -14.884  1.00  0.00     0.310 C 
BRANCH  20  22
HETATM   22  C10 UNL     1      15.982  36.540 -12.543  1.00  0.00     0.297 C 
BRANCH  22  23
HETATM   23  C11 UNL     1      17.242  37.071 -13.132  1.00  0.00     0.194 C 
BRANCH  23  24
HETATM   24  O1  UNL     1      17.684  38.236 -12.488  1.00  0.00    -0.399 OA
ATOM     25  H1  UNL     1      16.965  38.766 -12.165  1.00  0.00     0.209 HD
ENDBRANCH  23  24
ENDBRANCH  22  23
ENDBRANCH  20  22
ENDBRANCH  19  20
ENDBRANCH  18  19
ENDBRANCH  16  18
ENDBRANCH  15  16
ENDBRANCH   2  15
BRANCH   1  26
HETATM   26  C2  UNL     1      12.847  41.392  -9.139  1.00  0.00     0.037 C 
HETATM   27  C1  UNL     1      13.939  42.424  -9.005  1.00  0.00     0.010 C 
ENDBRANCH   1  26
BRANCH  13  28
HETATM   28  N8  UNL     1      11.408  41.644  -7.073  1.00  0.00    -0.384 N 
ATOM     29  H82 UNL     1      10.575  41.796  -7.643  1.00  0.00     0.157 HD
ATOM     30  H81 UNL     1      12.030  42.403  -6.794  1.00  0.00     0.157 HD
ENDBRANCH  13  28
BRANCH  10  31
HETATM   31  N6  UNL     1      10.873  38.414  -3.907  1.00  0.00    -0.234 N 
ATOM     32  H62 UNL     1       9.939  38.006  -3.880  1.00  0.00     0.174 HD
ATOM     33  H61 UNL     1      11.414  38.492  -3.046  1.00  0.00     0.174 HD
ENDBRANCH  10  31
TORSDOF 11
ENDMDL
MODEL 4
REMARK VINA RESULT: -6.381667081      2.568      7.892
REMARK  11 active torsions:
REMARK  status: ('A' for Active; 'I' for Inactive)
REMARK    1  A    between atoms: C2_2  and  C3_3 
REMARK    2  A    between atoms: C4_4  and  C5_5 
REMARK    3  A    between atoms: C5_5  and  N1_6 
REMARK    4  A    between atoms: N1_6  and  C7_8 
REMARK    5  A    between atoms: C7_8  and  C8_9 
REMARK    6  A    between atoms: C8_9  and  N2_10 
REMARK    7  A    between atoms: N2_10  and  C10_12 
REMARK    8  A    between atoms: C10_12  and  C11_13 
REMARK    9  A    between atoms: C11_13  and  O1_14 
REMARK   10  A    between atoms: C13_23  and  N6_24 
REMARK   11  A    between atoms: C14_29  and  N8_30 
ROOT
HETATM    1  C3  UNL     1      14.345  38.028 -13.398  1.00  0.00    -0.015 A 
HETATM    2  C4  UNL     1      13.930  37.508 -12.151  1.00  0.00     0.061 A 
HETATM    3  N3  UNL     1      13.372  36.290 -12.039  1.00  0.00    -0.301 N 
ATOM      4  H3  UNL     1      13.090  35.957 -11.118  1.00  0.00     0.186 HD
HETATM    5  N4  UNL     1      13.181  35.521 -13.078  1.00  0.00    -0.284 N 
ATOM      6  H4  UNL     1      12.755  34.604 -12.952  1.00  0.00     0.188 HD
HETATM    7  C12 UNL     1      13.539  35.921 -14.307  1.00  0.00     0.150 A 
HETATM    8  N5  UNL     1      13.346  35.135 -15.386  1.00  0.00    -0.175 N 
ATOM      9  H5  UNL     1      12.918  34.220 -15.250  1.00  0.00     0.186 HD
HETATM   10  C13 UNL     1      13.690  35.502 -16.626  1.00  0.00     0.679 A 
HETATM   11  N7  UNL     1      14.256  36.696 -16.829  1.00  0.00    -0.176 N 
ATOM     12  H7  UNL     1      14.526  36.985 -17.769  1.00  0.00     0.186 HD
HETATM   13  C14 UNL     1      14.471  37.529 -15.760  1.00  0.00     0.129 A 
HETATM   14  C15 UNL     1      14.129  37.188 -14.476  1.00  0.00     0.062 A 
ENDROOT
BRANCH   2  15
HETATM   15  C5  UNL     1      14.156  38.396 -10.992  1.00  0.00     0.330 C 
BRANCH  15  16
HETATM   16  N1  UNL     1      13.349  38.029  -9.815  1.00  0.00     0.091 N 
HETATM   17  C6  UNL     1      14.338  37.273  -9.003  1.00  0.00     0.310 C 
BRANCH  16  18
HETATM   18  C7  UNL     1      12.898  39.165  -9.068  1.00  0.00     0.302 C 
BRANCH  18  19
HETATM   19  C8  UNL     1      12.548  38.999  -7.647  1.00  0.00     0.302 C 
BRANCH  19  20
HETATM   20  N2  UNL     1      12.307  40.209  -6.885  1.00  0.00     0.087 N 
HETATM   21  C9  UNL     1      11.942  41.310  -7.788  1.00  0.00     0.310 C 
BRANCH  20  22
HETATM   22  C10 UNL     1      11.167  39.988  -5.970  1.00  0.00     0.297 C 
BRANCH  22  23
HETATM   23  C11 UNL     1      11.045  38.551  -5.598  1.00  0.00     0.194 C 
BRANCH  23  24
HETATM   24  O1  UNL     1       9.720  38.093  -5.660  1.00  0.00    -0.399 OA
ATOM     25  H1  UNL     1       9.326  38.007  -4.800  1.00  0.00     0.209 HD
ENDBRANCH  23  24
ENDBRANCH  22  23
ENDBRANCH  20  22
ENDBRANCH  19  20
ENDBRANCH  18  19
ENDBRANCH  16  18
ENDBRANCH  15  16
ENDBRANCH   2  15
BRANCH   1  26
HETATM   26  C2  UNL     1      14.967  39.320 -13.559  1.00  0.00     0.037 C 
HETATM   27  C1  UNL     1      14.064  40.527 -13.507  1.00  0.00     0.010 C 
ENDBRANCH   1  26
BRANCH  13  28
HETATM   28  N8  UNL     1      15.029  38.649 -15.998  1.00  0.00    -0.384 N 
ATOM     29  H82 UNL     1      14.687  39.498 -15.548  1.00  0.00     0.157 HD
ATOM     30  H81 UNL     1      15.824  38.647 -16.637  1.00  0.00     0.157 HD
ENDBRANCH  13  28
BRANCH  10  31
HETATM   31  N6  UNL     1      13.467  34.688 -17.612  1.00  0.00    -0.234 N 
ATOM     32  H62 UNL     1      13.564  33.679 -17.497  1.00  0.00     0.174 HD
ATOM     33  H61 UNL     1      13.190  35.067 -18.518  1.00  0.00     0.174 HD
ENDBRANCH  10  31
TORSDOF 11
ENDMDL
MODEL 5
REMARK VINA RESULT: -6.330175141      2.371      6.246
REMARK  11 active torsions:
REMARK  status: ('A' for Active; 'I' for Inactive)
REMARK    1  A    between atoms: C2_2  and  C3_3 
REMARK    2  A    between atoms: C4_4  and  C5_5 
REMARK    3  A    between atoms: C5_5  and  N1_6 
REMARK    4  A    between atoms: N1_6  and  C7_8 
REMARK    5  A    between atoms: C7_8  and  C8_9 
REMARK    6  A    between atoms: C8_9  and  N2_10 
REMARK    7  A    between atoms: N2_10  and  C10_12 
REMARK    8  A    between atoms: C10_12  and  C11_13 
REMARK    9  A    between atoms: C11_13  and  O1_14 
REMARK   10  A    between atoms: C13_23  and  N6_24 
REMARK   11  A    between atoms: C14_29  and  N8_30 
ROOT
HETATM    1  C3  UNL     1      14.695  39.949 -11.870  1.00  0.00    -0.015 A 
HETATM    2  C4  UNL     1      15.012  40.341 -10.550  1.00  0.00     0.061 A 
HETATM    3  N3  UNL     1      15.051  39.459  -9.537  1.00  0.00    -0.301 N 
ATOM      4  H3  UNL     1      15.286  39.789  -8.601  1.00  0.00     0.186 HD
HETATM    5  N4  UNL     1      14.798  38.190  -9.717  1.00  0.00    -0.284 N 
ATOM      6  H4  UNL     1      14.838  37.551  -8.923  1.00  0.00     0.188 HD
HETATM    7  C12 UNL     1      14.486  37.715 -10.932  1.00  0.00     0.150 A 
HETATM    8  N5  UNL     1      14.222  36.408 -11.130  1.00  0.00    -0.175 N 
ATOM      9  H5  UNL     1      14.263  35.777 -10.329  1.00  0.00     0.186 HD
HETATM   10  C13 UNL     1      13.907  35.900 -12.328  1.00  0.00     0.679 A 
HETATM   11  N7  UNL     1      13.849  36.705 -13.392  1.00  0.00    -0.176 N 
ATOM     12  H7  UNL     1      13.614  36.329 -14.310  1.00  0.00     0.186 HD
HETATM   13  C14 UNL     1      14.110  38.044 -13.238  1.00  0.00     0.129 A 
HETATM   14  C15 UNL     1      14.433  38.599 -12.027  1.00  0.00     0.062 A 
ENDROOT
BRANCH   2  15
HETATM   15  C5  UNL     1      15.295  41.780 -10.371  1.00  0.00     0.330 C 
BRANCH  15  16
HETATM   16  N1  UNL     1      15.210  42.217  -8.966  1.00  0.00     0.091 N 
HETATM   17  C6  UNL     1      16.225  43.302  -8.932  1.00  0.00     0.310 C 
BRANCH  16  18
HETATM   18  C7  UNL     1      13.929  42.761  -8.625  1.00  0.00     0.302 C 
BRANCH  18  19
HETATM   19  C8  UNL     1      13.253  42.299  -7.400  1.00  0.00     0.302 C 
BRANCH  19  20
HETATM   20  N2  UNL     1      12.045  41.517  -7.572  1.00  0.00     0.087 N 
HETATM   21  C9  UNL     1      11.460  41.777  -8.897  1.00  0.00     0.310 C 
BRANCH  20  22
HETATM   22  C10 UNL     1      12.383  40.079  -7.511  1.00  0.00     0.297 C 
BRANCH  22  23
HETATM   23  C11 UNL     1      11.442  39.342  -6.622  1.00  0.00     0.194 C 
BRANCH  23  24
HETATM   24  O1  UNL     1      10.720  38.354  -7.309  1.00  0.00    -0.399 OA
ATOM     25  H1  UNL     1       9.878  38.176  -6.907  1.00  0.00     0.209 HD
ENDBRANCH  23  24
ENDBRANCH  22  23
ENDBRANCH  20  22
ENDBRANCH  19  20
ENDBRANCH  18  19
ENDBRANCH  16  18
ENDBRANCH  15  16
ENDBRANCH   2  15
BRANCH   1  26
HETATM   26  C2  UNL     1      14.663  40.860 -12.989  1.00  0.00     0.037 C 
HETATM   27  C1  UNL     1      13.517  41.839 -13.043  1.00  0.00     0.010 C 
ENDBRANCH   1  26
BRANCH  13  28
HETATM   28  N8  UNL     1      14.061  38.770 -14.283  1.00  0.00    -0.384 N 
ATOM     29  H82 UNL     1      14.917  39.157 -14.680  1.00  0.00     0.157 HD
ATOM     30  H81 UNL     1      13.142  38.928 -14.698  1.00  0.00     0.157 HD
ENDBRANCH  13  28
BRANCH  10  31
HETATM   31  N6  UNL     1      13.663  34.629 -12.432  1.00  0.00    -0.234 N 
ATOM     32  H62 UNL     1      13.632  34.028 -11.609  1.00  0.00     0.174 HD
ATOM     33  H61 UNL     1      13.500  34.228 -13.356  1.00  0.00     0.174 HD
ENDBRANCH  10  31
TORSDOF 11
ENDMDL
