MODEL 1
REMARK VINA RESULT: -6.909365317      0.000      0.000
REMARK  13 active torsions:
REMARK  status: ('A' for Active; 'I' for Inactive)
REMARK    1  A    between atoms: O1_1  and  C1_3 
REMARK    2  A    between atoms: C5_7  and  C6_8 
REMARK    3  A    between atoms: C6_8  and  C7_9 
REMARK    4  A    between atoms: C7_9  and  C8_10 
REMARK    5  A    between atoms: C8_10  and  C9_11 
REMARK    6  A    between atoms: C9_11  and  O2_12 
REMARK    7  A    between atoms: O2_12  and  C10_13 
REMARK    8  A    between atoms: C10_13  and  C11_14 
REMARK    9  A    between atoms: C12_15  and  O3_16 
REMARK   10  A    between atoms: C13_18  and  O4_19 
REMARK   11  A    between atoms: C14_21  and  O5_22 
REMARK   12  A    between atoms: C15_24  and  O6_25 
REMARK   13  A    between atoms: C16_27  and  O7_28 
ROOT
HETATM    1  C11 UNL     1      14.561  37.161 -14.619  1.00  0.00     0.072 C 
HETATM    2  C12 UNL     1      13.525  36.465 -13.835  1.00  0.00     0.158 C 
HETATM    3  C13 UNL     1      13.842  35.932 -12.509  1.00  0.00     0.178 C 
HETATM    4  C14 UNL     1      15.276  35.975 -12.089  1.00  0.00     0.180 C 
HETATM    5  C15 UNL     1      16.035  37.135 -12.687  1.00  0.00     0.178 C 
HETATM    6  C16 UNL     1      15.980  36.995 -14.168  1.00  0.00     0.158 C 
ENDROOT
BRANCH   1   7
HETATM    7  C10 UNL     1      14.294  38.660 -14.689  1.00  0.00     0.177 C 
BRANCH   7   8
HETATM    8  O2  UNL     1      13.727  39.187 -13.570  1.00  0.00    -0.391 OA
BRANCH   8   9
HETATM    9  C9  UNL     1      14.372  40.290 -13.112  1.00  0.00     0.167 C 
BRANCH   9  10
HETATM   10  C8  UNL     1      14.414  40.365 -11.613  1.00  0.00     0.026 C 
BRANCH  10  11
HETATM   11  C7  UNL     1      13.630  39.192 -11.021  1.00  0.00     0.002 C 
BRANCH  11  12
HETATM   12  C6  UNL     1      13.862  39.241  -9.528  1.00  0.00     0.007 C 
BRANCH  12  13
HETATM   13  C5  UNL     1      12.741  39.880  -8.771  1.00  0.00     0.014 C 
HETATM   14  C1  UNL     1      12.329  39.143  -7.540  1.00  0.00     0.122 C 
HETATM   15  C2  UNL     1      11.679  40.198  -6.651  1.00  0.00     0.032 C 
HETATM   16  C3  UNL     1      11.965  41.532  -7.299  1.00  0.00     0.003 C 
HETATM   17  C4  UNL     1      13.147  41.239  -8.197  1.00  0.00     0.007 C 
BRANCH  14  18
HETATM   18  O1  UNL     1      11.424  38.133  -7.861  1.00  0.00    -0.395 OA
ATOM     19  H1  UNL     1      11.232  38.132  -8.791  1.00  0.00     0.210 HD
ENDBRANCH  14  18
ENDBRANCH  12  13
ENDBRANCH  11  12
ENDBRANCH  10  11
ENDBRANCH   9  10
ENDBRANCH   8   9
ENDBRANCH   7   8
ENDBRANCH   1   7
BRANCH   2  20
HETATM   20  O3  UNL     1      13.037  35.390 -14.622  1.00  0.00    -0.392 OA
ATOM     21  H3  UNL     1      12.913  34.643 -14.047  1.00  0.00     0.210 HD
ENDBRANCH   2  20
BRANCH   6  22
HETATM   22  O7  UNL     1      16.568  35.832 -14.639  1.00  0.00    -0.392 OA
ATOM     23  H7  UNL     1      17.055  35.365 -13.972  1.00  0.00     0.210 HD
ENDBRANCH   6  22
BRANCH   3  24
HETATM   24  O4  UNL     1      13.409  34.597 -12.346  1.00  0.00    -0.390 OA
ATOM     25  H4  UNL     1      12.494  34.539 -12.098  1.00  0.00     0.210 HD
ENDBRANCH   3  24
BRANCH   5  26
HETATM   26  O6  UNL     1      17.380  36.948 -12.280  1.00  0.00    -0.390 OA
ATOM     27  H6  UNL     1      17.774  36.415 -12.961  1.00  0.00     0.210 HD
ENDBRANCH   5  26
BRANCH   4  28
HETATM   28  O5  UNL     1      15.439  36.047 -10.706  1.00  0.00    -0.390 OA
ATOM     29  H5  UNL     1      15.583  36.932 -10.393  1.00  0.00     0.210 HD
ENDBRANCH   4  28
TORSDOF 13
ENDMDL
MODEL 2
REMARK VINA RESULT: -6.893105661      1.986      3.880
REMARK  13 active torsions:
REMARK  status: ('A' for Active; 'I' for Inactive)
REMARK    1  A    between atoms: O1_1  and  C1_3 
REMARK    2  A    between atoms: C5_7  and  C6_8 
REMARK    3  A    between atoms: C6_8  and  C7_9 
REMARK    4  A    between atoms: C7_9  and  C8_10 
REMARK    5  A    between atoms: C8_10  and  C9_11 
REMARK    6  A    between atoms: C9_11  and  O2_12 
REMARK    7  A    between atoms: O2_12  and  C10_13 
REMARK    8  A    between atoms: C10_13  and  C11_14 
REMARK    9  A    between atoms: C12_15  and  O3_16 
REMARK   10  A    between atoms: C13_18  and  O4_19 
REMARK   11  A    between atoms: C14_21  and  O5_22 
REMARK   12  A    between atoms: C15_24  and  O6_25 
REMARK   13  A    between atoms: C16_27  and  O7_28 
ROOT
HETATM    1  C11 UNL     1      14.429  37.524 -11.575  1.00  0.00     0.072 C 
HETATM    2  C12 UNL     1      14.513  38.087 -12.934  1.00  0.00     0.158 C 
HETATM    3  C13 UNL     1      14.108  37.284 -14.089  1.00  0.00     0.178 C 
HETATM    4  C14 UNL     1      13.787  35.847 -13.833  1.00  0.00     0.180 C 
HETATM    5  C15 UNL     1      13.228  35.601 -12.452  1.00  0.00     0.178 C 
HETATM    6  C16 UNL     1      14.253  36.040 -11.466  1.00  0.00     0.158 C 
ENDROOT
BRANCH   1   7
HETATM    7  C10 UNL     1      13.299  38.161 -10.776  1.00  0.00     0.177 C 
BRANCH   7   8
HETATM    8  O2  UNL     1      13.012  37.535  -9.602  1.00  0.00    -0.391 OA
BRANCH   8   9
HETATM    9  C9  UNL     1      13.437  38.223  -8.512  1.00  0.00     0.167 C 
BRANCH   9  10
HETATM   10  C8  UNL     1      12.309  38.697  -7.643  1.00  0.00     0.026 C 
BRANCH  10  11
HETATM   11  C7  UNL     1      12.521  40.171  -7.289  1.00  0.00     0.002 C 
BRANCH  11  12
HETATM   12  C6  UNL     1      12.380  40.939  -8.582  1.00  0.00     0.007 C 
BRANCH  12  13
HETATM   13  C5  UNL     1      13.332  42.087  -8.701  1.00  0.00     0.014 C 
HETATM   14  C1  UNL     1      13.670  42.745  -7.403  1.00  0.00     0.122 C 
HETATM   15  C2  UNL     1      15.024  43.406  -7.641  1.00  0.00     0.032 C 
HETATM   16  C3  UNL     1      15.516  42.896  -8.975  1.00  0.00     0.003 C 
HETATM   17  C4  UNL     1      14.710  41.632  -9.185  1.00  0.00     0.007 C 
BRANCH  14  18
HETATM   18  O1  UNL     1      12.702  43.692  -7.075  1.00  0.00    -0.395 OA
ATOM     19  H1  UNL     1      12.792  44.471  -7.612  1.00  0.00     0.210 HD
ENDBRANCH  14  18
ENDBRANCH  12  13
ENDBRANCH  11  12
ENDBRANCH  10  11
ENDBRANCH   9  10
ENDBRANCH   8   9
ENDBRANCH   7   8
ENDBRANCH   1   7
BRANCH   2  20
HETATM   20  O3  UNL     1      15.855  38.498 -13.149  1.00  0.00    -0.392 OA
ATOM     21  H3  UNL     1      15.835  39.275 -13.697  1.00  0.00     0.210 HD
ENDBRANCH   2  20
BRANCH   6  22
HETATM   22  O7  UNL     1      15.447  35.342 -11.556  1.00  0.00    -0.392 OA
ATOM     23  H7  UNL     1      15.358  34.422 -11.340  1.00  0.00     0.210 HD
ENDBRANCH   6  22
BRANCH   3  24
HETATM   24  O4  UNL     1      15.066  37.309 -15.127  1.00  0.00    -0.390 OA
ATOM     25  H4  UNL     1      15.627  36.542 -15.124  1.00  0.00     0.210 HD
ENDBRANCH   3  24
BRANCH   5  26
HETATM   26  O6  UNL     1      13.097  34.193 -12.350  1.00  0.00    -0.390 OA
ATOM     27  H6  UNL     1      13.639  33.842 -13.047  1.00  0.00     0.210 HD
ENDBRANCH   5  26
BRANCH   4  28
HETATM   28  O5  UNL     1      12.874  35.320 -14.745  1.00  0.00    -0.390 OA
ATOM     29  H5  UNL     1      12.466  34.517 -14.443  1.00  0.00     0.210 HD
ENDBRANCH   4  28
TORSDOF 13
ENDMDL
MODEL 3
REMARK VINA RESULT: -6.812141919      2.044      4.073
REMARK  13 active torsions:
REMARK  status: ('A' for Active; 'I' for Inactive)
REMARK    1  A    between atoms: O1_1  and  C1_3 
REMARK    2  A    between atoms: C5_7  and  C6_8 
REMARK    3  A    between atoms: C6_8  and  C7_9 
REMARK    4  A    between atoms: C7_9  and  C8_10 
REMARK    5  A    between atoms: C8_10  and  C9_11 
REMARK    6  A    between atoms: C9_11  and  O2_12 
REMARK    7  A    between atoms: O2_12  and  C10_13 
REMARK    8  A    between atoms: C10_13  and  C11_14 
REMARK    9  A    between atoms: C12_15  and  O3_16 
REMARK   10  A    between atoms: C13_18  and  O4_19 
REMARK   11  A    between atoms: C14_21  and  O5_22 
REMARK   12  A    between atoms: C15_24  and  O6_25 
REMARK   13  A    between atoms: C16_27  and  O7_28 
ROOT
HETATM    1  C11 UNL     1      14.375  37.390 -11.210  1.00  0.00     0.072 C 
HETATM    2  C12 UNL     1      14.386  38.155 -12.469  1.00  0.00     0.158 C 
HETATM    3  C13 UNL     1      13.967  37.518 -13.720  1.00  0.00     0.178 C 
HETATM    4  C14 UNL     1      13.710  36.046 -13.674  1.00  0.00     0.180 C 
HETATM    5  C15 UNL     1      13.213  35.571 -12.330  1.00  0.00     0.178 C 
HETATM    6  C16 UNL     1      14.259  35.899 -11.322  1.00  0.00     0.158 C 
ENDROOT
BRANCH   1   7
HETATM    7  C10 UNL     1      13.253  37.850 -10.287  1.00  0.00     0.177 C 
BRANCH   7   8
HETATM    8  O2  UNL     1      13.644  38.125  -9.013  1.00  0.00    -0.391 OA
BRANCH   8   9
HETATM    9  C9  UNL     1      12.644  38.621  -8.241  1.00  0.00     0.167 C 
BRANCH   9  10
HETATM   10  C8  UNL     1      12.916  40.014  -7.753  1.00  0.00     0.026 C 
BRANCH  10  11
HETATM   11  C7  UNL     1      12.113  41.014  -8.587  1.00  0.00     0.002 C 
BRANCH  11  12
HETATM   12  C6  UNL     1      13.048  41.513  -9.664  1.00  0.00     0.007 C 
BRANCH  12  13
HETATM   13  C5  UNL     1      14.416  41.847  -9.158  1.00  0.00     0.014 C 
HETATM   14  C1  UNL     1      15.524  41.481 -10.090  1.00  0.00     0.122 C 
HETATM   15  C2  UNL     1      16.676  42.407  -9.710  1.00  0.00     0.032 C 
HETATM   16  C3  UNL     1      16.103  43.423  -8.751  1.00  0.00     0.003 C 
HETATM   17  C4  UNL     1      14.615  43.357  -9.018  1.00  0.00     0.007 C 
BRANCH  14  18
HETATM   18  O1  UNL     1      15.879  40.145  -9.919  1.00  0.00    -0.395 OA
ATOM     19  H1  UNL     1      15.289  39.711  -9.314  1.00  0.00     0.210 HD
ENDBRANCH  14  18
ENDBRANCH  12  13
ENDBRANCH  11  12
ENDBRANCH  10  11
ENDBRANCH   9  10
ENDBRANCH   8   9
ENDBRANCH   7   8
ENDBRANCH   1   7
BRANCH   2  20
HETATM   20  O3  UNL     1      15.701  38.650 -12.662  1.00  0.00    -0.392 OA
ATOM     21  H3  UNL     1      15.724  39.545 -12.343  1.00  0.00     0.210 HD
ENDBRANCH   2  20
BRANCH   6  22
HETATM   22  O7  UNL     1      15.473  35.276 -11.556  1.00  0.00    -0.392 OA
ATOM     23  H7  UNL     1      15.430  34.623 -12.245  1.00  0.00     0.210 HD
ENDBRANCH   6  22
BRANCH   3  24
HETATM   24  O4  UNL     1      14.883  37.740 -14.772  1.00  0.00    -0.390 OA
ATOM     25  H4  UNL     1      14.869  37.045 -15.419  1.00  0.00     0.210 HD
ENDBRANCH   3  24
BRANCH   5  26
HETATM   26  O6  UNL     1      13.140  34.160 -12.439  1.00  0.00    -0.390 OA
ATOM     27  H6  UNL     1      12.214  33.966 -12.528  1.00  0.00     0.210 HD
ENDBRANCH   5  26
BRANCH   4  28
HETATM   28  O5  UNL     1      12.782  35.624 -14.627  1.00  0.00    -0.390 OA
ATOM     29  H5  UNL     1      11.885  35.827 -14.389  1.00  0.00     0.210 HD
ENDBRANCH   4  28
TORSDOF 13
ENDMDL
MODEL 4
REMARK VINA RESULT: -6.769829995      3.337      5.792
REMARK  13 active torsions:
REMARK  status: ('A' for Active; 'I' for Inactive)
REMARK    1  A    between atoms: O1_1  and  C1_3 
REMARK    2  A    between atoms: C5_7  and  C6_8 
REMARK    3  A    between atoms: C6_8  and  C7_9 
REMARK    4  A    between atoms: C7_9  and  C8_10 
REMARK    5  A    between atoms: C8_10  and  C9_11 
REMARK    6  A    between atoms: C9_11  and  O2_12 
REMARK    7  A    between atoms: O2_12  and  C10_13 
REMARK    8  A    between atoms: C10_13  and  C11_14 
REMARK    9  A    between atoms: C12_15  and  O3_16 
REMARK   10  A    between atoms: C13_18  and  O4_19 
REMARK   11  A    between atoms: C14_21  and  O5_22 
REMARK   12  A    between atoms: C15_24  and  O6_25 
REMARK   13  A    between atoms: C16_27  and  O7_28 
ROOT
HETATM    1  C11 UNL     1      14.069  38.748  -9.192  1.00  0.00     0.072 C 
HETATM    2  C12 UNL     1      14.616  39.744 -10.130  1.00  0.00     0.158 C 
HETATM    3  C13 UNL     1      14.655  39.458 -11.565  1.00  0.00     0.178 C 
HETATM    4  C14 UNL     1      14.286  38.073 -11.988  1.00  0.00     0.180 C 
HETATM    5  C15 UNL     1      13.282  37.420 -11.070  1.00  0.00     0.178 C 
HETATM    6  C16 UNL     1      13.888  37.353  -9.712  1.00  0.00     0.158 C 
ENDROOT
BRANCH   1   7
HETATM    7  C10 UNL     1      12.720  39.187  -8.636  1.00  0.00     0.177 C 
BRANCH   7   8
HETATM    8  O2  UNL     1      12.057  38.227  -7.935  1.00  0.00    -0.391 OA
BRANCH   8   9
HETATM    9  C9  UNL     1      12.086  38.428  -6.593  1.00  0.00     0.167 C 
BRANCH   9  10
HETATM   10  C8  UNL     1      11.479  39.737  -6.183  1.00  0.00     0.026 C 
BRANCH  10  11
HETATM   11  C7  UNL     1      10.340  39.485  -5.193  1.00  0.00     0.002 C 
BRANCH  11  12
HETATM   12  C6  UNL     1      10.845  38.439  -4.227  1.00  0.00     0.007 C 
BRANCH  12  13
HETATM   13  C5  UNL     1      10.231  38.537  -2.866  1.00  0.00     0.014 C 
HETATM   14  C1  UNL     1       9.951  37.220  -2.219  1.00  0.00     0.122 C 
HETATM   15  C2  UNL     1       9.933  37.516  -0.723  1.00  0.00     0.032 C 
HETATM   16  C3  UNL     1      10.444  38.928  -0.564  1.00  0.00     0.003 C 
HETATM   17  C4  UNL     1      11.187  39.179  -1.859  1.00  0.00     0.007 C 
BRANCH  14  18
HETATM   18  O1  UNL     1       8.721  36.725  -2.646  1.00  0.00    -0.395 OA
ATOM     19  H1  UNL     1       8.293  36.234  -1.954  1.00  0.00     0.210 HD
ENDBRANCH  14  18
ENDBRANCH  12  13
ENDBRANCH  11  12
ENDBRANCH  10  11
ENDBRANCH   9  10
ENDBRANCH   8   9
ENDBRANCH   7   8
ENDBRANCH   1   7
BRANCH   2  20
HETATM   20  O3  UNL     1      15.941  40.043  -9.718  1.00  0.00    -0.392 OA
ATOM     21  H3  UNL     1      16.431  40.307 -10.489  1.00  0.00     0.210 HD
ENDBRANCH   2  20
BRANCH   6  22
HETATM   22  O7  UNL     1      15.049  36.598  -9.657  1.00  0.00    -0.392 OA
ATOM     23  H7  UNL     1      14.891  35.689  -9.433  1.00  0.00     0.210 HD
ENDBRANCH   6  22
BRANCH   3  24
HETATM   24  O4  UNL     1      15.916  39.738 -12.138  1.00  0.00    -0.390 OA
ATOM     25  H4  UNL     1      15.858  39.943 -13.064  1.00  0.00     0.210 HD
ENDBRANCH   3  24
BRANCH   5  26
HETATM   26  O6  UNL     1      13.145  36.094 -11.552  1.00  0.00    -0.390 OA
ATOM     27  H6  UNL     1      13.487  36.115 -12.439  1.00  0.00     0.210 HD
ENDBRANCH   5  26
BRANCH   4  28
HETATM   28  O5  UNL     1      13.760  38.017 -13.278  1.00  0.00    -0.390 OA
ATOM     29  H5  UNL     1      14.087  38.706 -13.844  1.00  0.00     0.210 HD
ENDBRANCH   4  28
TORSDOF 13
ENDMDL
MODEL 5
REMARK VINA RESULT: -6.743367984      4.266      9.882
REMARK  13 active torsions:
REMARK  status: ('A' for Active; 'I' for Inactive)
REMARK    1  A    between atoms: O1_1  and  C1_3 
REMARK    2  A    between atoms: C5_7  and  C6_8 
REMARK    3  A    between atoms: C6_8  and  C7_9 
REMARK    4  A    between atoms: C7_9  and  C8_10 
REMARK    5  A    between atoms: C8_10  and  C9_11 
REMARK    6  A    between atoms: C9_11  and  O2_12 
REMARK    7  A    between atoms: O2_12  and  C10_13 
REMARK    8  A    between atoms: C10_13  and  C11_14 
REMARK    9  A    between atoms: C12_15  and  O3_16 
REMARK   10  A    between atoms: C13_18  and  O4_19 
REMARK   11  A    between atoms: C14_21  and  O5_22 
REMARK   12  A    between atoms: C15_24  and  O6_25 
REMARK   13  A    between atoms: C16_27  and  O7_28 
ROOT
HETATM    1  C11 UNL     1       9.492  38.451  -3.805  1.00  0.00     0.072 C 
HETATM    2  C12 UNL     1       8.883  39.791  -3.843  1.00  0.00     0.158 C 
HETATM    3  C13 UNL     1       8.981  40.677  -2.681  1.00  0.00     0.178 C 
HETATM    4  C14 UNL     1       9.559  40.091  -1.433  1.00  0.00     0.180 C 
HETATM    5  C15 UNL     1      10.575  39.008  -1.701  1.00  0.00     0.178 C 
HETATM    6  C16 UNL     1       9.891  37.924  -2.460  1.00  0.00     0.158 C 
ENDROOT
BRANCH   1   7
HETATM    7  C10 UNL     1      10.729  38.374  -4.692  1.00  0.00     0.177 C 
BRANCH   7   8
HETATM    8  O2  UNL     1      10.468  38.355  -6.027  1.00  0.00    -0.391 OA
BRANCH   8   9
HETATM    9  C9  UNL     1      11.342  39.096  -6.754  1.00  0.00     0.167 C 
BRANCH   9  10
HETATM   10  C8  UNL     1      12.557  38.322  -7.175  1.00  0.00     0.026 C 
BRANCH  10  11
HETATM   11  C7  UNL     1      12.868  38.617  -8.645  1.00  0.00     0.002 C 
BRANCH  11  12
HETATM   12  C6  UNL     1      13.879  37.581  -9.078  1.00  0.00     0.007 C 
BRANCH  12  13
HETATM   13  C5  UNL     1      14.270  37.695 -10.517  1.00  0.00     0.014 C 
HETATM   14  C1  UNL     1      13.578  36.729 -11.422  1.00  0.00     0.122 C 
HETATM   15  C2  UNL     1      13.627  37.382 -12.800  1.00  0.00     0.032 C 
HETATM   16  C3  UNL     1      14.120  38.792 -12.583  1.00  0.00     0.003 C 
HETATM   17  C4  UNL     1      13.847  39.038 -11.115  1.00  0.00     0.007 C 
BRANCH  14  18
HETATM   18  O1  UNL     1      14.244  35.506 -11.425  1.00  0.00    -0.395 OA
ATOM     19  H1  UNL     1      13.654  34.796 -11.203  1.00  0.00     0.210 HD
ENDBRANCH  14  18
ENDBRANCH  12  13
ENDBRANCH  11  12
ENDBRANCH  10  11
ENDBRANCH   9  10
ENDBRANCH   8   9
ENDBRANCH   7   8
ENDBRANCH   1   7
BRANCH   2  20
HETATM   20  O3  UNL     1       7.505  39.633  -4.143  1.00  0.00    -0.392 OA
ATOM     21  H3  UNL     1       7.215  40.416  -4.597  1.00  0.00     0.210 HD
ENDBRANCH   2  20
BRANCH   6  22
HETATM   22  O7  UNL     1       8.840  37.341  -1.770  1.00  0.00    -0.392 OA
ATOM     23  H7  UNL     1       8.745  36.414  -1.952  1.00  0.00     0.210 HD
ENDBRANCH   6  22
BRANCH   3  24
HETATM   24  O4  UNL     1       7.737  41.244  -2.327  1.00  0.00    -0.390 OA
ATOM     25  H4  UNL     1       7.827  42.111  -1.948  1.00  0.00     0.210 HD
ENDBRANCH   3  24
BRANCH   5  26
HETATM   26  O6  UNL     1      10.920  38.497  -0.425  1.00  0.00    -0.390 OA
ATOM     27  H6  UNL     1      11.211  37.606  -0.584  1.00  0.00     0.210 HD
ENDBRANCH   5  26
BRANCH   4  28
HETATM   28  O5  UNL     1      10.176  41.040  -0.619  1.00  0.00    -0.390 OA
ATOM     29  H5  UNL     1       9.565  41.504  -0.059  1.00  0.00     0.210 HD
ENDBRANCH   4  28
TORSDOF 13
ENDMDL
