MODEL 1
REMARK VINA RESULT: -6.830403889      0.000      0.000
REMARK  10 active torsions:
REMARK  status: ('A' for Active; 'I' for Inactive)
REMARK    1  A    between atoms: N1_1  and  C1_4 
REMARK    2  A    between atoms: N5_14  and  C5_16 
REMARK    3  A    between atoms: C5_16  and  C6_17 
REMARK    4  A    between atoms: C6_17  and  C7_18 
REMARK    5  A    between atoms: C7_18  and  N6_19 
REMARK    6  A    between atoms: N7_23  and  C8_24 
REMARK    7  A    between atoms: C8_24  and  C9_25 
REMARK    8  A    between atoms: C9_25  and  N8_26 
REMARK    9  A    between atoms: N8_26  and  C10_28 
REMARK   10  A    between atoms: C10_28  and  C11_29 
ROOT
HETATM    1  C1  UNL     1      12.526  38.494  -6.541  1.00  0.00     0.131 A 
HETATM    2  N2  UNL     1      11.850  38.030  -5.469  1.00  0.00    -0.337 N 
ATOM      3  H2  UNL     1      12.052  37.089  -5.133  1.00  0.00     0.168 HD
HETATM    4  C2  UNL     1      10.921  38.755  -4.826  1.00  0.00     0.183 A 
HETATM    5  N3  UNL     1      10.700  39.987  -5.320  1.00  0.00    -0.336 N 
ATOM      6  H3  UNL     1       9.999  40.568  -4.859  1.00  0.00     0.168 HD
HETATM    7  C3  UNL     1      11.336  40.494  -6.366  1.00  0.00     0.153 A 
HETATM    8  N4  UNL     1      11.260  41.662  -7.028  1.00  0.00    -0.174 N 
ATOM      9  H4  UNL     1      10.642  42.439  -6.796  1.00  0.00     0.186 HD
HETATM   10  C4  UNL     1      12.130  41.633  -8.037  1.00  0.00     0.682 A 
HETATM   11  N5  UNL     1      12.312  42.604  -8.898  1.00  0.00    -0.226 N 
ATOM     12  H5  UNL     1      12.999  42.511  -9.647  1.00  0.00     0.177 HD
HETATM   13  N7  UNL     1      12.809  40.429  -8.067  1.00  0.00    -0.171 N 
HETATM   14  C15 UNL     1      12.299  39.757  -7.039  1.00  0.00     0.140 A 
ENDROOT
BRANCH  13  15
HETATM   15  C8  UNL     1      13.784  40.132  -9.068  1.00  0.00     0.192 C 
BRANCH  15  16
HETATM   16  C9  UNL     1      13.338  39.241 -10.183  1.00  0.00     0.076 C 
BRANCH  16  17
HETATM   17  N8  UNL     1      14.135  38.286 -10.769  1.00  0.00    -0.399 N 
ATOM     18  H8  UNL     1      14.996  38.567 -11.240  1.00  0.00     0.158 HD
BRANCH  17  19
HETATM   19  C10 UNL     1      13.773  36.916 -10.726  1.00  0.00     0.151 C 
BRANCH  19  20
HETATM   20  C11 UNL     1      14.699  35.984 -11.476  1.00  0.00     0.203 C 
HETATM   21  C12 UNL     1      15.628  36.668 -12.424  1.00  0.00     0.036 C 
HETATM   22  C13 UNL     1      14.975  36.616 -13.780  1.00  0.00     0.029 C 
HETATM   23  C14 UNL     1      13.767  35.757 -13.586  1.00  0.00     0.233 C 
HETATM   24  N9  UNL     1      13.930  35.090 -12.311  1.00  0.00    -0.069 N 
ATOM     25  H92 UNL     1      14.340  34.160 -12.391  1.00  0.00     0.277 HD
ATOM     26  H91 UNL     1      13.047  34.804 -11.889  1.00  0.00     0.277 HD
ENDBRANCH  19  20
ENDBRANCH  17  19
ENDBRANCH  16  17
ENDBRANCH  15  16
ENDBRANCH  13  15
BRANCH  11  27
HETATM   27  C5  UNL     1      11.520  43.818  -8.766  1.00  0.00     0.139 C 
BRANCH  27  28
HETATM   28  C6  UNL     1      10.745  44.101 -10.038  1.00  0.00     0.047 C 
BRANCH  28  29
HETATM   29  C7  UNL     1       9.263  44.073  -9.779  1.00  0.00     0.231 C 
BRANCH  29  30
HETATM   30  N6  UNL     1       8.606  43.133 -10.667  1.00  0.00    -0.079 N 
ATOM     31  H63 UNL     1       8.830  43.316 -11.644  1.00  0.00     0.274 HD
ATOM     32  H62 UNL     1       9.007  42.197 -10.590  1.00  0.00     0.274 HD
ATOM     33  H61 UNL     1       7.599  43.127 -10.503  1.00  0.00     0.274 HD
ENDBRANCH  29  30
ENDBRANCH  28  29
ENDBRANCH  27  28
ENDBRANCH  11  27
BRANCH   1  34
HETATM   34  N1  UNL     1      13.360  37.752  -7.138  1.00  0.00    -0.383 N 
ATOM     35  H12 UNL     1      14.287  37.636  -6.730  1.00  0.00     0.157 HD
ATOM     36  H11 UNL     1      13.111  37.312  -8.024  1.00  0.00     0.157 HD
ENDBRANCH   1  34
TORSDOF 10
ENDMDL
MODEL 2
REMARK VINA RESULT: -6.768756718      2.535      6.097
REMARK  10 active torsions:
REMARK  status: ('A' for Active; 'I' for Inactive)
REMARK    1  A    between atoms: N1_1  and  C1_4 
REMARK    2  A    between atoms: N5_14  and  C5_16 
REMARK    3  A    between atoms: C5_16  and  C6_17 
REMARK    4  A    between atoms: C6_17  and  C7_18 
REMARK    5  A    between atoms: C7_18  and  N6_19 
REMARK    6  A    between atoms: N7_23  and  C8_24 
REMARK    7  A    between atoms: C8_24  and  C9_25 
REMARK    8  A    between atoms: C9_25  and  N8_26 
REMARK    9  A    between atoms: N8_26  and  C10_28 
REMARK   10  A    between atoms: C10_28  and  C11_29 
ROOT
HETATM    1  C1  UNL     1      11.077  40.414  -5.992  1.00  0.00     0.131 A 
HETATM    2  N2  UNL     1      10.751  39.848  -4.810  1.00  0.00    -0.337 N 
ATOM      3  H2  UNL     1      10.206  40.392  -4.141  1.00  0.00     0.168 HD
HETATM    4  C2  UNL     1      11.112  38.599  -4.479  1.00  0.00     0.183 A 
HETATM    5  N3  UNL     1      11.830  37.936  -5.405  1.00  0.00    -0.336 N 
ATOM      6  H3  UNL     1      12.126  36.984  -5.188  1.00  0.00     0.168 HD
HETATM    7  C3  UNL     1      12.177  38.442  -6.579  1.00  0.00     0.153 A 
HETATM    8  N4  UNL     1      12.892  37.979  -7.620  1.00  0.00    -0.174 N 
ATOM      9  H4  UNL     1      13.319  37.055  -7.685  1.00  0.00     0.186 HD
HETATM   10  C4  UNL     1      12.947  38.932  -8.551  1.00  0.00     0.682 A 
HETATM   11  N5  UNL     1      13.577  38.825  -9.695  1.00  0.00    -0.226 N 
ATOM     12  H5  UNL     1      13.577  39.598 -10.361  1.00  0.00     0.177 HD
HETATM   13  N7  UNL     1      12.262  40.060  -8.142  1.00  0.00    -0.171 N 
HETATM   14  C15 UNL     1      11.808  39.730  -6.936  1.00  0.00     0.140 A 
ENDROOT
BRANCH  13  15
HETATM   15  C8  UNL     1      12.188  41.237  -8.948  1.00  0.00     0.192 C 
BRANCH  15  16
HETATM   16  C9  UNL     1      13.223  42.284  -8.689  1.00  0.00     0.076 C 
BRANCH  16  17
HETATM   17  N8  UNL     1      13.477  43.340  -9.532  1.00  0.00    -0.399 N 
ATOM     18  H8  UNL     1      12.701  43.897  -9.891  1.00  0.00     0.158 HD
BRANCH  17  19
HETATM   19  C10 UNL     1      14.805  43.663  -9.906  1.00  0.00     0.151 C 
BRANCH  19  20
HETATM   20  C11 UNL     1      15.881  43.115  -8.995  1.00  0.00     0.203 C 
HETATM   21  C12 UNL     1      16.381  44.087  -7.978  1.00  0.00     0.036 C 
HETATM   22  C13 UNL     1      17.621  44.717  -8.557  1.00  0.00     0.029 C 
HETATM   23  C14 UNL     1      17.876  43.959  -9.820  1.00  0.00     0.233 C 
HETATM   24  N9  UNL     1      17.052  42.769  -9.766  1.00  0.00    -0.069 N 
ATOM     25  H92 UNL     1      17.545  41.952  -9.405  1.00  0.00     0.277 HD
ATOM     26  H91 UNL     1      16.832  42.388 -10.685  1.00  0.00     0.277 HD
ENDBRANCH  19  20
ENDBRANCH  17  19
ENDBRANCH  16  17
ENDBRANCH  15  16
ENDBRANCH  13  15
BRANCH  11  27
HETATM   27  C5  UNL     1      14.277  37.585 -10.000  1.00  0.00     0.139 C 
BRANCH  27  28
HETATM   28  C6  UNL     1      13.593  36.841 -11.131  1.00  0.00     0.047 C 
BRANCH  28  29
HETATM   29  C7  UNL     1      14.511  35.803 -11.719  1.00  0.00     0.231 C 
BRANCH  29  30
HETATM   30  N6  UNL     1      13.756  34.823 -12.476  1.00  0.00    -0.079 N 
ATOM     31  H63 UNL     1      13.891  33.879 -12.114  1.00  0.00     0.274 HD
ATOM     32  H62 UNL     1      12.753  34.908 -12.311  1.00  0.00     0.274 HD
ATOM     33  H61 UNL     1      13.983  34.884 -13.469  1.00  0.00     0.274 HD
ENDBRANCH  29  30
ENDBRANCH  28  29
ENDBRANCH  27  28
ENDBRANCH  11  27
BRANCH   1  34
HETATM   34  N1  UNL     1      10.749  41.613  -6.235  1.00  0.00    -0.383 N 
ATOM     35  H12 UNL     1      10.797  41.943  -7.198  1.00  0.00     0.157 HD
ATOM     36  H11 UNL     1      10.479  42.235  -5.473  1.00  0.00     0.157 HD
ENDBRANCH   1  34
TORSDOF 10
ENDMDL
MODEL 3
REMARK VINA RESULT: -6.746174187      2.060      7.482
REMARK  10 active torsions:
REMARK  status: ('A' for Active; 'I' for Inactive)
REMARK    1  A    between atoms: N1_1  and  C1_4 
REMARK    2  A    between atoms: N5_14  and  C5_16 
REMARK    3  A    between atoms: C5_16  and  C6_17 
REMARK    4  A    between atoms: C6_17  and  C7_18 
REMARK    5  A    between atoms: C7_18  and  N6_19 
REMARK    6  A    between atoms: N7_23  and  C8_24 
REMARK    7  A    between atoms: C8_24  and  C9_25 
REMARK    8  A    between atoms: C9_25  and  N8_26 
REMARK    9  A    between atoms: N8_26  and  C10_28 
REMARK   10  A    between atoms: C10_28  and  C11_29 
ROOT
HETATM    1  C1  UNL     1      12.484  41.946  -7.652  1.00  0.00     0.131 A 
HETATM    2  N2  UNL     1      12.957  43.182  -7.922  1.00  0.00    -0.337 N 
ATOM      3  H2  UNL     1      12.608  43.968  -7.374  1.00  0.00     0.168 HD
HETATM    4  C2  UNL     1      13.865  43.419  -8.880  1.00  0.00     0.183 A 
HETATM    5  N3  UNL     1      14.283  42.340  -9.566  1.00  0.00    -0.336 N 
ATOM      6  H3  UNL     1      14.972  42.481 -10.305  1.00  0.00     0.168 HD
HETATM    7  C3  UNL     1      13.855  41.106  -9.344  1.00  0.00     0.153 A 
HETATM    8  N4  UNL     1      14.112  39.913  -9.909  1.00  0.00    -0.174 N 
ATOM      9  H4  UNL     1      14.761  39.745 -10.678  1.00  0.00     0.186 HD
HETATM   10  C4  UNL     1      13.375  38.987  -9.295  1.00  0.00     0.682 A 
HETATM   11  N5  UNL     1      13.367  37.713  -9.599  1.00  0.00    -0.226 N 
ATOM     12  H5  UNL     1      12.775  37.060  -9.084  1.00  0.00     0.177 HD
HETATM   13  N7  UNL     1      12.605  39.554  -8.297  1.00  0.00    -0.171 N 
HETATM   14  C15 UNL     1      12.917  40.845  -8.355  1.00  0.00     0.140 A 
ENDROOT
BRANCH  13  15
HETATM   15  C8  UNL     1      11.706  38.780  -7.500  1.00  0.00     0.192 C 
BRANCH  15  16
HETATM   16  C9  UNL     1      12.296  38.099  -6.307  1.00  0.00     0.076 C 
BRANCH  16  17
HETATM   17  N8  UNL     1      11.734  38.120  -5.053  1.00  0.00    -0.399 N 
ATOM     18  H8  UNL     1      12.162  37.582  -4.299  1.00  0.00     0.158 HD
BRANCH  17  19
HETATM   19  C10 UNL     1      10.566  38.881  -4.796  1.00  0.00     0.151 C 
BRANCH  19  20
HETATM   20  C11 UNL     1       9.667  38.331  -3.712  1.00  0.00     0.203 C 
HETATM   21  C12 UNL     1       8.780  39.348  -3.071  1.00  0.00     0.036 C 
HETATM   22  C13 UNL     1       9.487  39.812  -1.825  1.00  0.00     0.029 C 
HETATM   23  C14 UNL     1      10.682  38.921  -1.713  1.00  0.00     0.233 C 
HETATM   24  N9  UNL     1      10.464  37.815  -2.623  1.00  0.00    -0.069 N 
ATOM     25  H92 UNL     1      10.052  36.997  -2.174  1.00  0.00     0.277 HD
ATOM     26  H91 UNL     1      11.328  37.370  -2.931  1.00  0.00     0.277 HD
ENDBRANCH  19  20
ENDBRANCH  17  19
ENDBRANCH  16  17
ENDBRANCH  15  16
ENDBRANCH  13  15
BRANCH  11  27
HETATM   27  C5  UNL     1      14.215  37.244 -10.686  1.00  0.00     0.139 C 
BRANCH  27  28
HETATM   28  C6  UNL     1      13.386  36.871 -11.900  1.00  0.00     0.047 C 
BRANCH  28  29
HETATM   29  C7  UNL     1      13.763  35.504 -12.405  1.00  0.00     0.231 C 
BRANCH  29  30
HETATM   30  N6  UNL     1      14.171  35.567 -13.795  1.00  0.00    -0.079 N 
ATOM     31  H63 UNL     1      13.371  35.525 -14.426  1.00  0.00     0.274 HD
ATOM     32  H62 UNL     1      14.516  36.494 -14.046  1.00  0.00     0.274 HD
ATOM     33  H61 UNL     1      14.855  34.840 -14.002  1.00  0.00     0.274 HD
ENDBRANCH  29  30
ENDBRANCH  28  29
ENDBRANCH  27  28
ENDBRANCH  11  27
BRANCH   1  34
HETATM   34  N1  UNL     1      11.593  41.784  -6.768  1.00  0.00    -0.383 N 
ATOM     35  H12 UNL     1      11.844  41.294  -5.910  1.00  0.00     0.157 HD
ATOM     36  H11 UNL     1      10.640  42.109  -6.934  1.00  0.00     0.157 HD
ENDBRANCH   1  34
TORSDOF 10
ENDMDL
MODEL 4
REMARK VINA RESULT: -6.740691518      2.066      4.564
REMARK  10 active torsions:
REMARK  status: ('A' for Active; 'I' for Inactive)
REMARK    1  A    between atoms: N1_1  and  C1_4 
REMARK    2  A    between atoms: N5_14  and  C5_16 
REMARK    3  A    between atoms: C5_16  and  C6_17 
REMARK    4  A    between atoms: C6_17  and  C7_18 
REMARK    5  A    between atoms: C7_18  and  N6_19 
REMARK    6  A    between atoms: N7_23  and  C8_24 
REMARK    7  A    between atoms: C8_24  and  C9_25 
REMARK    8  A    between atoms: C9_25  and  N8_26 
REMARK    9  A    between atoms: N8_26  and  C10_28 
REMARK   10  A    between atoms: C10_28  and  C11_29 
ROOT
HETATM    1  C1  UNL     1      13.473  41.479  -9.312  1.00  0.00     0.131 A 
HETATM    2  N2  UNL     1      13.710  42.808  -9.319  1.00  0.00    -0.337 N 
ATOM      3  H2  UNL     1      14.120  43.227 -10.154  1.00  0.00     0.168 HD
HETATM    4  C2  UNL     1      13.430  43.601  -8.275  1.00  0.00     0.183 A 
HETATM    5  N3  UNL     1      12.892  42.987  -7.205  1.00  0.00    -0.336 N 
ATOM      6  H3  UNL     1      12.667  43.558  -6.389  1.00  0.00     0.168 HD
HETATM    7  C3  UNL     1      12.637  41.688  -7.144  1.00  0.00     0.153 A 
HETATM    8  N4  UNL     1      12.137  40.879  -6.193  1.00  0.00    -0.174 N 
ATOM      9  H4  UNL     1      11.826  41.171  -5.266  1.00  0.00     0.186 HD
HETATM   10  C4  UNL     1      12.116  39.633  -6.666  1.00  0.00     0.682 A 
HETATM   11  N5  UNL     1      11.701  38.585  -5.999  1.00  0.00    -0.226 N 
ATOM     12  H5  UNL     1      11.714  37.659  -6.428  1.00  0.00     0.177 HD
HETATM   13  N7  UNL     1      12.608  39.589  -7.957  1.00  0.00    -0.171 N 
HETATM   14  C15 UNL     1      12.920  40.856  -8.216  1.00  0.00     0.140 A 
ENDROOT
BRANCH  13  15
HETATM   15  C8  UNL     1      12.716  38.366  -8.688  1.00  0.00     0.192 C 
BRANCH  15  16
HETATM   16  C9  UNL     1      14.056  37.703  -8.675  1.00  0.00     0.076 C 
BRANCH  16  17
HETATM   17  N8  UNL     1      14.832  37.518  -9.794  1.00  0.00    -0.399 N 
ATOM     18  H8  UNL     1      15.592  38.170  -9.995  1.00  0.00     0.158 HD
BRANCH  17  19
HETATM   19  C10 UNL     1      14.590  36.432 -10.672  1.00  0.00     0.151 C 
BRANCH  19  20
HETATM   20  C11 UNL     1      13.416  36.612 -11.608  1.00  0.00     0.203 C 
HETATM   21  C12 UNL     1      13.305  35.566 -12.667  1.00  0.00     0.036 C 
HETATM   22  C13 UNL     1      13.977  36.123 -13.895  1.00  0.00     0.029 C 
HETATM   23  C14 UNL     1      14.303  37.537 -13.539  1.00  0.00     0.233 C 
HETATM   24  N9  UNL     1      13.553  37.850 -12.340  1.00  0.00    -0.069 N 
ATOM     25  H92 UNL     1      12.661  38.307 -12.530  1.00  0.00     0.277 HD
ATOM     26  H91 UNL     1      13.966  38.601 -11.789  1.00  0.00     0.277 HD
ENDBRANCH  19  20
ENDBRANCH  17  19
ENDBRANCH  16  17
ENDBRANCH  15  16
ENDBRANCH  13  15
BRANCH  11  27
HETATM   27  C5  UNL     1      11.220  38.764  -4.637  1.00  0.00     0.139 C 
BRANCH  27  28
HETATM   28  C6  UNL     1       9.737  38.458  -4.540  1.00  0.00     0.047 C 
BRANCH  28  29
HETATM   29  C7  UNL     1       9.346  38.155  -3.118  1.00  0.00     0.231 C 
BRANCH  29  30
HETATM   30  N6  UNL     1      10.371  37.365  -2.464  1.00  0.00    -0.079 N 
ATOM     31  H63 UNL     1      11.234  37.341  -3.006  1.00  0.00     0.274 HD
ATOM     32  H62 UNL     1      10.727  37.826  -1.627  1.00  0.00     0.274 HD
ATOM     33  H61 UNL     1      10.026  36.426  -2.261  1.00  0.00     0.274 HD
ENDBRANCH  29  30
ENDBRANCH  28  29
ENDBRANCH  27  28
ENDBRANCH  11  27
BRANCH   1  34
HETATM   34  N1  UNL     1      13.800  40.768 -10.308  1.00  0.00    -0.383 N 
ATOM     35  H12 UNL     1      14.762  40.439 -10.375  1.00  0.00     0.157 HD
ATOM     36  H11 UNL     1      13.118  40.566 -11.039  1.00  0.00     0.157 HD
ENDBRANCH   1  34
TORSDOF 10
ENDMDL
MODEL 5
REMARK VINA RESULT: -6.736539021      1.904      6.384
REMARK  10 active torsions:
REMARK  status: ('A' for Active; 'I' for Inactive)
REMARK    1  A    between atoms: N1_1  and  C1_4 
REMARK    2  A    between atoms: N5_14  and  C5_16 
REMARK    3  A    between atoms: C5_16  and  C6_17 
REMARK    4  A    between atoms: C6_17  and  C7_18 
REMARK    5  A    between atoms: C7_18  and  N6_19 
REMARK    6  A    between atoms: N7_23  and  C8_24 
REMARK    7  A    between atoms: C8_24  and  C9_25 
REMARK    8  A    between atoms: C9_25  and  N8_26 
REMARK    9  A    between atoms: N8_26  and  C10_28 
REMARK   10  A    between atoms: C10_28  and  C11_29 
ROOT
HETATM    1  C1  UNL     1      13.287  38.360  -7.893  1.00  0.00     0.131 A 
HETATM    2  N2  UNL     1      13.841  37.462  -8.735  1.00  0.00    -0.337 N 
ATOM      3  H2  UNL     1      14.102  36.546  -8.370  1.00  0.00     0.168 HD
HETATM    4  C2  UNL     1      14.064  37.723 -10.032  1.00  0.00     0.183 A 
HETATM    5  N3  UNL     1      13.698  38.948 -10.450  1.00  0.00    -0.336 N 
ATOM      6  H3  UNL     1      13.854  39.184 -11.431  1.00  0.00     0.168 HD
HETATM    7  C3  UNL     1      13.149  39.867  -9.670  1.00  0.00     0.153 A 
HETATM    8  N4  UNL     1      12.737  41.132  -9.865  1.00  0.00    -0.174 N 
ATOM      9  H4  UNL     1      12.773  41.641 -10.749  1.00  0.00     0.186 HD
HETATM   10  C4  UNL     1      12.275  41.609  -8.709  1.00  0.00     0.682 A 
HETATM   11  N5  UNL     1      11.804  42.819  -8.533  1.00  0.00    -0.226 N 
ATOM     12  H5  UNL     1      11.466  43.116  -7.617  1.00  0.00     0.177 HD
HETATM   13  N7  UNL     1      12.372  40.658  -7.711  1.00  0.00    -0.171 N 
HETATM   14  C15 UNL     1      12.911  39.611  -8.327  1.00  0.00     0.140 A 
ENDROOT
BRANCH  13  15
HETATM   15  C8  UNL     1      11.965  40.924  -6.367  1.00  0.00     0.192 C 
BRANCH  15  16
HETATM   16  C9  UNL     1      10.681  40.297  -5.928  1.00  0.00     0.076 C 
BRANCH  16  17
HETATM   17  N8  UNL     1      10.137  40.454  -4.675  1.00  0.00    -0.399 N 
ATOM     18  H8  UNL     1      10.204  41.358  -4.206  1.00  0.00     0.158 HD
BRANCH  17  19
HETATM   19  C10 UNL     1       9.484  39.375  -4.029  1.00  0.00     0.151 C 
BRANCH  19  20
HETATM   20  C11 UNL     1      10.404  38.321  -3.452  1.00  0.00     0.203 C 
HETATM   21  C12 UNL     1       9.755  37.413  -2.460  1.00  0.00     0.036 C 
HETATM   22  C13 UNL     1      10.053  37.981  -1.097  1.00  0.00     0.029 C 
HETATM   23  C14 UNL     1      11.003  39.106  -1.355  1.00  0.00     0.233 C 
HETATM   24  N9  UNL     1      11.475  38.949  -2.716  1.00  0.00    -0.069 N 
ATOM     25  H92 UNL     1      12.359  38.445  -2.780  1.00  0.00     0.277 HD
ATOM     26  H91 UNL     1      11.796  39.821  -3.135  1.00  0.00     0.277 HD
ENDBRANCH  19  20
ENDBRANCH  17  19
ENDBRANCH  16  17
ENDBRANCH  15  16
ENDBRANCH  13  15
BRANCH  11  27
HETATM   27  C5  UNL     1      11.771  43.733  -9.666  1.00  0.00     0.139 C 
BRANCH  27  28
HETATM   28  C6  UNL     1      10.609  44.701  -9.548  1.00  0.00     0.047 C 
BRANCH  28  29
HETATM   29  C7  UNL     1       9.329  43.967  -9.253  1.00  0.00     0.231 C 
BRANCH  29  30
HETATM   30  N6  UNL     1       8.791  43.374 -10.462  1.00  0.00    -0.079 N 
ATOM     31  H63 UNL     1       9.438  43.459 -11.246  1.00  0.00     0.274 HD
ATOM     32  H62 UNL     1       8.756  42.356 -10.402  1.00  0.00     0.274 HD
ATOM     33  H61 UNL     1       7.877  43.772 -10.682  1.00  0.00     0.274 HD
ENDBRANCH  29  30
ENDBRANCH  28  29
ENDBRANCH  27  28
ENDBRANCH  11  27
BRANCH   1  34
HETATM   34  N1  UNL     1      13.141  38.078  -6.668  1.00  0.00    -0.383 N 
ATOM     35  H12 UNL     1      13.975  37.980  -6.090  1.00  0.00     0.157 HD
ATOM     36  H11 UNL     1      12.209  37.921  -6.285  1.00  0.00     0.157 HD
ENDBRANCH   1  34
TORSDOF 10
ENDMDL
