MODEL 1
REMARK VINA RESULT: -6.853196318      0.000      0.000
REMARK  12 active torsions:
REMARK  status: ('A' for Active; 'I' for Inactive)
REMARK    1  A    between atoms: N1_1  and  C1_5 
REMARK    2  A    between atoms: C1_5  and  C2_6 
REMARK    3  A    between atoms: C2_6  and  C3_7 
REMARK    4  A    between atoms: C3_7  and  C4_8 
REMARK    5  A    between atoms: C7_11  and  C8_12 
REMARK    6  A    between atoms: C8_12  and  N2_13 
REMARK    7  A    between atoms: C9_17  and  O1_18 
REMARK    8  A    between atoms: C10_20  and  O2_21 
REMARK    9  A    between atoms: O2_21  and  C11_22 
REMARK   10  A    between atoms: C14_28  and  C15_29 
REMARK   11  A    between atoms: C15_29  and  O3_30 
REMARK   12  A    between atoms: O3_30  and  N4_31 
ROOT
HETATM    1  C4  UNL     1      14.442  39.712 -10.583  1.00  0.00     0.017 C 
HETATM    2  C5  UNL     1      15.044  39.182 -11.859  1.00  0.00     0.008 C 
HETATM    3  C6  UNL     1      14.045  38.216 -12.560  1.00  0.00     0.009 C 
HETATM    4  C7  UNL     1      13.347  37.336 -11.618  1.00  0.00     0.042 C 
HETATM    5  C9  UNL     1      13.692  37.368 -10.195  1.00  0.00     0.153 C 
HETATM    6  C10 UNL     1      13.853  38.783  -9.651  1.00  0.00     0.158 C 
ENDROOT
BRANCH   6   7
HETATM    7  O2  UNL     1      12.627  39.339  -9.236  1.00  0.00    -0.353 OA
BRANCH   7   8
HETATM    8  C11 UNL     1      12.565  39.523  -7.892  1.00  0.00     0.264 C 
HETATM    9  C12 UNL     1      12.748  40.957  -7.418  1.00  0.00     0.088 C 
HETATM   10  C13 UNL     1      11.557  41.581  -6.790  1.00  0.00     0.240 C 
HETATM   11  N3  UNL     1      10.856  40.682  -5.879  1.00  0.00    -0.046 N 
HETATM   12  C14 UNL     1      11.411  39.366  -6.029  1.00  0.00     0.349 C 
ATOM     13  H32 UNL     1      10.875  41.008  -4.913  1.00  0.00     0.280 HD
ATOM     14  H31 UNL     1       9.845  40.699  -6.012  1.00  0.00     0.280 HD
HETATM   15  O4  UNL     1      11.449  38.920  -7.318  1.00  0.00    -0.327 OA
BRANCH  12  16
HETATM   16  C15 UNL     1      10.550  38.438  -5.103  1.00  0.00     0.261 C 
BRANCH  16  17
HETATM   17  O3  UNL     1      10.583  39.300  -3.995  1.00  0.00    -0.283 OA
BRANCH  17  18
HETATM   18  N4  UNL     1      11.400  38.901  -2.999  1.00  0.00    -0.311 N 
ATOM     19  H42 UNL     1      12.203  38.295  -3.172  1.00  0.00     0.184 HD
ATOM     20  H41 UNL     1      11.147  39.254  -2.077  1.00  0.00     0.184 HD
ENDBRANCH  17  18
ENDBRANCH  16  17
ENDBRANCH  12  16
ENDBRANCH   7   8
ENDBRANCH   6   7
BRANCH   1  21
HETATM   21  C3  UNL     1      13.646  41.000 -10.869  1.00  0.00     0.009 C 
BRANCH  21  22
HETATM   22  C2  UNL     1      14.544  42.214 -10.720  1.00  0.00     0.028 C 
BRANCH  22  23
HETATM   23  C1  UNL     1      15.535  42.080  -9.619  1.00  0.00     0.229 C 
BRANCH  23  24
HETATM   24  N1  UNL     1      15.546  43.050  -8.589  1.00  0.00    -0.079 N 
ATOM     25  H13 UNL     1      15.698  43.969  -9.004  1.00  0.00     0.274 HD
ATOM     26  H12 UNL     1      14.600  43.152  -8.223  1.00  0.00     0.274 HD
ATOM     27  H11 UNL     1      16.191  42.930  -7.808  1.00  0.00     0.274 HD
ENDBRANCH  23  24
ENDBRANCH  22  23
ENDBRANCH  21  22
ENDBRANCH   1  21
BRANCH   5  28
HETATM   28  O1  UNL     1      14.791  36.619  -9.864  1.00  0.00    -0.393 OA
ATOM     29  H1  UNL     1      15.490  37.112  -9.449  1.00  0.00     0.210 HD
ENDBRANCH   5  28
BRANCH   4  30
HETATM   30  C8  UNL     1      13.324  35.897 -12.100  1.00  0.00     0.236 C 
BRANCH  30  31
HETATM   31  N2  UNL     1      14.504  35.533 -12.796  1.00  0.00    -0.079 N 
ATOM     32  H23 UNL     1      15.039  36.358 -13.067  1.00  0.00     0.274 HD
ATOM     33  H22 UNL     1      15.179  35.098 -12.168  1.00  0.00     0.274 HD
ATOM     34  H21 UNL     1      14.319  34.937 -13.603  1.00  0.00     0.274 HD
ENDBRANCH  30  31
ENDBRANCH   4  30
TORSDOF 12
ENDMDL
MODEL 2
REMARK VINA RESULT: -6.822034752      1.258      1.416
REMARK  12 active torsions:
REMARK  status: ('A' for Active; 'I' for Inactive)
REMARK    1  A    between atoms: N1_1  and  C1_5 
REMARK    2  A    between atoms: C1_5  and  C2_6 
REMARK    3  A    between atoms: C2_6  and  C3_7 
REMARK    4  A    between atoms: C3_7  and  C4_8 
REMARK    5  A    between atoms: C7_11  and  C8_12 
REMARK    6  A    between atoms: C8_12  and  N2_13 
REMARK    7  A    between atoms: C9_17  and  O1_18 
REMARK    8  A    between atoms: C10_20  and  O2_21 
REMARK    9  A    between atoms: O2_21  and  C11_22 
REMARK   10  A    between atoms: C14_28  and  C15_29 
REMARK   11  A    between atoms: C15_29  and  O3_30 
REMARK   12  A    between atoms: O3_30  and  N4_31 
ROOT
HETATM    1  C4  UNL     1      14.378  39.718 -10.604  1.00  0.00     0.017 C 
HETATM    2  C5  UNL     1      14.978  39.192 -11.882  1.00  0.00     0.008 C 
HETATM    3  C6  UNL     1      13.997  38.191 -12.561  1.00  0.00     0.009 C 
HETATM    4  C7  UNL     1      13.337  37.301 -11.601  1.00  0.00     0.042 C 
HETATM    5  C9  UNL     1      13.700  37.357 -10.183  1.00  0.00     0.153 C 
HETATM    6  C10 UNL     1      13.828  38.782  -9.654  1.00  0.00     0.158 C 
ENDROOT
BRANCH   6   7
HETATM    7  O2  UNL     1      12.592  39.307  -9.228  1.00  0.00    -0.353 OA
BRANCH   7   8
HETATM    8  C11 UNL     1      12.539  39.495  -7.884  1.00  0.00     0.264 C 
HETATM    9  C12 UNL     1      12.751  40.926  -7.414  1.00  0.00     0.088 C 
HETATM   10  C13 UNL     1      11.574  41.574  -6.782  1.00  0.00     0.240 C 
HETATM   11  N3  UNL     1      10.861  40.688  -5.866  1.00  0.00    -0.046 N 
HETATM   12  C14 UNL     1      11.391  39.363  -6.016  1.00  0.00     0.349 C 
ATOM     13  H32 UNL     1      10.890  41.015  -4.901  1.00  0.00     0.280 HD
ATOM     14  H31 UNL     1       9.850  40.723  -5.994  1.00  0.00     0.280 HD
HETATM   15  O4  UNL     1      11.415  38.914  -7.305  1.00  0.00    -0.327 OA
BRANCH  12  16
HETATM   16  C15 UNL     1      10.517  38.452  -5.084  1.00  0.00     0.261 C 
BRANCH  16  17
HETATM   17  O3  UNL     1      10.574  39.313  -3.978  1.00  0.00    -0.283 OA
BRANCH  17  18
HETATM   18  N4  UNL     1      11.396  38.902  -2.990  1.00  0.00    -0.311 N 
ATOM     19  H42 UNL     1      11.933  38.038  -3.061  1.00  0.00     0.184 HD
ATOM     20  H41 UNL     1      11.430  39.524  -2.182  1.00  0.00     0.184 HD
ENDBRANCH  17  18
ENDBRANCH  16  17
ENDBRANCH  12  16
ENDBRANCH   7   8
ENDBRANCH   6   7
BRANCH   1  21
HETATM   21  C3  UNL     1      13.542  40.980 -10.892  1.00  0.00     0.009 C 
BRANCH  21  22
HETATM   22  C2  UNL     1      14.224  41.832 -11.945  1.00  0.00     0.028 C 
BRANCH  22  23
HETATM   23  C1  UNL     1      13.296  42.312 -13.004  1.00  0.00     0.229 C 
BRANCH  23  24
HETATM   24  N1  UNL     1      12.153  43.053 -12.623  1.00  0.00    -0.079 N 
ATOM     25  H13 UNL     1      11.349  42.426 -12.592  1.00  0.00     0.274 HD
ATOM     26  H12 UNL     1      12.241  43.312 -11.641  1.00  0.00     0.274 HD
ATOM     27  H11 UNL     1      11.903  43.883 -13.162  1.00  0.00     0.274 HD
ENDBRANCH  23  24
ENDBRANCH  22  23
ENDBRANCH  21  22
ENDBRANCH   1  21
BRANCH   5  28
HETATM   28  O1  UNL     1      14.825  36.644  -9.859  1.00  0.00    -0.393 OA
ATOM     29  H1  UNL     1      15.576  37.179  -9.631  1.00  0.00     0.210 HD
ENDBRANCH   5  28
BRANCH   4  30
HETATM   30  C8  UNL     1      13.349  35.857 -12.068  1.00  0.00     0.236 C 
BRANCH  30  31
HETATM   31  N2  UNL     1      14.524  35.523 -12.788  1.00  0.00    -0.079 N 
ATOM     32  H23 UNL     1      15.286  35.287 -12.154  1.00  0.00     0.274 HD
ATOM     33  H22 UNL     1      14.419  34.627 -13.261  1.00  0.00     0.274 HD
ATOM     34  H21 UNL     1      14.805  36.253 -13.443  1.00  0.00     0.274 HD
ENDBRANCH  30  31
ENDBRANCH   4  30
TORSDOF 12
ENDMDL
MODEL 3
REMARK VINA RESULT: -6.016579016      2.830      6.158
REMARK  12 active torsions:
REMARK  status: ('A' for Active; 'I' for Inactive)
REMARK    1  A    between atoms: N1_1  and  C1_5 
REMARK    2  A    between atoms: C1_5  and  C2_6 
REMARK    3  A    between atoms: C2_6  and  C3_7 
REMARK    4  A    between atoms: C3_7  and  C4_8 
REMARK    5  A    between atoms: C7_11  and  C8_12 
REMARK    6  A    between atoms: C8_12  and  N2_13 
REMARK    7  A    between atoms: C9_17  and  O1_18 
REMARK    8  A    between atoms: C10_20  and  O2_21 
REMARK    9  A    between atoms: O2_21  and  C11_22 
REMARK   10  A    between atoms: C14_28  and  C15_29 
REMARK   11  A    between atoms: C15_29  and  O3_30 
REMARK   12  A    between atoms: O3_30  and  N4_31 
ROOT
HETATM    1  C4  UNL     1      13.381  39.077  -8.339  1.00  0.00     0.017 C 
HETATM    2  C5  UNL     1      13.264  38.131  -7.172  1.00  0.00     0.008 C 
HETATM    3  C6  UNL     1      11.817  38.166  -6.599  1.00  0.00     0.009 C 
HETATM    4  C7  UNL     1      11.257  39.520  -6.547  1.00  0.00     0.042 C 
HETATM    5  C9  UNL     1      12.084  40.668  -6.926  1.00  0.00     0.153 C 
HETATM    6  C10 UNL     1      12.895  40.428  -8.194  1.00  0.00     0.158 C 
ENDROOT
BRANCH   6   7
HETATM    7  O2  UNL     1      12.166  40.730  -9.361  1.00  0.00    -0.353 OA
BRANCH   7   8
HETATM    8  C11 UNL     1      12.356  42.007  -9.781  1.00  0.00     0.264 C 
HETATM    9  C12 UNL     1      13.333  42.179 -10.934  1.00  0.00     0.088 C 
HETATM   10  C13 UNL     1      12.742  42.657 -12.209  1.00  0.00     0.240 C 
HETATM   11  N3  UNL     1      11.768  43.727 -12.018  1.00  0.00    -0.046 N 
HETATM   12  C14 UNL     1      11.506  43.854 -10.613  1.00  0.00     0.349 C 
ATOM     13  H32 UNL     1      12.062  44.606 -12.443  1.00  0.00     0.280 HD
ATOM     14  H31 UNL     1      10.918  43.587 -12.565  1.00  0.00     0.280 HD
HETATM   15  O4  UNL     1      11.159  42.683 -10.002  1.00  0.00    -0.327 OA
BRANCH  12  16
HETATM   16  C15 UNL     1      10.384  44.944 -10.490  1.00  0.00     0.261 C 
BRANCH  16  17
HETATM   17  O3  UNL     1       9.449  44.093  -9.880  1.00  0.00    -0.283 OA
BRANCH  17  18
HETATM   18  N4  UNL     1       8.455  43.680 -10.693  1.00  0.00    -0.311 N 
ATOM     19  H42 UNL     1       8.207  44.188 -11.542  1.00  0.00     0.184 HD
ATOM     20  H41 UNL     1       7.985  42.828 -10.387  1.00  0.00     0.184 HD
ENDBRANCH  17  18
ENDBRANCH  16  17
ENDBRANCH  12  16
ENDBRANCH   7   8
ENDBRANCH   6   7
BRANCH   1  21
HETATM   21  C3  UNL     1      13.016  38.350  -9.648  1.00  0.00     0.009 C 
BRANCH  21  22
HETATM   22  C2  UNL     1      14.053  37.289  -9.964  1.00  0.00     0.028 C 
BRANCH  22  23
HETATM   23  C1  UNL     1      13.764  36.541 -11.217  1.00  0.00     0.229 C 
BRANCH  23  24
HETATM   24  N1  UNL     1      14.725  35.621 -11.700  1.00  0.00    -0.079 N 
ATOM     25  H13 UNL     1      14.925  34.939 -10.968  1.00  0.00     0.274 HD
ATOM     26  H12 UNL     1      14.288  35.031 -12.407  1.00  0.00     0.274 HD
ATOM     27  H11 UNL     1      15.606  35.979 -12.067  1.00  0.00     0.274 HD
ENDBRANCH  23  24
ENDBRANCH  22  23
ENDBRANCH  21  22
ENDBRANCH   1  21
BRANCH   5  28
HETATM   28  O1  UNL     1      12.909  41.122  -5.930  1.00  0.00    -0.393 OA
ATOM     29  H1  UNL     1      13.710  41.529  -6.241  1.00  0.00     0.210 HD
ENDBRANCH   5  28
BRANCH   4  30
HETATM   30  C8  UNL     1      10.580  39.802  -5.218  1.00  0.00     0.236 C 
BRANCH  30  31
HETATM   31  N2  UNL     1      11.252  39.202  -4.123  1.00  0.00    -0.079 N 
ATOM     32  H23 UNL     1      10.587  38.845  -3.438  1.00  0.00     0.274 HD
ATOM     33  H22 UNL     1      11.691  38.324  -4.400  1.00  0.00     0.274 HD
ATOM     34  H21 UNL     1      11.928  39.827  -3.685  1.00  0.00     0.274 HD
ENDBRANCH  30  31
ENDBRANCH   4  30
TORSDOF 12
ENDMDL
MODEL 4
REMARK VINA RESULT: -6.010050136      1.902      2.402
REMARK  12 active torsions:
REMARK  status: ('A' for Active; 'I' for Inactive)
REMARK    1  A    between atoms: N1_1  and  C1_5 
REMARK    2  A    between atoms: C1_5  and  C2_6 
REMARK    3  A    between atoms: C2_6  and  C3_7 
REMARK    4  A    between atoms: C3_7  and  C4_8 
REMARK    5  A    between atoms: C7_11  and  C8_12 
REMARK    6  A    between atoms: C8_12  and  N2_13 
REMARK    7  A    between atoms: C9_17  and  O1_18 
REMARK    8  A    between atoms: C10_20  and  O2_21 
REMARK    9  A    between atoms: O2_21  and  C11_22 
REMARK   10  A    between atoms: C14_28  and  C15_29 
REMARK   11  A    between atoms: C15_29  and  O3_30 
REMARK   12  A    between atoms: O3_30  and  N4_31 
ROOT
HETATM    1  C4  UNL     1      14.834  40.002 -12.608  1.00  0.00     0.017 C 
HETATM    2  C5  UNL     1      15.277  39.399 -13.916  1.00  0.00     0.008 C 
HETATM    3  C6  UNL     1      14.327  38.231 -14.314  1.00  0.00     0.009 C 
HETATM    4  C7  UNL     1      13.946  37.392 -13.174  1.00  0.00     0.042 C 
HETATM    5  C9  UNL     1      14.526  37.647 -11.853  1.00  0.00     0.153 C 
HETATM    6  C10 UNL     1      14.564  39.128 -11.492  1.00  0.00     0.158 C 
ENDROOT
BRANCH   6   7
HETATM    7  O2  UNL     1      13.359  39.567 -10.909  1.00  0.00    -0.353 OA
BRANCH   7   8
HETATM    8  C11 UNL     1      13.455  39.716  -9.562  1.00  0.00     0.264 C 
HETATM    9  C12 UNL     1      14.269  40.911  -9.090  1.00  0.00     0.088 C 
HETATM   10  C13 UNL     1      13.504  41.969  -8.385  1.00  0.00     0.240 C 
HETATM   11  N3  UNL     1      12.530  41.433  -7.439  1.00  0.00    -0.046 N 
HETATM   12  C14 UNL     1      12.448  40.013  -7.632  1.00  0.00     0.349 C 
ATOM     13  H32 UNL     1      12.740  41.686  -6.474  1.00  0.00     0.280 HD
ATOM     14  H31 UNL     1      11.622  41.892  -7.508  1.00  0.00     0.280 HD
HETATM   15  O4  UNL     1      12.219  39.638  -8.925  1.00  0.00    -0.327 OA
BRANCH  12  16
HETATM   16  C15 UNL     1      11.318  39.520  -6.661  1.00  0.00     0.261 C 
BRANCH  16  17
HETATM   17  O3  UNL     1      11.675  38.165  -6.731  1.00  0.00    -0.283 OA
BRANCH  17  18
HETATM   18  N4  UNL     1      12.972  37.913  -6.464  1.00  0.00    -0.311 N 
ATOM     19  H42 UNL     1      13.472  37.138  -6.902  1.00  0.00     0.184 HD
ATOM     20  H41 UNL     1      13.399  38.555  -5.796  1.00  0.00     0.184 HD
ENDBRANCH  17  18
ENDBRANCH  16  17
ENDBRANCH  12  16
ENDBRANCH   7   8
ENDBRANCH   6   7
BRANCH   1  21
HETATM   21  C3  UNL     1      13.815  41.129 -12.863  1.00  0.00     0.009 C 
BRANCH  21  22
HETATM   22  C2  UNL     1      14.406  42.469 -12.466  1.00  0.00     0.028 C 
BRANCH  22  23
HETATM   23  C1  UNL     1      13.405  43.402 -11.881  1.00  0.00     0.229 C 
BRANCH  23  24
HETATM   24  N1  UNL     1      12.054  42.992 -11.804  1.00  0.00    -0.079 N 
ATOM     25  H13 UNL     1      11.668  42.950 -12.748  1.00  0.00     0.274 HD
ATOM     26  H12 UNL     1      12.023  42.009 -11.534  1.00  0.00     0.274 HD
ATOM     27  H11 UNL     1      11.413  43.518 -11.210  1.00  0.00     0.274 HD
ENDBRANCH  23  24
ENDBRANCH  22  23
ENDBRANCH  21  22
ENDBRANCH   1  21
BRANCH   5  28
HETATM   28  O1  UNL     1      15.766  37.095 -11.665  1.00  0.00    -0.393 OA
ATOM     29  H1  UNL     1      16.488  37.695 -11.812  1.00  0.00     0.210 HD
ENDBRANCH   5  28
BRANCH   4  30
HETATM   30  C8  UNL     1      14.056  35.914 -13.497  1.00  0.00     0.236 C 
BRANCH  30  31
HETATM   31  N2  UNL     1      13.890  35.089 -12.356  1.00  0.00    -0.079 N 
ATOM     32  H23 UNL     1      14.792  34.838 -11.952  1.00  0.00     0.274 HD
ATOM     33  H22 UNL     1      13.501  35.619 -11.576  1.00  0.00     0.274 HD
ATOM     34  H21 UNL     1      13.331  34.258 -12.548  1.00  0.00     0.274 HD
ENDBRANCH  30  31
ENDBRANCH   4  30
TORSDOF 12
ENDMDL
MODEL 5
REMARK VINA RESULT: -5.959763426      2.726      6.822
REMARK  12 active torsions:
REMARK  status: ('A' for Active; 'I' for Inactive)
REMARK    1  A    between atoms: N1_1  and  C1_5 
REMARK    2  A    between atoms: C1_5  and  C2_6 
REMARK    3  A    between atoms: C2_6  and  C3_7 
REMARK    4  A    between atoms: C3_7  and  C4_8 
REMARK    5  A    between atoms: C7_11  and  C8_12 
REMARK    6  A    between atoms: C8_12  and  N2_13 
REMARK    7  A    between atoms: C9_17  and  O1_18 
REMARK    8  A    between atoms: C10_20  and  O2_21 
REMARK    9  A    between atoms: O2_21  and  C11_22 
REMARK   10  A    between atoms: C14_28  and  C15_29 
REMARK   11  A    between atoms: C15_29  and  O3_30 
REMARK   12  A    between atoms: O3_30  and  N4_31 
ROOT
HETATM    1  C4  UNL     1      13.865  40.274  -9.386  1.00  0.00     0.017 C 
HETATM    2  C5  UNL     1      13.583  41.680  -8.923  1.00  0.00     0.008 C 
HETATM    3  C6  UNL     1      12.542  42.353  -9.865  1.00  0.00     0.009 C 
HETATM    4  C7  UNL     1      12.769  42.043 -11.280  1.00  0.00     0.042 C 
HETATM    5  C9  UNL     1      13.937  41.252 -11.676  1.00  0.00     0.153 C 
HETATM    6  C10 UNL     1      14.176  40.045 -10.775  1.00  0.00     0.158 C 
ENDROOT
BRANCH   6   7
HETATM    7  O2  UNL     1      13.434  38.919 -11.182  1.00  0.00    -0.353 OA
BRANCH   7   8
HETATM    8  C11 UNL     1      14.220  37.850 -11.470  1.00  0.00     0.264 C 
HETATM    9  C12 UNL     1      13.544  36.492 -11.364  1.00  0.00     0.088 C 
HETATM   10  C13 UNL     1      13.388  35.754 -12.643  1.00  0.00     0.240 C 
HETATM   11  N3  UNL     1      14.575  35.824 -13.490  1.00  0.00    -0.046 N 
HETATM   12  C14 UNL     1      15.478  36.784 -12.921  1.00  0.00     0.349 C 
ATOM     13  H32 UNL     1      15.010  34.913 -13.633  1.00  0.00     0.280 HD
ATOM     14  H31 UNL     1      14.350  36.025 -14.464  1.00  0.00     0.280 HD
HETATM   15  O4  UNL     1      14.913  38.000 -12.668  1.00  0.00    -0.327 OA
BRANCH  12  16
HETATM   16  C15 UNL     1      16.677  36.883 -13.929  1.00  0.00     0.261 C 
BRANCH  16  17
HETATM   17  O3  UNL     1      17.630  37.224 -12.957  1.00  0.00    -0.283 OA
BRANCH  17  18
HETATM   18  N4  UNL     1      17.680  38.539 -12.660  1.00  0.00    -0.311 N 
ATOM     19  H42 UNL     1      18.276  39.186 -13.178  1.00  0.00     0.184 HD
ATOM     20  H41 UNL     1      17.079  38.821 -11.886  1.00  0.00     0.184 HD
ENDBRANCH  17  18
ENDBRANCH  16  17
ENDBRANCH  12  16
ENDBRANCH   7   8
ENDBRANCH   6   7
BRANCH   1  21
HETATM   21  C3  UNL     1      12.875  39.293  -8.730  1.00  0.00     0.009 C 
BRANCH  21  22
HETATM   22  C2  UNL     1      12.549  39.742  -7.318  1.00  0.00     0.028 C 
BRANCH  22  23
HETATM   23  C1  UNL     1      11.606  38.831  -6.615  1.00  0.00     0.229 C 
BRANCH  23  24
HETATM   24  N1  UNL     1      12.101  38.008  -5.576  1.00  0.00    -0.079 N 
ATOM     25  H13 UNL     1      11.897  37.034  -5.802  1.00  0.00     0.274 HD
ATOM     26  H12 UNL     1      13.120  38.010  -5.612  1.00  0.00     0.274 HD
ATOM     27  H11 UNL     1      11.804  38.193  -4.618  1.00  0.00     0.274 HD
ENDBRANCH  23  24
ENDBRANCH  22  23
ENDBRANCH  21  22
ENDBRANCH   1  21
BRANCH   5  28
HETATM   28  O1  UNL     1      15.095  41.976 -11.794  1.00  0.00    -0.393 OA
ATOM     29  H1  UNL     1      15.857  41.560 -11.407  1.00  0.00     0.210 HD
ENDBRANCH   5  28
BRANCH   4  30
HETATM   30  C8  UNL     1      12.678  43.281 -12.153  1.00  0.00     0.236 C 
BRANCH  30  31
HETATM   31  N2  UNL     1      12.500  42.972 -13.525  1.00  0.00    -0.079 N 
ATOM     32  H23 UNL     1      12.912  42.068 -13.753  1.00  0.00     0.274 HD
ATOM     33  H22 UNL     1      11.523  42.764 -13.729  1.00  0.00     0.274 HD
ATOM     34  H21 UNL     1      12.855  43.702 -14.143  1.00  0.00     0.274 HD
ENDBRANCH  30  31
ENDBRANCH   4  30
TORSDOF 12
ENDMDL
