MODEL 1
REMARK VINA RESULT: -7.060051039      0.000      0.000
REMARK  10 active torsions:
REMARK  status: ('A' for Active; 'I' for Inactive)
REMARK    1  A    between atoms: C2_2  and  C3_3 
REMARK    2  A    between atoms: C3_3  and  C4_4 
REMARK    3  A    between atoms: C4_4  and  C5_5 
REMARK    4  A    between atoms: C5_5  and  C6_6 
REMARK    5  A    between atoms: C6_6  and  N1_7 
REMARK    6  A    between atoms: N1_7  and  C7_9 
REMARK    7  A    between atoms: C8_12  and  N3_13 
REMARK       I    between atoms: N3_13  and  C9_15 
REMARK       I    between atoms: C9_15  and  N4_16 
REMARK       I    between atoms: C9_15  and  N5_20 
REMARK    8  A    between atoms: N7_27  and  C11_29 
REMARK    9  A    between atoms: C11_29  and  S1_30 
REMARK   10  A    between atoms: C13_32  and  N8_33 
ROOT
HETATM    1  C7  UNL     1      12.474  38.779  -7.100  1.00  0.00     0.694 C 
HETATM    2  N2  UNL     1      12.040  39.915  -7.669  1.00  0.00    -0.022 N 
ATOM      3  H2  UNL     1      12.144  39.973  -8.682  1.00  0.00     0.203 HD
HETATM    4  C8  UNL     1      11.484  40.992  -7.070  1.00  0.00     0.697 C 
HETATM    5  N6  UNL     1      10.752  40.959  -5.925  1.00  0.00    -0.173 N 
ATOM      6  H6  UNL     1      10.272  41.828  -5.693  1.00  0.00     0.186 HD
HETATM    7  C10 UNL     1      10.566  39.953  -5.051  1.00  0.00     0.162 C 
HETATM    8  N7  UNL     1       9.642  40.085  -4.173  1.00  0.00    -0.364 N 
ATOM      9  H7  UNL     1       9.469  39.345  -3.492  1.00  0.00     0.162 HD
HETATM   10  C13 UNL     1      11.270  38.772  -4.990  1.00  0.00     0.159 C 
HETATM   11  N9  UNL     1      12.152  38.275  -5.863  1.00  0.00    -0.173 N 
ATOM     12  H9  UNL     1      12.641  37.427  -5.579  1.00  0.00     0.186 HD
ENDROOT
BRANCH   4  13
HETATM   13  N3  UNL     1      11.655  42.131  -7.616  1.00  0.00    -0.173 N 
HETATM   14  C9  UNL     1      11.758  42.262  -9.037  1.00  0.00     0.494 C 
HETATM   15  N4  UNL     1      10.474  42.461  -9.684  1.00  0.00    -0.032 N 
HETATM   16  N5  UNL     1      12.522  43.501  -9.270  1.00  0.00    -0.032 N 
ATOM     17  H43 UNL     1       9.822  41.718  -9.434  1.00  0.00     0.278 HD
ATOM     18  H42 UNL     1       9.982  43.258  -9.280  1.00  0.00     0.278 HD
ATOM     19  H41 UNL     1      10.549  42.554 -10.698  1.00  0.00     0.278 HD
ATOM     20  H53 UNL     1      12.121  44.320  -8.812  1.00  0.00     0.278 HD
ATOM     21  H52 UNL     1      13.422  43.523  -8.791  1.00  0.00     0.278 HD
ATOM     22  H51 UNL     1      12.596  43.594 -10.283  1.00  0.00     0.278 HD
ATOM     23  H3  UNL     1      11.718  42.964  -7.030  1.00  0.00     0.181 HD
ENDBRANCH   4  13
BRANCH   1  24
HETATM   24  N1  UNL     1      13.270  38.042  -7.717  1.00  0.00    -0.226 N 
ATOM     25  H1  UNL     1      13.380  37.088  -7.375  1.00  0.00     0.177 HD
BRANCH  24  26
HETATM   26  C6  UNL     1      14.044  38.417  -8.862  1.00  0.00     0.138 C 
BRANCH  26  27
HETATM   27  C5  UNL     1      14.287  37.211  -9.737  1.00  0.00     0.020 C 
BRANCH  27  28
HETATM   28  C4  UNL     1      13.307  37.100 -10.867  1.00  0.00     0.002 C 
BRANCH  28  29
HETATM   29  C3  UNL     1      13.675  37.930 -12.059  1.00  0.00    -0.000 C 
BRANCH  29  30
HETATM   30  C2  UNL     1      13.802  37.067 -13.271  1.00  0.00    -0.005 C 
HETATM   31  C1  UNL     1      13.379  35.653 -12.875  1.00  0.00     0.005 C 
ENDBRANCH  29  30
ENDBRANCH  28  29
ENDBRANCH  27  28
ENDBRANCH  26  27
ENDBRANCH  24  26
ENDBRANCH   1  24
BRANCH   8  32
HETATM   32  C11 UNL     1       8.847  41.293  -4.158  1.00  0.00     0.195 C 
BRANCH  32  33
HETATM   33  S1  UNL     1       7.929  41.271  -2.570  1.00  0.00    -0.154 SA
HETATM   34  C12 UNL     1       8.829  42.345  -1.420  1.00  0.00     0.091 C 
ENDBRANCH  32  33
ENDBRANCH   8  32
BRANCH  10  35
HETATM   35  N8  UNL     1      11.048  38.050  -3.952  1.00  0.00    -0.382 N 
ATOM     36  H82 UNL     1      10.071  37.968  -3.672  1.00  0.00     0.157 HD
ATOM     37  H81 UNL     1      11.875  37.637  -3.521  1.00  0.00     0.157 HD
ENDBRANCH  10  35
TORSDOF 10
ENDMDL
MODEL 2
REMARK VINA RESULT: -6.765112546      1.228      1.407
REMARK  10 active torsions:
REMARK  status: ('A' for Active; 'I' for Inactive)
REMARK    1  A    between atoms: C2_2  and  C3_3 
REMARK    2  A    between atoms: C3_3  and  C4_4 
REMARK    3  A    between atoms: C4_4  and  C5_5 
REMARK    4  A    between atoms: C5_5  and  C6_6 
REMARK    5  A    between atoms: C6_6  and  N1_7 
REMARK    6  A    between atoms: N1_7  and  C7_9 
REMARK    7  A    between atoms: C8_12  and  N3_13 
REMARK       I    between atoms: N3_13  and  C9_15 
REMARK       I    between atoms: C9_15  and  N4_16 
REMARK       I    between atoms: C9_15  and  N5_20 
REMARK    8  A    between atoms: N7_27  and  C11_29 
REMARK    9  A    between atoms: C11_29  and  S1_30 
REMARK   10  A    between atoms: C13_32  and  N8_33 
ROOT
HETATM    1  C7  UNL     1      12.675  39.185  -8.306  1.00  0.00     0.694 C 
HETATM    2  N2  UNL     1      12.096  40.335  -8.687  1.00  0.00    -0.022 N 
ATOM      3  H2  UNL     1      12.045  40.496  -9.693  1.00  0.00     0.203 HD
HETATM    4  C8  UNL     1      11.571  41.307  -7.908  1.00  0.00     0.697 C 
HETATM    5  N6  UNL     1      11.020  41.112  -6.680  1.00  0.00    -0.173 N 
ATOM      6  H6  UNL     1      10.529  41.918  -6.294  1.00  0.00     0.186 HD
HETATM    7  C10 UNL     1      11.025  40.018  -5.898  1.00  0.00     0.162 C 
HETATM    8  N7  UNL     1      10.235  39.998  -4.889  1.00  0.00    -0.364 N 
ATOM      9  H7  UNL     1      10.208  39.187  -4.272  1.00  0.00     0.162 HD
HETATM   10  C13 UNL     1      11.798  38.891  -6.060  1.00  0.00     0.159 C 
HETATM   11  N9  UNL     1      12.570  38.545  -7.095  1.00  0.00    -0.173 N 
ATOM     12  H9  UNL     1      13.145  37.712  -6.972  1.00  0.00     0.186 HD
ENDROOT
BRANCH   4  13
HETATM   13  N3  UNL     1      11.592  42.501  -8.350  1.00  0.00    -0.173 N 
HETATM   14  C9  UNL     1      11.514  42.771  -9.754  1.00  0.00     0.494 C 
HETATM   15  N4  UNL     1      10.151  42.920 -10.229  1.00  0.00    -0.032 N 
HETATM   16  N5  UNL     1      12.152  44.086  -9.945  1.00  0.00    -0.032 N 
ATOM     17  H43 UNL     1       9.589  42.105  -9.984  1.00  0.00     0.278 HD
ATOM     18  H42 UNL     1       9.654  43.633  -9.693  1.00  0.00     0.278 HD
ATOM     19  H41 UNL     1      10.096  43.112 -11.230  1.00  0.00     0.278 HD
ATOM     20  H53 UNL     1      11.751  44.823  -9.364  1.00  0.00     0.278 HD
ATOM     21  H52 UNL     1      13.100  44.139  -9.570  1.00  0.00     0.278 HD
ATOM     22  H51 UNL     1      12.097  44.278 -10.945  1.00  0.00     0.278 HD
ATOM     23  H3  UNL     1      11.665  43.279  -7.694  1.00  0.00     0.181 HD
ENDBRANCH   4  13
BRANCH   1  24
HETATM   24  N1  UNL     1      13.414  38.570  -9.102  1.00  0.00    -0.226 N 
ATOM     25  H1  UNL     1      13.589  37.585  -8.906  1.00  0.00     0.177 HD
BRANCH  24  26
HETATM   26  C6  UNL     1      14.037  39.124 -10.266  1.00  0.00     0.138 C 
BRANCH  26  27
HETATM   27  C5  UNL     1      13.688  38.297 -11.481  1.00  0.00     0.020 C 
BRANCH  27  28
HETATM   28  C4  UNL     1      13.302  36.889 -11.139  1.00  0.00     0.002 C 
BRANCH  28  29
HETATM   29  C3  UNL     1      13.349  35.957 -12.312  1.00  0.00    -0.000 C 
BRANCH  29  30
HETATM   30  C2  UNL     1      13.847  36.676 -13.523  1.00  0.00    -0.005 C 
HETATM   31  C1  UNL     1      13.459  35.842 -14.744  1.00  0.00     0.005 C 
ENDBRANCH  29  30
ENDBRANCH  28  29
ENDBRANCH  27  28
ENDBRANCH  26  27
ENDBRANCH  24  26
ENDBRANCH   1  24
BRANCH   8  32
HETATM   32  C11 UNL     1       9.381  41.138  -4.637  1.00  0.00     0.195 C 
BRANCH  32  33
HETATM   33  S1  UNL     1       8.247  40.628  -3.288  1.00  0.00    -0.154 SA
HETATM   34  C12 UNL     1       8.844  39.035  -2.665  1.00  0.00     0.091 C 
ENDBRANCH  32  33
ENDBRANCH   8  32
BRANCH  10  35
HETATM   35  N8  UNL     1      11.775  38.061  -5.082  1.00  0.00    -0.382 N 
ATOM     36  H82 UNL     1      12.674  37.881  -4.634  1.00  0.00     0.157 HD
ATOM     37  H81 UNL     1      10.859  37.671  -4.858  1.00  0.00     0.157 HD
ENDBRANCH  10  35
TORSDOF 10
ENDMDL
MODEL 3
REMARK VINA RESULT: -6.720675710      3.609      7.402
REMARK  10 active torsions:
REMARK  status: ('A' for Active; 'I' for Inactive)
REMARK    1  A    between atoms: C2_2  and  C3_3 
REMARK    2  A    between atoms: C3_3  and  C4_4 
REMARK    3  A    between atoms: C4_4  and  C5_5 
REMARK    4  A    between atoms: C5_5  and  C6_6 
REMARK    5  A    between atoms: C6_6  and  N1_7 
REMARK    6  A    between atoms: N1_7  and  C7_9 
REMARK    7  A    between atoms: C8_12  and  N3_13 
REMARK       I    between atoms: N3_13  and  C9_15 
REMARK       I    between atoms: C9_15  and  N4_16 
REMARK       I    between atoms: C9_15  and  N5_20 
REMARK    8  A    between atoms: N7_27  and  C11_29 
REMARK    9  A    between atoms: C11_29  and  S1_30 
REMARK   10  A    between atoms: C13_32  and  N8_33 
ROOT
HETATM    1  C7  UNL     1      11.847  40.121  -6.424  1.00  0.00     0.694 C 
HETATM    2  N2  UNL     1      11.704  39.362  -7.523  1.00  0.00    -0.022 N 
ATOM      3  H2  UNL     1      10.883  38.757  -7.541  1.00  0.00     0.203 HD
HETATM    4  C8  UNL     1      12.509  39.296  -8.606  1.00  0.00     0.697 C 
HETATM    5  N6  UNL     1      13.276  40.317  -9.073  1.00  0.00    -0.173 N 
ATOM      6  H6  UNL     1      13.701  40.156  -9.987  1.00  0.00     0.186 HD
HETATM    7  C10 UNL     1      13.560  41.506  -8.513  1.00  0.00     0.162 C 
HETATM    8  N7  UNL     1      14.110  42.400  -9.249  1.00  0.00    -0.364 N 
ATOM      9  H7  UNL     1      14.341  43.315  -8.863  1.00  0.00     0.162 HD
HETATM   10  C13 UNL     1      13.323  41.883  -7.211  1.00  0.00     0.159 C 
HETATM   11  N9  UNL     1      12.615  41.250  -6.271  1.00  0.00    -0.173 N 
ATOM     12  H9  UNL     1      12.647  41.651  -5.333  1.00  0.00     0.186 HD
ENDROOT
BRANCH   4  13
HETATM   13  N3  UNL     1      12.560  38.194  -9.244  1.00  0.00    -0.173 N 
HETATM   14  C9  UNL     1      13.670  37.881 -10.091  1.00  0.00     0.494 C 
HETATM   15  N4  UNL     1      14.743  37.198  -9.392  1.00  0.00    -0.032 N 
HETATM   16  N5  UNL     1      13.158  36.916 -11.082  1.00  0.00    -0.032 N 
ATOM     17  H43 UNL     1      15.047  37.734  -8.579  1.00  0.00     0.278 HD
ATOM     18  H42 UNL     1      14.397  36.362  -8.922  1.00  0.00     0.278 HD
ATOM     19  H41 UNL     1      15.535  36.975  -9.997  1.00  0.00     0.278 HD
ATOM     20  H53 UNL     1      12.719  36.096 -10.664  1.00  0.00     0.278 HD
ATOM     21  H52 UNL     1      12.338  37.248 -11.589  1.00  0.00     0.278 HD
ATOM     22  H51 UNL     1      13.949  36.693 -11.686  1.00  0.00     0.278 HD
ATOM     23  H3  UNL     1      11.797  37.524  -9.150  1.00  0.00     0.181 HD
ENDBRANCH   4  13
BRANCH   1  24
HETATM   24  N1  UNL     1      11.236  39.820  -5.379  1.00  0.00    -0.226 N 
ATOM     25  H1  UNL     1      10.883  40.589  -4.810  1.00  0.00     0.177 HD
BRANCH  24  26
HETATM   26  C6  UNL     1      10.985  38.492  -4.907  1.00  0.00     0.138 C 
BRANCH  26  27
HETATM   27  C5  UNL     1      10.038  38.533  -3.732  1.00  0.00     0.020 C 
BRANCH  27  28
HETATM   28  C4  UNL     1      10.721  38.879  -2.442  1.00  0.00     0.002 C 
BRANCH  28  29
HETATM   29  C3  UNL     1      10.277  38.033  -1.287  1.00  0.00    -0.000 C 
BRANCH  29  30
HETATM   30  C2  UNL     1       9.076  37.231  -1.665  1.00  0.00    -0.005 C 
HETATM   31  C1  UNL     1       9.237  35.843  -1.047  1.00  0.00     0.005 C 
ENDBRANCH  29  30
ENDBRANCH  28  29
ENDBRANCH  27  28
ENDBRANCH  26  27
ENDBRANCH  24  26
ENDBRANCH   1  24
BRANCH   8  32
HETATM   32  C11 UNL     1      14.398  42.097 -10.634  1.00  0.00     0.195 C 
BRANCH  32  33
HETATM   33  S1  UNL     1      16.175  42.483 -10.875  1.00  0.00    -0.154 SA
HETATM   34  C12 UNL     1      16.744  43.322  -9.372  1.00  0.00     0.091 C 
ENDBRANCH  32  33
ENDBRANCH   8  32
BRANCH  10  35
HETATM   35  N8  UNL     1      13.857  42.993  -6.852  1.00  0.00    -0.382 N 
ATOM     36  H82 UNL     1      14.471  43.431  -7.539  1.00  0.00     0.157 HD
ATOM     37  H81 UNL     1      13.608  43.318  -5.918  1.00  0.00     0.157 HD
ENDBRANCH  10  35
TORSDOF 10
ENDMDL
MODEL 4
REMARK VINA RESULT: -6.651301702      3.280      7.245
REMARK  10 active torsions:
REMARK  status: ('A' for Active; 'I' for Inactive)
REMARK    1  A    between atoms: C2_2  and  C3_3 
REMARK    2  A    between atoms: C3_3  and  C4_4 
REMARK    3  A    between atoms: C4_4  and  C5_5 
REMARK    4  A    between atoms: C5_5  and  C6_6 
REMARK    5  A    between atoms: C6_6  and  N1_7 
REMARK    6  A    between atoms: N1_7  and  C7_9 
REMARK    7  A    between atoms: C8_12  and  N3_13 
REMARK       I    between atoms: N3_13  and  C9_15 
REMARK       I    between atoms: C9_15  and  N4_16 
REMARK       I    between atoms: C9_15  and  N5_20 
REMARK    8  A    between atoms: N7_27  and  C11_29 
REMARK    9  A    between atoms: C11_29  and  S1_30 
REMARK   10  A    between atoms: C13_32  and  N8_33 
ROOT
HETATM    1  C7  UNL     1      11.934  40.153  -6.450  1.00  0.00     0.694 C 
HETATM    2  N2  UNL     1      11.763  39.358  -7.519  1.00  0.00    -0.022 N 
ATOM      3  H2  UNL     1      10.970  38.719  -7.475  1.00  0.00     0.203 HD
HETATM    4  C8  UNL     1      12.509  39.298  -8.644  1.00  0.00     0.697 C 
HETATM    5  N6  UNL     1      13.202  40.338  -9.180  1.00  0.00    -0.173 N 
ATOM      6  H6  UNL     1      13.581  40.171 -10.112  1.00  0.00     0.186 HD
HETATM    7  C10 UNL     1      13.463  41.554  -8.666  1.00  0.00     0.162 C 
HETATM    8  N7  UNL     1      13.930  42.450  -9.455  1.00  0.00    -0.364 N 
ATOM      9  H7  UNL     1      14.142  43.384  -9.105  1.00  0.00     0.162 HD
HETATM   10  C13 UNL     1      13.283  41.955  -7.363  1.00  0.00     0.159 C 
HETATM   11  N9  UNL     1      12.658  41.318  -6.368  1.00  0.00    -0.173 N 
ATOM     12  H9  UNL     1      12.725  41.745  -5.444  1.00  0.00     0.186 HD
ENDROOT
BRANCH   4  13
HETATM   13  N3  UNL     1      12.573  38.183  -9.257  1.00  0.00    -0.173 N 
HETATM   14  C9  UNL     1      13.657  37.888 -10.144  1.00  0.00     0.494 C 
HETATM   15  N4  UNL     1      14.783  37.262  -9.475  1.00  0.00    -0.032 N 
HETATM   16  N5  UNL     1      13.139  36.880 -11.087  1.00  0.00    -0.032 N 
ATOM     17  H43 UNL     1      15.101  37.828  -8.689  1.00  0.00     0.278 HD
ATOM     18  H42 UNL     1      14.488  36.426  -8.970  1.00  0.00     0.278 HD
ATOM     19  H41 UNL     1      15.556  37.051 -10.108  1.00  0.00     0.278 HD
ATOM     20  H53 UNL     1      12.749  36.056 -10.631  1.00  0.00     0.278 HD
ATOM     21  H52 UNL     1      12.286  37.169 -11.567  1.00  0.00     0.278 HD
ATOM     22  H51 UNL     1      13.912  36.670 -11.720  1.00  0.00     0.278 HD
ATOM     23  H3  UNL     1      11.839  37.489  -9.114  1.00  0.00     0.181 HD
ENDBRANCH   4  13
BRANCH   1  24
HETATM   24  N1  UNL     1      11.396  39.854  -5.364  1.00  0.00    -0.226 N 
ATOM     25  H1  UNL     1      11.285  40.602  -4.679  1.00  0.00     0.177 HD
BRANCH  24  26
HETATM   26  C6  UNL     1      10.922  38.556  -4.993  1.00  0.00     0.138 C 
BRANCH  26  27
HETATM   27  C5  UNL     1       9.540  38.664  -4.393  1.00  0.00     0.020 C 
BRANCH  27  28
HETATM   28  C4  UNL     1       9.389  37.876  -3.126  1.00  0.00     0.002 C 
BRANCH  28  29
HETATM   29  C3  UNL     1      10.035  38.525  -1.939  1.00  0.00    -0.000 C 
BRANCH  29  30
HETATM   30  C2  UNL     1       9.948  37.628  -0.748  1.00  0.00    -0.005 C 
HETATM   31  C1  UNL     1       9.324  36.311  -1.209  1.00  0.00     0.005 C 
ENDBRANCH  29  30
ENDBRANCH  28  29
ENDBRANCH  27  28
ENDBRANCH  26  27
ENDBRANCH  24  26
ENDBRANCH   1  24
BRANCH   8  32
HETATM   32  C11 UNL     1      14.153  42.122 -10.846  1.00  0.00     0.195 C 
BRANCH  32  33
HETATM   33  S1  UNL     1      12.755  42.869 -11.769  1.00  0.00    -0.154 SA
HETATM   34  C12 UNL     1      12.267  44.367 -10.874  1.00  0.00     0.091 C 
ENDBRANCH  32  33
ENDBRANCH   8  32
BRANCH  10  35
HETATM   35  N8  UNL     1      13.786  43.097  -7.062  1.00  0.00    -0.382 N 
ATOM     36  H82 UNL     1      13.844  43.769  -7.828  1.00  0.00     0.157 HD
ATOM     37  H81 UNL     1      14.072  43.208  -6.089  1.00  0.00     0.157 HD
ENDBRANCH  10  35
TORSDOF 10
ENDMDL
MODEL 5
REMARK VINA RESULT: -6.632689134      0.874      1.379
REMARK  10 active torsions:
REMARK  status: ('A' for Active; 'I' for Inactive)
REMARK    1  A    between atoms: C2_2  and  C3_3 
REMARK    2  A    between atoms: C3_3  and  C4_4 
REMARK    3  A    between atoms: C4_4  and  C5_5 
REMARK    4  A    between atoms: C5_5  and  C6_6 
REMARK    5  A    between atoms: C6_6  and  N1_7 
REMARK    6  A    between atoms: N1_7  and  C7_9 
REMARK    7  A    between atoms: C8_12  and  N3_13 
REMARK       I    between atoms: N3_13  and  C9_15 
REMARK       I    between atoms: C9_15  and  N4_16 
REMARK       I    between atoms: C9_15  and  N5_20 
REMARK    8  A    between atoms: N7_27  and  C11_29 
REMARK    9  A    between atoms: C11_29  and  S1_30 
REMARK   10  A    between atoms: C13_32  and  N8_33 
ROOT
HETATM    1  C7  UNL     1      12.483  38.845  -7.285  1.00  0.00     0.694 C 
HETATM    2  N2  UNL     1      12.030  39.991  -7.818  1.00  0.00    -0.022 N 
ATOM      3  H2  UNL     1      12.107  40.071  -8.832  1.00  0.00     0.203 HD
HETATM    4  C8  UNL     1      11.484  41.052  -7.183  1.00  0.00     0.697 C 
HETATM    5  N6  UNL     1      10.782  40.991  -6.020  1.00  0.00    -0.173 N 
ATOM      6  H6  UNL     1      10.304  41.853  -5.757  1.00  0.00     0.186 HD
HETATM    7  C10 UNL     1      10.623  39.966  -5.163  1.00  0.00     0.162 C 
HETATM    8  N7  UNL     1       9.722  40.074  -4.259  1.00  0.00    -0.364 N 
ATOM      9  H7  UNL     1       9.569  39.320  -3.590  1.00  0.00     0.162 HD
HETATM   10  C13 UNL     1      11.334  38.788  -5.145  1.00  0.00     0.159 C 
HETATM   11  N9  UNL     1      12.196  38.314  -6.051  1.00  0.00    -0.173 N 
ATOM     12  H9  UNL     1      12.695  37.462  -5.798  1.00  0.00     0.186 HD
ENDROOT
BRANCH   4  13
HETATM   13  N3  UNL     1      11.636  42.203  -7.708  1.00  0.00    -0.173 N 
HETATM   14  C9  UNL     1      11.719  42.363  -9.128  1.00  0.00     0.494 C 
HETATM   15  N4  UNL     1      10.425  42.560  -9.754  1.00  0.00    -0.032 N 
HETATM   16  N5  UNL     1      12.467  43.615  -9.347  1.00  0.00    -0.032 N 
ATOM     17  H43 UNL     1       9.783  41.806  -9.511  1.00  0.00     0.278 HD
ATOM     18  H42 UNL     1       9.930  43.344  -9.328  1.00  0.00     0.278 HD
ATOM     19  H41 UNL     1      10.485  42.674 -10.767  1.00  0.00     0.278 HD
ATOM     20  H53 UNL     1      12.063  44.420  -8.868  1.00  0.00     0.278 HD
ATOM     21  H52 UNL     1      13.373  43.637  -8.879  1.00  0.00     0.278 HD
ATOM     22  H51 UNL     1      12.527  43.728 -10.359  1.00  0.00     0.278 HD
ATOM     23  H3  UNL     1      11.698  43.025  -7.107  1.00  0.00     0.181 HD
ENDBRANCH   4  13
BRANCH   1  24
HETATM   24  N1  UNL     1      13.267  38.126  -7.938  1.00  0.00    -0.226 N 
ATOM     25  H1  UNL     1      13.583  37.263  -7.495  1.00  0.00     0.177 HD
BRANCH  24  26
HETATM   26  C6  UNL     1      13.762  38.403  -9.252  1.00  0.00     0.138 C 
BRANCH  26  27
HETATM   27  C5  UNL     1      13.193  37.411 -10.237  1.00  0.00     0.020 C 
BRANCH  27  28
HETATM   28  C4  UNL     1      13.518  37.749 -11.662  1.00  0.00     0.002 C 
BRANCH  28  29
HETATM   29  C3  UNL     1      14.573  38.805 -11.798  1.00  0.00    -0.000 C 
BRANCH  29  30
HETATM   30  C2  UNL     1      14.146  39.836 -12.792  1.00  0.00    -0.005 C 
HETATM   31  C1  UNL     1      13.851  41.122 -12.022  1.00  0.00     0.005 C 
ENDBRANCH  29  30
ENDBRANCH  28  29
ENDBRANCH  27  28
ENDBRANCH  26  27
ENDBRANCH  24  26
ENDBRANCH   1  24
BRANCH   8  32
HETATM   32  C11 UNL     1       8.922  41.278  -4.198  1.00  0.00     0.195 C 
BRANCH  32  33
HETATM   33  S1  UNL     1       7.986  41.181  -2.624  1.00  0.00    -0.154 SA
HETATM   34  C12 UNL     1       8.845  42.238  -1.428  1.00  0.00     0.091 C 
ENDBRANCH  32  33
ENDBRANCH   8  32
BRANCH  10  35
HETATM   35  N8  UNL     1      11.142  38.043  -4.118  1.00  0.00    -0.382 N 
ATOM     36  H82 UNL     1      11.667  37.169  -4.103  1.00  0.00     0.157 HD
ATOM     37  H81 UNL     1      10.485  38.408  -3.428  1.00  0.00     0.157 HD
ENDBRANCH  10  35
TORSDOF 10
ENDMDL
