MODEL 1
REMARK VINA RESULT: -5.977508070      0.000      0.000
REMARK  1 active torsions:
REMARK  status: ('A' for Active; 'I' for Inactive)
REMARK    1  A    between atoms: C4_4  and  O1_5 
ROOT
HETATM    1  C1  UNL     1     -20.261   2.873  -7.289  1.00  0.00     0.040 C 
HETATM    2  C2  UNL     1     -20.260   1.396  -7.154  1.00  0.00     0.121 C 
HETATM    3  C3  UNL     1     -18.948   0.846  -6.597  1.00  0.00     0.073 C 
HETATM    4  C4  UNL     1     -19.128  -0.637  -6.953  1.00  0.00     0.095 C 
HETATM    5  C5  UNL     1     -17.854  -1.374  -7.001  1.00  0.00     0.019 C 
HETATM    6  C6  UNL     1     -18.077  -2.791  -6.456  1.00  0.00     0.013 C 
HETATM    7  C7  UNL     1     -17.186  -1.445  -8.327  1.00  0.00     0.008 C 
HETATM    8  C8  UNL     1     -18.182  -1.922  -9.344  1.00  0.00     0.012 C 
HETATM    9  C9  UNL     1     -19.421  -1.117  -9.415  1.00  0.00    -0.010 C 
HETATM   10  C10 UNL     1     -19.196  -0.010 -10.455  1.00  0.00     0.018 C 
HETATM   11  C11 UNL     1     -20.498  -2.020 -10.032  1.00  0.00     0.012 C 
HETATM   12  C12 UNL     1     -21.744  -1.494  -9.358  1.00  0.00     0.004 C 
HETATM   13  C13 UNL     1     -21.269  -1.318  -7.933  1.00  0.00     0.042 C 
HETATM   14  C14 UNL     1     -19.946  -0.575  -8.162  1.00  0.00     0.100 C 
HETATM   15  O2  UNL     1     -20.325   0.769  -8.380  1.00  0.00    -0.371 OA
ENDROOT
BRANCH   4  16
HETATM   16  O1  UNL     1     -19.878  -1.171  -5.877  1.00  0.00    -0.386 OA
ATOM     17  H1  UNL     1     -20.010  -0.434  -5.292  1.00  0.00     0.210 HD
ENDBRANCH   4  16
TORSDOF 1
ENDMDL
MODEL 2
REMARK VINA RESULT: -5.882608119      1.438      3.070
REMARK  1 active torsions:
REMARK  status: ('A' for Active; 'I' for Inactive)
REMARK    1  A    between atoms: C4_4  and  O1_5 
ROOT
HETATM    1  C1  UNL     1     -15.524   0.121  -7.067  1.00  0.00     0.040 C 
HETATM    2  C2  UNL     1     -16.988  -0.020  -6.873  1.00  0.00     0.121 C 
HETATM    3  C3  UNL     1     -17.518  -1.390  -7.292  1.00  0.00     0.073 C 
HETATM    4  C4  UNL     1     -19.020  -1.071  -7.343  1.00  0.00     0.095 C 
HETATM    5  C5  UNL     1     -19.779  -2.018  -8.176  1.00  0.00     0.019 C 
HETATM    6  C6  UNL     1     -21.151  -2.261  -7.531  1.00  0.00     0.013 C 
HETATM    7  C7  UNL     1     -19.954  -1.643  -9.604  1.00  0.00     0.008 C 
HETATM    8  C8  UNL     1     -20.486  -0.241  -9.672  1.00  0.00     0.012 C 
HETATM    9  C9  UNL     1     -19.668   0.762  -8.955  1.00  0.00    -0.010 C 
HETATM   10  C10 UNL     1     -18.641   1.320  -9.950  1.00  0.00     0.018 C 
HETATM   11  C11 UNL     1     -20.595   1.946  -8.644  1.00  0.00     0.012 C 
HETATM   12  C12 UNL     1     -20.001   2.450  -7.349  1.00  0.00     0.004 C 
HETATM   13  C13 UNL     1     -19.733   1.157  -6.611  1.00  0.00     0.042 C 
HETATM   14  C14 UNL     1     -19.030   0.344  -7.707  1.00  0.00     0.100 C 
HETATM   15  O2  UNL     1     -17.699   0.818  -7.704  1.00  0.00    -0.371 OA
ENDROOT
BRANCH   4  16
HETATM   16  O1  UNL     1     -19.464  -1.240  -6.009  1.00  0.00    -0.386 OA
ATOM     17  H1  UNL     1     -19.281  -0.406  -5.591  1.00  0.00     0.210 HD
ENDBRANCH   4  16
TORSDOF 1
ENDMDL
MODEL 3
REMARK VINA RESULT: -5.844168464      1.356      3.654
REMARK  1 active torsions:
REMARK  status: ('A' for Active; 'I' for Inactive)
REMARK    1  A    between atoms: C4_4  and  O1_5 
ROOT
HETATM    1  C1  UNL     1     -16.104  -1.553  -6.804  1.00  0.00     0.040 C 
HETATM    2  C2  UNL     1     -17.083  -0.795  -7.620  1.00  0.00     0.121 C 
HETATM    3  C3  UNL     1     -17.596   0.465  -6.924  1.00  0.00     0.073 C 
HETATM    4  C4  UNL     1     -18.813   0.763  -7.812  1.00  0.00     0.095 C 
HETATM    5  C5  UNL     1     -19.812   1.616  -7.148  1.00  0.00     0.019 C 
HETATM    6  C6  UNL     1     -20.424   2.568  -8.185  1.00  0.00     0.013 C 
HETATM    7  C7  UNL     1     -20.895   0.911  -6.413  1.00  0.00     0.008 C 
HETATM    8  C8  UNL     1     -21.507  -0.113  -7.324  1.00  0.00     0.012 C 
HETATM    9  C9  UNL     1     -20.543  -1.074  -7.904  1.00  0.00    -0.010 C 
HETATM   10  C10 UNL     1     -20.454  -2.274  -6.950  1.00  0.00     0.018 C 
HETATM   11  C11 UNL     1     -21.192  -1.635  -9.177  1.00  0.00     0.012 C 
HETATM   12  C12 UNL     1     -19.975  -1.895 -10.036  1.00  0.00     0.004 C 
HETATM   13  C13 UNL     1     -19.153  -0.651  -9.785  1.00  0.00     0.042 C 
HETATM   14  C14 UNL     1     -19.216  -0.570  -8.254  1.00  0.00     0.100 C 
HETATM   15  O2  UNL     1     -18.251  -1.502  -7.808  1.00  0.00    -0.371 OA
ENDROOT
BRANCH   4  16
HETATM   16  O1  UNL     1     -18.287   1.504  -8.898  1.00  0.00    -0.386 OA
ATOM     17  H1  UNL     1     -17.721   0.890  -9.352  1.00  0.00     0.210 HD
ENDBRANCH   4  16
TORSDOF 1
ENDMDL
MODEL 4
REMARK VINA RESULT: -5.842075012      1.679      3.386
REMARK  1 active torsions:
REMARK  status: ('A' for Active; 'I' for Inactive)
REMARK    1  A    between atoms: C4_4  and  O1_5 
ROOT
HETATM    1  C1  UNL     1     -15.694  -0.379  -6.843  1.00  0.00     0.040 C 
HETATM    2  C2  UNL     1     -16.906   0.317  -7.341  1.00  0.00     0.121 C 
HETATM    3  C3  UNL     1     -17.977   0.497  -6.267  1.00  0.00     0.073 C 
HETATM    4  C4  UNL     1     -19.172   0.855  -7.164  1.00  0.00     0.095 C 
HETATM    5  C5  UNL     1     -20.470   0.618  -6.512  1.00  0.00     0.019 C 
HETATM    6  C6  UNL     1     -21.451   1.719  -6.939  1.00  0.00     0.013 C 
HETATM    7  C7  UNL     1     -21.084  -0.717  -6.735  1.00  0.00     0.008 C 
HETATM    8  C8  UNL     1     -21.106  -0.996  -8.210  1.00  0.00     0.012 C 
HETATM    9  C9  UNL     1     -19.787  -0.899  -8.873  1.00  0.00    -0.010 C 
HETATM   10  C10 UNL     1     -19.141  -2.291  -8.826  1.00  0.00     0.018 C 
HETATM   11  C11 UNL     1     -20.061  -0.646 -10.363  1.00  0.00     0.012 C 
HETATM   12  C12 UNL     1     -18.858   0.186 -10.744  1.00  0.00     0.004 C 
HETATM   13  C13 UNL     1     -18.749   1.125  -9.564  1.00  0.00     0.042 C 
HETATM   14  C14 UNL     1     -18.868   0.134  -8.398  1.00  0.00     0.100 C 
HETATM   15  O2  UNL     1     -17.578  -0.434  -8.281  1.00  0.00    -0.371 OA
ENDROOT
BRANCH   4  16
HETATM   16  O1  UNL     1     -19.055   2.251  -7.368  1.00  0.00    -0.386 OA
ATOM     17  H1  UNL     1     -18.500   2.334  -8.135  1.00  0.00     0.210 HD
ENDBRANCH   4  16
TORSDOF 1
ENDMDL
MODEL 5
REMARK VINA RESULT: -5.728618711      1.365      3.460
REMARK  1 active torsions:
REMARK  status: ('A' for Active; 'I' for Inactive)
REMARK    1  A    between atoms: C4_4  and  O1_5 
ROOT
HETATM    1  C1  UNL     1     -22.392  -2.804  -9.352  1.00  0.00     0.040 C 
HETATM    2  C2  UNL     1     -21.621  -2.073  -8.317  1.00  0.00     0.121 C 
HETATM    3  C3  UNL     1     -21.626  -0.559  -8.523  1.00  0.00     0.073 C 
HETATM    4  C4  UNL     1     -20.476  -0.175  -7.581  1.00  0.00     0.095 C 
HETATM    5  C5  UNL     1     -19.889   1.138  -7.898  1.00  0.00     0.019 C 
HETATM    6  C6  UNL     1     -19.501   1.840  -6.589  1.00  0.00     0.013 C 
HETATM    7  C7  UNL     1     -18.730   1.132  -8.828  1.00  0.00     0.008 C 
HETATM    8  C8  UNL     1     -17.719   0.139  -8.332  1.00  0.00     0.012 C 
HETATM    9  C9  UNL     1     -18.248  -1.228  -8.132  1.00  0.00    -0.010 C 
HETATM   10  C10 UNL     1     -18.056  -1.996  -9.448  1.00  0.00     0.018 C 
HETATM   11  C11 UNL     1     -17.310  -1.922  -7.134  1.00  0.00     0.012 C 
HETATM   12  C12 UNL     1     -18.270  -2.852  -6.428  1.00  0.00     0.004 C 
HETATM   13  C13 UNL     1     -19.472  -1.957  -6.229  1.00  0.00     0.042 C 
HETATM   14  C14 UNL     1     -19.617  -1.356  -7.634  1.00  0.00     0.100 C 
HETATM   15  O2  UNL     1     -20.275  -2.357  -8.384  1.00  0.00    -0.371 OA
ENDROOT
BRANCH   4  16
HETATM   16  O1  UNL     1     -21.083  -0.064  -6.307  1.00  0.00    -0.386 OA
ATOM     17  H1  UNL     1     -21.644   0.700  -6.377  1.00  0.00     0.210 HD
ENDBRANCH   4  16
TORSDOF 1
ENDMDL
