MODEL 1
REMARK VINA RESULT: -7.496115799      0.000      0.000
REMARK  1 active torsions:
REMARK  status: ('A' for Active; 'I' for Inactive)
REMARK    1  A    between atoms: C10_11  and  N1_12 
ROOT
HETATM    1  C1  UNL     1     -18.308  -2.797  -6.589  1.00  0.00     0.020 C 
HETATM    2  C2  UNL     1     -17.623  -3.165  -7.869  1.00  0.00     0.009 C 
HETATM    3  C3  UNL     1     -18.164  -2.434  -9.107  1.00  0.00     0.181 C 
HETATM    4  O1  UNL     1     -16.837  -2.525  -9.596  1.00  0.00    -0.379 OA
HETATM    5  C4  UNL     1     -16.445  -2.330  -8.258  1.00  0.00     0.067 C 
HETATM    6  C5  UNL     1     -16.523  -0.892  -7.907  1.00  0.00     0.047 C 
HETATM    7  C6  UNL     1     -15.145  -2.942  -7.871  1.00  0.00     0.043 C 
HETATM    8  C7  UNL     1     -14.986  -4.354  -8.458  1.00  0.00    -0.008 C 
HETATM    9  C8  UNL     1     -13.711  -4.911  -7.962  1.00  0.00     0.007 C 
HETATM   10  C9  UNL     1     -13.059  -5.950  -8.787  1.00  0.00     0.033 C 
HETATM   11  C10 UNL     1     -13.865  -6.939  -9.481  1.00  0.00     0.183 C 
HETATM   12  C11 UNL     1     -15.350  -6.778  -9.492  1.00  0.00     0.033 C 
HETATM   13  C12 UNL     1     -15.982  -6.601  -8.158  1.00  0.00     0.007 C 
HETATM   14  C13 UNL     1     -16.111  -5.156  -7.843  1.00  0.00    -0.009 C 
HETATM   15  C14 UNL     1     -17.465  -4.606  -8.173  1.00  0.00     0.019 C 
ENDROOT
BRANCH  11  16
HETATM   16  N1  UNL     1     -13.592  -8.300  -8.981  1.00  0.00    -0.075 N 
ATOM     17  H13 UNL     1     -12.689  -8.351  -8.508  1.00  0.00     0.274 HD
ATOM     18  H12 UNL     1     -14.195  -8.538  -8.194  1.00  0.00     0.274 HD
ATOM     19  H11 UNL     1     -13.662  -8.991  -9.728  1.00  0.00     0.274 HD
ENDBRANCH  11  16
TORSDOF 1
ENDMDL
MODEL 2
REMARK VINA RESULT: -7.011113409      1.420      2.670
REMARK  1 active torsions:
REMARK  status: ('A' for Active; 'I' for Inactive)
REMARK    1  A    between atoms: C10_11  and  N1_12 
ROOT
HETATM    1  C1  UNL     1     -18.404  -1.273  -9.476  1.00  0.00     0.020 C 
HETATM    2  C2  UNL     1     -17.643  -1.907  -8.353  1.00  0.00     0.009 C 
HETATM    3  C3  UNL     1     -17.803  -1.196  -7.001  1.00  0.00     0.181 C 
HETATM    4  O1  UNL     1     -17.653  -2.487  -6.436  1.00  0.00    -0.379 OA
HETATM    5  C4  UNL     1     -18.371  -2.943  -7.558  1.00  0.00     0.067 C 
HETATM    6  C5  UNL     1     -19.822  -2.715  -7.364  1.00  0.00     0.047 C 
HETATM    7  C6  UNL     1     -18.066  -4.333  -7.997  1.00  0.00     0.043 C 
HETATM    8  C7  UNL     1     -16.557  -4.623  -7.954  1.00  0.00    -0.008 C 
HETATM    9  C8  UNL     1     -16.343  -5.988  -8.476  1.00  0.00     0.007 C 
HETATM   10  C9  UNL     1     -15.131  -6.703  -8.022  1.00  0.00     0.033 C 
HETATM   11  C10 UNL     1     -13.887  -5.979  -7.832  1.00  0.00     0.183 C 
HETATM   12  C11 UNL     1     -13.901  -4.489  -7.927  1.00  0.00     0.033 C 
HETATM   13  C12 UNL     1     -14.510  -3.933  -9.164  1.00  0.00     0.007 C 
HETATM   14  C13 UNL     1     -15.950  -3.650  -8.940  1.00  0.00    -0.009 C 
HETATM   15  C14 UNL     1     -16.214  -2.220  -8.583  1.00  0.00     0.019 C 
ENDROOT
BRANCH  11  16
HETATM   16  N1  UNL     1     -12.844  -6.451  -8.763  1.00  0.00    -0.075 N 
ATOM     17  H13 UNL     1     -12.041  -5.821  -8.778  1.00  0.00     0.274 HD
ATOM     18  H12 UNL     1     -12.380  -7.288  -8.411  1.00  0.00     0.274 HD
ATOM     19  H11 UNL     1     -13.221  -6.598  -9.699  1.00  0.00     0.274 HD
ENDBRANCH  11  16
TORSDOF 1
ENDMDL
MODEL 3
REMARK VINA RESULT: -6.885120375      1.220      1.560
REMARK  1 active torsions:
REMARK  status: ('A' for Active; 'I' for Inactive)
REMARK    1  A    between atoms: C10_11  and  N1_12 
ROOT
HETATM    1  C1  UNL     1     -19.363  -2.015  -6.565  1.00  0.00     0.020 C 
HETATM    2  C2  UNL     1     -18.595  -2.314  -7.815  1.00  0.00     0.009 C 
HETATM    3  C3  UNL     1     -19.263  -1.809  -9.103  1.00  0.00     0.181 C 
HETATM    4  O1  UNL     1     -17.941  -1.643  -9.584  1.00  0.00    -0.379 OA
HETATM    5  C4  UNL     1     -17.622  -1.272  -8.264  1.00  0.00     0.067 C 
HETATM    6  C5  UNL     1     -18.016   0.136  -8.019  1.00  0.00     0.047 C 
HETATM    7  C6  UNL     1     -16.225  -1.556  -7.835  1.00  0.00     0.043 C 
HETATM    8  C7  UNL     1     -15.754  -2.938  -8.318  1.00  0.00    -0.008 C 
HETATM    9  C8  UNL     1     -14.396  -3.166  -7.783  1.00  0.00     0.007 C 
HETATM   10  C9  UNL     1     -13.521  -4.094  -8.531  1.00  0.00     0.033 C 
HETATM   11  C10 UNL     1     -14.082  -5.281  -9.151  1.00  0.00     0.183 C 
HETATM   12  C11 UNL     1     -15.565  -5.449  -9.173  1.00  0.00     0.033 C 
HETATM   13  C12 UNL     1     -16.241  -5.320  -7.854  1.00  0.00     0.007 C 
HETATM   14  C13 UNL     1     -16.687  -3.920  -7.645  1.00  0.00    -0.009 C 
HETATM   15  C14 UNL     1     -18.122  -3.704  -8.014  1.00  0.00     0.019 C 
ENDROOT
BRANCH  11  16
HETATM   16  N1  UNL     1     -13.526  -6.511  -8.553  1.00  0.00    -0.075 N 
ATOM     17  H13 UNL     1     -14.064  -6.808  -7.739  1.00  0.00     0.274 HD
ATOM     18  H12 UNL     1     -13.685  -7.322  -9.150  1.00  0.00     0.274 HD
ATOM     19  H11 UNL     1     -12.538  -6.400  -8.328  1.00  0.00     0.274 HD
ENDBRANCH  11  16
TORSDOF 1
ENDMDL
MODEL 4
REMARK VINA RESULT: -6.841047948      2.010      3.397
REMARK  1 active torsions:
REMARK  status: ('A' for Active; 'I' for Inactive)
REMARK    1  A    between atoms: C10_11  and  N1_12 
ROOT
HETATM    1  C1  UNL     1     -12.896  -0.185  -8.015  1.00  0.00     0.020 C 
HETATM    2  C2  UNL     1     -13.557  -1.295  -7.258  1.00  0.00     0.009 C 
HETATM    3  C3  UNL     1     -13.864  -0.964  -5.790  1.00  0.00     0.181 C 
HETATM    4  O1  UNL     1     -14.981  -1.820  -5.951  1.00  0.00    -0.379 OA
HETATM    5  C4  UNL     1     -15.053  -1.302  -7.259  1.00  0.00     0.067 C 
HETATM    6  C5  UNL     1     -15.710   0.026  -7.247  1.00  0.00     0.047 C 
HETATM    7  C6  UNL     1     -15.629  -2.215  -8.283  1.00  0.00     0.043 C 
HETATM    8  C7  UNL     1     -15.112  -3.653  -8.117  1.00  0.00    -0.008 C 
HETATM    9  C8  UNL     1     -15.672  -4.466  -9.215  1.00  0.00     0.007 C 
HETATM   10  C9  UNL     1     -15.812  -5.919  -8.978  1.00  0.00     0.033 C 
HETATM   11  C10 UNL     1     -14.802  -6.633  -8.216  1.00  0.00     0.183 C 
HETATM   12  C11 UNL     1     -13.730  -5.850  -7.533  1.00  0.00     0.033 C 
HETATM   13  C12 UNL     1     -12.988  -4.894  -8.398  1.00  0.00     0.007 C 
HETATM   14  C13 UNL     1     -13.618  -3.552  -8.331  1.00  0.00    -0.009 C 
HETATM   15  C14 UNL     1     -12.950  -2.643  -7.346  1.00  0.00     0.019 C 
ENDROOT
BRANCH  11  16
HETATM   16  N1  UNL     1     -14.122  -7.646  -9.046  1.00  0.00    -0.075 N 
ATOM     17  H13 UNL     1     -14.742  -8.425  -9.270  1.00  0.00     0.274 HD
ATOM     18  H12 UNL     1     -13.952  -7.304  -9.991  1.00  0.00     0.274 HD
ATOM     19  H11 UNL     1     -13.261  -7.969  -8.604  1.00  0.00     0.274 HD
ENDBRANCH  11  16
TORSDOF 1
ENDMDL
MODEL 5
REMARK VINA RESULT: -6.734772793      1.769      2.539
REMARK  1 active torsions:
REMARK  status: ('A' for Active; 'I' for Inactive)
REMARK    1  A    between atoms: C10_11  and  N1_12 
ROOT
HETATM    1  C1  UNL     1     -19.948  -1.639  -6.545  1.00  0.00     0.020 C 
HETATM    2  C2  UNL     1     -19.012  -1.655  -7.714  1.00  0.00     0.009 C 
HETATM    3  C3  UNL     1     -19.561  -0.965  -8.972  1.00  0.00     0.181 C 
HETATM    4  O1  UNL     1     -18.209  -0.630  -9.235  1.00  0.00    -0.379 OA
HETATM    5  C4  UNL     1     -18.085  -0.488  -7.840  1.00  0.00     0.067 C 
HETATM    6  C5  UNL     1     -18.626   0.823  -7.409  1.00  0.00     0.047 C 
HETATM    7  C6  UNL     1     -16.732  -0.758  -7.283  1.00  0.00     0.043 C 
HETATM    8  C7  UNL     1     -16.087  -1.994  -7.931  1.00  0.00    -0.008 C 
HETATM    9  C8  UNL     1     -14.790  -2.231  -7.267  1.00  0.00     0.007 C 
HETATM   10  C9  UNL     1     -13.754  -2.948  -8.041  1.00  0.00     0.033 C 
HETATM   11  C10 UNL     1     -14.131  -4.035  -8.927  1.00  0.00     0.183 C 
HETATM   12  C11 UNL     1     -15.581  -4.289  -9.177  1.00  0.00     0.033 C 
HETATM   13  C12 UNL     1     -16.420  -4.448  -7.959  1.00  0.00     0.007 C 
HETATM   14  C13 UNL     1     -17.007  -3.140  -7.571  1.00  0.00    -0.009 C 
HETATM   15  C14 UNL     1     -18.400  -2.951  -8.086  1.00  0.00     0.019 C 
ENDROOT
BRANCH  11  16
HETATM   16  N1  UNL     1     -13.547  -5.316  -8.483  1.00  0.00    -0.075 N 
ATOM     17  H13 UNL     1     -13.720  -5.482  -7.491  1.00  0.00     0.274 HD
ATOM     18  H12 UNL     1     -14.057  -6.112  -8.866  1.00  0.00     0.274 HD
ATOM     19  H11 UNL     1     -12.553  -5.366  -8.704  1.00  0.00     0.274 HD
ENDBRANCH  11  16
TORSDOF 1
ENDMDL
