MODEL 1
REMARK VINA RESULT: -5.464709401      0.000      0.000
REMARK  5 active torsions:
REMARK  status: ('A' for Active; 'I' for Inactive)
REMARK    1  A    between atoms: C2_2  and  C3_3 
REMARK    2  A    between atoms: C3_3  and  N1_4 
REMARK    3  A    between atoms: N1_4  and  C4_6 
REMARK    4  A    between atoms: C5_9  and  C6_10 
REMARK    5  A    between atoms: C6_10  and  N3_12 
ROOT
HETATM    1  C4  UNL     1      21.633   3.598  57.364  1.00  0.00     0.144 A 
HETATM    2  N2  UNL     1      21.147   2.378  57.603  1.00  0.00    -0.334 N 
ATOM      3  H2  UNL     1      20.499   2.221  58.375  1.00  0.00     0.168 HD
HETATM    4  C5  UNL     1      21.512   1.398  56.838  1.00  0.00     0.079 A 
HETATM    5  C9  UNL     1      22.385   1.665  55.817  1.00  0.00     0.086 A 
HETATM    6  S2  UNL     1      22.641   3.347  56.011  1.00  0.00    -0.064 SA
ENDROOT
BRANCH   1   7
HETATM    7  N1  UNL     1      21.410   4.718  57.993  1.00  0.00    -0.370 N 
ATOM      8  H1  UNL     1      21.324   4.738  59.009  1.00  0.00     0.161 HD
BRANCH   7   9
HETATM    9  C3  UNL     1      21.284   5.947  57.207  1.00  0.00     0.121 C 
BRANCH   9  10
HETATM   10  C2  UNL     1      19.921   6.051  56.570  1.00  0.00     0.015 C 
HETATM   11  C1  UNL     1      20.016   6.120  55.055  1.00  0.00     0.006 C 
ENDBRANCH   9  10
ENDBRANCH   7   9
ENDBRANCH   1   7
BRANCH   4  12
HETATM   12  C6  UNL     1      21.032  -0.003  57.012  1.00  0.00     0.125 C 
HETATM   13  S1  UNL     1      21.315  -0.804  58.397  1.00  0.00    -0.058 SA
BRANCH  12  14
HETATM   14  N3  UNL     1      20.325  -0.633  55.957  1.00  0.00    -0.379 N 
HETATM   15  C7  UNL     1      19.484   0.098  55.030  1.00  0.00     0.150 C 
HETATM   16  C8  UNL     1      20.452  -2.060  55.804  1.00  0.00     0.150 C 
ENDBRANCH  12  14
ENDBRANCH   4  12
TORSDOF 5
ENDMDL
MODEL 2
REMARK VINA RESULT: -5.296666503      2.414      2.866
REMARK  5 active torsions:
REMARK  status: ('A' for Active; 'I' for Inactive)
REMARK    1  A    between atoms: C2_2  and  C3_3 
REMARK    2  A    between atoms: C3_3  and  N1_4 
REMARK    3  A    between atoms: N1_4  and  C4_6 
REMARK    4  A    between atoms: C5_9  and  C6_10 
REMARK    5  A    between atoms: C6_10  and  N3_12 
ROOT
HETATM    1  C4  UNL     1      21.792   2.659  56.310  1.00  0.00     0.144 A 
HETATM    2  N2  UNL     1      21.211   2.301  55.163  1.00  0.00    -0.334 N 
ATOM      3  H2  UNL     1      21.092   2.979  54.409  1.00  0.00     0.168 HD
HETATM    4  C5  UNL     1      20.801   1.081  55.022  1.00  0.00     0.079 A 
HETATM    5  C9  UNL     1      20.985   0.212  56.066  1.00  0.00     0.086 A 
HETATM    6  S2  UNL     1      21.755   1.217  57.219  1.00  0.00    -0.064 SA
ENDROOT
BRANCH   1   7
HETATM    7  N1  UNL     1      22.275   3.815  56.670  1.00  0.00    -0.370 N 
ATOM      8  H1  UNL     1      23.190   4.124  56.342  1.00  0.00     0.161 HD
BRANCH   7   9
HETATM    9  C3  UNL     1      21.474   4.661  57.557  1.00  0.00     0.121 C 
BRANCH   9  10
HETATM   10  C2  UNL     1      21.316   6.050  56.992  1.00  0.00     0.015 C 
HETATM   11  C1  UNL     1      20.321   6.078  55.845  1.00  0.00     0.006 C 
ENDBRANCH   9  10
ENDBRANCH   7   9
ENDBRANCH   1   7
BRANCH   4  12
HETATM   12  C6  UNL     1      20.140   0.572  53.786  1.00  0.00     0.125 C 
HETATM   13  S1  UNL     1      18.718   1.190  53.299  1.00  0.00    -0.058 SA
BRANCH  12  14
HETATM   14  N3  UNL     1      20.763  -0.458  53.036  1.00  0.00    -0.379 N 
HETATM   15  C7  UNL     1      20.351  -1.845  53.116  1.00  0.00     0.150 C 
HETATM   16  C8  UNL     1      21.851  -0.104  52.161  1.00  0.00     0.150 C 
ENDBRANCH  12  14
ENDBRANCH   4  12
TORSDOF 5
ENDMDL
MODEL 3
REMARK VINA RESULT: -5.292720449      2.242      2.554
REMARK  5 active torsions:
REMARK  status: ('A' for Active; 'I' for Inactive)
REMARK    1  A    between atoms: C2_2  and  C3_3 
REMARK    2  A    between atoms: C3_3  and  N1_4 
REMARK    3  A    between atoms: N1_4  and  C4_6 
REMARK    4  A    between atoms: C5_9  and  C6_10 
REMARK    5  A    between atoms: C6_10  and  N3_12 
ROOT
HETATM    1  C4  UNL     1      21.535   2.785  55.879  1.00  0.00     0.144 A 
HETATM    2  N2  UNL     1      21.155   1.891  54.963  1.00  0.00    -0.334 N 
ATOM      3  H2  UNL     1      20.986   2.177  53.999  1.00  0.00     0.168 HD
HETATM    4  C5  UNL     1      21.006   0.655  55.320  1.00  0.00     0.079 A 
HETATM    5  C9  UNL     1      21.246   0.325  56.628  1.00  0.00     0.086 A 
HETATM    6  S2  UNL     1      21.684   1.842  57.291  1.00  0.00    -0.064 SA
ENDROOT
BRANCH   1   7
HETATM    7  N1  UNL     1      21.746   4.066  55.751  1.00  0.00    -0.370 N 
ATOM      8  H1  UNL     1      22.141   4.446  54.891  1.00  0.00     0.161 HD
BRANCH   7   9
HETATM    9  C3  UNL     1      21.401   4.945  56.870  1.00  0.00     0.121 C 
BRANCH   9  10
HETATM   10  C2  UNL     1      20.738   6.210  56.387  1.00  0.00     0.015 C 
HETATM   11  C1  UNL     1      19.949   5.975  55.111  1.00  0.00     0.006 C 
ENDBRANCH   9  10
ENDBRANCH   7   9
ENDBRANCH   1   7
BRANCH   4  12
HETATM   12  C6  UNL     1      20.587  -0.427  54.382  1.00  0.00     0.125 C 
HETATM   13  S1  UNL     1      20.166  -1.890  54.951  1.00  0.00    -0.058 SA
BRANCH  12  14
HETATM   14  N3  UNL     1      20.559  -0.169  52.989  1.00  0.00    -0.379 N 
HETATM   15  C7  UNL     1      21.751  -0.187  52.164  1.00  0.00     0.150 C 
HETATM   16  C8  UNL     1      19.291   0.123  52.372  1.00  0.00     0.150 C 
ENDBRANCH  12  14
ENDBRANCH   4  12
TORSDOF 5
ENDMDL
MODEL 4
REMARK VINA RESULT: -5.198347394      2.630      3.484
REMARK  5 active torsions:
REMARK  status: ('A' for Active; 'I' for Inactive)
REMARK    1  A    between atoms: C2_2  and  C3_3 
REMARK    2  A    between atoms: C3_3  and  N1_4 
REMARK    3  A    between atoms: N1_4  and  C4_6 
REMARK    4  A    between atoms: C5_9  and  C6_10 
REMARK    5  A    between atoms: C6_10  and  N3_12 
ROOT
HETATM    1  C4  UNL     1      22.125   1.756  55.925  1.00  0.00     0.144 A 
HETATM    2  N2  UNL     1      21.839   1.552  54.637  1.00  0.00    -0.334 N 
ATOM      3  H2  UNL     1      22.178   2.197  53.923  1.00  0.00     0.168 HD
HETATM    4  C5  UNL     1      21.124   0.523  54.310  1.00  0.00     0.079 A 
HETATM    5  C9  UNL     1      20.693  -0.310  55.309  1.00  0.00     0.086 A 
HETATM    6  S2  UNL     1      21.354   0.446  56.697  1.00  0.00    -0.064 SA
ENDROOT
BRANCH   1   7
HETATM    7  N1  UNL     1      22.818   2.712  56.480  1.00  0.00    -0.370 N 
ATOM      8  H1  UNL     1      23.821   2.792  56.314  1.00  0.00     0.161 HD
BRANCH   7   9
HETATM    9  C3  UNL     1      22.123   3.666  57.346  1.00  0.00     0.121 C 
BRANCH   9  10
HETATM   10  C2  UNL     1      21.340   4.669  56.537  1.00  0.00     0.015 C 
HETATM   11  C1  UNL     1      21.334   6.037  57.197  1.00  0.00     0.006 C 
ENDBRANCH   9  10
ENDBRANCH   7   9
ENDBRANCH   1   7
BRANCH   4  12
HETATM   12  C6  UNL     1      20.745   0.197  52.905  1.00  0.00     0.125 C 
HETATM   13  S1  UNL     1      21.851  -0.395  51.871  1.00  0.00    -0.058 SA
BRANCH  12  14
HETATM   14  N3  UNL     1      19.411   0.408  52.476  1.00  0.00    -0.379 N 
HETATM   15  C7  UNL     1      18.548   1.414  53.064  1.00  0.00     0.150 C 
HETATM   16  C8  UNL     1      18.896  -0.415  51.412  1.00  0.00     0.150 C 
ENDBRANCH  12  14
ENDBRANCH   4  12
TORSDOF 5
ENDMDL
MODEL 5
REMARK VINA RESULT: -5.182883204      2.541      3.115
REMARK  5 active torsions:
REMARK  status: ('A' for Active; 'I' for Inactive)
REMARK    1  A    between atoms: C2_2  and  C3_3 
REMARK    2  A    between atoms: C3_3  and  N1_4 
REMARK    3  A    between atoms: N1_4  and  C4_6 
REMARK    4  A    between atoms: C5_9  and  C6_10 
REMARK    5  A    between atoms: C6_10  and  N3_12 
ROOT
HETATM    1  C4  UNL     1      21.940   2.254  55.802  1.00  0.00     0.144 A 
HETATM    2  N2  UNL     1      21.424   1.702  54.702  1.00  0.00    -0.334 N 
ATOM      3  H2  UNL     1      21.479   2.186  53.805  1.00  0.00     0.168 HD
HETATM    4  C5  UNL     1      20.851   0.544  54.792  1.00  0.00     0.079 A 
HETATM    5  C9  UNL     1      20.803  -0.061  56.020  1.00  0.00     0.086 A 
HETATM    6  S2  UNL     1      21.602   1.092  57.003  1.00  0.00    -0.064 SA
ENDROOT
BRANCH   1   7
HETATM    7  N1  UNL     1      22.555   3.395  55.949  1.00  0.00    -0.370 N 
ATOM      8  H1  UNL     1      23.426   3.585  55.454  1.00  0.00     0.161 HD
BRANCH   7   9
HETATM    9  C3  UNL     1      21.965   4.396  56.839  1.00  0.00     0.121 C 
BRANCH   9  10
HETATM   10  C2  UNL     1      20.856   5.153  56.152  1.00  0.00     0.015 C 
HETATM   11  C1  UNL     1      20.775   6.589  56.640  1.00  0.00     0.006 C 
ENDBRANCH   9  10
ENDBRANCH   7   9
ENDBRANCH   1   7
BRANCH   4  12
HETATM   12  C6  UNL     1      20.241  -0.165  53.630  1.00  0.00     0.125 C 
HETATM   13  S1  UNL     1      20.336  -1.783  53.512  1.00  0.00    -0.058 SA
BRANCH  12  14
HETATM   14  N3  UNL     1      19.577   0.585  52.627  1.00  0.00    -0.379 N 
HETATM   15  C7  UNL     1      20.115   0.758  51.292  1.00  0.00     0.150 C 
HETATM   16  C8  UNL     1      18.315   1.198  52.954  1.00  0.00     0.150 C 
ENDBRANCH  12  14
ENDBRANCH   4  12
TORSDOF 5
ENDMDL
