MODEL 1
REMARK VINA RESULT: -6.726413530      0.000      0.000
REMARK  6 active torsions:
REMARK  status: ('A' for Active; 'I' for Inactive)
REMARK    1  A    between atoms: C2_2  and  C3_3 
REMARK    2  A    between atoms: C3_3  and  C4_4 
REMARK    3  A    between atoms: C4_4  and  C5_5 
REMARK    4  A    between atoms: C5_5  and  C6_6 
REMARK    5  A    between atoms: C7_7  and  C8_8 
REMARK    6  A    between atoms: N1_11  and  O2_12 
ROOT
HETATM    1  C8  UNL     1      21.725  -0.013  54.133  1.00  0.00     0.176 C 
HETATM    2  C9  UNL     1      21.612   0.207  52.670  1.00  0.00     0.267 C 
HETATM    3  O1  UNL     1      22.481  -0.004  51.815  1.00  0.00    -0.269 OA
HETATM    4  N1  UNL     1      20.302   0.710  52.455  1.00  0.00    -0.155 N 
HETATM    5  C10 UNL     1      19.511   0.497  53.632  1.00  0.00     0.260 C 
HETATM    6  O3  UNL     1      18.369   1.003  53.891  1.00  0.00    -0.270 OA
HETATM    7  C11 UNL     1      20.306  -0.435  54.475  1.00  0.00     0.059 C 
HETATM    8  C12 UNL     1      20.006  -0.252  55.946  1.00  0.00     0.027 C 
HETATM    9  C13 UNL     1      20.043  -1.843  54.046  1.00  0.00     0.027 C 
ENDROOT
BRANCH   1  10
HETATM   10  C7  UNL     1      22.014   1.234  54.845  1.00  0.00    -0.091 C 
HETATM   11  C6  UNL     1      22.265   2.247  55.442  1.00  0.00    -0.106 C 
BRANCH  11  12
HETATM   12  C5  UNL     1      22.602   3.496  56.178  1.00  0.00     0.094 C 
BRANCH  12  13
HETATM   13  C4  UNL     1      21.356   4.315  56.178  1.00  0.00     0.012 C 
BRANCH  13  14
HETATM   14  C3  UNL     1      21.537   5.518  57.053  1.00  0.00     0.000 C 
BRANCH  14  15
HETATM   15  C2  UNL     1      20.778   6.697  56.535  1.00  0.00    -0.005 C 
HETATM   16  C1  UNL     1      20.077   6.293  55.236  1.00  0.00     0.005 C 
ENDBRANCH  14  15
ENDBRANCH  13  14
ENDBRANCH  12  13
ENDBRANCH  11  12
ENDBRANCH   1  10
BRANCH   4  17
HETATM   17  O2  UNL     1      19.808   1.311  51.333  1.00  0.00    -0.277 OA
ATOM     18  H2  UNL     1      18.940   1.672  51.198  1.00  0.00     0.245 HD
ENDBRANCH   4  17
TORSDOF 6
ENDMDL
MODEL 2
REMARK VINA RESULT: -6.129538059      2.081      3.268
REMARK  6 active torsions:
REMARK  status: ('A' for Active; 'I' for Inactive)
REMARK    1  A    between atoms: C2_2  and  C3_3 
REMARK    2  A    between atoms: C3_3  and  C4_4 
REMARK    3  A    between atoms: C4_4  and  C5_5 
REMARK    4  A    between atoms: C5_5  and  C6_6 
REMARK    5  A    between atoms: C7_7  and  C8_8 
REMARK    6  A    between atoms: N1_11  and  O2_12 
ROOT
HETATM    1  C8  UNL     1      19.493  -0.588  51.995  1.00  0.00     0.176 C 
HETATM    2  C9  UNL     1      20.109  -0.810  50.664  1.00  0.00     0.267 C 
HETATM    3  O1  UNL     1      20.545  -1.877  50.214  1.00  0.00    -0.269 OA
HETATM    4  N1  UNL     1      20.096   0.453  50.016  1.00  0.00    -0.155 N 
HETATM    5  C10 UNL     1      19.222   1.342  50.724  1.00  0.00     0.260 C 
HETATM    6  O3  UNL     1      19.125   2.605  50.572  1.00  0.00    -0.270 OA
HETATM    7  C11 UNL     1      18.461   0.477  51.664  1.00  0.00     0.059 C 
HETATM    8  C12 UNL     1      18.026   1.238  52.896  1.00  0.00     0.027 C 
HETATM    9  C13 UNL     1      17.284  -0.114  50.956  1.00  0.00     0.027 C 
ENDROOT
BRANCH   1  10
HETATM   10  C7  UNL     1      20.451  -0.015  52.944  1.00  0.00    -0.091 C 
HETATM   11  C6  UNL     1      21.231   0.476  53.716  1.00  0.00    -0.106 C 
BRANCH  11  12
HETATM   12  C5  UNL     1      22.178   1.099  54.681  1.00  0.00     0.094 C 
BRANCH  12  13
HETATM   13  C4  UNL     1      21.496   1.051  56.006  1.00  0.00     0.012 C 
BRANCH  13  14
HETATM   14  C3  UNL     1      22.117   2.049  56.935  1.00  0.00     0.000 C 
BRANCH  14  15
HETATM   15  C2  UNL     1      22.677   3.220  56.195  1.00  0.00    -0.005 C 
HETATM   16  C1  UNL     1      21.874   4.467  56.575  1.00  0.00     0.005 C 
ENDBRANCH  14  15
ENDBRANCH  13  14
ENDBRANCH  12  13
ENDBRANCH  11  12
ENDBRANCH   1  10
BRANCH   4  17
HETATM   17  O2  UNL     1      20.781   0.827  48.895  1.00  0.00    -0.277 OA
ATOM     18  H2  UNL     1      20.714   1.645  48.417  1.00  0.00     0.245 HD
ENDBRANCH   4  17
TORSDOF 6
ENDMDL
MODEL 3
REMARK VINA RESULT: -6.102008283      1.827      2.870
REMARK  6 active torsions:
REMARK  status: ('A' for Active; 'I' for Inactive)
REMARK    1  A    between atoms: C2_2  and  C3_3 
REMARK    2  A    between atoms: C3_3  and  C4_4 
REMARK    3  A    between atoms: C4_4  and  C5_5 
REMARK    4  A    between atoms: C5_5  and  C6_6 
REMARK    5  A    between atoms: C7_7  and  C8_8 
REMARK    6  A    between atoms: N1_11  and  O2_12 
ROOT
HETATM    1  C8  UNL     1      21.565  -0.211  53.422  1.00  0.00     0.176 C 
HETATM    2  C9  UNL     1      21.441   0.294  52.032  1.00  0.00     0.267 C 
HETATM    3  O1  UNL     1      22.295   0.231  51.138  1.00  0.00    -0.269 OA
HETATM    4  N1  UNL     1      20.144   0.863  51.941  1.00  0.00    -0.155 N 
HETATM    5  C10 UNL     1      19.361   0.445  53.068  1.00  0.00     0.260 C 
HETATM    6  O3  UNL     1      18.237   0.921  53.440  1.00  0.00    -0.270 OA
HETATM    7  C11 UNL     1      20.139  -0.655  53.699  1.00  0.00     0.059 C 
HETATM    8  C12 UNL     1      19.861  -0.755  55.182  1.00  0.00     0.027 C 
HETATM    9  C13 UNL     1      19.830  -1.944  53.007  1.00  0.00     0.027 C 
ENDROOT
BRANCH   1  10
HETATM   10  C7  UNL     1      21.898   0.865  54.359  1.00  0.00    -0.091 C 
HETATM   11  C6  UNL     1      22.164   1.735  55.143  1.00  0.00    -0.106 C 
BRANCH  11  12
HETATM   12  C5  UNL     1      22.505   2.796  56.131  1.00  0.00     0.094 C 
BRANCH  12  13
HETATM   13  C4  UNL     1      21.706   2.484  57.351  1.00  0.00     0.012 C 
BRANCH  13  14
HETATM   14  C3  UNL     1      21.945   1.064  57.768  1.00  0.00     0.000 C 
BRANCH  14  15
HETATM   15  C2  UNL     1      20.787   0.511  58.533  1.00  0.00    -0.005 C 
HETATM   16  C1  UNL     1      20.964  -1.004  58.658  1.00  0.00     0.005 C 
ENDBRANCH  14  15
ENDBRANCH  13  14
ENDBRANCH  12  13
ENDBRANCH  11  12
ENDBRANCH   1  10
BRANCH   4  17
HETATM   17  O2  UNL     1      19.656   1.685  50.967  1.00  0.00    -0.277 OA
ATOM     18  H2  UNL     1      18.750   1.814  50.713  1.00  0.00     0.245 HD
ENDBRANCH   4  17
TORSDOF 6
ENDMDL
MODEL 4
REMARK VINA RESULT: -6.089113252      2.619      3.749
REMARK  6 active torsions:
REMARK  status: ('A' for Active; 'I' for Inactive)
REMARK    1  A    between atoms: C2_2  and  C3_3 
REMARK    2  A    between atoms: C3_3  and  C4_4 
REMARK    3  A    between atoms: C4_4  and  C5_5 
REMARK    4  A    between atoms: C5_5  and  C6_6 
REMARK    5  A    between atoms: C7_7  and  C8_8 
REMARK    6  A    between atoms: N1_11  and  O2_12 
ROOT
HETATM    1  C8  UNL     1      19.633  -0.527  52.253  1.00  0.00     0.176 C 
HETATM    2  C9  UNL     1      20.278  -0.814  50.948  1.00  0.00     0.267 C 
HETATM    3  O1  UNL     1      20.729  -1.901  50.563  1.00  0.00    -0.269 OA
HETATM    4  N1  UNL     1      20.270   0.413  50.235  1.00  0.00    -0.155 N 
HETATM    5  C10 UNL     1      19.377   1.332  50.878  1.00  0.00     0.260 C 
HETATM    6  O3  UNL     1      19.276   2.584  50.658  1.00  0.00    -0.270 OA
HETATM    7  C11 UNL     1      18.602   0.511  51.846  1.00  0.00     0.059 C 
HETATM    8  C12 UNL     1      18.137   1.333  53.028  1.00  0.00     0.027 C 
HETATM    9  C13 UNL     1      17.443  -0.123  51.146  1.00  0.00     0.027 C 
ENDROOT
BRANCH   1  10
HETATM   10  C7  UNL     1      20.568   0.101  53.190  1.00  0.00    -0.091 C 
HETATM   11  C6  UNL     1      21.333   0.635  53.947  1.00  0.00    -0.106 C 
BRANCH  11  12
HETATM   12  C5  UNL     1      22.264   1.318  54.887  1.00  0.00     0.094 C 
BRANCH  12  13
HETATM   13  C4  UNL     1      21.421   1.785  56.024  1.00  0.00     0.012 C 
BRANCH  13  14
HETATM   14  C3  UNL     1      21.868   1.128  57.295  1.00  0.00     0.000 C 
BRANCH  14  15
HETATM   15  C2  UNL     1      20.722   0.512  58.031  1.00  0.00    -0.005 C 
HETATM   16  C1  UNL     1      20.359  -0.810  57.350  1.00  0.00     0.005 C 
ENDBRANCH  14  15
ENDBRANCH  13  14
ENDBRANCH  12  13
ENDBRANCH  11  12
ENDBRANCH   1  10
BRANCH   4  17
HETATM   17  O2  UNL     1      20.976   0.733  49.110  1.00  0.00    -0.277 OA
ATOM     18  H2  UNL     1      20.830   1.460  48.517  1.00  0.00     0.245 HD
ENDBRANCH   4  17
TORSDOF 6
ENDMDL
MODEL 5
REMARK VINA RESULT: -5.897605434      2.591      3.949
REMARK  6 active torsions:
REMARK  status: ('A' for Active; 'I' for Inactive)
REMARK    1  A    between atoms: C2_2  and  C3_3 
REMARK    2  A    between atoms: C3_3  and  C4_4 
REMARK    3  A    between atoms: C4_4  and  C5_5 
REMARK    4  A    between atoms: C5_5  and  C6_6 
REMARK    5  A    between atoms: C7_7  and  C8_8 
REMARK    6  A    between atoms: N1_11  and  O2_12 
ROOT
HETATM    1  C8  UNL     1      19.933  -0.693  53.280  1.00  0.00     0.176 C 
HETATM    2  C9  UNL     1      20.622  -1.978  53.004  1.00  0.00     0.267 C 
HETATM    3  O1  UNL     1      20.489  -3.043  53.622  1.00  0.00    -0.269 OA
HETATM    4  N1  UNL     1      21.463  -1.735  51.887  1.00  0.00    -0.155 N 
HETATM    5  C10 UNL     1      21.086  -0.497  51.268  1.00  0.00     0.260 C 
HETATM    6  O3  UNL     1      21.743   0.151  50.387  1.00  0.00    -0.270 OA
HETATM    7  C11 UNL     1      19.776  -0.140  51.874  1.00  0.00     0.059 C 
HETATM    8  C12 UNL     1      19.554   1.356  51.882  1.00  0.00     0.027 C 
HETATM    9  C13 UNL     1      18.679  -0.840  51.137  1.00  0.00     0.027 C 
ENDROOT
BRANCH   1  10
HETATM   10  C7  UNL     1      20.787   0.224  54.038  1.00  0.00    -0.091 C 
HETATM   11  C6  UNL     1      21.492   0.961  54.675  1.00  0.00    -0.106 C 
BRANCH  11  12
HETATM   12  C5  UNL     1      22.382   1.854  55.465  1.00  0.00     0.094 C 
BRANCH  12  13
HETATM   13  C4  UNL     1      21.683   2.076  56.763  1.00  0.00     0.012 C 
BRANCH  13  14
HETATM   14  C3  UNL     1      21.896   0.897  57.665  1.00  0.00     0.000 C 
BRANCH  14  15
HETATM   15  C2  UNL     1      20.606   0.394  58.228  1.00  0.00    -0.005 C 
HETATM   16  C1  UNL     1      20.306  -0.974  57.612  1.00  0.00     0.005 C 
ENDBRANCH  14  15
ENDBRANCH  13  14
ENDBRANCH  12  13
ENDBRANCH  11  12
ENDBRANCH   1  10
BRANCH   4  17
HETATM   17  O2  UNL     1      22.486  -2.511  51.422  1.00  0.00    -0.277 OA
ATOM     18  H2  UNL     1      22.717  -2.692  50.519  1.00  0.00     0.245 HD
ENDBRANCH   4  17
TORSDOF 6
ENDMDL
