MODEL 1
REMARK VINA RESULT: -5.743335860      0.000      0.000
REMARK  4 active torsions:
REMARK  status: ('A' for Active; 'I' for Inactive)
REMARK    1  A    between atoms: C4_6  and  N2_7 
REMARK    2  A    between atoms: N2_7  and  C5_9 
REMARK    3  A    between atoms: N3_15  and  C9_16 
REMARK    4  A    between atoms: C9_16  and  C10_17 
ROOT
HETATM    1  C1  UNL     1      21.862   1.052  54.174  1.00  0.00     0.046 C 
HETATM    2  C2  UNL     1      21.713   1.009  55.487  1.00  0.00     0.056 A 
HETATM    3  C3  UNL     1      21.241  -0.151  56.299  1.00  0.00     0.083 A 
HETATM    4  N1  UNL     1      20.846  -1.388  56.100  1.00  0.00    -0.334 N 
ATOM      5  H1  UNL     1      20.812  -1.776  55.157  1.00  0.00     0.168 HD
HETATM    6  C4  UNL     1      20.491  -2.126  57.149  1.00  0.00     0.145 A 
HETATM    7  S1  UNL     1      20.717  -1.056  58.457  1.00  0.00    -0.046 SA
HETATM    8  C7  UNL     1      21.266   0.314  57.579  1.00  0.00     0.105 A 
HETATM    9  C8  UNL     1      21.731   1.720  57.646  1.00  0.00     0.267 A 
HETATM   10  O1  UNL     1      21.821   2.326  58.751  1.00  0.00    -0.266 OA
HETATM   11  N3  UNL     1      21.998   2.114  56.336  1.00  0.00    -0.312 N 
ENDROOT
BRANCH   6  12
HETATM   12  N2  UNL     1      20.075  -3.354  57.197  1.00  0.00    -0.371 N 
ATOM     13  H2  UNL     1      19.208  -3.593  57.681  1.00  0.00     0.161 HD
BRANCH  12  14
HETATM   14  C5  UNL     1      20.867  -4.379  56.549  1.00  0.00     0.117 C 
HETATM   15  C6  UNL     1      22.177  -4.615  57.257  1.00  0.00     0.026 C 
ENDBRANCH  12  14
ENDBRANCH   6  12
BRANCH  11  16
HETATM   16  C9  UNL     1      22.484   3.431  55.954  1.00  0.00     0.132 C 
BRANCH  16  17
HETATM   17  C10 UNL     1      21.325   4.390  55.953  1.00  0.00     0.016 C 
HETATM   18  C11 UNL     1      21.436   5.446  57.011  1.00  0.00     0.006 C 
ENDBRANCH  16  17
ENDBRANCH  11  16
TORSDOF 4
ENDMDL
MODEL 2
REMARK VINA RESULT: -5.616257353      2.534      3.362
REMARK  4 active torsions:
REMARK  status: ('A' for Active; 'I' for Inactive)
REMARK    1  A    between atoms: C4_6  and  N2_7 
REMARK    2  A    between atoms: N2_7  and  C5_9 
REMARK    3  A    between atoms: N3_15  and  C9_16 
REMARK    4  A    between atoms: C9_16  and  C10_17 
ROOT
HETATM    1  C1  UNL     1      21.211   0.839  58.536  1.00  0.00     0.046 C 
HETATM    2  C2  UNL     1      21.081  -0.098  57.612  1.00  0.00     0.056 A 
HETATM    3  C3  UNL     1      21.006  -1.572  57.834  1.00  0.00     0.083 A 
HETATM    4  N1  UNL     1      21.032  -2.413  58.844  1.00  0.00    -0.334 N 
ATOM      5  H1  UNL     1      21.128  -2.071  59.800  1.00  0.00     0.168 HD
HETATM    6  C4  UNL     1      20.932  -3.716  58.598  1.00  0.00     0.145 A 
HETATM    7  S1  UNL     1      20.796  -3.772  56.900  1.00  0.00    -0.046 SA
HETATM    8  C7  UNL     1      20.876  -2.086  56.579  1.00  0.00     0.105 A 
HETATM    9  C8  UNL     1      20.863  -1.022  55.547  1.00  0.00     0.267 A 
HETATM   10  O1  UNL     1      20.749  -1.304  54.320  1.00  0.00    -0.266 OA
HETATM   11  N3  UNL     1      20.990   0.190  56.222  1.00  0.00    -0.312 N 
ENDROOT
BRANCH   6  12
HETATM   12  N2  UNL     1      20.933  -4.719  59.422  1.00  0.00    -0.371 N 
ATOM     13  H2  UNL     1      21.026  -5.676  59.080  1.00  0.00     0.161 HD
BRANCH  12  14
HETATM   14  C5  UNL     1      20.801  -4.450  60.840  1.00  0.00     0.117 C 
HETATM   15  C6  UNL     1      22.121  -4.550  61.561  1.00  0.00     0.026 C 
ENDBRANCH  12  14
ENDBRANCH   6  12
BRANCH  11  16
HETATM   16  C9  UNL     1      21.017   1.495  55.579  1.00  0.00     0.132 C 
BRANCH  16  17
HETATM   17  C10 UNL     1      22.427   1.791  55.149  1.00  0.00     0.016 C 
HETATM   18  C11 UNL     1      23.042   2.934  55.897  1.00  0.00     0.006 C 
ENDBRANCH  16  17
ENDBRANCH  11  16
TORSDOF 4
ENDMDL
MODEL 3
REMARK VINA RESULT: -5.537584660      2.572      6.361
REMARK  4 active torsions:
REMARK  status: ('A' for Active; 'I' for Inactive)
REMARK    1  A    between atoms: C4_6  and  N2_7 
REMARK    2  A    between atoms: N2_7  and  C5_9 
REMARK    3  A    between atoms: N3_15  and  C9_16 
REMARK    4  A    between atoms: C9_16  and  C10_17 
ROOT
HETATM    1  C1  UNL     1      20.481   0.209  58.861  1.00  0.00     0.046 C 
HETATM    2  C2  UNL     1      20.907   0.729  57.723  1.00  0.00     0.056 A 
HETATM    3  C3  UNL     1      21.171   2.170  57.438  1.00  0.00     0.083 A 
HETATM    4  N1  UNL     1      21.107   3.320  58.070  1.00  0.00    -0.334 N 
ATOM      5  H1  UNL     1      20.801   3.361  59.042  1.00  0.00     0.168 HD
HETATM    6  C4  UNL     1      21.448   4.430  57.421  1.00  0.00     0.145 A 
HETATM    7  S1  UNL     1      21.873   3.850  55.875  1.00  0.00    -0.046 SA
HETATM    8  C7  UNL     1      21.587   2.177  56.141  1.00  0.00     0.105 A 
HETATM    9  C8  UNL     1      21.608   0.812  55.562  1.00  0.00     0.267 A 
HETATM   10  O1  UNL     1      21.966   0.616  54.366  1.00  0.00    -0.266 OA
HETATM   11  N3  UNL     1      21.183  -0.054  56.567  1.00  0.00    -0.312 N 
ENDROOT
BRANCH   6  12
HETATM   12  N2  UNL     1      21.465   5.661  57.833  1.00  0.00    -0.371 N 
ATOM     13  H2  UNL     1      21.948   5.917  58.694  1.00  0.00     0.161 HD
BRANCH  12  14
HETATM   14  C5  UNL     1      20.783   6.665  57.041  1.00  0.00     0.117 C 
HETATM   15  C6  UNL     1      19.406   6.216  56.622  1.00  0.00     0.026 C 
ENDBRANCH  12  14
ENDBRANCH   6  12
BRANCH  11  16
HETATM   16  C9  UNL     1      21.062  -1.496  56.418  1.00  0.00     0.132 C 
BRANCH  16  17
HETATM   17  C10 UNL     1      19.820  -1.796  55.624  1.00  0.00     0.016 C 
HETATM   18  C11 UNL     1      20.107  -2.453  54.309  1.00  0.00     0.006 C 
ENDBRANCH  16  17
ENDBRANCH  11  16
TORSDOF 4
ENDMDL
MODEL 4
REMARK VINA RESULT: -5.496039060      3.326      4.681
REMARK  4 active torsions:
REMARK  status: ('A' for Active; 'I' for Inactive)
REMARK    1  A    between atoms: C4_6  and  N2_7 
REMARK    2  A    between atoms: N2_7  and  C5_9 
REMARK    3  A    between atoms: N3_15  and  C9_16 
REMARK    4  A    between atoms: C9_16  and  C10_17 
ROOT
HETATM    1  C1  UNL     1      19.852  -1.508  56.793  1.00  0.00     0.046 C 
HETATM    2  C2  UNL     1      20.476  -0.724  55.930  1.00  0.00     0.056 A 
HETATM    3  C3  UNL     1      20.333  -0.733  54.444  1.00  0.00     0.083 A 
HETATM    4  N1  UNL     1      19.658  -1.393  53.530  1.00  0.00    -0.334 N 
ATOM      5  H1  UNL     1      19.015  -2.138  53.797  1.00  0.00     0.168 HD
HETATM    6  C4  UNL     1      19.829  -1.073  52.249  1.00  0.00     0.145 A 
HETATM    7  S1  UNL     1      20.970   0.191  52.324  1.00  0.00    -0.046 SA
HETATM    8  C7  UNL     1      21.178   0.251  54.028  1.00  0.00     0.105 A 
HETATM    9  C8  UNL     1      21.867   0.903  55.167  1.00  0.00     0.267 A 
HETATM   10  O1  UNL     1      22.692   1.842  54.980  1.00  0.00    -0.266 OA
HETATM   11  N3  UNL     1      21.408   0.276  56.323  1.00  0.00    -0.312 N 
ENDROOT
BRANCH   6  12
HETATM   12  N2  UNL     1      19.279  -1.578  51.187  1.00  0.00    -0.371 N 
ATOM     13  H2  UNL     1      19.331  -2.579  50.998  1.00  0.00     0.161 HD
BRANCH  12  14
HETATM   14  C5  UNL     1      18.590  -0.687  50.276  1.00  0.00     0.117 C 
HETATM   15  C6  UNL     1      17.363  -0.075  50.901  1.00  0.00     0.026 C 
ENDBRANCH  12  14
ENDBRANCH   6  12
BRANCH  11  16
HETATM   16  C9  UNL     1      21.832   0.618  57.672  1.00  0.00     0.132 C 
BRANCH  16  17
HETATM   17  C10 UNL     1      20.954   1.727  58.185  1.00  0.00     0.016 C 
HETATM   18  C11 UNL     1      21.591   3.079  58.077  1.00  0.00     0.006 C 
ENDBRANCH  16  17
ENDBRANCH  11  16
TORSDOF 4
ENDMDL
MODEL 5
REMARK VINA RESULT: -5.468783720      1.771      6.010
REMARK  4 active torsions:
REMARK  status: ('A' for Active; 'I' for Inactive)
REMARK    1  A    between atoms: C4_6  and  N2_7 
REMARK    2  A    between atoms: N2_7  and  C5_9 
REMARK    3  A    between atoms: N3_15  and  C9_16 
REMARK    4  A    between atoms: C9_16  and  C10_17 
ROOT
HETATM    1  C1  UNL     1      20.261  -1.253  54.164  1.00  0.00     0.046 C 
HETATM    2  C2  UNL     1      20.552  -0.821  55.380  1.00  0.00     0.056 A 
HETATM    3  C3  UNL     1      20.983   0.555  55.764  1.00  0.00     0.083 A 
HETATM    4  N1  UNL     1      21.216   1.707  55.177  1.00  0.00    -0.334 N 
ATOM      5  H1  UNL     1      21.100   1.808  54.169  1.00  0.00     0.168 HD
HETATM    6  C4  UNL     1      21.604   2.740  55.920  1.00  0.00     0.145 A 
HETATM    7  S1  UNL     1      21.647   2.081  57.492  1.00  0.00    -0.046 SA
HETATM    8  C7  UNL     1      21.154   0.480  57.114  1.00  0.00     0.105 A 
HETATM    9  C8  UNL     1      20.856  -0.877  57.632  1.00  0.00     0.267 A 
HETATM   10  O1  UNL     1      20.958  -1.142  58.863  1.00  0.00    -0.266 OA
HETATM   11  N3  UNL     1      20.488  -1.651  56.534  1.00  0.00    -0.312 N 
ENDROOT
BRANCH   6  12
HETATM   12  N2  UNL     1      21.887   3.957  55.568  1.00  0.00    -0.371 N 
ATOM     13  H2  UNL     1      22.613   4.145  54.876  1.00  0.00     0.161 HD
BRANCH  12  14
HETATM   14  C5  UNL     1      21.149   5.043  56.179  1.00  0.00     0.117 C 
HETATM   15  C6  UNL     1      20.106   5.612  55.252  1.00  0.00     0.026 C 
ENDBRANCH  12  14
ENDBRANCH   6  12
BRANCH  11  16
HETATM   16  C9  UNL     1      20.108  -3.054  56.603  1.00  0.00     0.132 C 
BRANCH  16  17
HETATM   17  C10 UNL     1      21.357  -3.886  56.698  1.00  0.00     0.016 C 
HETATM   18  C11 UNL     1      21.542  -4.517  58.045  1.00  0.00     0.006 C 
ENDBRANCH  16  17
ENDBRANCH  11  16
TORSDOF 4
ENDMDL
