MODEL 1
REMARK VINA RESULT: -5.691085767      0.000      0.000
REMARK  2 active torsions:
REMARK  status: ('A' for Active; 'I' for Inactive)
REMARK    1  A    between atoms: C2_2  and  O1_3 
REMARK    2  A    between atoms: O1_3  and  C3_4 
ROOT
HETATM    1  C3  UNL     1     -11.162  17.616  76.085  1.00  0.00     0.164 C 
HETATM    2  C4  UNL     1     -10.759  18.694  75.099  1.00  0.00     0.038 C 
HETATM    3  C5  UNL     1      -9.393  19.208  75.537  1.00  0.00     0.044 C 
HETATM    4  C6  UNL     1      -9.530  19.803  76.904  1.00  0.00     0.110 C 
HETATM    5  C7  UNL     1      -8.282  19.928  77.710  1.00  0.00     0.272 C 
HETATM    6  N1  UNL     1      -8.665  21.301  78.067  1.00  0.00    -0.069 N 
ATOM      7  H11 UNL     1      -7.961  22.015  78.255  1.00  0.00     0.277 HD
ATOM      8  H12 UNL     1      -9.086  21.513  78.972  1.00  0.00     0.277 HD
HETATM    9  C8  UNL     1      -9.449  21.325  76.855  1.00  0.00     0.272 C 
HETATM   10  O2  UNL     1     -10.618  19.406  77.612  1.00  0.00    -0.355 OA
HETATM   11  C9  UNL     1     -10.989  18.100  77.494  1.00  0.00     0.257 C 
HETATM   12  C10 UNL     1     -10.052  17.192  78.188  1.00  0.00     0.094 C 
HETATM   13  N2  UNL     1      -9.331  16.466  78.731  1.00  0.00    -0.194 NA
ENDROOT
BRANCH   1  14
HETATM   14  O1  UNL     1     -12.441  17.158  75.901  1.00  0.00    -0.383 OA
BRANCH  14  15
HETATM   15  C2  UNL     1     -13.173  17.939  75.010  1.00  0.00     0.164 C 
HETATM   16  C1  UNL     1     -13.972  17.086  74.070  1.00  0.00     0.033 C 
ENDBRANCH  14  15
ENDBRANCH   1  14
TORSDOF 2
ENDMDL
MODEL 2
REMARK VINA RESULT: -5.612484866      2.555      3.842
REMARK  2 active torsions:
REMARK  status: ('A' for Active; 'I' for Inactive)
REMARK    1  A    between atoms: C2_2  and  O1_3 
REMARK    2  A    between atoms: O1_3  and  C3_4 
ROOT
HETATM    1  C3  UNL     1     -10.477  19.336  77.987  1.00  0.00     0.164 C 
HETATM    2  C4  UNL     1      -9.952  20.680  78.451  1.00  0.00     0.038 C 
HETATM    3  C5  UNL     1      -9.347  21.366  77.232  1.00  0.00     0.044 C 
HETATM    4  C6  UNL     1      -8.211  20.528  76.735  1.00  0.00     0.110 C 
HETATM    5  C7  UNL     1      -7.791  20.736  75.320  1.00  0.00     0.272 C 
HETATM    6  N1  UNL     1      -6.387  20.763  75.754  1.00  0.00    -0.069 N 
ATOM      7  H11 UNL     1      -5.689  21.311  75.251  1.00  0.00     0.277 HD
ATOM      8  H12 UNL     1      -5.787  19.946  75.648  1.00  0.00     0.277 HD
HETATM    9  C8  UNL     1      -6.867  21.175  77.051  1.00  0.00     0.272 C 
HETATM   10  O2  UNL     1      -8.220  19.229  77.133  1.00  0.00    -0.355 OA
HETATM   11  C9  UNL     1      -9.432  18.610  77.192  1.00  0.00     0.257 C 
HETATM   12  C10 UNL     1      -9.979  18.332  75.847  1.00  0.00     0.094 C 
HETATM   13  N2  UNL     1     -10.420  18.101  74.800  1.00  0.00    -0.194 NA
ENDROOT
BRANCH   1  14
HETATM   14  O1  UNL     1     -10.923  18.540  79.010  1.00  0.00    -0.383 OA
BRANCH  14  15
HETATM   15  C2  UNL     1     -10.184  18.697  80.179  1.00  0.00     0.164 C 
HETATM   16  C1  UNL     1     -11.081  18.855  81.372  1.00  0.00     0.033 C 
ENDBRANCH  14  15
ENDBRANCH   1  14
TORSDOF 2
ENDMDL
MODEL 3
REMARK VINA RESULT: -5.372718787      1.809      2.078
REMARK  2 active torsions:
REMARK  status: ('A' for Active; 'I' for Inactive)
REMARK    1  A    between atoms: C2_2  and  O1_3 
REMARK    2  A    between atoms: O1_3  and  C3_4 
ROOT
HETATM    1  C3  UNL     1     -11.070  17.512  78.176  1.00  0.00     0.164 C 
HETATM    2  C4  UNL     1     -11.269  18.270  76.879  1.00  0.00     0.038 C 
HETATM    3  C5  UNL     1      -9.917  18.863  76.499  1.00  0.00     0.044 C 
HETATM    4  C6  UNL     1      -9.500  19.813  77.578  1.00  0.00     0.110 C 
HETATM    5  C7  UNL     1      -8.047  20.135  77.664  1.00  0.00     0.272 C 
HETATM    6  N1  UNL     1      -8.384  21.559  77.797  1.00  0.00    -0.069 N 
ATOM      7  H11 UNL     1      -7.754  22.286  77.456  1.00  0.00     0.277 HD
ATOM      8  H12 UNL     1      -8.380  22.019  78.708  1.00  0.00     0.277 HD
HETATM    9  C8  UNL     1      -9.620  21.261  77.115  1.00  0.00     0.272 C 
HETATM   10  O2  UNL     1     -10.110  19.644  78.779  1.00  0.00    -0.355 OA
HETATM   11  C9  UNL     1     -10.346  18.362  79.177  1.00  0.00     0.257 C 
HETATM   12  C10 UNL     1      -9.103  17.666  79.570  1.00  0.00     0.094 C 
HETATM   13  N2  UNL     1      -8.139  17.106  79.887  1.00  0.00    -0.194 NA
ENDROOT
BRANCH   1  14
HETATM   14  O1  UNL     1     -12.238  17.042  78.719  1.00  0.00    -0.383 OA
BRANCH  14  15
HETATM   15  C2  UNL     1     -13.023  16.352  77.800  1.00  0.00     0.164 C 
HETATM   16  C1  UNL     1     -14.276  15.830  78.439  1.00  0.00     0.033 C 
ENDBRANCH  14  15
ENDBRANCH   1  14
TORSDOF 2
ENDMDL
MODEL 4
REMARK VINA RESULT: -5.308121075      2.567      5.244
REMARK  2 active torsions:
REMARK  status: ('A' for Active; 'I' for Inactive)
REMARK    1  A    between atoms: C2_2  and  O1_3 
REMARK    2  A    between atoms: O1_3  and  C3_4 
ROOT
HETATM    1  C3  UNL     1      -9.354  17.584  78.416  1.00  0.00     0.164 C 
HETATM    2  C4  UNL     1      -9.806  16.138  78.436  1.00  0.00     0.038 C 
HETATM    3  C5  UNL     1     -10.839  15.981  77.326  1.00  0.00     0.044 C 
HETATM    4  C6  UNL     1     -12.000  16.875  77.633  1.00  0.00     0.110 C 
HETATM    5  C7  UNL     1     -12.884  17.245  76.491  1.00  0.00     0.272 C 
HETATM    6  N1  UNL     1     -14.060  16.951  77.322  1.00  0.00    -0.069 N 
ATOM      7  H11 UNL     1     -14.930  16.617  76.908  1.00  0.00     0.277 HD
ATOM      8  H12 UNL     1     -14.589  17.698  77.771  1.00  0.00     0.277 HD
HETATM    9  C8  UNL     1     -13.212  16.070  78.090  1.00  0.00     0.272 C 
HETATM   10  O2  UNL     1     -11.748  17.890  78.500  1.00  0.00    -0.355 OA
HETATM   11  C9  UNL     1     -10.537  18.506  78.394  1.00  0.00     0.257 C 
HETATM   12  C10 UNL     1     -10.448  19.350  77.184  1.00  0.00     0.094 C 
HETATM   13  N2  UNL     1     -10.363  20.022  76.243  1.00  0.00    -0.194 NA
ENDROOT
BRANCH   1  14
HETATM   14  O1  UNL     1      -8.525  17.912  79.459  1.00  0.00    -0.383 OA
BRANCH  14  15
HETATM   15  C2  UNL     1      -8.143  16.807  80.214  1.00  0.00     0.164 C 
HETATM   16  C1  UNL     1      -8.171  17.116  81.682  1.00  0.00     0.033 C 
ENDBRANCH  14  15
ENDBRANCH   1  14
TORSDOF 2
ENDMDL
MODEL 5
REMARK VINA RESULT: -5.280010830      2.168      4.648
REMARK  2 active torsions:
REMARK  status: ('A' for Active; 'I' for Inactive)
REMARK    1  A    between atoms: C2_2  and  O1_3 
REMARK    2  A    between atoms: O1_3  and  C3_4 
ROOT
HETATM    1  C3  UNL     1      -9.072  20.035  77.494  1.00  0.00     0.164 C 
HETATM    2  C4  UNL     1      -9.646  19.911  76.096  1.00  0.00     0.038 C 
HETATM    3  C5  UNL     1     -11.024  19.277  76.238  1.00  0.00     0.044 C 
HETATM    4  C6  UNL     1     -10.858  17.915  76.835  1.00  0.00     0.110 C 
HETATM    5  C7  UNL     1     -12.056  17.319  77.492  1.00  0.00     0.272 C 
HETATM    6  N1  UNL     1     -11.790  16.051  76.798  1.00  0.00    -0.069 N 
ATOM      7  H11 UNL     1     -12.548  15.418  76.544  1.00  0.00     0.277 HD
ATOM      8  H12 UNL     1     -11.334  15.274  77.276  1.00  0.00     0.277 HD
HETATM    9  C8  UNL     1     -11.095  16.823  75.797  1.00  0.00     0.272 C 
HETATM   10  O2  UNL     1      -9.690  17.701  77.494  1.00  0.00    -0.355 OA
HETATM   11  C9  UNL     1      -9.199  18.736  78.232  1.00  0.00     0.257 C 
HETATM   12  C10 UNL     1      -9.992  18.970  79.457  1.00  0.00     0.094 C 
HETATM   13  N2  UNL     1     -10.599  19.165  80.425  1.00  0.00    -0.194 NA
ENDROOT
BRANCH   1  14
HETATM   14  O1  UNL     1      -7.768  20.459  77.513  1.00  0.00    -0.383 OA
BRANCH  14  15
HETATM   15  C2  UNL     1      -7.376  21.059  76.320  1.00  0.00     0.164 C 
HETATM   16  C1  UNL     1      -5.930  21.456  76.361  1.00  0.00     0.033 C 
ENDBRANCH  14  15
ENDBRANCH   1  14
TORSDOF 2
ENDMDL
