MODEL 1
REMARK VINA RESULT: -5.263523948      0.000      0.000
REMARK  3 active torsions:
REMARK  status: ('A' for Active; 'I' for Inactive)
REMARK    1  A    between atoms: O1_2  and  C2_3 
REMARK    2  A    between atoms: C5_7  and  N1_8 
REMARK    3  A    between atoms: C9_12  and  O2_13 
ROOT
HETATM    1  C2  UNL     1      -8.499  20.390  77.364  1.00  0.00     0.130 C 
HETATM    2  C3  UNL     1      -9.145  21.751  77.520  1.00  0.00     0.061 C 
HETATM    3  S1  UNL     1      -9.073  19.776  75.724  1.00  0.00    -0.127 SA
HETATM    4  C4  UNL     1     -10.851  19.440  75.948  1.00  0.00     0.113 C 
HETATM    5  C5  UNL     1     -10.930  18.346  77.015  1.00  0.00     0.233 C 
HETATM    6  C8  UNL     1      -9.638  18.172  77.741  1.00  0.00     0.072 C 
HETATM    7  C9  UNL     1      -9.076  19.418  78.367  1.00  0.00     0.165 C 
ENDROOT
BRANCH   1   8
HETATM    8  O1  UNL     1      -7.136  20.400  77.296  1.00  0.00    -0.372 OA
HETATM    9  C1  UNL     1      -6.559  21.194  76.348  1.00  0.00     0.204 C 
ENDBRANCH   1   8
BRANCH   7  10
HETATM   10  O2  UNL     1      -9.990  20.022  79.228  1.00  0.00    -0.392 OA
ATOM     11  H2  UNL     1      -9.928  19.689  80.116  1.00  0.00     0.210 HD
ENDBRANCH   7  10
BRANCH   5  12
HETATM   12  N1  UNL     1     -11.236  17.125  76.319  1.00  0.00     0.085 N 
HETATM   13  C6  UNL     1     -12.591  17.176  75.758  1.00  0.00     0.309 C 
HETATM   14  C7  UNL     1     -11.148  15.946  77.115  1.00  0.00     0.309 C 
ENDBRANCH   5  12
TORSDOF 3
ENDMDL
MODEL 2
REMARK VINA RESULT: -5.067357517      2.269      4.741
REMARK  3 active torsions:
REMARK  status: ('A' for Active; 'I' for Inactive)
REMARK    1  A    between atoms: O1_2  and  C2_3 
REMARK    2  A    between atoms: C5_7  and  N1_8 
REMARK    3  A    between atoms: C9_12  and  O2_13 
ROOT
HETATM    1  C2  UNL     1     -11.631  17.247  77.355  1.00  0.00     0.130 C 
HETATM    2  C3  UNL     1     -11.017  15.902  77.027  1.00  0.00     0.061 C 
HETATM    3  S1  UNL     1     -11.445  18.243  75.816  1.00  0.00    -0.127 SA
HETATM    4  C4  UNL     1      -9.654  18.556  75.676  1.00  0.00     0.113 C 
HETATM    5  C5  UNL     1      -9.282  19.368  76.918  1.00  0.00     0.233 C 
HETATM    6  C8  UNL     1     -10.355  19.338  77.954  1.00  0.00     0.072 C 
HETATM    7  C9  UNL     1     -10.796  17.967  78.388  1.00  0.00     0.165 C 
ENDROOT
BRANCH   1   8
HETATM    8  O1  UNL     1     -12.970  17.224  77.618  1.00  0.00    -0.372 OA
HETATM    9  C1  UNL     1     -13.815  17.034  76.563  1.00  0.00     0.204 C 
ENDBRANCH   1   8
BRANCH   7  10
HETATM   10  O2  UNL     1      -9.724  17.197  78.836  1.00  0.00    -0.392 OA
ATOM     11  H2  UNL     1      -9.980  16.572  79.504  1.00  0.00     0.210 HD
ENDBRANCH   7  10
BRANCH   5  12
HETATM   12  N1  UNL     1      -9.108  20.725  76.474  1.00  0.00     0.085 N 
HETATM   13  C6  UNL     1      -7.846  20.870  75.740  1.00  0.00     0.309 C 
HETATM   14  C7  UNL     1      -9.109  21.698  77.516  1.00  0.00     0.309 C 
ENDBRANCH   5  12
TORSDOF 3
ENDMDL
MODEL 3
REMARK VINA RESULT: -4.762447523      4.332      5.417
REMARK  3 active torsions:
REMARK  status: ('A' for Active; 'I' for Inactive)
REMARK    1  A    between atoms: O1_2  and  C2_3 
REMARK    2  A    between atoms: C5_7  and  N1_8 
REMARK    3  A    between atoms: C9_12  and  O2_13 
ROOT
HETATM    1  C2  UNL     1      -8.396  16.238  82.116  1.00  0.00     0.130 C 
HETATM    2  C3  UNL     1      -9.134  15.061  82.718  1.00  0.00     0.061 C 
HETATM    3  S1  UNL     1      -9.628  17.607  82.082  1.00  0.00    -0.127 SA
HETATM    4  C4  UNL     1     -10.845  17.109  80.820  1.00  0.00     0.113 C 
HETATM    5  C5  UNL     1     -10.063  17.027  79.507  1.00  0.00     0.233 C 
HETATM    6  C8  UNL     1      -8.587  17.029  79.729  1.00  0.00     0.072 C 
HETATM    7  C9  UNL     1      -8.074  15.968  80.664  1.00  0.00     0.165 C 
ENDROOT
BRANCH   1   8
HETATM    8  O1  UNL     1      -7.348  16.705  82.856  1.00  0.00    -0.372 OA
HETATM    9  C1  UNL     1      -7.396  18.007  83.263  1.00  0.00     0.204 C 
ENDBRANCH   1   8
BRANCH   7  10
HETATM   10  O2  UNL     1      -8.461  14.692  80.262  1.00  0.00    -0.392 OA
ATOM     11  H2  UNL     1      -8.012  14.408  79.474  1.00  0.00     0.210 HD
ENDBRANCH   7  10
BRANCH   5  12
HETATM   12  N1  UNL     1     -10.417  18.200  78.753  1.00  0.00     0.085 N 
HETATM   13  C6  UNL     1     -11.278  17.844  77.620  1.00  0.00     0.309 C 
HETATM   14  C7  UNL     1      -9.310  18.932  78.235  1.00  0.00     0.309 C 
ENDBRANCH   5  12
TORSDOF 3
ENDMDL
MODEL 4
REMARK VINA RESULT: -4.688526775      4.770      6.094
REMARK  3 active torsions:
REMARK  status: ('A' for Active; 'I' for Inactive)
REMARK    1  A    between atoms: O1_2  and  C2_3 
REMARK    2  A    between atoms: C5_7  and  N1_8 
REMARK    3  A    between atoms: C9_12  and  O2_13 
ROOT
HETATM    1  C2  UNL     1      -9.169  17.108  79.487  1.00  0.00     0.130 C 
HETATM    2  C3  UNL     1      -9.301  18.501  78.908  1.00  0.00     0.061 C 
HETATM    3  S1  UNL     1     -10.319  17.079  80.926  1.00  0.00    -0.127 SA
HETATM    4  C4  UNL     1      -9.553  18.184  82.157  1.00  0.00     0.113 C 
HETATM    5  C5  UNL     1      -8.208  17.543  82.503  1.00  0.00     0.233 C 
HETATM    6  C8  UNL     1      -7.819  16.485  81.524  1.00  0.00     0.072 C 
HETATM    7  C9  UNL     1      -7.793  16.917  80.083  1.00  0.00     0.165 C 
ENDROOT
BRANCH   1   8
HETATM    8  O1  UNL     1      -9.581  16.098  78.667  1.00  0.00    -0.372 OA
HETATM    9  C1  UNL     1     -10.605  16.366  77.805  1.00  0.00     0.204 C 
ENDBRANCH   1   8
BRANCH   7  10
HETATM   10  O2  UNL     1      -6.971  18.025  79.890  1.00  0.00    -0.392 OA
ATOM     11  H2  UNL     1      -6.080  17.871  80.182  1.00  0.00     0.210 HD
ENDBRANCH   7  10
BRANCH   5  12
HETATM   12  N1  UNL     1      -8.371  16.936  83.797  1.00  0.00     0.085 N 
HETATM   13  C6  UNL     1      -7.399  17.483  84.750  1.00  0.00     0.309 C 
HETATM   14  C7  UNL     1      -8.231  15.518  83.812  1.00  0.00     0.309 C 
ENDBRANCH   5  12
TORSDOF 3
ENDMDL
MODEL 5
REMARK VINA RESULT: -4.627905003      4.384      5.654
REMARK  3 active torsions:
REMARK  status: ('A' for Active; 'I' for Inactive)
REMARK    1  A    between atoms: O1_2  and  C2_3 
REMARK    2  A    between atoms: C5_7  and  N1_8 
REMARK    3  A    between atoms: C9_12  and  O2_13 
ROOT
HETATM    1  C2  UNL     1      -9.406  17.145  79.111  1.00  0.00     0.130 C 
HETATM    2  C3  UNL     1      -9.160  18.468  78.418  1.00  0.00     0.061 C 
HETATM    3  S1  UNL     1     -10.882  17.431  80.176  1.00  0.00    -0.127 SA
HETATM    4  C4  UNL     1     -10.301  18.558  81.486  1.00  0.00     0.113 C 
HETATM    5  C5  UNL     1      -9.212  17.788  82.234  1.00  0.00     0.233 C 
HETATM    6  C8  UNL     1      -8.753  16.584  81.482  1.00  0.00     0.072 C 
HETATM    7  C9  UNL     1      -8.283  16.842  80.076  1.00  0.00     0.165 C 
ENDROOT
BRANCH   1   8
HETATM    8  O1  UNL     1      -9.743  16.112  78.286  1.00  0.00    -0.372 OA
HETATM    9  C1  UNL     1     -10.901  16.228  77.573  1.00  0.00     0.204 C 
ENDBRANCH   1   8
BRANCH   7  10
HETATM   10  O2  UNL     1      -7.274  17.803  80.036  1.00  0.00    -0.392 OA
ATOM     11  H2  UNL     1      -7.301  18.325  79.242  1.00  0.00     0.210 HD
ENDBRANCH   7  10
BRANCH   5  12
HETATM   12  N1  UNL     1      -9.801  17.359  83.474  1.00  0.00     0.085 N 
HETATM   13  C6  UNL     1     -10.728  18.375  83.985  1.00  0.00     0.309 C 
HETATM   14  C7  UNL     1      -8.866  17.075  84.512  1.00  0.00     0.309 C 
ENDBRANCH   5  12
TORSDOF 3
ENDMDL
