MODEL 1
REMARK VINA RESULT: -6.018927617      0.000      0.000
REMARK  2 active torsions:
REMARK  status: ('A' for Active; 'I' for Inactive)
REMARK    1  A    between atoms: N1_2  and  C2_5 
REMARK    2  A    between atoms: C4_7  and  C5_8 
ROOT
HETATM    1  C5  UNL     1     -10.263  18.270  79.877  1.00  0.00     0.205 C 
HETATM    2  C6  UNL     1     -11.455  17.487  80.262  1.00  0.00     0.079 C 
HETATM    3  N2  UNL     1     -12.396  16.870  80.569  1.00  0.00    -0.196 NA
HETATM    4  C7  UNL     1      -9.094  17.401  79.995  1.00  0.00     0.079 C 
HETATM    5  N3  UNL     1      -8.174  16.713  80.088  1.00  0.00    -0.196 NA
ENDROOT
BRANCH   1   6
HETATM    6  C4  UNL     1     -10.486  18.717  78.462  1.00  0.00     0.054 C 
HETATM    7  C3  UNL     1     -10.605  17.579  77.471  1.00  0.00     0.074 C 
HETATM    8  C2  UNL     1     -10.128  18.263  76.205  1.00  0.00     0.420 C 
HETATM    9  N4  UNL     1      -8.978  18.987  76.640  1.00  0.00     0.124 N 
HETATM   10  C8  UNL     1      -9.242  19.440  77.991  1.00  0.00     0.232 C 
HETATM   11  C11 UNL     1      -8.640  20.149  75.884  1.00  0.00     0.276 C 
HETATM   12  C9  UNL     1      -9.536  20.905  77.922  1.00  0.00     0.038 C 
HETATM   13  C10 UNL     1      -9.334  21.323  76.496  1.00  0.00     0.032 C 
BRANCH   8  14
HETATM   14  N1  UNL     1     -11.152  19.107  75.631  1.00  0.00    -0.047 N 
HETATM   15  C1  UNL     1     -12.260  18.376  75.104  1.00  0.00     0.269 C 
ATOM     16  H12 UNL     1     -10.756  19.724  74.923  1.00  0.00     0.279 HD
ATOM     17  H11 UNL     1     -11.466  19.804  76.307  1.00  0.00     0.279 HD
ENDBRANCH   8  14
ENDBRANCH   1   6
TORSDOF 2
ENDMDL
MODEL 2
REMARK VINA RESULT: -5.864189787      0.880      1.836
REMARK  2 active torsions:
REMARK  status: ('A' for Active; 'I' for Inactive)
REMARK    1  A    between atoms: N1_2  and  C2_5 
REMARK    2  A    between atoms: C4_7  and  C5_8 
ROOT
HETATM    1  C5  UNL     1     -10.492  17.564  79.677  1.00  0.00     0.205 C 
HETATM    2  C6  UNL     1      -9.053  17.247  79.790  1.00  0.00     0.079 C 
HETATM    3  N2  UNL     1      -7.919  16.995  79.880  1.00  0.00    -0.196 NA
HETATM    4  C7  UNL     1     -10.846  18.458  80.777  1.00  0.00     0.079 C 
HETATM    5  N3  UNL     1     -11.121  19.165  81.645  1.00  0.00    -0.196 NA
ENDROOT
BRANCH   1   6
HETATM    6  C4  UNL     1     -10.680  18.220  78.341  1.00  0.00     0.054 C 
HETATM    7  C3  UNL     1     -10.689  17.251  77.178  1.00  0.00     0.074 C 
HETATM    8  C2  UNL     1     -10.199  18.152  76.062  1.00  0.00     0.420 C 
HETATM    9  N4  UNL     1      -9.113  18.855  76.665  1.00  0.00     0.124 N 
HETATM   10  C8  UNL     1      -9.461  19.071  78.055  1.00  0.00     0.232 C 
HETATM   11  C11 UNL     1      -8.812  20.139  76.120  1.00  0.00     0.276 C 
HETATM   12  C9  UNL     1      -9.838  20.512  78.202  1.00  0.00     0.038 C 
HETATM   13  C10 UNL     1      -9.600  21.163  76.872  1.00  0.00     0.032 C 
BRANCH   8  14
HETATM   14  N1  UNL     1     -11.245  19.023  75.576  1.00  0.00    -0.047 N 
HETATM   15  C1  UNL     1     -12.367  18.320  75.042  1.00  0.00     0.269 C 
ATOM     16  H12 UNL     1     -10.875  19.686  74.894  1.00  0.00     0.279 HD
ATOM     17  H11 UNL     1     -11.539  19.675  76.304  1.00  0.00     0.279 HD
ENDBRANCH   8  14
ENDBRANCH   1   6
TORSDOF 2
ENDMDL
MODEL 3
REMARK VINA RESULT: -5.685639692      1.306      3.134
REMARK  2 active torsions:
REMARK  status: ('A' for Active; 'I' for Inactive)
REMARK    1  A    between atoms: N1_2  and  C2_5 
REMARK    2  A    between atoms: C4_7  and  C5_8 
ROOT
HETATM    1  C5  UNL     1      -9.989  17.695  79.600  1.00  0.00     0.205 C 
HETATM    2  C6  UNL     1      -8.731  17.123  80.125  1.00  0.00     0.079 C 
HETATM    3  N2  UNL     1      -7.741  16.670  80.540  1.00  0.00    -0.196 NA
HETATM    4  C7  UNL     1     -10.557  18.559  80.632  1.00  0.00     0.079 C 
HETATM    5  N3  UNL     1     -11.002  19.242  81.448  1.00  0.00    -0.196 NA
ENDROOT
BRANCH   1   6
HETATM    6  C4  UNL     1      -9.623  18.465  78.366  1.00  0.00     0.054 C 
HETATM    7  C3  UNL     1      -9.725  19.967  78.527  1.00  0.00     0.074 C 
HETATM    8  C2  UNL     1      -9.995  20.383  77.095  1.00  0.00     0.420 C 
HETATM    9  N4  UNL     1     -10.971  19.437  76.660  1.00  0.00     0.124 N 
HETATM   10  C8  UNL     1     -10.661  18.175  77.301  1.00  0.00     0.232 C 
HETATM   11  C11 UNL     1     -11.017  19.176  75.259  1.00  0.00     0.276 C 
HETATM   12  C9  UNL     1     -10.048  17.287  76.265  1.00  0.00     0.038 C 
HETATM   13  C10 UNL     1     -10.103  18.031  74.965  1.00  0.00     0.032 C 
BRANCH   8  14
HETATM   14  N1  UNL     1      -8.791  20.370  76.295  1.00  0.00    -0.047 N 
HETATM   15  C1  UNL     1      -7.824  21.338  76.708  1.00  0.00     0.269 C 
ATOM     16  H12 UNL     1      -9.013  20.480  75.306  1.00  0.00     0.279 HD
ATOM     17  H11 UNL     1      -8.381  19.436  76.274  1.00  0.00     0.279 HD
ENDBRANCH   8  14
ENDBRANCH   1   6
TORSDOF 2
ENDMDL
MODEL 4
REMARK VINA RESULT: -5.555625621      1.561      3.753
REMARK  2 active torsions:
REMARK  status: ('A' for Active; 'I' for Inactive)
REMARK    1  A    between atoms: N1_2  and  C2_5 
REMARK    2  A    between atoms: C4_7  and  C5_8 
ROOT
HETATM    1  C5  UNL     1     -12.004  16.864  76.357  1.00  0.00     0.205 C 
HETATM    2  C6  UNL     1     -12.920  16.530  77.467  1.00  0.00     0.079 C 
HETATM    3  N2  UNL     1     -13.643  16.265  78.342  1.00  0.00    -0.196 NA
HETATM    4  C7  UNL     1     -12.731  17.705  75.409  1.00  0.00     0.079 C 
HETATM    5  N3  UNL     1     -13.308  18.370  74.664  1.00  0.00    -0.196 NA
ENDROOT
BRANCH   1   6
HETATM    6  C4  UNL     1     -10.840  17.588  76.967  1.00  0.00     0.054 C 
HETATM    7  C3  UNL     1     -11.037  17.944  78.426  1.00  0.00     0.074 C 
HETATM    8  C2  UNL     1     -10.143  19.163  78.537  1.00  0.00     0.420 C 
HETATM    9  N4  UNL     1     -10.457  19.905  77.359  1.00  0.00     0.124 N 
HETATM   10  C8  UNL     1     -10.727  18.945  76.306  1.00  0.00     0.232 C 
HETATM   11  C11 UNL     1      -9.435  20.769  76.865  1.00  0.00     0.276 C 
HETATM   12  C9  UNL     1      -9.539  18.937  75.396  1.00  0.00     0.038 C 
HETATM   13  C10 UNL     1      -8.604  20.001  75.889  1.00  0.00     0.032 C 
BRANCH   8  14
HETATM   14  N1  UNL     1      -8.747  18.800  78.628  1.00  0.00    -0.047 N 
HETATM   15  C1  UNL     1      -8.508  17.666  79.463  1.00  0.00     0.269 C 
ATOM     16  H12 UNL     1      -8.185  19.596  78.930  1.00  0.00     0.279 HD
ATOM     17  H11 UNL     1      -8.350  18.655  77.699  1.00  0.00     0.279 HD
ENDBRANCH   8  14
ENDBRANCH   1   6
TORSDOF 2
ENDMDL
MODEL 5
REMARK VINA RESULT: -5.427898330      1.023      2.593
REMARK  2 active torsions:
REMARK  status: ('A' for Active; 'I' for Inactive)
REMARK    1  A    between atoms: N1_2  and  C2_5 
REMARK    2  A    between atoms: C4_7  and  C5_8 
ROOT
HETATM    1  C5  UNL     1      -9.860  18.212  79.681  1.00  0.00     0.205 C 
HETATM    2  C6  UNL     1     -11.170  17.543  79.532  1.00  0.00     0.079 C 
HETATM    3  N2  UNL     1     -12.203  17.017  79.418  1.00  0.00    -0.196 NA
HETATM    4  C7  UNL     1      -8.885  17.208  80.101  1.00  0.00     0.079 C 
HETATM    5  N3  UNL     1      -8.118  16.413  80.431  1.00  0.00    -0.196 NA
ENDROOT
BRANCH   1   6
HETATM    6  C4  UNL     1      -9.523  18.791  78.338  1.00  0.00     0.054 C 
HETATM    7  C3  UNL     1      -9.581  20.303  78.291  1.00  0.00     0.074 C 
HETATM    8  C2  UNL     1      -9.895  20.522  76.824  1.00  0.00     0.420 C 
HETATM    9  N4  UNL     1     -10.909  19.554  76.560  1.00  0.00     0.124 N 
HETATM   10  C8  UNL     1     -10.606  18.385  77.362  1.00  0.00     0.232 C 
HETATM   11  C11 UNL     1     -11.015  19.101  75.211  1.00  0.00     0.276 C 
HETATM   12  C9  UNL     1     -10.056  17.343  76.441  1.00  0.00     0.038 C 
HETATM   13  C10 UNL     1     -10.141  17.900  75.051  1.00  0.00     0.032 C 
BRANCH   8  14
HETATM   14  N1  UNL     1      -8.722  20.362  75.994  1.00  0.00    -0.047 N 
HETATM   15  C1  UNL     1      -7.678  21.287  76.300  1.00  0.00     0.269 C 
ATOM     16  H12 UNL     1      -8.970  20.411  75.005  1.00  0.00     0.279 HD
ATOM     17  H11 UNL     1      -8.379  19.402  76.035  1.00  0.00     0.279 HD
ENDBRANCH   8  14
ENDBRANCH   1   6
TORSDOF 2
ENDMDL
