MODEL 1
REMARK VINA RESULT: -5.561136608      0.000      0.000
REMARK  2 active torsions:
REMARK  status: ('A' for Active; 'I' for Inactive)
REMARK    1  A    between atoms: C2_2  and  C3_3 
REMARK    2  A    between atoms: C7_10  and  O2_11 
ROOT
HETATM    1  C3  UNL     1     -10.109  19.851  76.371  1.00  0.00     0.107 C 
HETATM    2  N1  UNL     1     -11.095  19.394  75.447  1.00  0.00    -0.414 N 
ATOM      3  H1  UNL     1     -11.749  20.031  74.993  1.00  0.00     0.153 HD
HETATM    4  C4  UNL     1     -11.110  18.001  75.199  1.00  0.00     0.117 C 
HETATM    5  C5  UNL     1     -10.908  17.243  76.489  1.00  0.00     0.054 C 
HETATM    6  C6  UNL     1     -11.297  18.138  77.618  1.00  0.00     0.157 C 
HETATM    7  O1  UNL     1     -11.479  17.539  78.819  1.00  0.00    -0.351 OA
HETATM    8  C7  UNL     1     -10.355  17.175  79.513  1.00  0.00     0.283 C 
HETATM    9  C9  UNL     1      -9.079  17.780  79.039  1.00  0.00     0.229 C 
HETATM   10  O3  UNL     1      -9.152  18.943  78.366  1.00  0.00    -0.376 OA
HETATM   11  C10 UNL     1     -10.324  19.275  77.769  1.00  0.00     0.172 C 
ENDROOT
BRANCH   1  12
HETATM   12  C2  UNL     1      -8.689  19.652  75.897  1.00  0.00     0.023 C 
HETATM   13  C1  UNL     1      -8.026  20.996  75.849  1.00  0.00     0.007 C 
ENDBRANCH   1  12
BRANCH   8  14
HETATM   14  O2  UNL     1     -10.583  17.458  80.859  1.00  0.00    -0.364 OA
HETATM   15  C8  UNL     1      -9.389  17.504  81.565  1.00  0.00     0.204 C 
ENDBRANCH   8  14
TORSDOF 2
ENDMDL
MODEL 2
REMARK VINA RESULT: -5.513514851      2.101      4.338
REMARK  2 active torsions:
REMARK  status: ('A' for Active; 'I' for Inactive)
REMARK    1  A    between atoms: C2_2  and  C3_3 
REMARK    2  A    between atoms: C7_10  and  O2_11 
ROOT
HETATM    1  C3  UNL     1      -9.872  17.911  79.615  1.00  0.00     0.107 C 
HETATM    2  N1  UNL     1     -10.564  16.684  79.386  1.00  0.00    -0.414 N 
ATOM      3  H1  UNL     1     -10.232  15.797  79.763  1.00  0.00     0.153 HD
HETATM    4  C4  UNL     1     -11.740  16.776  78.605  1.00  0.00     0.117 C 
HETATM    5  C5  UNL     1     -11.521  17.719  77.447  1.00  0.00     0.054 C 
HETATM    6  C6  UNL     1     -10.053  17.810  77.194  1.00  0.00     0.157 C 
HETATM    7  O1  UNL     1      -9.683  18.356  76.011  1.00  0.00    -0.351 OA
HETATM    8  C7  UNL     1      -9.772  19.719  75.898  1.00  0.00     0.283 C 
HETATM    9  C9  UNL     1      -9.932  20.465  77.177  1.00  0.00     0.229 C 
HETATM   10  O3  UNL     1      -9.491  19.874  78.303  1.00  0.00    -0.376 OA
HETATM   11  C10 UNL     1      -9.352  18.525  78.316  1.00  0.00     0.172 C 
ENDROOT
BRANCH   1  12
HETATM   12  C2  UNL     1     -10.654  18.911  80.432  1.00  0.00     0.023 C 
HETATM   13  C1  UNL     1     -10.460  18.577  81.880  1.00  0.00     0.007 C 
ENDBRANCH   1  12
BRANCH   8  14
HETATM   14  O2  UNL     1      -8.653  20.155  75.191  1.00  0.00    -0.364 OA
HETATM   15  C8  UNL     1      -7.953  21.113  75.912  1.00  0.00     0.204 C 
ENDBRANCH   8  14
TORSDOF 2
ENDMDL
MODEL 3
REMARK VINA RESULT: -5.464628995      2.196      4.489
REMARK  2 active torsions:
REMARK  status: ('A' for Active; 'I' for Inactive)
REMARK    1  A    between atoms: C2_2  and  C3_3 
REMARK    2  A    between atoms: C7_10  and  O2_11 
ROOT
HETATM    1  C3  UNL     1      -9.709  18.412  78.296  1.00  0.00     0.107 C 
HETATM    2  N1  UNL     1     -10.672  17.689  77.530  1.00  0.00    -0.414 N 
ATOM      3  H1  UNL     1     -10.782  16.679  77.613  1.00  0.00     0.153 HD
HETATM    4  C4  UNL     1     -11.465  18.461  76.649  1.00  0.00     0.117 C 
HETATM    5  C5  UNL     1     -10.613  19.500  75.960  1.00  0.00     0.054 C 
HETATM    6  C6  UNL     1      -9.194  19.040  76.006  1.00  0.00     0.157 C 
HETATM    7  O1  UNL     1      -8.333  19.678  75.178  1.00  0.00    -0.351 OA
HETATM    8  C7  UNL     1      -7.924  20.933  75.547  1.00  0.00     0.283 C 
HETATM    9  C9  UNL     1      -8.193  21.309  76.963  1.00  0.00     0.229 C 
HETATM   10  O3  UNL     1      -8.326  20.314  77.859  1.00  0.00    -0.376 OA
HETATM   11  C10 UNL     1      -8.658  19.077  77.410  1.00  0.00     0.172 C 
ENDROOT
BRANCH   1  12
HETATM   12  C2  UNL     1     -10.315  19.389  79.274  1.00  0.00     0.023 C 
HETATM   13  C1  UNL     1     -10.586  18.655  80.552  1.00  0.00     0.007 C 
ENDBRANCH   1  12
BRANCH   8  14
HETATM   14  O2  UNL     1      -6.569  21.038  75.241  1.00  0.00    -0.364 OA
HETATM   15  C8  UNL     1      -5.872  21.643  76.279  1.00  0.00     0.204 C 
ENDBRANCH   8  14
TORSDOF 2
ENDMDL
MODEL 4
REMARK VINA RESULT: -5.204295387      1.973      4.190
REMARK  2 active torsions:
REMARK  status: ('A' for Active; 'I' for Inactive)
REMARK    1  A    between atoms: C2_2  and  C3_3 
REMARK    2  A    between atoms: C7_10  and  O2_11 
ROOT
HETATM    1  C3  UNL     1     -10.360  17.374  77.363  1.00  0.00     0.107 C 
HETATM    2  N1  UNL     1     -10.861  16.969  76.089  1.00  0.00    -0.414 N 
ATOM      3  H1  UNL     1     -10.664  16.048  75.698  1.00  0.00     0.153 HD
HETATM    4  C4  UNL     1     -11.647  17.925  75.404  1.00  0.00     0.117 C 
HETATM    5  C5  UNL     1     -11.036  19.298  75.547  1.00  0.00     0.054 C 
HETATM    6  C6  UNL     1      -9.589  19.130  75.871  1.00  0.00     0.157 C 
HETATM    7  O1  UNL     1      -8.814  20.231  75.731  1.00  0.00    -0.351 OA
HETATM    8  C7  UNL     1      -8.907  21.189  76.707  1.00  0.00     0.283 C 
HETATM    9  C9  UNL     1      -9.577  20.764  77.967  1.00  0.00     0.229 C 
HETATM   10  O3  UNL     1      -9.582  19.450  78.260  1.00  0.00    -0.376 OA
HETATM   11  C10 UNL     1      -9.405  18.560  77.251  1.00  0.00     0.172 C 
ENDROOT
BRANCH   1  12
HETATM   12  C2  UNL     1     -11.436  17.618  78.393  1.00  0.00     0.023 C 
HETATM   13  C1  UNL     1     -12.317  16.406  78.437  1.00  0.00     0.007 C 
ENDBRANCH   1  12
BRANCH   8  14
HETATM   14  O2  UNL     1      -7.620  21.665  76.951  1.00  0.00    -0.364 OA
HETATM   15  C8  UNL     1      -6.726  21.189  76.002  1.00  0.00     0.204 C 
ENDBRANCH   8  14
TORSDOF 2
ENDMDL
MODEL 5
REMARK VINA RESULT: -5.174874154      1.339      2.851
REMARK  2 active torsions:
REMARK  status: ('A' for Active; 'I' for Inactive)
REMARK    1  A    between atoms: C2_2  and  C3_3 
REMARK    2  A    between atoms: C7_10  and  O2_11 
ROOT
HETATM    1  C3  UNL     1     -11.013  17.373  76.221  1.00  0.00     0.107 C 
HETATM    2  N1  UNL     1     -10.344  18.467  75.594  1.00  0.00    -0.414 N 
ATOM      3  H1  UNL     1      -9.834  18.359  74.718  1.00  0.00     0.153 HD
HETATM    4  C4  UNL     1     -10.433  19.710  76.263  1.00  0.00     0.117 C 
HETATM    5  C5  UNL     1     -10.273  19.511  77.751  1.00  0.00     0.054 C 
HETATM    6  C6  UNL     1      -9.556  18.220  77.971  1.00  0.00     0.157 C 
HETATM    7  O1  UNL     1      -9.050  18.022  79.212  1.00  0.00    -0.351 OA
HETATM    8  C7  UNL     1      -9.936  17.683  80.201  1.00  0.00     0.283 C 
HETATM    9  C9  UNL     1     -11.280  17.238  79.740  1.00  0.00     0.229 C 
HETATM   10  O3  UNL     1     -11.378  16.731  78.496  1.00  0.00    -0.376 OA
HETATM   11  C10 UNL     1     -10.419  17.049  77.590  1.00  0.00     0.172 C 
ENDROOT
BRANCH   1  12
HETATM   12  C2  UNL     1     -12.513  17.532  76.287  1.00  0.00     0.023 C 
HETATM   13  C1  UNL     1     -13.041  17.518  74.884  1.00  0.00     0.007 C 
ENDBRANCH   1  12
BRANCH   8  14
HETATM   14  O2  UNL     1      -9.325  16.715  80.997  1.00  0.00    -0.364 OA
HETATM   15  C8  UNL     1      -7.950  16.708  80.803  1.00  0.00     0.204 C 
ENDBRANCH   8  14
TORSDOF 2
ENDMDL
