MODEL 1
REMARK VINA RESULT: -5.128998604      0.000      0.000
REMARK  3 active torsions:
REMARK  status: ('A' for Active; 'I' for Inactive)
REMARK    1  A    between atoms: C5_6  and  C6_7 
REMARK    2  A    between atoms: C6_7  and  C7_8 
REMARK    3  A    between atoms: C7_8  and  N1_9 
ROOT
HETATM    1  C1  UNL     1     -10.887  15.770  77.762  1.00  0.00     0.048 C 
HETATM    2  C2  UNL     1     -10.785  17.224  78.241  1.00  0.00     0.076 C 
HETATM    3  C3  UNL     1     -11.469  17.242  79.616  1.00  0.00     0.048 C 
HETATM    4  C4  UNL     1      -9.376  17.620  78.437  1.00  0.00     0.209 C 
HETATM    5  O1  UNL     1      -8.818  18.457  77.532  1.00  0.00    -0.350 OA
HETATM    6  C5  UNL     1      -9.636  19.411  76.976  1.00  0.00     0.192 C 
HETATM    7  O2  UNL     1      -9.035  19.882  75.834  1.00  0.00    -0.353 OA
HETATM    8  C8  UNL     1      -9.546  19.245  74.742  1.00  0.00     0.174 C 
HETATM    9  C9  UNL     1     -10.518  18.183  75.216  1.00  0.00     0.064 C 
HETATM   10  C10 UNL     1     -10.917  18.799  76.541  1.00  0.00     0.187 C 
HETATM   11  O3  UNL     1     -11.534  17.972  77.400  1.00  0.00    -0.368 OA
ENDROOT
BRANCH   6  12
HETATM   12  C6  UNL     1      -9.910  20.568  77.899  1.00  0.00     0.098 C 
BRANCH  12  13
HETATM   13  C7  UNL     1      -8.873  21.670  77.693  1.00  0.00     0.235 C 
BRANCH  13  14
HETATM   14  N1  UNL     1      -7.551  21.104  77.874  1.00  0.00    -0.079 N 
ATOM     15  H13 UNL     1      -7.350  20.362  77.205  1.00  0.00     0.274 HD
ATOM     16  H12 UNL     1      -6.810  21.748  77.598  1.00  0.00     0.274 HD
ATOM     17  H11 UNL     1      -7.458  20.793  78.841  1.00  0.00     0.274 HD
ENDBRANCH  13  14
ENDBRANCH  12  13
ENDBRANCH   6  12
TORSDOF 3
ENDMDL
MODEL 2
REMARK VINA RESULT: -5.111260077      1.988      3.898
REMARK  3 active torsions:
REMARK  status: ('A' for Active; 'I' for Inactive)
REMARK    1  A    between atoms: C5_6  and  C6_7 
REMARK    2  A    between atoms: C6_7  and  C7_8 
REMARK    3  A    between atoms: C7_8  and  N1_9 
ROOT
HETATM    1  C1  UNL     1     -11.952  18.414  75.648  1.00  0.00     0.048 C 
HETATM    2  C2  UNL     1     -10.585  18.316  76.339  1.00  0.00     0.076 C 
HETATM    3  C3  UNL     1      -9.555  18.411  75.203  1.00  0.00     0.048 C 
HETATM    4  C4  UNL     1     -10.364  19.462  77.243  1.00  0.00     0.209 C 
HETATM    5  O1  UNL     1     -10.438  19.245  78.576  1.00  0.00    -0.350 OA
HETATM    6  C5  UNL     1     -10.000  18.027  79.036  1.00  0.00     0.192 C 
HETATM    7  O2  UNL     1     -10.506  17.835  80.298  1.00  0.00    -0.353 OA
HETATM    8  C8  UNL     1     -11.629  17.065  80.239  1.00  0.00     0.174 C 
HETATM    9  C9  UNL     1     -11.948  16.794  78.782  1.00  0.00     0.064 C 
HETATM   10  C10 UNL     1     -10.556  16.932  78.202  1.00  0.00     0.187 C 
HETATM   11  O3  UNL     1     -10.497  17.074  76.869  1.00  0.00    -0.368 OA
ENDROOT
BRANCH   6  12
HETATM   12  C6  UNL     1      -8.499  17.918  79.087  1.00  0.00     0.098 C 
BRANCH  12  13
HETATM   13  C7  UNL     1      -8.075  16.906  80.148  1.00  0.00     0.235 C 
BRANCH  13  14
HETATM   14  N1  UNL     1      -7.533  17.623  81.286  1.00  0.00    -0.079 N 
ATOM     15  H13 UNL     1      -8.159  17.607  82.090  1.00  0.00     0.274 HD
ATOM     16  H12 UNL     1      -6.743  17.138  81.711  1.00  0.00     0.274 HD
ATOM     17  H11 UNL     1      -7.298  18.571  80.993  1.00  0.00     0.274 HD
ENDBRANCH  13  14
ENDBRANCH  12  13
ENDBRANCH   6  12
TORSDOF 3
ENDMDL
MODEL 3
REMARK VINA RESULT: -4.958039856      2.119      3.946
REMARK  3 active torsions:
REMARK  status: ('A' for Active; 'I' for Inactive)
REMARK    1  A    between atoms: C5_6  and  C6_7 
REMARK    2  A    between atoms: C6_7  and  C7_8 
REMARK    3  A    between atoms: C7_8  and  N1_9 
ROOT
HETATM    1  C1  UNL     1      -7.602  21.026  75.036  1.00  0.00     0.048 C 
HETATM    2  C2  UNL     1      -8.108  20.513  76.391  1.00  0.00     0.076 C 
HETATM    3  C3  UNL     1      -6.996  20.861  77.392  1.00  0.00     0.048 C 
HETATM    4  C4  UNL     1      -9.327  21.234  76.809  1.00  0.00     0.209 C 
HETATM    5  O1  UNL     1     -10.509  20.579  76.740  1.00  0.00    -0.350 OA
HETATM    6  C5  UNL     1     -10.492  19.231  77.001  1.00  0.00     0.192 C 
HETATM    7  O2  UNL     1     -11.650  18.681  76.508  1.00  0.00    -0.353 OA
HETATM    8  C8  UNL     1     -11.421  18.135  75.279  1.00  0.00     0.174 C 
HETATM    9  C9  UNL     1      -9.988  18.433  74.882  1.00  0.00     0.064 C 
HETATM   10  C10 UNL     1      -9.382  18.577  76.262  1.00  0.00     0.187 C 
HETATM   11  O3  UNL     1      -8.176  19.165  76.305  1.00  0.00    -0.368 OA
ENDROOT
BRANCH   6  12
HETATM   12  C6  UNL     1     -10.386  18.913  78.470  1.00  0.00     0.098 C 
BRANCH  12  13
HETATM   13  C7  UNL     1     -10.031  17.442  78.670  1.00  0.00     0.235 C 
BRANCH  13  14
HETATM   14  N1  UNL     1     -11.259  16.681  78.797  1.00  0.00    -0.079 N 
ATOM     15  H13 UNL     1     -11.373  15.999  78.048  1.00  0.00     0.274 HD
ATOM     16  H12 UNL     1     -11.234  16.028  79.580  1.00  0.00     0.274 HD
ATOM     17  H11 UNL     1     -12.042  17.331  78.855  1.00  0.00     0.274 HD
ENDBRANCH  13  14
ENDBRANCH  12  13
ENDBRANCH   6  12
TORSDOF 3
ENDMDL
MODEL 4
REMARK VINA RESULT: -4.823804129      1.921      3.268
REMARK  3 active torsions:
REMARK  status: ('A' for Active; 'I' for Inactive)
REMARK    1  A    between atoms: C5_6  and  C6_7 
REMARK    2  A    between atoms: C6_7  and  C7_8 
REMARK    3  A    between atoms: C7_8  and  N1_9 
ROOT
HETATM    1  C1  UNL     1      -9.641  18.164  80.547  1.00  0.00     0.048 C 
HETATM    2  C2  UNL     1      -9.620  17.754  79.068  1.00  0.00     0.076 C 
HETATM    3  C3  UNL     1      -9.300  16.251  79.074  1.00  0.00     0.048 C 
HETATM    4  C4  UNL     1     -10.950  17.926  78.451  1.00  0.00     0.209 C 
HETATM    5  O1  UNL     1     -11.125  18.958  77.593  1.00  0.00    -0.350 OA
HETATM    6  C5  UNL     1     -10.052  19.309  76.811  1.00  0.00     0.192 C 
HETATM    7  O2  UNL     1     -10.269  20.574  76.322  1.00  0.00    -0.353 OA
HETATM    8  C8  UNL     1      -9.616  21.490  77.092  1.00  0.00     0.174 C 
HETATM    9  C9  UNL     1      -8.976  20.766  78.260  1.00  0.00     0.064 C 
HETATM   10  C10 UNL     1      -8.820  19.395  77.635  1.00  0.00     0.187 C 
HETATM   11  O3  UNL     1      -8.576  18.393  78.494  1.00  0.00    -0.368 OA
ENDROOT
BRANCH   6  12
HETATM   12  C6  UNL     1      -9.829  18.369  75.655  1.00  0.00     0.098 C 
BRANCH  12  13
HETATM   13  C7  UNL     1     -11.159  17.802  75.166  1.00  0.00     0.235 C 
BRANCH  13  14
HETATM   14  N1  UNL     1     -12.050  18.905  74.862  1.00  0.00    -0.079 N 
ATOM     15  H13 UNL     1     -11.952  19.232  73.901  1.00  0.00     0.274 HD
ATOM     16  H12 UNL     1     -13.026  18.615  74.813  1.00  0.00     0.274 HD
ATOM     17  H11 UNL     1     -11.896  19.647  75.544  1.00  0.00     0.274 HD
ENDBRANCH  13  14
ENDBRANCH  12  13
ENDBRANCH   6  12
TORSDOF 3
ENDMDL
MODEL 5
REMARK VINA RESULT: -4.799264454      2.125      4.040
REMARK  3 active torsions:
REMARK  status: ('A' for Active; 'I' for Inactive)
REMARK    1  A    between atoms: C5_6  and  C6_7 
REMARK    2  A    between atoms: C6_7  and  C7_8 
REMARK    3  A    between atoms: C7_8  and  N1_9 
ROOT
HETATM    1  C1  UNL     1     -10.338  20.349  76.215  1.00  0.00     0.048 C 
HETATM    2  C2  UNL     1      -9.449  19.641  77.246  1.00  0.00     0.076 C 
HETATM    3  C3  UNL     1      -8.037  20.194  77.003  1.00  0.00     0.048 C 
HETATM    4  C4  UNL     1      -9.841  20.003  78.623  1.00  0.00     0.209 C 
HETATM    5  O1  UNL     1     -10.492  19.076  79.364  1.00  0.00    -0.350 OA
HETATM    6  C5  UNL     1     -10.144  17.762  79.167  1.00  0.00     0.192 C 
HETATM    7  O2  UNL     1     -11.143  16.970  79.678  1.00  0.00    -0.353 OA
HETATM    8  C8  UNL     1     -11.985  16.578  78.680  1.00  0.00     0.174 C 
HETATM    9  C9  UNL     1     -11.550  17.252  77.393  1.00  0.00     0.064 C 
HETATM   10  C10 UNL     1     -10.084  17.458  77.715  1.00  0.00     0.187 C 
HETATM   11  O3  UNL     1      -9.436  18.327  76.924  1.00  0.00    -0.368 OA
ENDROOT
BRANCH   6  12
HETATM   12  C6  UNL     1      -8.839  17.390  79.821  1.00  0.00     0.098 C 
BRANCH  12  13
HETATM   13  C7  UNL     1      -9.055  17.085  81.301  1.00  0.00     0.235 C 
BRANCH  13  14
HETATM   14  N1  UNL     1      -9.411  18.314  81.982  1.00  0.00    -0.079 N 
ATOM     15  H13 UNL     1      -9.734  19.036  81.339  1.00  0.00     0.274 HD
ATOM     16  H12 UNL     1     -10.266  18.222  82.531  1.00  0.00     0.274 HD
ATOM     17  H11 UNL     1      -8.617  18.618  82.545  1.00  0.00     0.274 HD
ENDBRANCH  13  14
ENDBRANCH  12  13
ENDBRANCH   6  12
TORSDOF 3
ENDMDL
