MODEL 1
REMARK VINA RESULT: -7.615582353      0.000      0.000
REMARK  14 active torsions:
REMARK  status: ('A' for Active; 'I' for Inactive)
REMARK    1  A    between atoms: C2_3  and  N2_4 
REMARK    2  A    between atoms: N2_4  and  C3_6 
REMARK    3  A    between atoms: C3_6  and  C4_7 
REMARK    4  A    between atoms: C4_7  and  C5_8 
REMARK    5  A    between atoms: C5_8  and  C6_9 
REMARK    6  A    between atoms: C6_9  and  N3_10 
REMARK    7  A    between atoms: N3_10  and  C7_12 
REMARK    8  A    between atoms: C7_12  and  C8_13 
REMARK    9  A    between atoms: C8_13  and  O1_14 
REMARK   10  A    between atoms: O1_14  and  C9_15 
REMARK   11  A    between atoms: C9_15  and  C10_16 
REMARK   12  A    between atoms: C10_16  and  N4_17 
REMARK   13  A    between atoms: C18_29  and  N7_30 
REMARK   14  A    between atoms: C19_35  and  N9_36 
ROOT
HETATM    1  N2  UNL     1      14.486  38.251  -9.691  1.00  0.00    -0.226 N 
ATOM      2  H2  UNL     1      15.173  38.937 -10.003  1.00  0.00     0.177 HD
ENDROOT
BRANCH   1   3
HETATM    3  C2  UNL     1      13.710  38.565  -8.724  1.00  0.00     0.682 A 
HETATM    4  N1  UNL     1      13.021  39.716  -8.609  1.00  0.00    -0.180 N 
HETATM    5  C1  UNL     1      13.039  40.796  -9.556  1.00  0.00     0.176 C 
HETATM    6  C20 UNL     1      12.328  39.637  -7.441  1.00  0.00     0.140 A 
HETATM    7  C17 UNL     1      12.615  38.406  -6.852  1.00  0.00     0.167 A 
HETATM    8  C19 UNL     1      11.465  40.468  -6.773  1.00  0.00     0.146 A 
HETATM    9  N5  UNL     1      13.465  37.791  -7.678  1.00  0.00    -0.174 N 
HETATM   10  N6  UNL     1      12.089  38.026  -5.693  1.00  0.00    -0.174 N 
ATOM     11  H5  UNL     1      13.864  36.865  -7.526  1.00  0.00     0.186 HD
HETATM   12  C18 UNL     1      11.259  38.865  -5.084  1.00  0.00     0.679 A 
ATOM     13  H6  UNL     1      12.316  37.119  -5.284  1.00  0.00     0.186 HD
HETATM   14  N8  UNL     1      10.940  40.049  -5.582  1.00  0.00    -0.175 N 
ATOM     15  H8  UNL     1      10.297  40.655  -5.072  1.00  0.00     0.186 HD
BRANCH  12  16
HETATM   16  N7  UNL     1      10.741  38.494  -3.950  1.00  0.00    -0.234 N 
ATOM     17  H72 UNL     1       9.901  37.916  -3.952  1.00  0.00     0.174 HD
ATOM     18  H71 UNL     1      11.203  38.797  -3.092  1.00  0.00     0.174 HD
ENDBRANCH  12  16
BRANCH   8  19
HETATM   19  N9  UNL     1      11.157  41.595  -7.236  1.00  0.00    -0.383 N 
ATOM     20  H92 UNL     1      11.872  42.249  -7.553  1.00  0.00     0.157 HD
ATOM     21  H91 UNL     1      10.177  41.872  -7.300  1.00  0.00     0.157 HD
ENDBRANCH   8  19
ENDBRANCH   1   3
BRANCH   1  22
HETATM   22  C3  UNL     1      14.438  36.984 -10.358  1.00  0.00     0.138 C 
BRANCH  22  23
HETATM   23  C4  UNL     1      13.210  37.059 -11.328  1.00  0.00     0.025 C 
BRANCH  23  24
HETATM   24  C5  UNL     1      13.393  35.905 -12.243  1.00  0.00     0.046 C 
BRANCH  24  25
HETATM   25  C6  UNL     1      13.616  36.101 -13.682  1.00  0.00     0.055 C 
BRANCH  25  26
HETATM   26  N3  UNL     1      14.904  35.954 -14.176  1.00  0.00    -0.400 N 
ATOM     27  H3  UNL     1      15.203  35.061 -14.567  1.00  0.00     0.158 HD
BRANCH  26  28
HETATM   28  C7  UNL     1      15.791  37.035 -14.134  1.00  0.00     0.145 C 
BRANCH  28  29
HETATM   29  C8  UNL     1      16.987  36.696 -13.211  1.00  0.00     0.187 C 
BRANCH  29  30
HETATM   30  O1  UNL     1      17.776  37.794 -12.996  1.00  0.00    -0.388 OA
BRANCH  30  31
HETATM   31  C9  UNL     1      17.139  39.000 -13.004  1.00  0.00     0.182 C 
BRANCH  31  32
HETATM   32  C10 UNL     1      18.130  40.166 -12.966  1.00  0.00     0.122 C 
BRANCH  32  33
HETATM   33  N4  UNL     1      18.102  40.740 -11.667  1.00  0.00    -0.281 NA
HETATM   34  C11 UNL     1      19.127  41.817 -11.502  1.00  0.00     0.174 C 
HETATM   35  C12 UNL     1      18.590  42.779 -10.626  1.00  0.00    -0.168 C 
HETATM   36  C13 UNL     1      17.922  43.655  -9.760  1.00  0.00     0.085 C 
HETATM   37  C14 UNL     1      16.476  43.077  -9.571  1.00  0.00     0.039 C 
HETATM   38  C15 UNL     1      16.378  41.633 -10.029  1.00  0.00    -0.014 C 
HETATM   39  C16 UNL     1      16.758  41.180 -11.341  1.00  0.00     0.056 C 
ENDBRANCH  32  33
ENDBRANCH  31  32
ENDBRANCH  30  31
ENDBRANCH  29  30
ENDBRANCH  28  29
ENDBRANCH  26  28
ENDBRANCH  25  26
ENDBRANCH  24  25
ENDBRANCH  23  24
ENDBRANCH  22  23
ENDBRANCH   1  22
TORSDOF 14
ENDMDL
MODEL 2
REMARK VINA RESULT: -7.597931875      2.248      2.919
REMARK  14 active torsions:
REMARK  status: ('A' for Active; 'I' for Inactive)
REMARK    1  A    between atoms: C2_3  and  N2_4 
REMARK    2  A    between atoms: N2_4  and  C3_6 
REMARK    3  A    between atoms: C3_6  and  C4_7 
REMARK    4  A    between atoms: C4_7  and  C5_8 
REMARK    5  A    between atoms: C5_8  and  C6_9 
REMARK    6  A    between atoms: C6_9  and  N3_10 
REMARK    7  A    between atoms: N3_10  and  C7_12 
REMARK    8  A    between atoms: C7_12  and  C8_13 
REMARK    9  A    between atoms: C8_13  and  O1_14 
REMARK   10  A    between atoms: O1_14  and  C9_15 
REMARK   11  A    between atoms: C9_15  and  C10_16 
REMARK   12  A    between atoms: C10_16  and  N4_17 
REMARK   13  A    between atoms: C18_29  and  N7_30 
REMARK   14  A    between atoms: C19_35  and  N9_36 
ROOT
HETATM    1  N2  UNL     1      14.403  38.262  -9.486  1.00  0.00    -0.226 N 
ATOM      2  H2  UNL     1      15.058  38.961  -9.834  1.00  0.00     0.177 HD
ENDROOT
BRANCH   1   3
HETATM    3  C2  UNL     1      13.624  38.585  -8.524  1.00  0.00     0.682 A 
HETATM    4  N1  UNL     1      13.009  39.774  -8.374  1.00  0.00    -0.180 N 
HETATM    5  C1  UNL     1      13.125  40.890  -9.270  1.00  0.00     0.176 C 
HETATM    6  C20 UNL     1      12.282  39.690  -7.228  1.00  0.00     0.140 A 
HETATM    7  C17 UNL     1      12.470  38.418  -6.689  1.00  0.00     0.167 A 
HETATM    8  C19 UNL     1      11.458  40.548  -6.544  1.00  0.00     0.146 A 
HETATM    9  N5  UNL     1      13.299  37.784  -7.521  1.00  0.00    -0.174 N 
HETATM   10  N6  UNL     1      11.889  38.024  -5.562  1.00  0.00    -0.174 N 
ATOM     11  H5  UNL     1      13.632  36.828  -7.402  1.00  0.00     0.186 HD
HETATM   12  C18 UNL     1      11.099  38.889  -4.935  1.00  0.00     0.679 A 
ATOM     13  H6  UNL     1      12.044  37.087  -5.189  1.00  0.00     0.186 HD
HETATM   14  N8  UNL     1      10.874  40.113  -5.386  1.00  0.00    -0.175 N 
ATOM     15  H8  UNL     1      10.258  40.738  -4.865  1.00  0.00     0.186 HD
BRANCH  12  16
HETATM   16  N7  UNL     1      10.528  38.505  -3.832  1.00  0.00    -0.234 N 
ATOM     17  H72 UNL     1       9.845  37.748  -3.863  1.00  0.00     0.174 HD
ATOM     18  H71 UNL     1      10.789  38.979  -2.967  1.00  0.00     0.174 HD
ENDBRANCH  12  16
BRANCH   8  19
HETATM   19  N9  UNL     1      11.238  41.712  -6.963  1.00  0.00    -0.383 N 
ATOM     20  H92 UNL     1      10.628  41.879  -7.763  1.00  0.00     0.157 HD
ATOM     21  H91 UNL     1      11.672  42.512  -6.502  1.00  0.00     0.157 HD
ENDBRANCH   8  19
ENDBRANCH   1   3
BRANCH   1  22
HETATM   22  C3  UNL     1      14.402  36.967 -10.098  1.00  0.00     0.138 C 
BRANCH  22  23
HETATM   23  C4  UNL     1      13.324  37.032 -11.233  1.00  0.00     0.025 C 
BRANCH  23  24
HETATM   24  C5  UNL     1      13.715  35.952 -12.174  1.00  0.00     0.046 C 
BRANCH  24  25
HETATM   25  C6  UNL     1      13.265  35.960 -13.571  1.00  0.00     0.055 C 
BRANCH  25  26
HETATM   26  N3  UNL     1      14.159  35.565 -14.555  1.00  0.00    -0.400 N 
ATOM     27  H3  UNL     1      15.078  35.206 -14.297  1.00  0.00     0.158 HD
BRANCH  26  28
HETATM   28  C7  UNL     1      13.795  35.662 -15.902  1.00  0.00     0.145 C 
BRANCH  28  29
HETATM   29  C8  UNL     1      15.001  35.285 -16.798  1.00  0.00     0.187 C 
BRANCH  29  30
HETATM   30  O1  UNL     1      16.188  35.496 -16.150  1.00  0.00    -0.388 OA
BRANCH  30  31
HETATM   31  C9  UNL     1      16.875  36.618 -16.509  1.00  0.00     0.182 C 
BRANCH  31  32
HETATM   32  C10 UNL     1      17.412  37.369 -15.289  1.00  0.00     0.122 C 
BRANCH  32  33
HETATM   33  N4  UNL     1      16.312  37.797 -14.500  1.00  0.00    -0.281 NA
HETATM   34  C11 UNL     1      16.727  38.208 -13.123  1.00  0.00     0.174 C 
HETATM   35  C12 UNL     1      15.875  39.252 -12.719  1.00  0.00    -0.168 C 
HETATM   36  C13 UNL     1      14.967  40.289 -12.461  1.00  0.00     0.085 C 
HETATM   37  C14 UNL     1      14.145  40.498 -13.782  1.00  0.00     0.039 C 
HETATM   38  C15 UNL     1      14.297  39.326 -14.735  1.00  0.00    -0.014 C 
HETATM   39  C16 UNL     1      15.565  38.828 -15.198  1.00  0.00     0.056 C 
ENDBRANCH  32  33
ENDBRANCH  31  32
ENDBRANCH  30  31
ENDBRANCH  29  30
ENDBRANCH  28  29
ENDBRANCH  26  28
ENDBRANCH  25  26
ENDBRANCH  24  25
ENDBRANCH  23  24
ENDBRANCH  22  23
ENDBRANCH   1  22
TORSDOF 14
ENDMDL
MODEL 3
REMARK VINA RESULT: -7.481623373      0.995      1.436
REMARK  14 active torsions:
REMARK  status: ('A' for Active; 'I' for Inactive)
REMARK    1  A    between atoms: C2_3  and  N2_4 
REMARK    2  A    between atoms: N2_4  and  C3_6 
REMARK    3  A    between atoms: C3_6  and  C4_7 
REMARK    4  A    between atoms: C4_7  and  C5_8 
REMARK    5  A    between atoms: C5_8  and  C6_9 
REMARK    6  A    between atoms: C6_9  and  N3_10 
REMARK    7  A    between atoms: N3_10  and  C7_12 
REMARK    8  A    between atoms: C7_12  and  C8_13 
REMARK    9  A    between atoms: C8_13  and  O1_14 
REMARK   10  A    between atoms: O1_14  and  C9_15 
REMARK   11  A    between atoms: C9_15  and  C10_16 
REMARK   12  A    between atoms: C10_16  and  N4_17 
REMARK   13  A    between atoms: C18_29  and  N7_30 
REMARK   14  A    between atoms: C19_35  and  N9_36 
ROOT
HETATM    1  N2  UNL     1      14.359  38.248  -9.640  1.00  0.00    -0.226 N 
ATOM      2  H2  UNL     1      14.976  38.955 -10.041  1.00  0.00     0.177 HD
ENDROOT
BRANCH   1   3
HETATM    3  C2  UNL     1      13.606  38.584  -8.663  1.00  0.00     0.682 A 
HETATM    4  N1  UNL     1      12.951  39.754  -8.539  1.00  0.00    -0.180 N 
HETATM    5  C1  UNL     1      12.986  40.833  -9.486  1.00  0.00     0.176 C 
HETATM    6  C20 UNL     1      12.272  39.693  -7.362  1.00  0.00     0.140 A 
HETATM    7  C17 UNL     1      12.532  38.455  -6.777  1.00  0.00     0.167 A 
HETATM    8  C19 UNL     1      11.442  40.548  -6.682  1.00  0.00     0.146 A 
HETATM    9  N5  UNL     1      13.353  37.816  -7.614  1.00  0.00    -0.174 N 
HETATM   10  N6  UNL     1      12.011  38.088  -5.611  1.00  0.00    -0.174 N 
ATOM     11  H5  UNL     1      13.728  36.879  -7.467  1.00  0.00     0.186 HD
HETATM   12  C18 UNL     1      11.212  38.950  -4.990  1.00  0.00     0.679 A 
ATOM     13  H6  UNL     1      12.218  37.175  -5.205  1.00  0.00     0.186 HD
HETATM   14  N8  UNL     1      10.921  40.143  -5.484  1.00  0.00    -0.175 N 
ATOM     15  H8  UNL     1      10.301  40.766  -4.966  1.00  0.00     0.186 HD
BRANCH  12  16
HETATM   16  N7  UNL     1      10.700  38.593  -3.850  1.00  0.00    -0.234 N 
ATOM     17  H72 UNL     1      10.029  37.826  -3.824  1.00  0.00     0.174 HD
ATOM     18  H71 UNL     1      10.995  39.098  -3.014  1.00  0.00     0.174 HD
ENDBRANCH  12  16
BRANCH   8  19
HETATM   19  N9  UNL     1      11.159  41.683  -7.141  1.00  0.00    -0.383 N 
ATOM     20  H92 UNL     1      11.339  42.530  -6.602  1.00  0.00     0.157 HD
ATOM     21  H91 UNL     1      10.741  41.771  -8.067  1.00  0.00     0.157 HD
ENDBRANCH   8  19
ENDBRANCH   1   3
BRANCH   1  22
HETATM   22  C3  UNL     1      14.381  36.931 -10.202  1.00  0.00     0.138 C 
BRANCH  22  23
HETATM   23  C4  UNL     1      13.222  36.898 -11.256  1.00  0.00     0.025 C 
BRANCH  23  24
HETATM   24  C5  UNL     1      13.699  35.955 -12.298  1.00  0.00     0.046 C 
BRANCH  24  25
HETATM   25  C6  UNL     1      14.375  36.437 -13.509  1.00  0.00     0.055 C 
BRANCH  25  26
HETATM   26  N3  UNL     1      15.753  36.306 -13.593  1.00  0.00    -0.400 N 
ATOM     27  H3  UNL     1      16.163  35.473 -14.016  1.00  0.00     0.158 HD
BRANCH  26  28
HETATM   28  C7  UNL     1      16.577  37.320 -13.094  1.00  0.00     0.145 C 
BRANCH  28  29
HETATM   29  C8  UNL     1      15.880  38.692 -13.262  1.00  0.00     0.187 C 
BRANCH  29  30
HETATM   30  O1  UNL     1      15.823  39.370 -12.073  1.00  0.00    -0.388 OA
BRANCH  30  31
HETATM   31  C9  UNL     1      16.717  40.389 -11.921  1.00  0.00     0.182 C 
BRANCH  31  32
HETATM   32  C10 UNL     1      16.031  41.684 -11.482  1.00  0.00     0.122 C 
BRANCH  32  33
HETATM   33  N4  UNL     1      16.705  42.187 -10.338  1.00  0.00    -0.281 NA
HETATM   34  C11 UNL     1      18.053  42.742 -10.672  1.00  0.00     0.174 C 
HETATM   35  C12 UNL     1      18.295  43.819  -9.799  1.00  0.00    -0.168 C 
HETATM   36  C13 UNL     1      18.389  44.871  -8.878  1.00  0.00     0.085 C 
HETATM   37  C14 UNL     1      17.008  44.936  -8.134  1.00  0.00     0.039 C 
HETATM   38  C15 UNL     1      16.194  43.672  -8.341  1.00  0.00    -0.014 C 
HETATM   39  C16 UNL     1      15.860  43.134  -9.633  1.00  0.00     0.056 C 
ENDBRANCH  32  33
ENDBRANCH  31  32
ENDBRANCH  30  31
ENDBRANCH  29  30
ENDBRANCH  28  29
ENDBRANCH  26  28
ENDBRANCH  25  26
ENDBRANCH  24  25
ENDBRANCH  23  24
ENDBRANCH  22  23
ENDBRANCH   1  22
TORSDOF 14
ENDMDL
MODEL 4
REMARK VINA RESULT: -7.373027997      0.901      1.608
REMARK  14 active torsions:
REMARK  status: ('A' for Active; 'I' for Inactive)
REMARK    1  A    between atoms: C2_3  and  N2_4 
REMARK    2  A    between atoms: N2_4  and  C3_6 
REMARK    3  A    between atoms: C3_6  and  C4_7 
REMARK    4  A    between atoms: C4_7  and  C5_8 
REMARK    5  A    between atoms: C5_8  and  C6_9 
REMARK    6  A    between atoms: C6_9  and  N3_10 
REMARK    7  A    between atoms: N3_10  and  C7_12 
REMARK    8  A    between atoms: C7_12  and  C8_13 
REMARK    9  A    between atoms: C8_13  and  O1_14 
REMARK   10  A    between atoms: O1_14  and  C9_15 
REMARK   11  A    between atoms: C9_15  and  C10_16 
REMARK   12  A    between atoms: C10_16  and  N4_17 
REMARK   13  A    between atoms: C18_29  and  N7_30 
REMARK   14  A    between atoms: C19_35  and  N9_36 
ROOT
HETATM    1  N2  UNL     1      14.394  38.272  -9.654  1.00  0.00    -0.226 N 
ATOM      2  H2  UNL     1      15.021  38.978 -10.040  1.00  0.00     0.177 HD
ENDROOT
BRANCH   1   3
HETATM    3  C2  UNL     1      13.640  38.601  -8.675  1.00  0.00     0.682 A 
HETATM    4  N1  UNL     1      13.011  39.783  -8.527  1.00  0.00    -0.180 N 
HETATM    5  C1  UNL     1      13.081  40.885  -9.446  1.00  0.00     0.176 C 
HETATM    6  C20 UNL     1      12.321  39.708  -7.357  1.00  0.00     0.140 A 
HETATM    7  C17 UNL     1      12.546  38.450  -6.802  1.00  0.00     0.167 A 
HETATM    8  C19 UNL     1      11.505  40.566  -6.663  1.00  0.00     0.146 A 
HETATM    9  N5  UNL     1      13.359  37.814  -7.648  1.00  0.00    -0.174 N 
HETATM   10  N6  UNL     1      12.006  38.067  -5.650  1.00  0.00    -0.174 N 
ATOM     11  H5  UNL     1      13.710  36.865  -7.522  1.00  0.00     0.186 HD
HETATM   12  C18 UNL     1      11.222  38.932  -5.015  1.00  0.00     0.679 A 
ATOM     13  H6  UNL     1      12.187  37.140  -5.266  1.00  0.00     0.186 HD
HETATM   14  N8  UNL     1      10.964  40.144  -5.480  1.00  0.00    -0.175 N 
ATOM     15  H8  UNL     1      10.355  40.769  -4.952  1.00  0.00     0.186 HD
BRANCH  12  16
HETATM   16  N7  UNL     1      10.691  38.559  -3.888  1.00  0.00    -0.234 N 
ATOM     17  H72 UNL     1       9.705  38.302  -3.864  1.00  0.00     0.174 HD
ATOM     18  H71 UNL     1      11.290  38.535  -3.062  1.00  0.00     0.174 HD
ENDBRANCH  12  16
BRANCH   8  19
HETATM   19  N9  UNL     1      11.254  41.719  -7.095  1.00  0.00    -0.383 N 
ATOM     20  H92 UNL     1      10.896  42.448  -6.479  1.00  0.00     0.157 HD
ATOM     21  H91 UNL     1      11.406  41.941  -8.080  1.00  0.00     0.157 HD
ENDBRANCH   8  19
ENDBRANCH   1   3
BRANCH   1  22
HETATM   22  C3  UNL     1      14.402  36.964 -10.236  1.00  0.00     0.138 C 
BRANCH  22  23
HETATM   23  C4  UNL     1      13.191  36.932 -11.231  1.00  0.00     0.025 C 
BRANCH  23  24
HETATM   24  C5  UNL     1      13.549  35.878 -12.212  1.00  0.00     0.046 C 
BRANCH  24  25
HETATM   25  C6  UNL     1      13.546  36.148 -13.656  1.00  0.00     0.055 C 
BRANCH  25  26
HETATM   26  N3  UNL     1      14.650  35.763 -14.402  1.00  0.00    -0.400 N 
ATOM     27  H3  UNL     1      15.189  34.940 -14.131  1.00  0.00     0.158 HD
BRANCH  26  28
HETATM   28  C7  UNL     1      15.021  36.507 -15.527  1.00  0.00     0.145 C 
BRANCH  28  29
HETATM   29  C8  UNL     1      16.287  37.340 -15.209  1.00  0.00     0.187 C 
BRANCH  29  30
HETATM   30  O1  UNL     1      16.937  36.856 -14.105  1.00  0.00    -0.388 OA
BRANCH  30  31
HETATM   31  C9  UNL     1      17.324  37.784 -13.184  1.00  0.00     0.182 C 
BRANCH  31  32
HETATM   32  C10 UNL     1      16.211  38.793 -12.893  1.00  0.00     0.122 C 
BRANCH  32  33
HETATM   33  N4  UNL     1      16.798  40.074 -12.710  1.00  0.00    -0.281 NA
HETATM   34  C11 UNL     1      16.510  40.642 -11.357  1.00  0.00     0.174 C 
HETATM   35  C12 UNL     1      17.628  41.406 -10.973  1.00  0.00    -0.168 C 
HETATM   36  C13 UNL     1      18.811  42.113 -10.720  1.00  0.00     0.085 C 
HETATM   37  C14 UNL     1      19.778  41.803 -11.916  1.00  0.00     0.039 C 
HETATM   38  C15 UNL     1      19.042  41.199 -13.099  1.00  0.00    -0.014 C 
HETATM   39  C16 UNL     1      18.217  40.023 -13.014  1.00  0.00     0.056 C 
ENDBRANCH  32  33
ENDBRANCH  31  32
ENDBRANCH  30  31
ENDBRANCH  29  30
ENDBRANCH  28  29
ENDBRANCH  26  28
ENDBRANCH  25  26
ENDBRANCH  24  25
ENDBRANCH  23  24
ENDBRANCH  22  23
ENDBRANCH   1  22
TORSDOF 14
ENDMDL
MODEL 5
REMARK VINA RESULT: -7.369245028      1.178      1.833
REMARK  14 active torsions:
REMARK  status: ('A' for Active; 'I' for Inactive)
REMARK    1  A    between atoms: C2_3  and  N2_4 
REMARK    2  A    between atoms: N2_4  and  C3_6 
REMARK    3  A    between atoms: C3_6  and  C4_7 
REMARK    4  A    between atoms: C4_7  and  C5_8 
REMARK    5  A    between atoms: C5_8  and  C6_9 
REMARK    6  A    between atoms: C6_9  and  N3_10 
REMARK    7  A    between atoms: N3_10  and  C7_12 
REMARK    8  A    between atoms: C7_12  and  C8_13 
REMARK    9  A    between atoms: C8_13  and  O1_14 
REMARK   10  A    between atoms: O1_14  and  C9_15 
REMARK   11  A    between atoms: C9_15  and  C10_16 
REMARK   12  A    between atoms: C10_16  and  N4_17 
REMARK   13  A    between atoms: C18_29  and  N7_30 
REMARK   14  A    between atoms: C19_35  and  N9_36 
ROOT
HETATM    1  N2  UNL     1      14.448  38.185  -9.662  1.00  0.00    -0.226 N 
ATOM      2  H2  UNL     1      15.135  38.855 -10.007  1.00  0.00     0.177 HD
ENDROOT
BRANCH   1   3
HETATM    3  C2  UNL     1      13.693  38.536  -8.691  1.00  0.00     0.682 A 
HETATM    4  N1  UNL     1      13.025  39.701  -8.593  1.00  0.00    -0.180 N 
HETATM    5  C1  UNL     1      13.045  40.757  -9.566  1.00  0.00     0.176 C 
HETATM    6  C20 UNL     1      12.350  39.660  -7.413  1.00  0.00     0.140 A 
HETATM    7  C17 UNL     1      12.626  38.440  -6.799  1.00  0.00     0.167 A 
HETATM    8  C19 UNL     1      11.512  40.522  -6.751  1.00  0.00     0.146 A 
HETATM    9  N5  UNL     1      13.451  37.791  -7.623  1.00  0.00    -0.174 N 
HETATM   10  N6  UNL     1      12.112  38.096  -5.623  1.00  0.00    -0.174 N 
ATOM     11  H5  UNL     1      13.838  36.862  -7.455  1.00  0.00     0.186 HD
HETATM   12  C18 UNL     1      11.306  38.963  -5.021  1.00  0.00     0.679 A 
ATOM     13  H6  UNL     1      12.330  37.195  -5.196  1.00  0.00     0.186 HD
HETATM   14  N8  UNL     1      10.999  40.140  -5.542  1.00  0.00    -0.175 N 
ATOM     15  H8  UNL     1      10.374  40.769  -5.037  1.00  0.00     0.186 HD
BRANCH  12  16
HETATM   16  N7  UNL     1      10.801  38.627  -3.871  1.00  0.00    -0.234 N 
ATOM     17  H72 UNL     1      10.105  37.883  -3.831  1.00  0.00     0.174 HD
ATOM     18  H71 UNL     1      11.125  39.126  -3.042  1.00  0.00     0.174 HD
ENDBRANCH  12  16
BRANCH   8  19
HETATM   19  N9  UNL     1      11.215  41.643  -7.236  1.00  0.00    -0.383 N 
ATOM     20  H92 UNL     1      11.699  42.491  -6.941  1.00  0.00     0.157 HD
ATOM     21  H91 UNL     1      10.478  41.718  -7.938  1.00  0.00     0.157 HD
ENDBRANCH   8  19
ENDBRANCH   1   3
BRANCH   1  22
HETATM   22  C3  UNL     1      14.376  36.900 -10.291  1.00  0.00     0.138 C 
BRANCH  22  23
HETATM   23  C4  UNL     1      13.119  36.952 -11.226  1.00  0.00     0.025 C 
BRANCH  23  24
HETATM   24  C5  UNL     1      13.456  36.039 -12.346  1.00  0.00     0.046 C 
BRANCH  24  25
HETATM   25  C6  UNL     1      13.805  36.559 -13.674  1.00  0.00     0.055 C 
BRANCH  25  26
HETATM   26  N3  UNL     1      14.110  37.906 -13.796  1.00  0.00    -0.400 N 
ATOM     27  H3  UNL     1      13.393  38.611 -13.625  1.00  0.00     0.158 HD
BRANCH  26  28
HETATM   28  C7  UNL     1      15.405  38.295 -14.155  1.00  0.00     0.145 C 
BRANCH  28  29
HETATM   29  C8  UNL     1      16.182  38.755 -12.896  1.00  0.00     0.187 C 
BRANCH  29  30
HETATM   30  O1  UNL     1      15.463  39.672 -12.176  1.00  0.00    -0.388 OA
BRANCH  30  31
HETATM   31  C9  UNL     1      16.041  40.897 -12.022  1.00  0.00     0.182 C 
BRANCH  31  32
HETATM   32  C10 UNL     1      16.588  41.092 -10.606  1.00  0.00     0.122 C 
BRANCH  32  33
HETATM   33  N4  UNL     1      16.681  42.485 -10.345  1.00  0.00    -0.281 NA
HETATM   34  C11 UNL     1      15.918  42.885  -9.122  1.00  0.00     0.174 C 
HETATM   35  C12 UNL     1      16.614  43.949  -8.519  1.00  0.00    -0.168 C 
HETATM   36  C13 UNL     1      17.418  44.984  -8.026  1.00  0.00     0.085 C 
HETATM   37  C14 UNL     1      18.687  45.039  -8.947  1.00  0.00     0.039 C 
HETATM   38  C15 UNL     1      18.480  44.276 -10.243  1.00  0.00    -0.014 C 
HETATM   39  C16 UNL     1      18.072  42.897 -10.305  1.00  0.00     0.056 C 
ENDBRANCH  32  33
ENDBRANCH  31  32
ENDBRANCH  30  31
ENDBRANCH  29  30
ENDBRANCH  28  29
ENDBRANCH  26  28
ENDBRANCH  25  26
ENDBRANCH  24  25
ENDBRANCH  23  24
ENDBRANCH  22  23
ENDBRANCH   1  22
TORSDOF 14
ENDMDL
