MODEL 1
REMARK VINA RESULT: -7.187666672      0.000      0.000
REMARK  18 active torsions:
REMARK  status: ('A' for Active; 'I' for Inactive)
REMARK    1  A    between atoms: C4_9  and  C5_10 
REMARK    2  A    between atoms: C5_10  and  C6_11 
REMARK    3  A    between atoms: C6_11  and  C7_12 
REMARK    4  A    between atoms: C7_12  and  C8_13 
REMARK    5  A    between atoms: C8_13  and  C9_14 
REMARK    6  A    between atoms: C9_14  and  C10_15 
REMARK    7  A    between atoms: C10_15  and  C11_16 
REMARK    8  A    between atoms: C11_16  and  C12_17 
REMARK    9  A    between atoms: C12_17  and  C13_18 
REMARK   10  A    between atoms: C13_18  and  C14_19 
REMARK   11  A    between atoms: C14_19  and  O1_20 
REMARK   12  A    between atoms: O1_20  and  C15_21 
REMARK   13  A    between atoms: C15_21  and  C16_22 
REMARK   14  A    between atoms: C17_24  and  C18_25 
REMARK   15  A    between atoms: C18_25  and  O3_26 
REMARK   16  A    between atoms: C19_28  and  O4_29 
REMARK   17  A    between atoms: C20_31  and  O5_32 
REMARK   18  A    between atoms: C21_34  and  O6_35 
ROOT
HETATM    1  C12 UNL     1      10.031  39.520  -4.563  1.00  0.00     0.002 C 
ENDROOT
BRANCH   1   2
HETATM    2  C11 UNL     1       8.980  38.815  -3.781  1.00  0.00     0.000 C 
BRANCH   2   3
HETATM    3  C10 UNL     1       9.555  37.675  -2.992  1.00  0.00     0.000 C 
BRANCH   3   4
HETATM    4  C9  UNL     1       9.051  37.684  -1.560  1.00  0.00     0.001 C 
BRANCH   4   5
HETATM    5  C8  UNL     1      10.259  37.989  -0.694  1.00  0.00     0.012 C 
BRANCH   5   6
HETATM    6  C7  UNL     1       9.909  39.111   0.296  1.00  0.00     0.094 C 
BRANCH   6   7
HETATM    7  C6  UNL     1       9.554  40.332  -0.429  1.00  0.00    -0.098 C 
BRANCH   7   8
HETATM    8  C5  UNL     1       9.269  41.331  -1.043  1.00  0.00    -0.030 C 
BRANCH   8   9
HETATM    9  C4  UNL     1       8.914  42.539  -1.766  1.00  0.00     0.162 A 
HETATM   10  N2  UNL     1       8.548  42.492  -3.063  1.00  0.00    -0.345 N 
HETATM   11  C3  UNL     1       8.214  43.590  -3.761  1.00  0.00     0.094 A 
ATOM     12  H2  UNL     1       8.524  41.587  -3.532  1.00  0.00     0.167 HD
HETATM   13  C2  UNL     1       8.251  44.803  -3.114  1.00  0.00     0.065 A 
HETATM   14  C1  UNL     1       8.619  44.893  -1.795  1.00  0.00     0.101 A 
HETATM   15  N1  UNL     1       8.640  46.043  -1.230  1.00  0.00    -0.385 N 
HETATM   16  N3  UNL     1       8.939  43.745  -1.171  1.00  0.00    -0.322 N 
ATOM     17  H12 UNL     1       8.398  46.913  -1.702  1.00  0.00     0.157 HD
ATOM     18  H11 UNL     1       8.914  46.109  -0.250  1.00  0.00     0.157 HD
ATOM     19  H3  UNL     1       9.215  43.792  -0.191  1.00  0.00     0.169 HD
ENDBRANCH   8   9
ENDBRANCH   7   8
ENDBRANCH   6   7
ENDBRANCH   5   6
ENDBRANCH   4   5
ENDBRANCH   3   4
ENDBRANCH   2   3
ENDBRANCH   1   2
BRANCH   1  20
HETATM   20  C13 UNL     1      10.912  38.669  -5.404  1.00  0.00     0.026 C 
BRANCH  20  21
HETATM   21  C14 UNL     1      11.290  39.218  -6.735  1.00  0.00     0.167 C 
BRANCH  21  22
HETATM   22  O1  UNL     1      11.692  38.315  -7.681  1.00  0.00    -0.389 OA
BRANCH  22  23
HETATM   23  C15 UNL     1      13.047  38.137  -7.748  1.00  0.00     0.202 C 
BRANCH  23  24
HETATM   24  C16 UNL     1      13.618  38.139  -9.136  1.00  0.00     0.177 C 
HETATM   25  O2  UNL     1      12.954  37.190  -9.882  1.00  0.00    -0.371 OA
HETATM   26  C17 UNL     1      13.407  37.035 -11.166  1.00  0.00     0.177 C 
HETATM   27  C19 UNL     1      13.592  38.303 -11.932  1.00  0.00     0.180 C 
HETATM   28  C20 UNL     1      14.153  39.434 -11.120  1.00  0.00     0.180 C 
HETATM   29  C21 UNL     1      13.336  39.482  -9.822  1.00  0.00     0.180 C 
BRANCH  26  30
HETATM   30  C18 UNL     1      14.632  36.146 -11.168  1.00  0.00     0.198 C 
BRANCH  30  31
HETATM   31  O3  UNL     1      14.612  35.199 -12.174  1.00  0.00    -0.398 OA
ATOM     32  H3  UNL     1      15.370  35.247 -12.745  1.00  0.00     0.209 HD
ENDBRANCH  30  31
ENDBRANCH  26  30
BRANCH  27  33
HETATM   33  O4  UNL     1      14.304  38.065 -13.092  1.00  0.00    -0.390 OA
ATOM     34  H4  UNL     1      13.952  38.580 -13.809  1.00  0.00     0.210 HD
ENDBRANCH  27  33
BRANCH  28  35
HETATM   35  O5  UNL     1      15.470  39.181 -10.744  1.00  0.00    -0.390 OA
ATOM     36  H5  UNL     1      16.008  39.959 -10.831  1.00  0.00     0.210 HD
ENDBRANCH  28  35
BRANCH  29  37
HETATM   37  O6  UNL     1      13.676  40.552  -9.031  1.00  0.00    -0.390 OA
ATOM     38  H6  UNL     1      13.943  41.306  -9.542  1.00  0.00     0.210 HD
ENDBRANCH  29  37
ENDBRANCH  23  24
ENDBRANCH  22  23
ENDBRANCH  21  22
ENDBRANCH  20  21
ENDBRANCH   1  20
TORSDOF 18
ENDMDL
MODEL 2
REMARK VINA RESULT: -6.901660292      2.827      5.335
REMARK  18 active torsions:
REMARK  status: ('A' for Active; 'I' for Inactive)
REMARK    1  A    between atoms: C4_9  and  C5_10 
REMARK    2  A    between atoms: C5_10  and  C6_11 
REMARK    3  A    between atoms: C6_11  and  C7_12 
REMARK    4  A    between atoms: C7_12  and  C8_13 
REMARK    5  A    between atoms: C8_13  and  C9_14 
REMARK    6  A    between atoms: C9_14  and  C10_15 
REMARK    7  A    between atoms: C10_15  and  C11_16 
REMARK    8  A    between atoms: C11_16  and  C12_17 
REMARK    9  A    between atoms: C12_17  and  C13_18 
REMARK   10  A    between atoms: C13_18  and  C14_19 
REMARK   11  A    between atoms: C14_19  and  O1_20 
REMARK   12  A    between atoms: O1_20  and  C15_21 
REMARK   13  A    between atoms: C15_21  and  C16_22 
REMARK   14  A    between atoms: C17_24  and  C18_25 
REMARK   15  A    between atoms: C18_25  and  O3_26 
REMARK   16  A    between atoms: C19_28  and  O4_29 
REMARK   17  A    between atoms: C20_31  and  O5_32 
REMARK   18  A    between atoms: C21_34  and  O6_35 
ROOT
HETATM    1  C12 UNL     1      12.648  42.828  -9.936  1.00  0.00     0.002 C 
ENDROOT
BRANCH   1   2
HETATM    2  C11 UNL     1      11.609  42.064  -9.194  1.00  0.00     0.000 C 
BRANCH   2   3
HETATM    3  C10 UNL     1      11.439  42.584  -7.797  1.00  0.00     0.000 C 
BRANCH   3   4
HETATM    4  C9  UNL     1      11.183  41.455  -6.815  1.00  0.00     0.001 C 
BRANCH   4   5
HETATM    5  C8  UNL     1      12.142  40.343  -7.198  1.00  0.00     0.012 C 
BRANCH   5   6
HETATM    6  C7  UNL     1      11.446  38.985  -7.022  1.00  0.00     0.094 C 
BRANCH   6   7
HETATM    7  C6  UNL     1      11.060  38.791  -5.625  1.00  0.00    -0.098 C 
BRANCH   7   8
HETATM    8  C5  UNL     1      10.740  38.651  -4.469  1.00  0.00    -0.030 C 
BRANCH   8   9
HETATM    9  C4  UNL     1      10.339  38.495  -3.082  1.00  0.00     0.162 A 
HETATM   10  N2  UNL     1      10.336  39.545  -2.236  1.00  0.00    -0.345 N 
HETATM   11  C3  UNL     1       9.971  39.435  -0.948  1.00  0.00     0.094 A 
ATOM     12  H2  UNL     1      10.623  40.458  -2.589  1.00  0.00     0.167 HD
HETATM   13  C2  UNL     1       9.588  38.197  -0.488  1.00  0.00     0.065 A 
HETATM   14  C1  UNL     1       9.577  37.104  -1.317  1.00  0.00     0.101 A 
HETATM   15  N1  UNL     1       9.213  35.968  -0.849  1.00  0.00    -0.385 N 
HETATM   16  N3  UNL     1       9.958  37.302  -2.592  1.00  0.00    -0.322 N 
ATOM     17  H12 UNL     1       8.925  35.818   0.117  1.00  0.00     0.157 HD
ATOM     18  H11 UNL     1       9.206  35.156  -1.465  1.00  0.00     0.157 HD
ATOM     19  H3  UNL     1       9.958  36.501  -3.224  1.00  0.00     0.169 HD
ENDBRANCH   8   9
ENDBRANCH   7   8
ENDBRANCH   6   7
ENDBRANCH   5   6
ENDBRANCH   4   5
ENDBRANCH   3   4
ENDBRANCH   2   3
ENDBRANCH   1   2
BRANCH   1  20
HETATM   20  C13 UNL     1      13.742  42.032 -10.550  1.00  0.00     0.026 C 
BRANCH  20  21
HETATM   21  C14 UNL     1      14.657  41.327  -9.610  1.00  0.00     0.167 C 
BRANCH  21  22
HETATM   22  O1  UNL     1      14.870  39.996  -9.842  1.00  0.00    -0.389 OA
BRANCH  22  23
HETATM   23  C15 UNL     1      13.900  39.395 -10.598  1.00  0.00     0.202 C 
BRANCH  23  24
HETATM   24  C16 UNL     1      14.392  38.318 -11.520  1.00  0.00     0.177 C 
HETATM   25  O2  UNL     1      13.301  37.710 -12.102  1.00  0.00    -0.371 OA
HETATM   26  C17 UNL     1      13.592  36.661 -12.934  1.00  0.00     0.177 C 
HETATM   27  C19 UNL     1      14.670  36.922 -13.933  1.00  0.00     0.180 C 
HETATM   28  C20 UNL     1      15.814  37.738 -13.402  1.00  0.00     0.180 C 
HETATM   29  C21 UNL     1      15.191  38.937 -12.676  1.00  0.00     0.180 C 
BRANCH  26  30
HETATM   30  C18 UNL     1      13.822  35.410 -12.113  1.00  0.00     0.198 C 
BRANCH  30  31
HETATM   31  O3  UNL     1      13.021  34.354 -12.499  1.00  0.00    -0.398 OA
ATOM     32  H3  UNL     1      13.187  33.560 -12.004  1.00  0.00     0.209 HD
ENDBRANCH  30  31
ENDBRANCH  26  30
BRANCH  27  33
HETATM   33  O4  UNL     1      15.077  35.741 -14.522  1.00  0.00    -0.390 OA
ATOM     34  H4  UNL     1      15.543  35.918 -15.332  1.00  0.00     0.210 HD
ENDBRANCH  27  33
BRANCH  28  35
HETATM   35  O5  UNL     1      16.535  37.030 -12.443  1.00  0.00    -0.390 OA
ATOM     36  H5  UNL     1      17.278  36.584 -12.831  1.00  0.00     0.210 HD
ENDBRANCH  28  35
BRANCH  29  37
HETATM   37  O6  UNL     1      16.137  39.829 -12.235  1.00  0.00    -0.390 OA
ATOM     38  H6  UNL     1      16.997  39.647 -12.593  1.00  0.00     0.210 HD
ENDBRANCH  29  37
ENDBRANCH  23  24
ENDBRANCH  22  23
ENDBRANCH  21  22
ENDBRANCH  20  21
ENDBRANCH   1  20
TORSDOF 18
ENDMDL
MODEL 3
REMARK VINA RESULT: -6.873437455      3.207      6.148
REMARK  18 active torsions:
REMARK  status: ('A' for Active; 'I' for Inactive)
REMARK    1  A    between atoms: C4_9  and  C5_10 
REMARK    2  A    between atoms: C5_10  and  C6_11 
REMARK    3  A    between atoms: C6_11  and  C7_12 
REMARK    4  A    between atoms: C7_12  and  C8_13 
REMARK    5  A    between atoms: C8_13  and  C9_14 
REMARK    6  A    between atoms: C9_14  and  C10_15 
REMARK    7  A    between atoms: C10_15  and  C11_16 
REMARK    8  A    between atoms: C11_16  and  C12_17 
REMARK    9  A    between atoms: C12_17  and  C13_18 
REMARK   10  A    between atoms: C13_18  and  C14_19 
REMARK   11  A    between atoms: C14_19  and  O1_20 
REMARK   12  A    between atoms: O1_20  and  C15_21 
REMARK   13  A    between atoms: C15_21  and  C16_22 
REMARK   14  A    between atoms: C17_24  and  C18_25 
REMARK   15  A    between atoms: C18_25  and  O3_26 
REMARK   16  A    between atoms: C19_28  and  O4_29 
REMARK   17  A    between atoms: C20_31  and  O5_32 
REMARK   18  A    between atoms: C21_34  and  O6_35 
ROOT
HETATM    1  C12 UNL     1      13.780  40.254 -10.674  1.00  0.00     0.002 C 
ENDROOT
BRANCH   1   2
HETATM    2  C11 UNL     1      13.507  38.951 -10.009  1.00  0.00     0.000 C 
BRANCH   2   3
HETATM    3  C10 UNL     1      13.134  39.139  -8.567  1.00  0.00     0.000 C 
BRANCH   3   4
HETATM    4  C9  UNL     1      12.771  40.583  -8.274  1.00  0.00     0.001 C 
BRANCH   4   5
HETATM    5  C8  UNL     1      12.021  40.566  -6.955  1.00  0.00     0.012 C 
BRANCH   5   6
HETATM    6  C7  UNL     1      11.261  39.238  -6.816  1.00  0.00     0.094 C 
BRANCH   6   7
HETATM    7  C6  UNL     1      10.900  39.006  -5.417  1.00  0.00    -0.098 C 
BRANCH   7   8
HETATM    8  C5  UNL     1      10.598  38.795  -4.267  1.00  0.00    -0.030 C 
BRANCH   8   9
HETATM    9  C4  UNL     1      10.243  38.522  -2.886  1.00  0.00     0.162 A 
HETATM   10  N2  UNL     1      10.278  39.495  -1.953  1.00  0.00    -0.345 N 
HETATM   11  C3  UNL     1       9.956  39.276  -0.667  1.00  0.00     0.094 A 
ATOM     12  H2  UNL     1      10.561  40.434  -2.235  1.00  0.00     0.167 HD
HETATM   13  C2  UNL     1       9.577  38.006  -0.303  1.00  0.00     0.065 A 
HETATM   14  C1  UNL     1       9.528  36.988  -1.223  1.00  0.00     0.101 A 
HETATM   15  N1  UNL     1       9.170  35.819  -0.843  1.00  0.00    -0.385 N 
HETATM   16  N3  UNL     1       9.868  37.294  -2.488  1.00  0.00    -0.322 N 
ATOM     17  H12 UNL     1       8.913  35.587   0.117  1.00  0.00     0.157 HD
ATOM     18  H11 UNL     1       9.134  35.063  -1.526  1.00  0.00     0.157 HD
ATOM     19  H3  UNL     1       9.839  36.551  -3.186  1.00  0.00     0.169 HD
ENDBRANCH   8   9
ENDBRANCH   7   8
ENDBRANCH   6   7
ENDBRANCH   5   6
ENDBRANCH   4   5
ENDBRANCH   3   4
ENDBRANCH   2   3
ENDBRANCH   1   2
BRANCH   1  20
HETATM   20  C13 UNL     1      15.183  40.502 -11.093  1.00  0.00     0.026 C 
BRANCH  20  21
HETATM   21  C14 UNL     1      15.379  41.057 -12.461  1.00  0.00     0.167 C 
BRANCH  21  22
HETATM   22  O1  UNL     1      15.485  40.153 -13.482  1.00  0.00    -0.389 OA
BRANCH  22  23
HETATM   23  C15 UNL     1      16.103  38.982 -13.135  1.00  0.00     0.202 C 
BRANCH  23  24
HETATM   24  C16 UNL     1      15.436  37.738 -13.643  1.00  0.00     0.177 C 
HETATM   25  O2  UNL     1      14.180  37.656 -13.082  1.00  0.00    -0.371 OA
HETATM   26  C17 UNL     1      13.466  36.534 -13.411  1.00  0.00     0.177 C 
HETATM   27  C19 UNL     1      13.437  36.204 -14.867  1.00  0.00     0.180 C 
HETATM   28  C20 UNL     1      14.740  36.442 -15.576  1.00  0.00     0.180 C 
HETATM   29  C21 UNL     1      15.210  37.841 -15.158  1.00  0.00     0.180 C 
BRANCH  26  30
HETATM   30  C18 UNL     1      13.906  35.377 -12.540  1.00  0.00     0.198 C 
BRANCH  30  31
HETATM   31  O3  UNL     1      12.939  34.401 -12.406  1.00  0.00    -0.398 OA
ATOM     32  H3  UNL     1      12.209  34.672 -11.861  1.00  0.00     0.209 HD
ENDBRANCH  30  31
ENDBRANCH  26  30
BRANCH  27  33
HETATM   33  O4  UNL     1      12.942  34.928 -15.061  1.00  0.00    -0.390 OA
ATOM     34  H4  UNL     1      13.307  34.548 -15.852  1.00  0.00     0.210 HD
ENDBRANCH  27  33
BRANCH  28  35
HETATM   35  O5  UNL     1      15.720  35.553 -15.142  1.00  0.00    -0.390 OA
ATOM     36  H5  UNL     1      16.240  35.233 -15.870  1.00  0.00     0.210 HD
ENDBRANCH  28  35
BRANCH  29  37
HETATM   37  O6  UNL     1      16.343  38.231 -15.828  1.00  0.00    -0.390 OA
ATOM     38  H6  UNL     1      16.255  38.138 -16.769  1.00  0.00     0.210 HD
ENDBRANCH  29  37
ENDBRANCH  23  24
ENDBRANCH  22  23
ENDBRANCH  21  22
ENDBRANCH  20  21
ENDBRANCH   1  20
TORSDOF 18
ENDMDL
MODEL 4
REMARK VINA RESULT: -6.754059073      3.308      6.192
REMARK  18 active torsions:
REMARK  status: ('A' for Active; 'I' for Inactive)
REMARK    1  A    between atoms: C4_9  and  C5_10 
REMARK    2  A    between atoms: C5_10  and  C6_11 
REMARK    3  A    between atoms: C6_11  and  C7_12 
REMARK    4  A    between atoms: C7_12  and  C8_13 
REMARK    5  A    between atoms: C8_13  and  C9_14 
REMARK    6  A    between atoms: C9_14  and  C10_15 
REMARK    7  A    between atoms: C10_15  and  C11_16 
REMARK    8  A    between atoms: C11_16  and  C12_17 
REMARK    9  A    between atoms: C12_17  and  C13_18 
REMARK   10  A    between atoms: C13_18  and  C14_19 
REMARK   11  A    between atoms: C14_19  and  O1_20 
REMARK   12  A    between atoms: O1_20  and  C15_21 
REMARK   13  A    between atoms: C15_21  and  C16_22 
REMARK   14  A    between atoms: C17_24  and  C18_25 
REMARK   15  A    between atoms: C18_25  and  O3_26 
REMARK   16  A    between atoms: C19_28  and  O4_29 
REMARK   17  A    between atoms: C20_31  and  O5_32 
REMARK   18  A    between atoms: C21_34  and  O6_35 
ROOT
HETATM    1  C12 UNL     1      16.009  42.194  -9.814  1.00  0.00     0.002 C 
ENDROOT
BRANCH   1   2
HETATM    2  C11 UNL     1      14.963  42.457  -8.790  1.00  0.00     0.000 C 
BRANCH   2   3
HETATM    3  C10 UNL     1      13.621  41.951  -9.233  1.00  0.00     0.000 C 
BRANCH   3   4
HETATM    4  C9  UNL     1      13.043  40.969  -8.230  1.00  0.00     0.001 C 
BRANCH   4   5
HETATM    5  C8  UNL     1      12.718  39.712  -9.016  1.00  0.00     0.012 C 
BRANCH   5   6
HETATM    6  C7  UNL     1      12.978  38.479  -8.138  1.00  0.00     0.094 C 
BRANCH   6   7
HETATM    7  C6  UNL     1      12.192  38.559  -6.907  1.00  0.00    -0.098 C 
BRANCH   7   8
HETATM    8  C5  UNL     1      11.559  38.628  -5.881  1.00  0.00    -0.030 C 
BRANCH   8   9
HETATM    9  C4  UNL     1      10.781  38.713  -4.657  1.00  0.00     0.162 A 
HETATM   10  N2  UNL     1       9.454  38.478  -4.660  1.00  0.00    -0.345 N 
HETATM   11  C3  UNL     1       8.705  38.548  -3.547  1.00  0.00     0.094 A 
ATOM     12  H2  UNL     1       9.000  38.239  -5.541  1.00  0.00     0.167 HD
HETATM   13  C2  UNL     1       9.331  38.872  -2.366  1.00  0.00     0.065 A 
HETATM   14  C1  UNL     1      10.681  39.118  -2.322  1.00  0.00     0.101 A 
HETATM   15  N1  UNL     1      11.225  39.416  -1.202  1.00  0.00    -0.385 N 
HETATM   16  N3  UNL     1      11.355  39.027  -3.482  1.00  0.00    -0.322 N 
ATOM     17  H12 UNL     1      10.714  39.486  -0.322  1.00  0.00     0.157 HD
ATOM     18  H11 UNL     1      12.228  39.599  -1.169  1.00  0.00     0.157 HD
ATOM     19  H3  UNL     1      12.359  39.207  -3.470  1.00  0.00     0.169 HD
ENDBRANCH   8   9
ENDBRANCH   7   8
ENDBRANCH   6   7
ENDBRANCH   5   6
ENDBRANCH   4   5
ENDBRANCH   3   4
ENDBRANCH   2   3
ENDBRANCH   1   2
BRANCH   1  20
HETATM   20  C13 UNL     1      15.791  41.018 -10.696  1.00  0.00     0.026 C 
BRANCH  20  21
HETATM   21  C14 UNL     1      15.737  41.287 -12.159  1.00  0.00     0.167 C 
BRANCH  21  22
HETATM   22  O1  UNL     1      15.520  40.210 -12.975  1.00  0.00    -0.389 OA
BRANCH  22  23
HETATM   23  C15 UNL     1      15.953  39.019 -12.459  1.00  0.00     0.202 C 
BRANCH  23  24
HETATM   24  C16 UNL     1      15.375  37.798 -13.113  1.00  0.00     0.177 C 
HETATM   25  O2  UNL     1      14.095  37.613 -12.636  1.00  0.00    -0.371 OA
HETATM   26  C17 UNL     1      13.455  36.495 -13.103  1.00  0.00     0.177 C 
HETATM   27  C19 UNL     1      13.521  36.296 -14.581  1.00  0.00     0.180 C 
HETATM   28  C20 UNL     1      14.848  36.652 -15.189  1.00  0.00     0.180 C 
HETATM   29  C21 UNL     1      15.228  38.027 -14.624  1.00  0.00     0.180 C 
BRANCH  26  30
HETATM   30  C18 UNL     1      13.901  35.285 -12.311  1.00  0.00     0.198 C 
BRANCH  30  31
HETATM   31  O3  UNL     1      12.979  34.257 -12.327  1.00  0.00    -0.398 OA
ATOM     32  H3  UNL     1      12.080  34.562 -12.290  1.00  0.00     0.209 HD
ENDBRANCH  30  31
ENDBRANCH  26  30
BRANCH  27  33
HETATM   33  O4  UNL     1      13.099  35.024 -14.915  1.00  0.00    -0.390 OA
ATOM     34  H4  UNL     1      12.285  35.063 -15.404  1.00  0.00     0.210 HD
ENDBRANCH  27  33
BRANCH  28  35
HETATM   35  O5  UNL     1      15.844  35.771 -14.777  1.00  0.00    -0.390 OA
ATOM     36  H5  UNL     1      16.692  36.023 -15.125  1.00  0.00     0.210 HD
ENDBRANCH  28  35
BRANCH  29  37
HETATM   37  O6  UNL     1      16.376  38.524 -15.189  1.00  0.00    -0.390 OA
ATOM     38  H6  UNL     1      16.197  39.071 -15.944  1.00  0.00     0.210 HD
ENDBRANCH  29  37
ENDBRANCH  23  24
ENDBRANCH  22  23
ENDBRANCH  21  22
ENDBRANCH  20  21
ENDBRANCH   1  20
TORSDOF 18
ENDMDL
MODEL 5
REMARK VINA RESULT: -6.723943002      6.149     11.442
REMARK  18 active torsions:
REMARK  status: ('A' for Active; 'I' for Inactive)
REMARK    1  A    between atoms: C4_9  and  C5_10 
REMARK    2  A    between atoms: C5_10  and  C6_11 
REMARK    3  A    between atoms: C6_11  and  C7_12 
REMARK    4  A    between atoms: C7_12  and  C8_13 
REMARK    5  A    between atoms: C8_13  and  C9_14 
REMARK    6  A    between atoms: C9_14  and  C10_15 
REMARK    7  A    between atoms: C10_15  and  C11_16 
REMARK    8  A    between atoms: C11_16  and  C12_17 
REMARK    9  A    between atoms: C12_17  and  C13_18 
REMARK   10  A    between atoms: C13_18  and  C14_19 
REMARK   11  A    between atoms: C14_19  and  O1_20 
REMARK   12  A    between atoms: O1_20  and  C15_21 
REMARK   13  A    between atoms: C15_21  and  C16_22 
REMARK   14  A    between atoms: C17_24  and  C18_25 
REMARK   15  A    between atoms: C18_25  and  O3_26 
REMARK   16  A    between atoms: C19_28  and  O4_29 
REMARK   17  A    between atoms: C20_31  and  O5_32 
REMARK   18  A    between atoms: C21_34  and  O6_35 
ROOT
HETATM    1  C12 UNL     1      14.056  42.570  -8.594  1.00  0.00     0.002 C 
ENDROOT
BRANCH   1   2
HETATM    2  C11 UNL     1      14.646  41.671  -9.623  1.00  0.00     0.000 C 
BRANCH   2   3
HETATM    3  C10 UNL     1      13.647  40.660 -10.106  1.00  0.00     0.000 C 
BRANCH   3   4
HETATM    4  C9  UNL     1      14.332  39.485 -10.779  1.00  0.00     0.001 C 
BRANCH   4   5
HETATM    5  C8  UNL     1      14.102  38.290  -9.871  1.00  0.00     0.012 C 
BRANCH   5   6
HETATM    6  C7  UNL     1      13.130  37.313 -10.548  1.00  0.00     0.094 C 
BRANCH   6   7
HETATM    7  C6  UNL     1      13.632  36.935 -11.870  1.00  0.00    -0.098 C 
BRANCH   7   8
HETATM    8  C5  UNL     1      14.041  36.604 -12.957  1.00  0.00    -0.030 C 
BRANCH   8   9
HETATM    9  C4  UNL     1      14.518  36.192 -14.265  1.00  0.00     0.162 A 
HETATM   10  N2  UNL     1      15.819  36.309 -14.599  1.00  0.00    -0.345 N 
HETATM   11  C3  UNL     1      16.293  35.937 -15.800  1.00  0.00     0.094 A 
ATOM     12  H2  UNL     1      16.468  36.694 -13.914  1.00  0.00     0.167 HD
HETATM   13  C2  UNL     1      15.405  35.419 -16.713  1.00  0.00     0.065 A 
HETATM   14  C1  UNL     1      14.073  35.284 -16.411  1.00  0.00     0.101 A 
HETATM   15  N1  UNL     1      13.279  34.797 -17.290  1.00  0.00    -0.385 N 
HETATM   16  N3  UNL     1      13.683  35.682 -15.187  1.00  0.00    -0.322 N 
ATOM     17  H12 UNL     1      13.574  34.496 -18.219  1.00  0.00     0.157 HD
ATOM     18  H11 UNL     1      12.289  34.697 -17.065  1.00  0.00     0.157 HD
ATOM     19  H3  UNL     1      12.696  35.590 -14.943  1.00  0.00     0.169 HD
ENDBRANCH   8   9
ENDBRANCH   7   8
ENDBRANCH   6   7
ENDBRANCH   5   6
ENDBRANCH   4   5
ENDBRANCH   3   4
ENDBRANCH   2   3
ENDBRANCH   1   2
BRANCH   1  20
HETATM   20  C13 UNL     1      13.123  41.941  -7.624  1.00  0.00     0.026 C 
BRANCH  20  21
HETATM   21  C14 UNL     1      11.791  42.589  -7.470  1.00  0.00     0.167 C 
BRANCH  21  22
HETATM   22  O1  UNL     1      10.931  42.020  -6.571  1.00  0.00    -0.389 OA
BRANCH  22  23
HETATM   23  C15 UNL     1      11.140  40.684  -6.361  1.00  0.00     0.202 C 
BRANCH  23  24
HETATM   24  C16 UNL     1      10.600  40.154  -5.065  1.00  0.00     0.177 C 
HETATM   25  O2  UNL     1       9.254  40.446  -5.002  1.00  0.00    -0.371 OA
HETATM   26  C17 UNL     1       8.630  40.071  -3.841  1.00  0.00     0.177 C 
HETATM   27  C19 UNL     1       8.909  38.675  -3.392  1.00  0.00     0.180 C 
HETATM   28  C20 UNL     1      10.331  38.236  -3.599  1.00  0.00     0.180 C 
HETATM   29  C21 UNL     1      10.697  38.623  -5.038  1.00  0.00     0.180 C 
BRANCH  26  30
HETATM   30  C18 UNL     1       8.881  41.110  -2.770  1.00  0.00     0.198 C 
BRANCH  30  31
HETATM   31  O3  UNL     1       8.946  42.397  -3.269  1.00  0.00    -0.398 OA
ATOM     32  H3  UNL     1       8.592  43.046  -2.672  1.00  0.00     0.209 HD
ENDBRANCH  30  31
ENDBRANCH  26  30
BRANCH  27  33
HETATM   33  O4  UNL     1       8.471  38.490  -2.095  1.00  0.00    -0.390 OA
ATOM     34  H4  UNL     1       9.208  38.338  -1.515  1.00  0.00     0.210 HD
ENDBRANCH  27  33
BRANCH  28  35
HETATM   35  O5  UNL     1      11.201  38.940  -2.771  1.00  0.00    -0.390 OA
ATOM     36  H5  UNL     1      11.399  38.447  -1.983  1.00  0.00     0.210 HD
ENDBRANCH  28  35
BRANCH  29  37
HETATM   37  O6  UNL     1      11.944  38.174  -5.397  1.00  0.00    -0.390 OA
ATOM     38  H6  UNL     1      12.041  37.239  -5.266  1.00  0.00     0.210 HD
ENDBRANCH  29  37
ENDBRANCH  23  24
ENDBRANCH  22  23
ENDBRANCH  21  22
ENDBRANCH  20  21
ENDBRANCH   1  20
TORSDOF 18
ENDMDL
