MODEL 1
REMARK VINA RESULT: -6.875474572      0.000      0.000
REMARK  8 active torsions:
REMARK  status: ('A' for Active; 'I' for Inactive)
REMARK    1  A    between atoms: C2_2  and  O1_3 
REMARK    2  A    between atoms: O1_3  and  C3_4 
REMARK    3  A    between atoms: C3_4  and  C4_6 
REMARK    4  A    between atoms: C4_6  and  N1_7 
REMARK       I    between atoms: N1_7  and  C5_9 
REMARK    5  A    between atoms: C5_9  and  O4_11 
REMARK    6  A    between atoms: O4_11  and  C6_12 
REMARK    7  A    between atoms: C17_23  and  C18_24 
REMARK    8  A    between atoms: C23_29  and  O5_30 
ROOT
HETATM    1  C4  UNL     1      35.460  28.560  51.323  1.00  0.00     0.199 C 
HETATM    2  C10 UNL     1      34.039  28.112  51.160  1.00  0.00     0.074 C 
HETATM    3  C11 UNL     1      33.559  27.302  52.328  1.00  0.00    -0.031 C 
HETATM    4  C12 UNL     1      33.122  28.319  53.382  1.00  0.00     0.016 C 
HETATM    5  C13 UNL     1      32.273  26.592  51.892  1.00  0.00     0.016 C 
HETATM    6  C14 UNL     1      34.480  26.258  52.847  1.00  0.00     0.003 C 
HETATM    7  C15 UNL     1      34.145  25.992  54.308  1.00  0.00     0.022 C 
HETATM    8  C16 UNL     1      34.194  24.932  52.103  1.00  0.00     0.022 C 
HETATM    9  C17 UNL     1      35.916  26.572  52.711  1.00  0.00     0.029 C 
HETATM   10  N2  UNL     1      36.237  27.597  52.030  1.00  0.00    -0.357 N 
ATOM     11  H2  UNL     1      37.243  27.760  51.979  1.00  0.00     0.162 HD
ENDROOT
BRANCH   1  12
HETATM   12  C3  UNL     1      36.090  28.762  49.962  1.00  0.00     0.308 C 
HETATM   13  O2  UNL     1      35.476  28.606  48.892  1.00  0.00    -0.260 OA
BRANCH  12  14
HETATM   14  O1  UNL     1      37.411  29.138  49.938  1.00  0.00    -0.318 OA
BRANCH  14  15
HETATM   15  C2  UNL     1      38.027  29.827  48.874  1.00  0.00     0.174 C 
HETATM   16  C1  UNL     1      39.435  30.186  49.306  1.00  0.00     0.034 C 
ENDBRANCH  14  15
ENDBRANCH  12  14
ENDBRANCH   1  12
BRANCH   1  17
HETATM   17  N1  UNL     1      35.591  29.815  52.016  1.00  0.00    -0.301 N 
HETATM   18  C5  UNL     1      34.927  31.025  51.703  1.00  0.00     0.363 C 
HETATM   19  O3  UNL     1      34.133  31.056  50.740  1.00  0.00    -0.238 OA
ATOM     20  H1  UNL     1      36.227  29.834  52.812  1.00  0.00     0.167 HD
BRANCH  18  21
HETATM   21  O4  UNL     1      35.117  32.192  52.425  1.00  0.00    -0.294 OA
BRANCH  21  22
HETATM   22  C6  UNL     1      36.131  33.116  52.178  1.00  0.00     0.061 C 
HETATM   23  C7  UNL     1      35.490  34.441  51.842  1.00  0.00     0.046 C 
HETATM   24  C8  UNL     1      37.034  32.692  51.031  1.00  0.00     0.046 C 
HETATM   25  C9  UNL     1      36.960  33.310  53.433  1.00  0.00     0.046 C 
ENDBRANCH  21  22
ENDBRANCH  18  21
ENDBRANCH   1  17
BRANCH   9  26
HETATM   26  C18 UNL     1      37.005  25.756  53.303  1.00  0.00     0.020 A 
HETATM   27  C19 UNL     1      37.098  25.382  54.612  1.00  0.00     0.016 A 
HETATM   28  C20 UNL     1      38.182  24.650  55.106  1.00  0.00     0.001 A 
HETATM   29  C21 UNL     1      39.190  24.290  54.252  1.00  0.00     0.003 A 
HETATM   30  C22 UNL     1      39.100  24.664  52.931  1.00  0.00     0.037 A 
HETATM   31  C23 UNL     1      38.040  25.382  52.441  1.00  0.00     0.080 A 
BRANCH  31  32
HETATM   32  O5  UNL     1      37.965  25.749  51.113  1.00  0.00    -0.355 OA
HETATM   33  C24 UNL     1      39.157  26.147  50.461  1.00  0.00     0.210 C 
ENDBRANCH  31  32
ENDBRANCH   9  26
TORSDOF 8
ENDMDL
MODEL 2
REMARK VINA RESULT: -6.702568698      2.382      4.512
REMARK  8 active torsions:
REMARK  status: ('A' for Active; 'I' for Inactive)
REMARK    1  A    between atoms: C2_2  and  O1_3 
REMARK    2  A    between atoms: O1_3  and  C3_4 
REMARK    3  A    between atoms: C3_4  and  C4_6 
REMARK    4  A    between atoms: C4_6  and  N1_7 
REMARK       I    between atoms: N1_7  and  C5_9 
REMARK    5  A    between atoms: C5_9  and  O4_11 
REMARK    6  A    between atoms: O4_11  and  C6_12 
REMARK    7  A    between atoms: C17_23  and  C18_24 
REMARK    8  A    between atoms: C23_29  and  O5_30 
ROOT
HETATM    1  C4  UNL     1      34.025  27.140  52.272  1.00  0.00     0.199 C 
HETATM    2  C10 UNL     1      33.457  25.753  52.297  1.00  0.00     0.074 C 
HETATM    3  C11 UNL     1      34.421  24.752  52.863  1.00  0.00    -0.031 C 
HETATM    4  C12 UNL     1      34.268  24.848  54.382  1.00  0.00     0.016 C 
HETATM    5  C13 UNL     1      33.903  23.359  52.490  1.00  0.00     0.016 C 
HETATM    6  C14 UNL     1      35.829  24.835  52.396  1.00  0.00     0.003 C 
HETATM    7  C15 UNL     1      36.734  24.226  53.459  1.00  0.00     0.022 C 
HETATM    8  C16 UNL     1      35.987  23.937  51.145  1.00  0.00     0.022 C 
HETATM    9  C17 UNL     1      36.294  26.195  52.060  1.00  0.00     0.029 C 
HETATM   10  N2  UNL     1      35.431  27.128  52.035  1.00  0.00    -0.357 N 
ATOM     11  H2  UNL     1      35.818  28.042  51.801  1.00  0.00     0.162 HD
ENDROOT
BRANCH   1  12
HETATM   12  C3  UNL     1      33.372  27.937  51.164  1.00  0.00     0.308 C 
HETATM   13  O2  UNL     1      32.416  27.518  50.488  1.00  0.00    -0.260 OA
BRANCH  12  14
HETATM   14  O1  UNL     1      33.882  29.188  50.914  1.00  0.00    -0.318 OA
BRANCH  14  15
HETATM   15  C2  UNL     1      33.134  30.382  50.961  1.00  0.00     0.174 C 
HETATM   16  C1  UNL     1      33.900  31.377  51.808  1.00  0.00     0.034 C 
ENDBRANCH  14  15
ENDBRANCH  12  14
ENDBRANCH   1  12
BRANCH   1  17
HETATM   17  N1  UNL     1      33.797  27.877  53.485  1.00  0.00    -0.301 N 
HETATM   18  C5  UNL     1      32.541  28.244  54.026  1.00  0.00     0.363 C 
HETATM   19  O3  UNL     1      31.497  27.913  53.428  1.00  0.00    -0.238 OA
ATOM     20  H1  UNL     1      34.623  28.165  54.009  1.00  0.00     0.167 HD
BRANCH  18  21
HETATM   21  O4  UNL     1      32.414  28.962  55.205  1.00  0.00    -0.294 OA
BRANCH  21  22
HETATM   22  C6  UNL     1      31.771  28.492  56.349  1.00  0.00     0.061 C 
HETATM   23  C7  UNL     1      32.461  29.083  57.554  1.00  0.00     0.046 C 
HETATM   24  C8  UNL     1      31.800  26.975  56.449  1.00  0.00     0.046 C 
HETATM   25  C9  UNL     1      30.333  28.973  56.359  1.00  0.00     0.046 C 
ENDBRANCH  21  22
ENDBRANCH  18  21
ENDBRANCH   1  17
BRANCH   9  26
HETATM   26  C18 UNL     1      37.701  26.534  51.730  1.00  0.00     0.020 A 
HETATM   27  C19 UNL     1      38.783  26.301  52.528  1.00  0.00     0.016 A 
HETATM   28  C20 UNL     1      40.076  26.694  52.168  1.00  0.00     0.001 A 
HETATM   29  C21 UNL     1      40.272  27.332  50.973  1.00  0.00     0.003 A 
HETATM   30  C22 UNL     1      39.184  27.567  50.164  1.00  0.00     0.037 A 
HETATM   31  C23 UNL     1      37.914  27.186  50.513  1.00  0.00     0.080 A 
BRANCH  31  32
HETATM   32  O5  UNL     1      36.834  27.429  49.690  1.00  0.00    -0.355 OA
HETATM   33  C24 UNL     1      36.732  28.702  49.079  1.00  0.00     0.210 C 
ENDBRANCH  31  32
ENDBRANCH   9  26
TORSDOF 8
ENDMDL
MODEL 3
REMARK VINA RESULT: -6.566504227      3.217      6.341
REMARK  8 active torsions:
REMARK  status: ('A' for Active; 'I' for Inactive)
REMARK    1  A    between atoms: C2_2  and  O1_3 
REMARK    2  A    between atoms: O1_3  and  C3_4 
REMARK    3  A    between atoms: C3_4  and  C4_6 
REMARK    4  A    between atoms: C4_6  and  N1_7 
REMARK       I    between atoms: N1_7  and  C5_9 
REMARK    5  A    between atoms: C5_9  and  O4_11 
REMARK    6  A    between atoms: O4_11  and  C6_12 
REMARK    7  A    between atoms: C17_23  and  C18_24 
REMARK    8  A    between atoms: C23_29  and  O5_30 
ROOT
HETATM    1  C4  UNL     1      35.045  25.892  53.147  1.00  0.00     0.199 C 
HETATM    2  C10 UNL     1      34.468  26.245  51.809  1.00  0.00     0.074 C 
HETATM    3  C11 UNL     1      33.835  27.605  51.802  1.00  0.00    -0.031 C 
HETATM    4  C12 UNL     1      34.982  28.591  51.574  1.00  0.00     0.016 C 
HETATM    5  C13 UNL     1      32.965  27.697  50.545  1.00  0.00     0.016 C 
HETATM    6  C14 UNL     1      32.970  27.951  52.960  1.00  0.00     0.003 C 
HETATM    7  C15 UNL     1      32.933  29.466  53.108  1.00  0.00     0.022 C 
HETATM    8  C16 UNL     1      31.517  27.526  52.633  1.00  0.00     0.022 C 
HETATM    9  C17 UNL     1      33.365  27.330  54.239  1.00  0.00     0.029 C 
HETATM   10  N2  UNL     1      34.279  26.447  54.213  1.00  0.00    -0.357 N 
ATOM     11  H2  UNL     1      34.507  26.062  55.129  1.00  0.00     0.162 HD
ENDROOT
BRANCH   1  12
HETATM   12  C3  UNL     1      35.058  24.388  53.314  1.00  0.00     0.308 C 
HETATM   13  O2  UNL     1      34.720  23.594  52.418  1.00  0.00    -0.260 OA
BRANCH  12  14
HETATM   14  O1  UNL     1      35.469  23.901  54.531  1.00  0.00    -0.318 OA
BRANCH  14  15
HETATM   15  C2  UNL     1      36.391  22.848  54.702  1.00  0.00     0.174 C 
HETATM   16  C1  UNL     1      37.711  23.451  55.137  1.00  0.00     0.034 C 
ENDBRANCH  14  15
ENDBRANCH  12  14
ENDBRANCH   1  12
BRANCH   1  17
HETATM   17  N1  UNL     1      36.405  26.326  53.319  1.00  0.00    -0.301 N 
HETATM   18  C5  UNL     1      37.509  25.991  52.497  1.00  0.00     0.363 C 
HETATM   19  O3  UNL     1      37.332  25.251  51.508  1.00  0.00    -0.238 OA
ATOM     20  H1  UNL     1      36.594  26.937  54.113  1.00  0.00     0.167 HD
BRANCH  18  21
HETATM   21  O4  UNL     1      38.792  26.455  52.741  1.00  0.00    -0.294 OA
BRANCH  21  22
HETATM   22  C6  UNL     1      39.845  26.376  51.832  1.00  0.00     0.061 C 
HETATM   23  C7  UNL     1      40.711  27.600  52.006  1.00  0.00     0.046 C 
HETATM   24  C8  UNL     1      39.363  26.305  50.391  1.00  0.00     0.046 C 
HETATM   25  C9  UNL     1      40.696  25.160  52.143  1.00  0.00     0.046 C 
ENDBRANCH  21  22
ENDBRANCH  18  21
ENDBRANCH   1  17
BRANCH   9  26
HETATM   26  C18 UNL     1      32.747  27.660  55.548  1.00  0.00     0.020 A 
HETATM   27  C19 UNL     1      32.693  28.901  56.112  1.00  0.00     0.016 A 
HETATM   28  C20 UNL     1      32.135  29.125  57.375  1.00  0.00     0.001 A 
HETATM   29  C21 UNL     1      31.620  28.067  58.075  1.00  0.00     0.003 A 
HETATM   30  C22 UNL     1      31.671  26.814  57.509  1.00  0.00     0.037 A 
HETATM   31  C23 UNL     1      32.218  26.588  56.272  1.00  0.00     0.080 A 
BRANCH  31  32
HETATM   32  O5  UNL     1      32.261  25.325  55.719  1.00  0.00    -0.355 OA
HETATM   33  C24 UNL     1      32.597  24.237  56.561  1.00  0.00     0.210 C 
ENDBRANCH  31  32
ENDBRANCH   9  26
TORSDOF 8
ENDMDL
MODEL 4
REMARK VINA RESULT: -6.496510612      1.370      1.853
REMARK  8 active torsions:
REMARK  status: ('A' for Active; 'I' for Inactive)
REMARK    1  A    between atoms: C2_2  and  O1_3 
REMARK    2  A    between atoms: O1_3  and  C3_4 
REMARK    3  A    between atoms: C3_4  and  C4_6 
REMARK    4  A    between atoms: C4_6  and  N1_7 
REMARK       I    between atoms: N1_7  and  C5_9 
REMARK    5  A    between atoms: C5_9  and  O4_11 
REMARK    6  A    between atoms: O4_11  and  C6_12 
REMARK    7  A    between atoms: C17_23  and  C18_24 
REMARK    8  A    between atoms: C23_29  and  O5_30 
ROOT
HETATM    1  C4  UNL     1      36.044  29.185  50.666  1.00  0.00     0.199 C 
HETATM    2  C10 UNL     1      34.575  29.124  50.380  1.00  0.00     0.074 C 
HETATM    3  C11 UNL     1      33.781  28.652  51.563  1.00  0.00    -0.031 C 
HETATM    4  C12 UNL     1      33.565  29.891  52.433  1.00  0.00     0.016 C 
HETATM    5  C13 UNL     1      32.389  28.266  51.053  1.00  0.00     0.016 C 
HETATM    6  C14 UNL     1      34.315  27.482  52.308  1.00  0.00     0.003 C 
HETATM    7  C15 UNL     1      33.791  27.532  53.736  1.00  0.00     0.022 C 
HETATM    8  C16 UNL     1      33.725  26.192  51.688  1.00  0.00     0.022 C 
HETATM    9  C17 UNL     1      35.787  27.369  52.316  1.00  0.00     0.029 C 
HETATM   10  N2  UNL     1      36.447  28.157  51.568  1.00  0.00    -0.357 N 
ATOM     11  H2  UNL     1      37.457  28.030  51.625  1.00  0.00     0.162 HD
ENDROOT
BRANCH   1  12
HETATM   12  C3  UNL     1      36.821  29.009  49.380  1.00  0.00     0.308 C 
HETATM   13  O2  UNL     1      38.059  28.892  49.336  1.00  0.00    -0.260 OA
BRANCH  12  14
HETATM   14  O1  UNL     1      36.095  28.980  48.214  1.00  0.00    -0.318 OA
BRANCH  14  15
HETATM   15  C2  UNL     1      36.393  29.744  47.067  1.00  0.00     0.174 C 
HETATM   16  C1  UNL     1      35.642  29.140  45.898  1.00  0.00     0.034 C 
ENDBRANCH  14  15
ENDBRANCH  12  14
ENDBRANCH   1  12
BRANCH   1  17
HETATM   17  N1  UNL     1      36.469  30.442  51.223  1.00  0.00    -0.301 N 
HETATM   18  C5  UNL     1      36.252  31.726  50.670  1.00  0.00     0.363 C 
HETATM   19  O3  UNL     1      35.628  31.832  49.594  1.00  0.00    -0.238 OA
ATOM     20  H1  UNL     1      36.979  30.403  52.105  1.00  0.00     0.167 HD
BRANCH  18  21
HETATM   21  O4  UNL     1      36.703  32.889  51.276  1.00  0.00    -0.294 OA
BRANCH  21  22
HETATM   22  C6  UNL     1      35.926  33.702  52.099  1.00  0.00     0.061 C 
HETATM   23  C7  UNL     1      36.544  33.706  53.476  1.00  0.00     0.046 C 
HETATM   24  C8  UNL     1      34.487  33.219  52.198  1.00  0.00     0.046 C 
HETATM   25  C9  UNL     1      35.950  35.125  51.578  1.00  0.00     0.046 C 
ENDBRANCH  21  22
ENDBRANCH  18  21
ENDBRANCH   1  17
BRANCH   9  26
HETATM   26  C18 UNL     1      36.539  26.380  53.127  1.00  0.00     0.020 A 
HETATM   27  C19 UNL     1      36.441  26.219  54.478  1.00  0.00     0.016 A 
HETATM   28  C20 UNL     1      37.221  25.295  55.181  1.00  0.00     0.001 A 
HETATM   29  C21 UNL     1      38.114  24.517  54.495  1.00  0.00     0.003 A 
HETATM   30  C22 UNL     1      38.215  24.674  53.132  1.00  0.00     0.037 A 
HETATM   31  C23 UNL     1      37.455  25.579  52.438  1.00  0.00     0.080 A 
BRANCH  31  32
HETATM   32  O5  UNL     1      37.568  25.724  51.071  1.00  0.00    -0.355 OA
HETATM   33  C24 UNL     1      38.866  25.755  50.507  1.00  0.00     0.210 C 
ENDBRANCH  31  32
ENDBRANCH   9  26
TORSDOF 8
ENDMDL
MODEL 5
REMARK VINA RESULT: -6.188702342      1.596      7.055
REMARK  8 active torsions:
REMARK  status: ('A' for Active; 'I' for Inactive)
REMARK    1  A    between atoms: C2_2  and  O1_3 
REMARK    2  A    between atoms: O1_3  and  C3_4 
REMARK    3  A    between atoms: C3_4  and  C4_6 
REMARK    4  A    between atoms: C4_6  and  N1_7 
REMARK       I    between atoms: N1_7  and  C5_9 
REMARK    5  A    between atoms: C5_9  and  O4_11 
REMARK    6  A    between atoms: O4_11  and  C6_12 
REMARK    7  A    between atoms: C17_23  and  C18_24 
REMARK    8  A    between atoms: C23_29  and  O5_30 
ROOT
HETATM    1  C4  UNL     1      35.663  28.508  51.106  1.00  0.00     0.199 C 
HETATM    2  C10 UNL     1      35.977  28.408  49.644  1.00  0.00     0.074 C 
HETATM    3  C11 UNL     1      37.014  29.402  49.213  1.00  0.00    -0.031 C 
HETATM    4  C12 UNL     1      38.362  28.763  49.551  1.00  0.00     0.016 C 
HETATM    5  C13 UNL     1      36.971  29.473  47.684  1.00  0.00     0.016 C 
HETATM    6  C14 UNL     1      36.866  30.791  49.720  1.00  0.00     0.003 C 
HETATM    7  C15 UNL     1      38.234  31.460  49.724  1.00  0.00     0.022 C 
HETATM    8  C16 UNL     1      36.009  31.595  48.713  1.00  0.00     0.022 C 
HETATM    9  C17 UNL     1      36.249  30.903  51.057  1.00  0.00     0.029 C 
HETATM   10  N2  UNL     1      35.757  29.851  51.573  1.00  0.00    -0.357 N 
ATOM     11  H2  UNL     1      35.352  29.996  52.498  1.00  0.00     0.162 HD
ENDROOT
BRANCH   1  12
HETATM   12  C3  UNL     1      34.253  28.022  51.358  1.00  0.00     0.308 C 
HETATM   13  O2  UNL     1      33.358  28.032  50.494  1.00  0.00    -0.260 OA
BRANCH  12  14
HETATM   14  O1  UNL     1      33.973  27.551  52.618  1.00  0.00    -0.318 OA
BRANCH  14  15
HETATM   15  C2  UNL     1      33.313  26.335  52.889  1.00  0.00     0.174 C 
HETATM   16  C1  UNL     1      33.040  26.276  54.378  1.00  0.00     0.034 C 
ENDBRANCH  14  15
ENDBRANCH  12  14
ENDBRANCH   1  12
BRANCH   1  17
HETATM   17  N1  UNL     1      36.519  27.700  51.934  1.00  0.00    -0.301 N 
HETATM   18  C5  UNL     1      36.911  26.362  51.690  1.00  0.00     0.363 C 
HETATM   19  O3  UNL     1      36.502  25.782  50.663  1.00  0.00    -0.238 OA
ATOM     20  H1  UNL     1      36.880  28.136  52.782  1.00  0.00     0.167 HD
BRANCH  18  21
HETATM   21  O4  UNL     1      37.740  25.656  52.548  1.00  0.00    -0.294 OA
BRANCH  21  22
HETATM   22  C6  UNL     1      37.307  24.997  53.697  1.00  0.00     0.061 C 
HETATM   23  C7  UNL     1      38.502  24.330  54.336  1.00  0.00     0.046 C 
HETATM   24  C8  UNL     1      36.249  23.947  53.399  1.00  0.00     0.046 C 
HETATM   25  C9  UNL     1      36.758  26.005  54.687  1.00  0.00     0.046 C 
ENDBRANCH  21  22
ENDBRANCH  18  21
ENDBRANCH   1  17
BRANCH   9  26
HETATM   26  C18 UNL     1      36.152  32.171  51.823  1.00  0.00     0.020 A 
HETATM   27  C19 UNL     1      37.183  32.796  52.461  1.00  0.00     0.016 A 
HETATM   28  C20 UNL     1      37.003  33.966  53.206  1.00  0.00     0.001 A 
HETATM   29  C21 UNL     1      35.751  34.511  53.301  1.00  0.00     0.003 A 
HETATM   30  C22 UNL     1      34.709  33.885  52.657  1.00  0.00     0.037 A 
HETATM   31  C23 UNL     1      34.879  32.737  51.927  1.00  0.00     0.080 A 
BRANCH  31  32
HETATM   32  O5  UNL     1      33.823  32.123  51.287  1.00  0.00    -0.355 OA
HETATM   33  C24 UNL     1      32.927  32.932  50.547  1.00  0.00     0.210 C 
ENDBRANCH  31  32
ENDBRANCH   9  26
TORSDOF 8
ENDMDL
