MODEL 1
REMARK VINA RESULT: -9.624948301      0.000      0.000
REMARK  6 active torsions:
REMARK  status: ('A' for Active; 'I' for Inactive)
REMARK    1  A    between atoms: O1_2  and  C2_3 
REMARK    2  A    between atoms: C3_4  and  C4_5 
REMARK    3  A    between atoms: C4_5  and  C5_6 
REMARK    4  A    between atoms: C9_10  and  O2_11 
REMARK    5  A    between atoms: C12_15  and  C13_16 
REMARK    6  A    between atoms: C19_24  and  C20_25 
ROOT
HETATM    1  C2  UNL     1      32.419  28.312  53.340  1.00  0.00     0.092 A 
HETATM    2  C3  UNL     1      31.801  27.698  54.411  1.00  0.00     0.014 A 
HETATM    3  C9  UNL     1      32.362  26.562  54.948  1.00  0.00     0.090 A 
HETATM    4  C10 UNL     1      33.527  26.016  54.444  1.00  0.00     0.067 A 
HETATM    5  C11 UNL     1      34.119  26.667  53.362  1.00  0.00     0.049 A 
HETATM    6  C12 UNL     1      33.616  27.804  52.775  1.00  0.00     0.059 A 
HETATM    7  C15 UNL     1      35.381  26.244  52.771  1.00  0.00     0.195 C 
HETATM    8  O4  UNL     1      35.577  26.588  51.601  1.00  0.00    -0.287 OA
HETATM    9  C16 UNL     1      36.459  25.450  53.410  1.00  0.00     0.029 A 
HETATM   10  C17 UNL     1      37.674  25.725  52.835  1.00  0.00     0.017 A 
HETATM   11  C18 UNL     1      38.810  25.066  53.305  1.00  0.00     0.008 A 
HETATM   12  C19 UNL     1      38.750  24.142  54.333  1.00  0.00    -0.054 A 
HETATM   13  C23 UNL     1      37.517  23.885  54.892  1.00  0.00     0.024 A 
HETATM   14  C24 UNL     1      36.389  24.532  54.434  1.00  0.00     0.033 A 
HETATM   15  C25 UNL     1      35.195  24.099  55.169  1.00  0.00     0.233 C 
HETATM   16  O5  UNL     1      35.319  23.039  55.824  1.00  0.00    -0.283 OA
HETATM   17  C26 UNL     1      33.927  24.804  55.180  1.00  0.00     0.236 C 
HETATM   18  O6  UNL     1      33.045  24.319  55.918  1.00  0.00    -0.283 OA
ENDROOT
BRANCH   2  19
HETATM   19  C4  UNL     1      30.531  28.233  54.954  1.00  0.00     0.072 C 
BRANCH  19  20
HETATM   20  C5  UNL     1      30.598  28.677  56.355  1.00  0.00    -0.020 C 
HETATM   21  C6  UNL     1      29.642  28.455  57.275  1.00  0.00    -0.091 C 
HETATM   22  C7  UNL     1      28.381  27.728  57.019  1.00  0.00     0.042 C 
HETATM   23  C8  UNL     1      29.834  28.970  58.681  1.00  0.00     0.042 C 
ENDBRANCH  19  20
ENDBRANCH   2  19
BRANCH   1  24
HETATM   24  O1  UNL     1      31.935  29.439  52.762  1.00  0.00    -0.354 OA
HETATM   25  C1  UNL     1      30.888  29.667  51.885  1.00  0.00     0.210 C 
ENDBRANCH   1  24
BRANCH   3  26
HETATM   26  O2  UNL     1      31.805  25.892  56.022  1.00  0.00    -0.359 OA
ATOM     27  H2  UNL     1      30.914  25.562  56.012  1.00  0.00     0.217 HD
ENDBRANCH   3  26
BRANCH   6  28
HETATM   28  C13 UNL     1      34.230  28.526  51.679  1.00  0.00     0.159 C 
HETATM   29  C14 UNL     1      33.915  28.399  50.245  1.00  0.00     0.097 C 
HETATM   30  O3  UNL     1      35.123  29.361  51.975  1.00  0.00    -0.293 OA
ENDBRANCH   6  28
BRANCH  12  31
HETATM   31  C20 UNL     1      39.984  23.456  54.807  1.00  0.00     0.010 C 
HETATM   32  C21 UNL     1      40.982  23.508  53.661  1.00  0.00     0.015 C 
HETATM   33  C22 UNL     1      39.711  22.002  55.139  1.00  0.00     0.015 C 
ENDBRANCH  12  31
TORSDOF 6
ENDMDL
MODEL 2
REMARK VINA RESULT: -9.169437520      1.835      8.173
REMARK  6 active torsions:
REMARK  status: ('A' for Active; 'I' for Inactive)
REMARK    1  A    between atoms: O1_2  and  C2_3 
REMARK    2  A    between atoms: C3_4  and  C4_5 
REMARK    3  A    between atoms: C4_5  and  C5_6 
REMARK    4  A    between atoms: C9_10  and  O2_11 
REMARK    5  A    between atoms: C12_15  and  C13_16 
REMARK    6  A    between atoms: C19_24  and  C20_25 
ROOT
HETATM    1  C2  UNL     1      37.705  23.884  53.864  1.00  0.00     0.092 A 
HETATM    2  C3  UNL     1      37.855  24.869  52.907  1.00  0.00     0.014 A 
HETATM    3  C9  UNL     1      36.794  25.698  52.628  1.00  0.00     0.090 A 
HETATM    4  C10 UNL     1      35.579  25.573  53.275  1.00  0.00     0.067 A 
HETATM    5  C11 UNL     1      35.471  24.566  54.234  1.00  0.00     0.049 A 
HETATM    6  C12 UNL     1      36.487  23.701  54.565  1.00  0.00     0.059 A 
HETATM    7  C15 UNL     1      34.276  24.359  55.040  1.00  0.00     0.195 C 
HETATM    8  O4  UNL     1      34.123  23.227  55.507  1.00  0.00    -0.287 OA
HETATM    9  C16 UNL     1      33.221  25.351  55.368  1.00  0.00     0.029 A 
HETATM   10  C17 UNL     1      32.605  25.035  56.552  1.00  0.00     0.017 A 
HETATM   11  C18 UNL     1      31.580  25.856  57.021  1.00  0.00     0.008 A 
HETATM   12  C19 UNL     1      31.163  26.979  56.328  1.00  0.00    -0.054 A 
HETATM   13  C23 UNL     1      31.799  27.272  55.141  1.00  0.00     0.024 A 
HETATM   14  C24 UNL     1      32.814  26.467  54.670  1.00  0.00     0.033 A 
HETATM   15  C25 UNL     1      33.337  26.967  53.393  1.00  0.00     0.233 C 
HETATM   16  O5  UNL     1      32.611  27.796  52.801  1.00  0.00    -0.283 OA
HETATM   17  C26 UNL     1      34.602  26.569  52.803  1.00  0.00     0.236 C 
HETATM   18  O6  UNL     1      34.911  27.152  51.744  1.00  0.00    -0.283 OA
ENDROOT
BRANCH   2  19
HETATM   19  C4  UNL     1      39.130  25.009  52.166  1.00  0.00     0.072 C 
BRANCH  19  20
HETATM   20  C5  UNL     1      39.846  26.271  52.403  1.00  0.00    -0.020 C 
HETATM   21  C6  UNL     1      40.265  27.108  51.436  1.00  0.00    -0.091 C 
HETATM   22  C7  UNL     1      40.068  26.885  49.988  1.00  0.00     0.042 C 
HETATM   23  C8  UNL     1      40.995  28.373  51.817  1.00  0.00     0.042 C 
ENDBRANCH  19  20
ENDBRANCH   2  19
BRANCH   1  24
HETATM   24  O1  UNL     1      38.706  23.034  54.204  1.00  0.00    -0.354 OA
HETATM   25  C1  UNL     1      39.825  23.178  55.005  1.00  0.00     0.210 C 
ENDBRANCH   1  24
BRANCH   3  26
HETATM   26  O2  UNL     1      36.865  26.709  51.686  1.00  0.00    -0.359 OA
ATOM     27  H2  UNL     1      36.247  27.430  51.661  1.00  0.00     0.217 HD
ENDBRANCH   3  26
BRANCH   6  28
HETATM   28  C13 UNL     1      36.418  22.674  55.585  1.00  0.00     0.159 C 
HETATM   29  C14 UNL     1      36.053  21.259  55.396  1.00  0.00     0.097 C 
HETATM   30  O3  UNL     1      36.709  23.017  56.760  1.00  0.00    -0.293 OA
ENDBRANCH   6  28
BRANCH  12  31
HETATM   31  C20 UNL     1      30.062  27.830  56.859  1.00  0.00     0.010 C 
HETATM   32  C21 UNL     1      29.612  28.727  55.717  1.00  0.00     0.015 C 
HETATM   33  C22 UNL     1      30.546  28.709  57.996  1.00  0.00     0.015 C 
ENDBRANCH  12  31
TORSDOF 6
ENDMDL
MODEL 3
REMARK VINA RESULT: -9.020793636      1.524      2.124
REMARK  6 active torsions:
REMARK  status: ('A' for Active; 'I' for Inactive)
REMARK    1  A    between atoms: O1_2  and  C2_3 
REMARK    2  A    between atoms: C3_4  and  C4_5 
REMARK    3  A    between atoms: C4_5  and  C5_6 
REMARK    4  A    between atoms: C9_10  and  O2_11 
REMARK    5  A    between atoms: C12_15  and  C13_16 
REMARK    6  A    between atoms: C19_24  and  C20_25 
ROOT
HETATM    1  C2  UNL     1      31.499  28.356  54.472  1.00  0.00     0.092 A 
HETATM    2  C3  UNL     1      30.966  28.016  55.700  1.00  0.00     0.014 A 
HETATM    3  C9  UNL     1      31.334  26.826  56.283  1.00  0.00     0.090 A 
HETATM    4  C10 UNL     1      32.221  25.958  55.675  1.00  0.00     0.067 A 
HETATM    5  C11 UNL     1      32.736  26.340  54.437  1.00  0.00     0.049 A 
HETATM    6  C12 UNL     1      32.414  27.512  53.794  1.00  0.00     0.059 A 
HETATM    7  C15 UNL     1      33.728  25.559  53.711  1.00  0.00     0.195 C 
HETATM    8  O4  UNL     1      33.776  25.737  52.491  1.00  0.00    -0.287 OA
HETATM    9  C16 UNL     1      34.689  24.574  54.268  1.00  0.00     0.029 A 
HETATM   10  C17 UNL     1      35.804  24.478  53.474  1.00  0.00     0.017 A 
HETATM   11  C18 UNL     1      36.820  23.595  53.839  1.00  0.00     0.008 A 
HETATM   12  C19 UNL     1      36.738  22.810  54.975  1.00  0.00    -0.054 A 
HETATM   13  C23 UNL     1      35.606  22.926  55.754  1.00  0.00     0.024 A 
HETATM   14  C24 UNL     1      34.597  23.797  55.401  1.00  0.00     0.033 A 
HETATM   15  C25 UNL     1      33.494  23.749  56.369  1.00  0.00     0.233 C 
HETATM   16  O5  UNL     1      33.486  22.754  57.128  1.00  0.00    -0.283 OA
HETATM   17  C26 UNL     1      32.454  24.753  56.490  1.00  0.00     0.236 C 
HETATM   18  O6  UNL     1      31.637  24.575  57.416  1.00  0.00    -0.283 OA
ENDROOT
BRANCH   2  19
HETATM   19  C4  UNL     1      29.983  28.903  56.364  1.00  0.00     0.072 C 
BRANCH  19  20
HETATM   20  C5  UNL     1      29.691  28.560  57.764  1.00  0.00    -0.020 C 
HETATM   21  C6  UNL     1      28.742  29.148  58.515  1.00  0.00    -0.091 C 
HETATM   22  C7  UNL     1      27.848  30.227  58.045  1.00  0.00     0.042 C 
HETATM   23  C8  UNL     1      28.548  28.704  59.944  1.00  0.00     0.042 C 
ENDBRANCH  19  20
ENDBRANCH   2  19
BRANCH   1  24
HETATM   24  O1  UNL     1      31.196  29.515  53.836  1.00  0.00    -0.354 OA
HETATM   25  C1  UNL     1      30.087  29.924  53.115  1.00  0.00     0.210 C 
ENDBRANCH   1  24
BRANCH   3  26
HETATM   26  O2  UNL     1      30.846  26.415  57.511  1.00  0.00    -0.359 OA
ATOM     27  H2  UNL     1      30.136  25.789  57.596  1.00  0.00     0.217 HD
ENDBRANCH   3  26
BRANCH   6  28
HETATM   28  C13 UNL     1      32.965  27.955  52.529  1.00  0.00     0.159 C 
HETATM   29  C14 UNL     1      32.389  27.744  51.188  1.00  0.00     0.097 C 
HETATM   30  O3  UNL     1      34.045  28.598  52.570  1.00  0.00    -0.293 OA
ENDBRANCH   6  28
BRANCH  12  31
HETATM   31  C20 UNL     1      37.841  21.875  55.331  1.00  0.00     0.010 C 
HETATM   32  C21 UNL     1      37.583  21.413  56.756  1.00  0.00     0.015 C 
HETATM   33  C22 UNL     1      39.187  22.572  55.289  1.00  0.00     0.015 C 
ENDBRANCH  12  31
TORSDOF 6
ENDMDL
MODEL 4
REMARK VINA RESULT: -8.967625417      1.499      1.937
REMARK  6 active torsions:
REMARK  status: ('A' for Active; 'I' for Inactive)
REMARK    1  A    between atoms: O1_2  and  C2_3 
REMARK    2  A    between atoms: C3_4  and  C4_5 
REMARK    3  A    between atoms: C4_5  and  C5_6 
REMARK    4  A    between atoms: C9_10  and  O2_11 
REMARK    5  A    between atoms: C12_15  and  C13_16 
REMARK    6  A    between atoms: C19_24  and  C20_25 
ROOT
HETATM    1  C2  UNL     1      33.183  28.920  52.774  1.00  0.00     0.092 A 
HETATM    2  C3  UNL     1      32.419  28.431  53.815  1.00  0.00     0.014 A 
HETATM    3  C9  UNL     1      32.791  27.253  54.422  1.00  0.00     0.090 A 
HETATM    4  C10 UNL     1      33.907  26.544  54.018  1.00  0.00     0.067 A 
HETATM    5  C11 UNL     1      34.649  27.075  52.963  1.00  0.00     0.049 A 
HETATM    6  C12 UNL     1      34.338  28.243  52.310  1.00  0.00     0.059 A 
HETATM    7  C15 UNL     1      35.882  26.472  52.476  1.00  0.00     0.195 C 
HETATM    8  O4  UNL     1      36.199  26.744  51.314  1.00  0.00    -0.287 OA
HETATM    9  C16 UNL     1      36.803  25.571  53.212  1.00  0.00     0.029 A 
HETATM   10  C17 UNL     1      38.079  25.667  52.717  1.00  0.00     0.017 A 
HETATM   11  C18 UNL     1      39.085  24.887  53.286  1.00  0.00     0.008 A 
HETATM   12  C19 UNL     1      38.837  24.017  54.333  1.00  0.00    -0.054 A 
HETATM   13  C23 UNL     1      37.546  23.940  54.809  1.00  0.00     0.024 A 
HETATM   14  C24 UNL     1      36.545  24.708  54.254  1.00  0.00     0.033 A 
HETATM   15  C25 UNL     1      35.258  24.458  54.914  1.00  0.00     0.233 C 
HETATM   16  O5  UNL     1      35.200  23.416  55.605  1.00  0.00    -0.283 OA
HETATM   17  C26 UNL     1      34.095  25.320  54.815  1.00  0.00     0.236 C 
HETATM   18  O6  UNL     1      33.110  24.979  55.501  1.00  0.00    -0.283 OA
ENDROOT
BRANCH   2  19
HETATM   19  C4  UNL     1      31.196  29.144  54.251  1.00  0.00     0.072 C 
BRANCH  19  20
HETATM   20  C5  UNL     1      29.963  28.728  53.566  1.00  0.00    -0.020 C 
HETATM   21  C6  UNL     1      29.079  29.571  53.002  1.00  0.00    -0.091 C 
HETATM   22  C7  UNL     1      29.214  31.043  52.985  1.00  0.00     0.042 C 
HETATM   23  C8  UNL     1      27.848  29.012  52.332  1.00  0.00     0.042 C 
ENDBRANCH  19  20
ENDBRANCH   2  19
BRANCH   1  24
HETATM   24  O1  UNL     1      32.889  30.078  52.131  1.00  0.00    -0.354 OA
HETATM   25  C1  UNL     1      32.144  30.357  50.998  1.00  0.00     0.210 C 
ENDBRANCH   1  24
BRANCH   3  26
HETATM   26  O2  UNL     1      32.081  26.699  55.472  1.00  0.00    -0.359 OA
ATOM     27  H2  UNL     1      32.480  26.498  56.310  1.00  0.00     0.217 HD
ENDBRANCH   3  26
BRANCH   6  28
HETATM   28  C13 UNL     1      35.113  28.840  51.241  1.00  0.00     0.159 C 
HETATM   29  C14 UNL     1      34.972  28.589  49.795  1.00  0.00     0.097 C 
HETATM   30  O3  UNL     1      35.998  29.671  51.572  1.00  0.00    -0.293 OA
ENDBRANCH   6  28
BRANCH  12  31
HETATM   31  C20 UNL     1      39.937  23.197  54.912  1.00  0.00     0.010 C 
HETATM   32  C21 UNL     1      40.986  23.037  53.823  1.00  0.00     0.015 C 
HETATM   33  C22 UNL     1      39.444  21.819  55.309  1.00  0.00     0.015 C 
ENDBRANCH  12  31
TORSDOF 6
ENDMDL
MODEL 5
REMARK VINA RESULT: -8.891827603      3.054      8.362
REMARK  6 active torsions:
REMARK  status: ('A' for Active; 'I' for Inactive)
REMARK    1  A    between atoms: O1_2  and  C2_3 
REMARK    2  A    between atoms: C3_4  and  C4_5 
REMARK    3  A    between atoms: C4_5  and  C5_6 
REMARK    4  A    between atoms: C9_10  and  O2_11 
REMARK    5  A    between atoms: C12_15  and  C13_16 
REMARK    6  A    between atoms: C19_24  and  C20_25 
ROOT
HETATM    1  C2  UNL     1      40.451  25.167  52.666  1.00  0.00     0.092 A 
HETATM    2  C3  UNL     1      39.968  26.244  51.949  1.00  0.00     0.014 A 
HETATM    3  C9  UNL     1      38.610  26.456  51.895  1.00  0.00     0.090 A 
HETATM    4  C10 UNL     1      37.714  25.622  52.537  1.00  0.00     0.067 A 
HETATM    5  C11 UNL     1      38.245  24.547  53.249  1.00  0.00     0.049 A 
HETATM    6  C12 UNL     1      39.588  24.272  53.347  1.00  0.00     0.059 A 
HETATM    7  C15 UNL     1      37.428  23.626  54.027  1.00  0.00     0.195 C 
HETATM    8  O4  UNL     1      37.912  22.510  54.234  1.00  0.00    -0.287 OA
HETATM    9  C16 UNL     1      36.081  23.872  54.600  1.00  0.00     0.029 A 
HETATM   10  C17 UNL     1      35.869  23.084  55.703  1.00  0.00     0.017 A 
HETATM   11  C18 UNL     1      34.650  23.177  56.375  1.00  0.00     0.008 A 
HETATM   12  C19 UNL     1      33.647  24.036  55.964  1.00  0.00    -0.054 A 
HETATM   13  C23 UNL     1      33.888  24.815  54.853  1.00  0.00     0.024 A 
HETATM   14  C24 UNL     1      35.089  24.732  54.182  1.00  0.00     0.033 A 
HETATM   15  C25 UNL     1      35.119  25.644  53.033  1.00  0.00     0.233 C 
HETATM   16  O5  UNL     1      34.006  26.082  52.663  1.00  0.00    -0.283 OA
HETATM   17  C26 UNL     1      36.321  26.053  52.330  1.00  0.00     0.236 C 
HETATM   18  O6  UNL     1      36.155  26.888  51.418  1.00  0.00    -0.283 OA
ENDROOT
BRANCH   2  19
HETATM   19  C4  UNL     1      40.895  27.138  51.218  1.00  0.00     0.072 C 
BRANCH  19  20
HETATM   20  C5  UNL     1      41.183  28.412  51.892  1.00  0.00    -0.020 C 
HETATM   21  C6  UNL     1      42.325  29.110  51.757  1.00  0.00    -0.091 C 
HETATM   22  C7  UNL     1      43.464  28.702  50.907  1.00  0.00     0.042 C 
HETATM   23  C8  UNL     1      42.495  30.406  52.511  1.00  0.00     0.042 C 
ENDBRANCH  19  20
ENDBRANCH   2  19
BRANCH   1  24
HETATM   24  O1  UNL     1      41.776  24.895  52.777  1.00  0.00    -0.354 OA
HETATM   25  C1  UNL     1      42.847  25.097  51.924  1.00  0.00     0.210 C 
ENDBRANCH   1  24
BRANCH   3  26
HETATM   26  O2  UNL     1      38.048  27.513  51.201  1.00  0.00    -0.359 OA
ATOM     27  H2  UNL     1      37.213  27.444  50.753  1.00  0.00     0.217 HD
ENDBRANCH   3  26
BRANCH   6  28
HETATM   28  C13 UNL     1      40.171  23.190  54.114  1.00  0.00     0.159 C 
HETATM   29  C14 UNL     1      40.369  23.144  55.574  1.00  0.00     0.097 C 
HETATM   30  O3  UNL     1      40.540  22.172  53.475  1.00  0.00    -0.293 OA
ENDBRANCH   6  28
BRANCH  12  31
HETATM   31  C20 UNL     1      32.357  24.104  56.705  1.00  0.00     0.010 C 
HETATM   32  C21 UNL     1      32.042  25.579  56.901  1.00  0.00     0.015 C 
HETATM   33  C22 UNL     1      32.473  23.454  58.070  1.00  0.00     0.015 C 
ENDBRANCH  12  31
TORSDOF 6
ENDMDL
