MODEL 1
REMARK VINA RESULT: -8.856588622      0.000      0.000
REMARK  8 active torsions:
REMARK  status: ('A' for Active; 'I' for Inactive)
REMARK    1  A    between atoms: O1_2  and  C2_3 
REMARK    2  A    between atoms: C5_6  and  N1_7 
REMARK    3  A    between atoms: C7_10  and  C8_11 
REMARK    4  A    between atoms: C8_11  and  C9_12 
REMARK    5  A    between atoms: C13_16  and  O3_17 
REMARK    6  A    between atoms: C16_22  and  N2_23 
REMARK    7  A    between atoms: N2_23  and  C17_25 
REMARK    8  A    between atoms: C21_29  and  O5_30 
ROOT
HETATM    1  N1  UNL     1      37.830  25.362  52.773  1.00  0.00    -0.260 N 
HETATM    2  C6  UNL     1      38.750  25.523  51.680  1.00  0.00     0.268 A 
HETATM    3  O2  UNL     1      38.429  25.985  50.530  1.00  0.00    -0.267 OA
HETATM    4  C7  UNL     1      40.051  25.077  52.109  1.00  0.00     0.087 A 
HETATM    5  C15 UNL     1      39.930  24.620  53.529  1.00  0.00     0.232 A 
HETATM    6  O4  UNL     1      40.875  24.166  54.219  1.00  0.00    -0.283 OA
HETATM    7  C16 UNL     1      38.540  24.824  53.869  1.00  0.00     0.168 A 
ENDROOT
BRANCH   7   8
HETATM    8  N2  UNL     1      37.997  24.560  55.005  1.00  0.00    -0.339 N 
ATOM      9  H2  UNL     1      38.028  25.304  55.701  1.00  0.00     0.167 HD
BRANCH   8  10
HETATM   10  C17 UNL     1      37.373  23.377  55.395  1.00  0.00     0.036 A 
HETATM   11  C18 UNL     1      38.043  22.207  55.657  1.00  0.00     0.029 A 
HETATM   12  C19 UNL     1      37.334  21.091  56.036  1.00  0.00     0.005 A 
HETATM   13  C20 UNL     1      35.947  21.090  56.170  1.00  0.00     0.037 A 
HETATM   14  C21 UNL     1      35.269  22.263  55.908  1.00  0.00     0.070 A 
HETATM   15  C23 UNL     1      36.003  23.366  55.530  1.00  0.00     0.066 A 
BRANCH  14  16
HETATM   16  O5  UNL     1      33.895  22.252  56.043  1.00  0.00    -0.356 OA
HETATM   17  C22 UNL     1      33.201  23.037  56.993  1.00  0.00     0.210 C 
ENDBRANCH  14  16
ENDBRANCH   8  10
ENDBRANCH   7   8
BRANCH   1  18
HETATM   18  C5  UNL     1      36.452  25.703  52.714  1.00  0.00     0.044 A 
HETATM   19  C4  UNL     1      35.593  24.724  52.229  1.00  0.00     0.033 A 
HETATM   20  C3  UNL     1      34.240  24.983  52.141  1.00  0.00     0.039 A 
HETATM   21  C2  UNL     1      33.749  26.220  52.539  1.00  0.00     0.068 A 
HETATM   22  C25 UNL     1      34.621  27.172  53.015  1.00  0.00     0.039 A 
HETATM   23  C24 UNL     1      35.980  26.912  53.104  1.00  0.00     0.033 A 
BRANCH  21  24
HETATM   24  O1  UNL     1      32.394  26.500  52.459  1.00  0.00    -0.356 OA
HETATM   25  C1  UNL     1      31.763  26.908  51.269  1.00  0.00     0.210 C 
ENDBRANCH  21  24
ENDBRANCH   1  18
BRANCH   4  26
HETATM   26  C8  UNL     1      41.201  25.062  51.456  1.00  0.00     0.032 C 
BRANCH  26  27
HETATM   27  C9  UNL     1      42.231  26.063  51.489  1.00  0.00    -0.033 A 
HETATM   28  C10 UNL     1      42.054  27.424  51.389  1.00  0.00     0.011 A 
HETATM   29  C11 UNL     1      43.108  28.315  51.404  1.00  0.00     0.004 A 
HETATM   30  C12 UNL     1      44.411  27.883  51.525  1.00  0.00     0.036 A 
HETATM   31  C13 UNL     1      44.602  26.523  51.627  1.00  0.00     0.066 A 
HETATM   32  C14 UNL     1      43.567  25.635  51.611  1.00  0.00     0.048 A 
BRANCH  31  33
HETATM   33  O3  UNL     1      45.936  26.091  51.750  1.00  0.00    -0.361 OA
ATOM     34  H3  UNL     1      46.590  26.774  51.837  1.00  0.00     0.217 HD
ENDBRANCH  31  33
ENDBRANCH  26  27
ENDBRANCH   4  26
TORSDOF 8
ENDMDL
MODEL 2
REMARK VINA RESULT: -8.840130318      3.405      6.568
REMARK  8 active torsions:
REMARK  status: ('A' for Active; 'I' for Inactive)
REMARK    1  A    between atoms: O1_2  and  C2_3 
REMARK    2  A    between atoms: C5_6  and  N1_7 
REMARK    3  A    between atoms: C7_10  and  C8_11 
REMARK    4  A    between atoms: C8_11  and  C9_12 
REMARK    5  A    between atoms: C13_16  and  O3_17 
REMARK    6  A    between atoms: C16_22  and  N2_23 
REMARK    7  A    between atoms: N2_23  and  C17_25 
REMARK    8  A    between atoms: C21_29  and  O5_30 
ROOT
HETATM    1  N1  UNL     1      34.868  26.546  53.616  1.00  0.00    -0.260 N 
HETATM    2  C6  UNL     1      36.234  26.473  54.057  1.00  0.00     0.268 A 
HETATM    3  O2  UNL     1      36.620  26.733  55.250  1.00  0.00    -0.267 OA
HETATM    4  C7  UNL     1      37.053  26.073  52.943  1.00  0.00     0.087 A 
HETATM    5  C15 UNL     1      36.154  25.890  51.760  1.00  0.00     0.232 A 
HETATM    6  O4  UNL     1      36.536  25.543  50.616  1.00  0.00    -0.283 OA
HETATM    7  C16 UNL     1      34.829  26.197  52.248  1.00  0.00     0.168 A 
ENDROOT
BRANCH   7   8
HETATM    8  N2  UNL     1      33.746  26.168  51.554  1.00  0.00    -0.339 N 
ATOM      9  H2  UNL     1      33.541  25.288  51.080  1.00  0.00     0.167 HD
BRANCH   8  10
HETATM   10  C17 UNL     1      32.822  27.194  51.374  1.00  0.00     0.036 A 
HETATM   11  C18 UNL     1      31.471  27.054  51.579  1.00  0.00     0.029 A 
HETATM   12  C19 UNL     1      30.640  28.131  51.372  1.00  0.00     0.005 A 
HETATM   13  C20 UNL     1      31.109  29.376  50.958  1.00  0.00     0.037 A 
HETATM   14  C21 UNL     1      32.466  29.521  50.750  1.00  0.00     0.070 A 
HETATM   15  C23 UNL     1      33.277  28.428  50.964  1.00  0.00     0.066 A 
BRANCH  14  16
HETATM   16  O5  UNL     1      32.921  30.759  50.340  1.00  0.00    -0.356 OA
HETATM   17  C22 UNL     1      32.415  31.979  50.843  1.00  0.00     0.210 C 
ENDBRANCH  14  16
ENDBRANCH   8  10
ENDBRANCH   7   8
BRANCH   1  18
HETATM   18  C5  UNL     1      33.776  26.907  54.451  1.00  0.00     0.044 A 
HETATM   19  C4  UNL     1      33.124  25.865  55.101  1.00  0.00     0.033 A 
HETATM   20  C3  UNL     1      32.054  26.137  55.929  1.00  0.00     0.039 A 
HETATM   21  C2  UNL     1      31.637  27.451  56.104  1.00  0.00     0.068 A 
HETATM   22  C25 UNL     1      32.299  28.464  55.449  1.00  0.00     0.039 A 
HETATM   23  C24 UNL     1      33.375  28.191  54.619  1.00  0.00     0.033 A 
BRANCH  21  24
HETATM   24  O1  UNL     1      30.564  27.745  56.931  1.00  0.00    -0.356 OA
HETATM   25  C1  UNL     1      30.626  28.709  57.955  1.00  0.00     0.210 C 
ENDBRANCH  21  24
ENDBRANCH   1  18
BRANCH   4  26
HETATM   26  C8  UNL     1      38.356  25.854  52.882  1.00  0.00     0.032 C 
BRANCH  26  27
HETATM   27  C9  UNL     1      39.080  24.762  53.472  1.00  0.00    -0.033 A 
HETATM   28  C10 UNL     1      40.397  24.436  53.248  1.00  0.00     0.011 A 
HETATM   29  C11 UNL     1      41.008  23.350  53.841  1.00  0.00     0.004 A 
HETATM   30  C12 UNL     1      40.320  22.523  54.703  1.00  0.00     0.036 A 
HETATM   31  C13 UNL     1      39.000  22.838  54.937  1.00  0.00     0.066 A 
HETATM   32  C14 UNL     1      38.389  23.909  54.355  1.00  0.00     0.048 A 
BRANCH  31  33
HETATM   33  O3  UNL     1      38.306  21.989  55.819  1.00  0.00    -0.361 OA
ATOM     34  H3  UNL     1      38.535  22.063  56.738  1.00  0.00     0.217 HD
ENDBRANCH  31  33
ENDBRANCH  26  27
ENDBRANCH   4  26
TORSDOF 8
ENDMDL
MODEL 3
REMARK VINA RESULT: -8.806396884      4.600      8.573
REMARK  8 active torsions:
REMARK  status: ('A' for Active; 'I' for Inactive)
REMARK    1  A    between atoms: O1_2  and  C2_3 
REMARK    2  A    between atoms: C5_6  and  N1_7 
REMARK    3  A    between atoms: C7_10  and  C8_11 
REMARK    4  A    between atoms: C8_11  and  C9_12 
REMARK    5  A    between atoms: C13_16  and  O3_17 
REMARK    6  A    between atoms: C16_22  and  N2_23 
REMARK    7  A    between atoms: N2_23  and  C17_25 
REMARK    8  A    between atoms: C21_29  and  O5_30 
ROOT
HETATM    1  N1  UNL     1      32.103  26.638  55.744  1.00  0.00    -0.260 N 
HETATM    2  C6  UNL     1      32.613  25.323  56.019  1.00  0.00     0.268 A 
HETATM    3  O2  UNL     1      32.304  24.632  57.053  1.00  0.00    -0.267 OA
HETATM    4  C7  UNL     1      33.508  24.948  54.955  1.00  0.00     0.087 A 
HETATM    5  C15 UNL     1      33.553  26.082  53.978  1.00  0.00     0.232 A 
HETATM    6  O4  UNL     1      34.237  26.094  52.926  1.00  0.00    -0.283 OA
HETATM    7  C16 UNL     1      32.667  27.083  54.528  1.00  0.00     0.168 A 
ENDROOT
BRANCH   7   8
HETATM    8  N2  UNL     1      32.411  28.229  54.004  1.00  0.00    -0.339 N 
ATOM      9  H2  UNL     1      33.080  28.973  54.202  1.00  0.00     0.167 HD
BRANCH   8  10
HETATM   10  C17 UNL     1      31.328  28.574  53.198  1.00  0.00     0.036 A 
HETATM   11  C18 UNL     1      31.062  27.992  51.982  1.00  0.00     0.029 A 
HETATM   12  C19 UNL     1      29.965  28.405  51.260  1.00  0.00     0.005 A 
HETATM   13  C20 UNL     1      29.099  29.399  51.710  1.00  0.00     0.037 A 
HETATM   14  C21 UNL     1      29.363  29.986  52.931  1.00  0.00     0.070 A 
HETATM   15  C23 UNL     1      30.466  29.556  53.634  1.00  0.00     0.066 A 
BRANCH  14  16
HETATM   16  O5  UNL     1      28.498  30.970  53.367  1.00  0.00    -0.356 OA
HETATM   17  C22 UNL     1      28.339  32.212  52.710  1.00  0.00     0.210 C 
ENDBRANCH  14  16
ENDBRANCH   8  10
ENDBRANCH   7   8
BRANCH   1  18
HETATM   18  C5  UNL     1      31.186  27.331  56.580  1.00  0.00     0.044 A 
HETATM   19  C4  UNL     1      31.736  28.070  57.621  1.00  0.00     0.033 A 
HETATM   20  C3  UNL     1      30.908  28.769  58.477  1.00  0.00     0.039 A 
HETATM   21  C2  UNL     1      29.533  28.728  58.289  1.00  0.00     0.068 A 
HETATM   22  C25 UNL     1      29.014  27.989  57.250  1.00  0.00     0.039 A 
HETATM   23  C24 UNL     1      29.845  27.288  56.391  1.00  0.00     0.033 A 
BRANCH  21  24
HETATM   24  O1  UNL     1      28.685  29.423  59.136  1.00  0.00    -0.356 OA
HETATM   25  C1  UNL     1      27.848  28.790  60.074  1.00  0.00     0.210 C 
ENDBRANCH  21  24
ENDBRANCH   1  18
BRANCH   4  26
HETATM   26  C8  UNL     1      34.185  23.827  54.771  1.00  0.00     0.032 C 
BRANCH  26  27
HETATM   27  C9  UNL     1      35.575  23.597  55.054  1.00  0.00    -0.033 A 
HETATM   28  C10 UNL     1      36.629  24.408  54.700  1.00  0.00     0.011 A 
HETATM   29  C11 UNL     1      37.941  24.095  54.993  1.00  0.00     0.004 A 
HETATM   30  C12 UNL     1      38.269  22.938  55.666  1.00  0.00     0.036 A 
HETATM   31  C13 UNL     1      37.223  22.118  56.027  1.00  0.00     0.066 A 
HETATM   32  C14 UNL     1      35.925  22.419  55.741  1.00  0.00     0.048 A 
BRANCH  31  33
HETATM   33  O3  UNL     1      37.568  20.939  56.714  1.00  0.00    -0.361 OA
ATOM     34  H3  UNL     1      38.406  20.945  57.160  1.00  0.00     0.217 HD
ENDBRANCH  31  33
ENDBRANCH  26  27
ENDBRANCH   4  26
TORSDOF 8
ENDMDL
MODEL 4
REMARK VINA RESULT: -8.732849794      3.358      6.437
REMARK  8 active torsions:
REMARK  status: ('A' for Active; 'I' for Inactive)
REMARK    1  A    between atoms: O1_2  and  C2_3 
REMARK    2  A    between atoms: C5_6  and  N1_7 
REMARK    3  A    between atoms: C7_10  and  C8_11 
REMARK    4  A    between atoms: C8_11  and  C9_12 
REMARK    5  A    between atoms: C13_16  and  O3_17 
REMARK    6  A    between atoms: C16_22  and  N2_23 
REMARK    7  A    between atoms: N2_23  and  C17_25 
REMARK    8  A    between atoms: C21_29  and  O5_30 
ROOT
HETATM    1  N1  UNL     1      34.854  26.605  53.617  1.00  0.00    -0.260 N 
HETATM    2  C6  UNL     1      36.223  26.501  54.042  1.00  0.00     0.268 A 
HETATM    3  O2  UNL     1      36.620  26.690  55.245  1.00  0.00    -0.267 OA
HETATM    4  C7  UNL     1      37.032  26.163  52.899  1.00  0.00     0.087 A 
HETATM    5  C15 UNL     1      36.122  26.052  51.715  1.00  0.00     0.232 A 
HETATM    6  O4  UNL     1      36.494  25.770  50.550  1.00  0.00    -0.283 OA
HETATM    7  C16 UNL     1      34.803  26.336  52.232  1.00  0.00     0.168 A 
ENDROOT
BRANCH   7   8
HETATM    8  N2  UNL     1      33.715  26.351  51.546  1.00  0.00    -0.339 N 
ATOM      9  H2  UNL     1      33.457  25.473  51.094  1.00  0.00     0.167 HD
BRANCH   8  10
HETATM   10  C17 UNL     1      32.848  27.423  51.347  1.00  0.00     0.036 A 
HETATM   11  C18 UNL     1      33.261  28.695  51.035  1.00  0.00     0.029 A 
HETATM   12  C19 UNL     1      32.324  29.687  50.859  1.00  0.00     0.005 A 
HETATM   13  C20 UNL     1      30.955  29.461  50.984  1.00  0.00     0.037 A 
HETATM   14  C21 UNL     1      30.535  28.184  51.299  1.00  0.00     0.070 A 
HETATM   15  C23 UNL     1      31.493  27.209  51.469  1.00  0.00     0.066 A 
BRANCH  14  16
HETATM   16  O5  UNL     1      29.176  27.970  51.421  1.00  0.00    -0.356 OA
HETATM   17  C22 UNL     1      28.348  27.596  50.337  1.00  0.00     0.210 C 
ENDBRANCH  14  16
ENDBRANCH   8  10
ENDBRANCH   7   8
BRANCH   1  18
HETATM   18  C5  UNL     1      33.771  26.921  54.481  1.00  0.00     0.044 A 
HETATM   19  C4  UNL     1      33.149  25.849  55.110  1.00  0.00     0.033 A 
HETATM   20  C3  UNL     1      32.087  26.077  55.963  1.00  0.00     0.039 A 
HETATM   21  C2  UNL     1      31.651  27.377  56.184  1.00  0.00     0.068 A 
HETATM   22  C25 UNL     1      32.284  28.421  55.549  1.00  0.00     0.039 A 
HETATM   23  C24 UNL     1      33.350  28.192  54.693  1.00  0.00     0.033 A 
BRANCH  21  24
HETATM   24  O1  UNL     1      30.588  27.628  57.037  1.00  0.00    -0.356 OA
HETATM   25  C1  UNL     1      30.548  28.730  57.911  1.00  0.00     0.210 C 
ENDBRANCH  21  24
ENDBRANCH   1  18
BRANCH   4  26
HETATM   26  C8  UNL     1      38.333  25.942  52.815  1.00  0.00     0.032 C 
BRANCH  26  27
HETATM   27  C9  UNL     1      39.068  24.853  53.398  1.00  0.00    -0.033 A 
HETATM   28  C10 UNL     1      40.392  24.550  53.183  1.00  0.00     0.011 A 
HETATM   29  C11 UNL     1      41.013  23.464  53.767  1.00  0.00     0.004 A 
HETATM   30  C12 UNL     1      40.329  22.616  54.611  1.00  0.00     0.036 A 
HETATM   31  C13 UNL     1      39.002  22.909  54.836  1.00  0.00     0.066 A 
HETATM   32  C14 UNL     1      38.381  23.978  54.263  1.00  0.00     0.048 A 
BRANCH  31  33
HETATM   33  O3  UNL     1      38.312  22.038  55.700  1.00  0.00    -0.361 OA
ATOM     34  H3  UNL     1      38.781  21.763  56.479  1.00  0.00     0.217 HD
ENDBRANCH  31  33
ENDBRANCH  26  27
ENDBRANCH   4  26
TORSDOF 8
ENDMDL
MODEL 5
REMARK VINA RESULT: -8.722452273      4.555      8.518
REMARK  8 active torsions:
REMARK  status: ('A' for Active; 'I' for Inactive)
REMARK    1  A    between atoms: O1_2  and  C2_3 
REMARK    2  A    between atoms: C5_6  and  N1_7 
REMARK    3  A    between atoms: C7_10  and  C8_11 
REMARK    4  A    between atoms: C8_11  and  C9_12 
REMARK    5  A    between atoms: C13_16  and  O3_17 
REMARK    6  A    between atoms: C16_22  and  N2_23 
REMARK    7  A    between atoms: N2_23  and  C17_25 
REMARK    8  A    between atoms: C21_29  and  O5_30 
ROOT
HETATM    1  N1  UNL     1      32.042  26.907  55.473  1.00  0.00    -0.260 N 
HETATM    2  C6  UNL     1      32.602  25.607  55.718  1.00  0.00     0.268 A 
HETATM    3  O2  UNL     1      32.349  24.897  56.754  1.00  0.00    -0.267 OA
HETATM    4  C7  UNL     1      33.473  25.270  54.622  1.00  0.00     0.087 A 
HETATM    5  C15 UNL     1      33.451  26.413  53.656  1.00  0.00     0.232 A 
HETATM    6  O4  UNL     1      34.100  26.457  52.583  1.00  0.00    -0.283 OA
HETATM    7  C16 UNL     1      32.552  27.380  54.244  1.00  0.00     0.168 A 
ENDROOT
BRANCH   7   8
HETATM    8  N2  UNL     1      32.243  28.523  53.740  1.00  0.00    -0.339 N 
ATOM      9  H2  UNL     1      32.900  29.283  53.914  1.00  0.00     0.167 HD
BRANCH   8  10
HETATM   10  C17 UNL     1      31.117  28.844  52.986  1.00  0.00     0.036 A 
HETATM   11  C18 UNL     1      30.382  29.992  53.155  1.00  0.00     0.029 A 
HETATM   12  C19 UNL     1      29.284  30.216  52.357  1.00  0.00     0.005 A 
HETATM   13  C20 UNL     1      28.874  29.322  51.371  1.00  0.00     0.037 A 
HETATM   14  C21 UNL     1      29.609  28.167  51.197  1.00  0.00     0.070 A 
HETATM   15  C23 UNL     1      30.704  27.965  52.008  1.00  0.00     0.066 A 
BRANCH  14  16
HETATM   16  O5  UNL     1      29.195  27.287  50.217  1.00  0.00    -0.356 OA
HETATM   17  C22 UNL     1      27.857  27.199  49.766  1.00  0.00     0.210 C 
ENDBRANCH  14  16
ENDBRANCH   8  10
ENDBRANCH   7   8
BRANCH   1  18
HETATM   18  C5  UNL     1      31.131  27.562  56.345  1.00  0.00     0.044 A 
HETATM   19  C4  UNL     1      31.672  28.123  57.496  1.00  0.00     0.033 A 
HETATM   20  C3  UNL     1      30.849  28.775  58.392  1.00  0.00     0.039 A 
HETATM   21  C2  UNL     1      29.487  28.866  58.135  1.00  0.00     0.068 A 
HETATM   22  C25 UNL     1      28.977  28.302  56.988  1.00  0.00     0.039 A 
HETATM   23  C24 UNL     1      29.803  27.648  56.087  1.00  0.00     0.033 A 
BRANCH  21  24
HETATM   24  O1  UNL     1      28.644  29.517  59.021  1.00  0.00    -0.356 OA
HETATM   25  C1  UNL     1      27.848  28.838  59.963  1.00  0.00     0.210 C 
ENDBRANCH  21  24
ENDBRANCH   1  18
BRANCH   4  26
HETATM   26  C8  UNL     1      34.180  24.173  54.405  1.00  0.00     0.032 C 
BRANCH  26  27
HETATM   27  C9  UNL     1      35.541  23.927  54.795  1.00  0.00    -0.033 A 
HETATM   28  C10 UNL     1      36.639  24.687  54.465  1.00  0.00     0.011 A 
HETATM   29  C11 UNL     1      37.919  24.360  54.864  1.00  0.00     0.004 A 
HETATM   30  C12 UNL     1      38.168  23.239  55.626  1.00  0.00     0.036 A 
HETATM   31  C13 UNL     1      37.077  22.469  55.965  1.00  0.00     0.066 A 
HETATM   32  C14 UNL     1      35.809  22.784  55.574  1.00  0.00     0.048 A 
BRANCH  31  33
HETATM   33  O3  UNL     1      37.341  21.327  56.744  1.00  0.00    -0.361 OA
ATOM     34  H3  UNL     1      37.686  20.575  56.278  1.00  0.00     0.217 HD
ENDBRANCH  31  33
ENDBRANCH  26  27
ENDBRANCH   4  26
TORSDOF 8
ENDMDL
