MODEL 1
REMARK VINA RESULT: -7.466965765      0.000      0.000
REMARK  5 active torsions:
REMARK  status: ('A' for Active; 'I' for Inactive)
REMARK    1  A    between atoms: C1_2  and  C2_3 
REMARK       I    between atoms: C2_3  and  N2_5 
REMARK    2  A    between atoms: N2_5  and  N3_7 
REMARK    3  A    between atoms: N3_7  and  C3_9 
REMARK    4  A    between atoms: C5_15  and  C6_16 
REMARK       I    between atoms: C6_16  and  N7_18 
REMARK    5  A    between atoms: N7_18  and  C7_20 
ROOT
HETATM    1  C3  UNL     1       6.763  17.346   1.815  1.00  0.00     0.303 C 
HETATM    2  N4  UNL     1       6.391  17.080   3.130  1.00  0.00    -0.290 N 
ATOM      3  H4  UNL     1       7.092  17.007   3.867  1.00  0.00     0.180 HD
HETATM    4  N5  UNL     1       5.048  16.918   3.407  1.00  0.00    -0.034 NA
HETATM    5  N6  UNL     1       4.567  17.898   4.228  1.00  0.00    -0.124 NA
HETATM    6  C4  UNL     1       3.663  18.863   3.516  1.00  0.00     0.167 C 
HETATM    7  C5  UNL     1       4.492  19.895   2.858  1.00  0.00     0.193 C 
HETATM    8  N12 UNL     1       5.077  19.418   1.578  1.00  0.00    -0.343 N 
ATOM      9  H12 UNL     1       4.990  20.096   0.820  1.00  0.00     0.163 HD
HETATM   10  C8  UNL     1       5.719  18.242   1.192  1.00  0.00     0.263 C 
HETATM   11  O3  UNL     1       5.318  17.839   0.049  1.00  0.00    -0.269 OA
ENDROOT
BRANCH   7  12
HETATM   12  C6  UNL     1       3.967  21.222   2.697  1.00  0.00     0.260 C 
HETATM   13  O2  UNL     1       2.807  21.448   3.199  1.00  0.00    -0.270 OA
HETATM   14  N7  UNL     1       4.676  22.271   2.040  1.00  0.00    -0.155 N 
ATOM     15  H7  UNL     1       5.137  22.113   1.144  1.00  0.00     0.187 HD
BRANCH  14  16
HETATM   16  C7  UNL     1       4.716  23.439   2.619  1.00  0.00     0.713 A 
HETATM   17  N8  UNL     1       5.643  23.958   3.421  1.00  0.00    -0.118 N 
HETATM   18  N9  UNL     1       5.342  25.167   3.750  1.00  0.00    -0.212 N 
ATOM     19  H8  UNL     1       6.479  23.464   3.733  1.00  0.00     0.207 HD
HETATM   20  N10 UNL     1       4.194  25.530   3.180  1.00  0.00     0.009 NA
ATOM     21  H9  UNL     1       5.904  25.761   4.359  1.00  0.00     0.206 HD
HETATM   22  N11 UNL     1       3.793  24.426   2.461  1.00  0.00    -0.113 N 
ATOM     23  H11 UNL     1       2.942  24.358   1.902  1.00  0.00     0.203 HD
ENDBRANCH  14  16
ENDBRANCH   7  12
BRANCH   1  24
HETATM   24  N3  UNL     1       8.017  17.935   1.663  1.00  0.00    -0.301 N 
ATOM     25  H3  UNL     1       8.522  18.133   2.526  1.00  0.00     0.183 HD
BRANCH  24  26
HETATM   26  N2  UNL     1       8.632  18.270   0.550  1.00  0.00    -0.268 N 
HETATM   27  C2  UNL     1       8.771  19.439  -0.168  1.00  0.00     0.272 C 
HETATM   28  O1  UNL     1       8.303  20.563   0.147  1.00  0.00    -0.266 OA
ATOM     29  H2  UNL     1       9.119  17.483   0.118  1.00  0.00     0.190 HD
BRANCH  27  30
HETATM   30  C1  UNL     1       9.551  19.401  -1.471  1.00  0.00     0.175 C 
HETATM   31  N1  UNL     1      10.210  20.569  -1.850  1.00  0.00    -0.109 NA
ENDBRANCH  27  30
ENDBRANCH  24  26
ENDBRANCH   1  24
TORSDOF 5
ENDMDL
MODEL 2
REMARK VINA RESULT: -7.359073358      1.941      2.456
REMARK  5 active torsions:
REMARK  status: ('A' for Active; 'I' for Inactive)
REMARK    1  A    between atoms: C1_2  and  C2_3 
REMARK       I    between atoms: C2_3  and  N2_5 
REMARK    2  A    between atoms: N2_5  and  N3_7 
REMARK    3  A    between atoms: N3_7  and  C3_9 
REMARK    4  A    between atoms: C5_15  and  C6_16 
REMARK       I    between atoms: C6_16  and  N7_18 
REMARK    5  A    between atoms: N7_18  and  C7_20 
ROOT
HETATM    1  C3  UNL     1       3.953  17.186   2.409  1.00  0.00     0.303 C 
HETATM    2  N4  UNL     1       4.175  17.276   3.780  1.00  0.00    -0.290 N 
ATOM      3  H4  UNL     1       4.968  16.803   4.214  1.00  0.00     0.180 HD
HETATM    4  N5  UNL     1       3.293  18.022   4.536  1.00  0.00    -0.034 NA
HETATM    5  N6  UNL     1       3.888  19.117   5.095  1.00  0.00    -0.124 NA
HETATM    6  C4  UNL     1       3.456  20.406   4.456  1.00  0.00     0.167 C 
HETATM    7  C5  UNL     1       4.280  20.639   3.252  1.00  0.00     0.193 C 
HETATM    8  N12 UNL     1       3.815  19.845   2.086  1.00  0.00    -0.343 N 
ATOM      9  H12 UNL     1       3.766  20.389   1.223  1.00  0.00     0.163 HD
HETATM   10  C8  UNL     1       3.430  18.515   1.919  1.00  0.00     0.263 C 
HETATM   11  O3  UNL     1       2.390  18.414   1.184  1.00  0.00    -0.269 OA
ENDROOT
BRANCH   7  12
HETATM   12  C6  UNL     1       4.570  21.987   2.847  1.00  0.00     0.260 C 
HETATM   13  O2  UNL     1       5.004  22.149   1.651  1.00  0.00    -0.270 OA
HETATM   14  N7  UNL     1       4.376  23.119   3.694  1.00  0.00    -0.155 N 
ATOM     15  H7  UNL     1       4.696  23.112   4.662  1.00  0.00     0.187 HD
BRANCH  14  16
HETATM   16  C7  UNL     1       3.776  24.162   3.193  1.00  0.00     0.713 A 
HETATM   17  N8  UNL     1       2.522  24.299   2.768  1.00  0.00    -0.118 N 
HETATM   18  N9  UNL     1       2.294  25.509   2.386  1.00  0.00    -0.212 N 
ATOM     19  H8  UNL     1       1.834  23.547   2.747  1.00  0.00     0.207 HD
HETATM   20  N10 UNL     1       3.386  26.256   2.540  1.00  0.00     0.009 NA
ATOM     21  H9  UNL     1       1.404  25.846   2.020  1.00  0.00     0.206 HD
HETATM   22  N11 UNL     1       4.333  25.395   3.051  1.00  0.00    -0.113 N 
ATOM     23  H11 UNL     1       5.295  25.642   3.285  1.00  0.00     0.203 HD
ENDBRANCH  14  16
ENDBRANCH   7  12
BRANCH   1  24
HETATM   24  N3  UNL     1       5.067  16.830   1.652  1.00  0.00    -0.301 N 
ATOM     25  H3  UNL     1       5.222  15.829   1.533  1.00  0.00     0.183 HD
BRANCH  24  26
HETATM   26  N2  UNL     1       5.945  17.618   1.070  1.00  0.00    -0.268 N 
HETATM   27  C2  UNL     1       7.100  18.250   1.477  1.00  0.00     0.272 C 
HETATM   28  O1  UNL     1       7.627  18.171   2.616  1.00  0.00    -0.266 OA
ATOM     29  H2  UNL     1       5.718  17.805   0.092  1.00  0.00     0.190 HD
BRANCH  27  30
HETATM   30  C1  UNL     1       7.829  19.139   0.483  1.00  0.00     0.175 C 
HETATM   31  N1  UNL     1       7.980  20.482   0.825  1.00  0.00    -0.109 NA
ENDBRANCH  27  30
ENDBRANCH  24  26
ENDBRANCH   1  24
TORSDOF 5
ENDMDL
MODEL 3
REMARK VINA RESULT: -7.358878418      1.451      1.735
REMARK  5 active torsions:
REMARK  status: ('A' for Active; 'I' for Inactive)
REMARK    1  A    between atoms: C1_2  and  C2_3 
REMARK       I    between atoms: C2_3  and  N2_5 
REMARK    2  A    between atoms: N2_5  and  N3_7 
REMARK    3  A    between atoms: N3_7  and  C3_9 
REMARK    4  A    between atoms: C5_15  and  C6_16 
REMARK       I    between atoms: C6_16  and  N7_18 
REMARK    5  A    between atoms: N7_18  and  C7_20 
ROOT
HETATM    1  C3  UNL     1       5.761  18.064   2.449  1.00  0.00     0.303 C 
HETATM    2  N4  UNL     1       5.425  17.508   3.680  1.00  0.00    -0.290 N 
ATOM      3  H4  UNL     1       6.146  17.168   4.316  1.00  0.00     0.180 HD
HETATM    4  N5  UNL     1       4.087  17.429   4.016  1.00  0.00    -0.034 NA
HETATM    5  N6  UNL     1       3.778  18.209   5.094  1.00  0.00    -0.124 NA
HETATM    6  C4  UNL     1       2.971  19.421   4.725  1.00  0.00     0.167 C 
HETATM    7  C5  UNL     1       3.891  20.489   4.283  1.00  0.00     0.193 C 
HETATM    8  N12 UNL     1       4.345  20.301   2.881  1.00  0.00    -0.343 N 
ATOM      9  H12 UNL     1       4.308  21.158   2.328  1.00  0.00     0.163 HD
HETATM   10  C8  UNL     1       4.811  19.202   2.160  1.00  0.00     0.263 C 
HETATM   11  O3  UNL     1       4.305  19.158   0.989  1.00  0.00    -0.269 OA
ENDROOT
BRANCH   7  12
HETATM   12  C6  UNL     1       3.533  21.863   4.506  1.00  0.00     0.260 C 
HETATM   13  O2  UNL     1       4.085  22.446   5.507  1.00  0.00    -0.270 OA
HETATM   14  N7  UNL     1       2.634  22.585   3.667  1.00  0.00    -0.155 N 
ATOM     15  H7  UNL     1       1.746  22.177   3.374  1.00  0.00     0.187 HD
BRANCH  14  16
HETATM   16  C7  UNL     1       2.981  23.782   3.285  1.00  0.00     0.713 A 
HETATM   17  N8  UNL     1       2.221  24.804   2.897  1.00  0.00    -0.118 N 
HETATM   18  N9  UNL     1       2.940  25.843   2.645  1.00  0.00    -0.212 N 
ATOM     19  H8  UNL     1       1.205  24.768   2.810  1.00  0.00     0.207 HD
HETATM   20  N10 UNL     1       4.228  25.577   2.856  1.00  0.00     0.009 NA
ATOM     21  H9  UNL     1       2.575  26.742   2.330  1.00  0.00     0.206 HD
HETATM   22  N11 UNL     1       4.254  24.260   3.261  1.00  0.00    -0.113 N 
ATOM     23  H11 UNL     1       5.092  23.730   3.502  1.00  0.00     0.203 HD
ENDBRANCH  14  16
ENDBRANCH   7  12
BRANCH   1  24
HETATM   24  N3  UNL     1       7.071  18.530   2.349  1.00  0.00    -0.301 N 
ATOM     25  H3  UNL     1       7.462  18.940   3.196  1.00  0.00     0.183 HD
BRANCH  24  26
HETATM   26  N2  UNL     1       7.868  18.508   1.303  1.00  0.00    -0.268 N 
HETATM   27  C2  UNL     1       8.287  19.446   0.384  1.00  0.00     0.272 C 
HETATM   28  O1  UNL     1       7.976  20.665   0.373  1.00  0.00    -0.266 OA
ATOM     29  H2  UNL     1       8.267  17.584   1.132  1.00  0.00     0.190 HD
BRANCH  27  30
HETATM   30  C1  UNL     1       9.207  18.999  -0.740  1.00  0.00     0.175 C 
HETATM   31  N1  UNL     1       9.799  19.998  -1.511  1.00  0.00    -0.109 NA
ENDBRANCH  27  30
ENDBRANCH  24  26
ENDBRANCH   1  24
TORSDOF 5
ENDMDL
MODEL 4
REMARK VINA RESULT: -7.311310231      3.075      7.318
REMARK  5 active torsions:
REMARK  status: ('A' for Active; 'I' for Inactive)
REMARK    1  A    between atoms: C1_2  and  C2_3 
REMARK       I    between atoms: C2_3  and  N2_5 
REMARK    2  A    between atoms: N2_5  and  N3_7 
REMARK    3  A    between atoms: N3_7  and  C3_9 
REMARK    4  A    between atoms: C5_15  and  C6_16 
REMARK       I    between atoms: C6_16  and  N7_18 
REMARK    5  A    between atoms: N7_18  and  C7_20 
ROOT
HETATM    1  C3  UNL     1       2.652  23.854   5.469  1.00  0.00     0.303 C 
HETATM    2  N4  UNL     1       3.826  24.572   5.258  1.00  0.00    -0.290 N 
ATOM      3  H4  UNL     1       4.449  24.796   6.034  1.00  0.00     0.180 HD
HETATM    4  N5  UNL     1       4.124  24.973   3.970  1.00  0.00    -0.034 NA
HETATM    5  N6  UNL     1       5.253  24.374   3.489  1.00  0.00    -0.124 NA
HETATM    6  C4  UNL     1       4.964  23.345   2.435  1.00  0.00     0.167 C 
HETATM    7  C5  UNL     1       4.632  22.066   3.097  1.00  0.00     0.193 C 
HETATM    8  N12 UNL     1       3.230  22.031   3.588  1.00  0.00    -0.343 N 
ATOM      9  H12 UNL     1       2.748  21.160   3.364  1.00  0.00     0.163 HD
HETATM   10  C8  UNL     1       2.434  22.934   4.291  1.00  0.00     0.263 C 
HETATM   11  O3  UNL     1       1.251  22.991   3.813  1.00  0.00    -0.269 OA
ENDROOT
BRANCH   7  12
HETATM   12  C6  UNL     1       4.957  20.829   2.441  1.00  0.00     0.260 C 
HETATM   13  O2  UNL     1       5.336  20.907   1.218  1.00  0.00    -0.270 OA
HETATM   14  N7  UNL     1       4.897  19.559   3.089  1.00  0.00    -0.155 N 
ATOM     15  H7  UNL     1       4.091  19.296   3.656  1.00  0.00     0.187 HD
BRANCH  14  16
HETATM   16  C7  UNL     1       5.902  18.745   2.933  1.00  0.00     0.713 A 
HETATM   17  N8  UNL     1       5.980  17.436   3.165  1.00  0.00    -0.118 N 
HETATM   18  N9  UNL     1       7.139  16.978   2.837  1.00  0.00    -0.212 N 
ATOM     19  H8  UNL     1       5.223  16.872   3.552  1.00  0.00     0.207 HD
HETATM   20  N10 UNL     1       7.905  17.957   2.359  1.00  0.00     0.009 NA
ATOM     21  H9  UNL     1       7.428  16.004   2.929  1.00  0.00     0.206 HD
HETATM   22  N11 UNL     1       7.117  19.085   2.424  1.00  0.00    -0.113 N 
ATOM     23  H11 UNL     1       7.398  20.023   2.137  1.00  0.00     0.203 HD
ENDBRANCH  14  16
ENDBRANCH   7  12
BRANCH   1  24
HETATM   24  N3  UNL     1       2.621  23.103   6.642  1.00  0.00    -0.301 N 
ATOM     25  H3  UNL     1       1.730  22.657   6.860  1.00  0.00     0.183 HD
BRANCH  24  26
HETATM   26  N2  UNL     1       3.592  22.895   7.505  1.00  0.00    -0.268 N 
HETATM   27  C2  UNL     1       4.836  22.305   7.440  1.00  0.00     0.272 C 
HETATM   28  O1  UNL     1       5.370  21.811   6.415  1.00  0.00    -0.266 OA
ATOM     29  H2  UNL     1       3.374  23.251   8.436  1.00  0.00     0.190 HD
BRANCH  27  30
HETATM   30  C1  UNL     1       5.665  22.221   8.710  1.00  0.00     0.175 C 
HETATM   31  N1  UNL     1       6.032  20.949   9.146  1.00  0.00    -0.109 NA
ENDBRANCH  27  30
ENDBRANCH  24  26
ENDBRANCH   1  24
TORSDOF 5
ENDMDL
MODEL 5
REMARK VINA RESULT: -7.264553202      2.878      6.402
REMARK  5 active torsions:
REMARK  status: ('A' for Active; 'I' for Inactive)
REMARK    1  A    between atoms: C1_2  and  C2_3 
REMARK       I    between atoms: C2_3  and  N2_5 
REMARK    2  A    between atoms: N2_5  and  N3_7 
REMARK    3  A    between atoms: N3_7  and  C3_9 
REMARK    4  A    between atoms: C5_15  and  C6_16 
REMARK       I    between atoms: C6_16  and  N7_18 
REMARK    5  A    between atoms: N7_18  and  C7_20 
ROOT
HETATM    1  C3  UNL     1       3.492  22.872   6.594  1.00  0.00     0.303 C 
HETATM    2  N4  UNL     1       2.270  22.206   6.573  1.00  0.00    -0.290 N 
ATOM      3  H4  UNL     1       1.406  22.705   6.363  1.00  0.00     0.180 HD
HETATM    4  N5  UNL     1       2.261  20.851   6.845  1.00  0.00    -0.034 NA
HETATM    5  N6  UNL     1       1.867  20.110   5.767  1.00  0.00    -0.124 NA
HETATM    6  C4  UNL     1       2.997  19.342   5.143  1.00  0.00     0.167 C 
HETATM    7  C5  UNL     1       3.714  20.230   4.203  1.00  0.00     0.193 C 
HETATM    8  N12 UNL     1       4.653  21.148   4.898  1.00  0.00    -0.343 N 
ATOM      9  H12 UNL     1       5.567  21.202   4.448  1.00  0.00     0.163 HD
HETATM   10  C8  UNL     1       4.551  21.952   6.032  1.00  0.00     0.263 C 
HETATM   11  O3  UNL     1       5.599  21.879   6.758  1.00  0.00    -0.269 OA
ENDROOT
BRANCH   7  12
HETATM   12  C6  UNL     1       4.344  19.664   3.042  1.00  0.00     0.260 C 
HETATM   13  O2  UNL     1       3.751  19.848   1.919  1.00  0.00    -0.270 OA
HETATM   14  N7  UNL     1       5.577  18.949   3.090  1.00  0.00    -0.155 N 
ATOM     15  H7  UNL     1       5.741  18.230   3.794  1.00  0.00     0.187 HD
BRANCH  14  16
HETATM   16  C7  UNL     1       6.489  19.243   2.205  1.00  0.00     0.713 A 
HETATM   17  N8  UNL     1       6.747  20.401   1.603  1.00  0.00    -0.118 N 
HETATM   18  N9  UNL     1       7.768  20.298   0.824  1.00  0.00    -0.212 N 
ATOM     19  H8  UNL     1       6.209  21.257   1.741  1.00  0.00     0.207 HD
HETATM   20  N10 UNL     1       8.257  19.060   0.863  1.00  0.00     0.009 NA
ATOM     21  H9  UNL     1       8.148  21.057   0.258  1.00  0.00     0.206 HD
HETATM   22  N11 UNL     1       7.438  18.385   1.742  1.00  0.00    -0.113 N 
ATOM     23  H11 UNL     1       7.528  17.403   2.003  1.00  0.00     0.203 HD
ENDBRANCH  14  16
ENDBRANCH   7  12
BRANCH   1  24
HETATM   24  N3  UNL     1       3.521  24.076   5.894  1.00  0.00    -0.301 N 
ATOM     25  H3  UNL     1       3.718  24.908   6.450  1.00  0.00     0.183 HD
BRANCH  24  26
HETATM   26  N2  UNL     1       3.327  24.279   4.609  1.00  0.00    -0.268 N 
HETATM   27  C2  UNL     1       4.084  24.810   3.587  1.00  0.00     0.272 C 
HETATM   28  O1  UNL     1       5.264  25.234   3.680  1.00  0.00    -0.266 OA
ATOM     29  H2  UNL     1       2.404  23.974   4.298  1.00  0.00     0.190 HD
BRANCH  27  30
HETATM   30  C1  UNL     1       3.463  24.913   2.204  1.00  0.00     0.175 C 
HETATM   31  N1  UNL     1       2.994  26.165   1.810  1.00  0.00    -0.109 NA
ENDBRANCH  27  30
ENDBRANCH  24  26
ENDBRANCH   1  24
TORSDOF 5
ENDMDL
