MODEL 1
REMARK VINA RESULT: -7.519690744      0.000      0.000
REMARK  6 active torsions:
REMARK  status: ('A' for Active; 'I' for Inactive)
REMARK       I    between atoms: C1_4  and  N3_6 
REMARK    1  A    between atoms: N3_6  and  N4_8 
REMARK    2  A    between atoms: N4_8  and  C2_10 
REMARK    3  A    between atoms: C4_16  and  N7_17 
REMARK    4  A    between atoms: N7_17  and  C5_19 
REMARK    5  A    between atoms: C5_19  and  C6_20 
REMARK    6  A    between atoms: N10_30  and  O4_31 
ROOT
HETATM    1  C2  UNL     1       3.162  22.939   5.435  1.00  0.00     0.728 A 
HETATM    2  N5  UNL     1       2.304  23.064   6.474  1.00  0.00    -0.171 N 
ATOM      3  H5  UNL     1       1.344  23.358   6.298  1.00  0.00     0.186 HD
HETATM    4  C3  UNL     1       2.701  22.803   7.750  1.00  0.00     0.158 A 
HETATM    5  N6  UNL     1       1.835  22.933   8.769  1.00  0.00    -0.175 N 
ATOM      6  H6  UNL     1       0.879  23.229   8.572  1.00  0.00     0.186 HD
HETATM    7  C4  UNL     1       2.195  22.683  10.048  1.00  0.00     0.683 A 
HETATM    8  N9  UNL     1       3.465  22.296  10.269  1.00  0.00    -0.155 N 
ATOM      9  H9  UNL     1       3.752  22.105  11.229  1.00  0.00     0.187 HD
HETATM   10  C7  UNL     1       4.375  22.148   9.294  1.00  0.00     0.279 A 
HETATM   11  O2  UNL     1       5.558  21.786   9.511  1.00  0.00    -0.266 OA
HETATM   12  C8  UNL     1       3.997  22.405   7.996  1.00  0.00     0.148 A 
HETATM   13  C9  UNL     1       4.869  22.279   6.939  1.00  0.00     0.307 A 
HETATM   14  O3  UNL     1       6.047  21.924   7.112  1.00  0.00    -0.264 OA
HETATM   15  N10 UNL     1       4.425  22.552   5.674  1.00  0.00    -0.011 N 
ENDROOT
BRANCH   1  16
HETATM   16  N4  UNL     1       2.800  23.182   4.224  1.00  0.00    -0.127 N 
ATOM     17  H4  UNL     1       2.856  22.400   3.571  1.00  0.00     0.205 HD
BRANCH  16  18
HETATM   18  N3  UNL     1       2.348  24.367   3.711  1.00  0.00    -0.259 N 
HETATM   19  C1  UNL     1       3.260  25.258   3.093  1.00  0.00     0.201 C 
HETATM   20  N1  UNL     1       2.834  26.242   2.391  1.00  0.00    -0.372 N 
HETATM   21  N2  UNL     1       4.680  25.054   3.260  1.00  0.00    -0.062 NA
ATOM     22  H12 UNL     1       3.490  26.883   1.946  1.00  0.00     0.158 HD
ATOM     23  H11 UNL     1       1.831  26.386   2.273  1.00  0.00     0.158 HD
ATOM     24  H3  UNL     1       1.358  24.608   3.772  1.00  0.00     0.190 HD
ENDBRANCH  16  18
ENDBRANCH   1  16
BRANCH  15  25
HETATM   25  O4  UNL     1       5.281  22.428   4.618  1.00  0.00    -0.266 OA
ATOM     26  H4  UNL     1       5.563  23.216   4.169  1.00  0.00     0.246 HD
ENDBRANCH  15  25
BRANCH   7  27
HETATM   27  N7  UNL     1       1.310  22.832  10.945  1.00  0.00    -0.217 N 
ATOM     28  H7  UNL     1       1.469  22.333  11.821  1.00  0.00     0.178 HD
BRANCH  27  29
HETATM   29  C5  UNL     1       0.123  23.613  10.873  1.00  0.00     0.237 C 
BRANCH  29  30
HETATM   30  C6  UNL     1       0.313  24.930  11.577  1.00  0.00     0.249 C 
HETATM   31  N8  UNL     1       0.809  24.921  12.915  1.00  0.00    -0.061 NA
HETATM   32  O1  UNL     1       0.034  25.975  10.974  1.00  0.00    -0.275 OA
ENDBRANCH  29  30
ENDBRANCH  27  29
ENDBRANCH   7  27
TORSDOF 6
ENDMDL
MODEL 2
REMARK VINA RESULT: -7.454970613      1.247      1.256
REMARK  6 active torsions:
REMARK  status: ('A' for Active; 'I' for Inactive)
REMARK       I    between atoms: C1_4  and  N3_6 
REMARK    1  A    between atoms: N3_6  and  N4_8 
REMARK    2  A    between atoms: N4_8  and  C2_10 
REMARK    3  A    between atoms: C4_16  and  N7_17 
REMARK    4  A    between atoms: N7_17  and  C5_19 
REMARK    5  A    between atoms: C5_19  and  C6_20 
REMARK    6  A    between atoms: N10_30  and  O4_31 
ROOT
HETATM    1  C2  UNL     1       3.186  22.882   5.391  1.00  0.00     0.728 A 
HETATM    2  N5  UNL     1       2.328  22.925   6.437  1.00  0.00    -0.171 N 
ATOM      3  H5  UNL     1       1.349  23.162   6.272  1.00  0.00     0.186 HD
HETATM    4  C3  UNL     1       2.747  22.659   7.704  1.00  0.00     0.158 A 
HETATM    5  N6  UNL     1       1.881  22.707   8.729  1.00  0.00    -0.175 N 
ATOM      6  H6  UNL     1       0.907  22.946   8.544  1.00  0.00     0.186 HD
HETATM    7  C4  UNL     1       2.263  22.448  10.000  1.00  0.00     0.683 A 
HETATM    8  N9  UNL     1       3.556  22.138  10.205  1.00  0.00    -0.155 N 
ATOM      9  H9  UNL     1       3.860  21.941  11.159  1.00  0.00     0.187 HD
HETATM   10  C7  UNL     1       4.469  22.074   9.223  1.00  0.00     0.279 A 
HETATM   11  O2  UNL     1       5.674  21.783   9.426  1.00  0.00    -0.266 OA
HETATM   12  C8  UNL     1       4.068  22.339   7.934  1.00  0.00     0.148 A 
HETATM   13  C9  UNL     1       4.940  22.295   6.870  1.00  0.00     0.307 A 
HETATM   14  O3  UNL     1       6.139  22.012   7.030  1.00  0.00    -0.264 OA
HETATM   15  N10 UNL     1       4.472  22.571   5.615  1.00  0.00    -0.011 N 
ENDROOT
BRANCH   1  16
HETATM   16  N4  UNL     1       2.802  23.131   4.188  1.00  0.00    -0.127 N 
ATOM     17  H4  UNL     1       2.868  22.360   3.524  1.00  0.00     0.205 HD
BRANCH  16  18
HETATM   18  N3  UNL     1       2.316  24.312   3.696  1.00  0.00    -0.259 N 
HETATM   19  C1  UNL     1       3.180  25.191   2.996  1.00  0.00     0.201 C 
HETATM   20  N1  UNL     1       2.704  26.167   2.317  1.00  0.00    -0.372 N 
HETATM   21  N2  UNL     1       4.607  24.982   3.054  1.00  0.00    -0.062 NA
ATOM     22  H12 UNL     1       3.325  26.799   1.813  1.00  0.00     0.158 HD
ATOM     23  H11 UNL     1       1.695  26.315   2.276  1.00  0.00     0.158 HD
ATOM     24  H3  UNL     1       1.335  24.559   3.832  1.00  0.00     0.190 HD
ENDBRANCH  16  18
ENDBRANCH   1  16
BRANCH  15  25
HETATM   25  O4  UNL     1       5.328  22.529   4.552  1.00  0.00    -0.266 OA
ATOM     26  H4  UNL     1       6.082  21.952   4.599  1.00  0.00     0.246 HD
ENDBRANCH  15  25
BRANCH   7  27
HETATM   27  N7  UNL     1       1.375  22.518  10.904  1.00  0.00    -0.217 N 
ATOM     28  H7  UNL     1       0.552  23.077  10.683  1.00  0.00     0.178 HD
BRANCH  27  29
HETATM   29  C5  UNL     1       1.394  21.908  12.189  1.00  0.00     0.237 C 
BRANCH  29  30
HETATM   30  C6  UNL     1       1.718  22.924  13.252  1.00  0.00     0.249 C 
HETATM   31  N8  UNL     1       2.606  22.549  14.303  1.00  0.00    -0.061 NA
HETATM   32  O1  UNL     1       1.203  24.049  13.179  1.00  0.00    -0.275 OA
ENDBRANCH  29  30
ENDBRANCH  27  29
ENDBRANCH   7  27
TORSDOF 6
ENDMDL
MODEL 3
REMARK VINA RESULT: -7.176567239      1.497      6.489
REMARK  6 active torsions:
REMARK  status: ('A' for Active; 'I' for Inactive)
REMARK       I    between atoms: C1_4  and  N3_6 
REMARK    1  A    between atoms: N3_6  and  N4_8 
REMARK    2  A    between atoms: N4_8  and  C2_10 
REMARK    3  A    between atoms: C4_16  and  N7_17 
REMARK    4  A    between atoms: N7_17  and  C5_19 
REMARK    5  A    between atoms: C5_19  and  C6_20 
REMARK    6  A    between atoms: N10_30  and  O4_31 
ROOT
HETATM    1  C2  UNL     1       2.088  22.830   9.447  1.00  0.00     0.728 A 
HETATM    2  N5  UNL     1       1.994  22.896   8.098  1.00  0.00    -0.171 N 
ATOM      3  H5  UNL     1       1.096  23.121   7.669  1.00  0.00     0.186 HD
HETATM    4  C3  UNL     1       3.075  22.667   7.304  1.00  0.00     0.158 A 
HETATM    5  N6  UNL     1       2.963  22.737   5.967  1.00  0.00    -0.175 N 
ATOM      6  H6  UNL     1       2.056  22.963   5.558  1.00  0.00     0.186 HD
HETATM    7  C4  UNL     1       4.016  22.515   5.149  1.00  0.00     0.683 A 
HETATM    8  N9  UNL     1       5.195  22.218   5.725  1.00  0.00    -0.155 N 
ATOM      9  H9  UNL     1       5.999  22.047   5.121  1.00  0.00     0.187 HD
HETATM   10  C7  UNL     1       5.371  22.133   7.053  1.00  0.00     0.279 A 
HETATM   11  O2  UNL     1       6.476  21.855   7.581  1.00  0.00    -0.266 OA
HETATM   12  C8  UNL     1       4.292  22.361   7.876  1.00  0.00     0.148 A 
HETATM   13  C9  UNL     1       4.387  22.294   9.247  1.00  0.00     0.307 A 
HETATM   14  O3  UNL     1       5.462  22.021   9.807  1.00  0.00    -0.264 OA
HETATM   15  N10 UNL     1       3.273  22.531  10.003  1.00  0.00    -0.011 N 
ENDROOT
BRANCH   1  16
HETATM   16  N4  UNL     1       1.074  23.044  10.208  1.00  0.00    -0.127 N 
ATOM     17  H4  UNL     1       0.636  22.220  10.619  1.00  0.00     0.205 HD
BRANCH  16  18
HETATM   18  N3  UNL     1       0.513  24.250  10.531  1.00  0.00    -0.259 N 
HETATM   19  C1  UNL     1       0.650  24.759  11.847  1.00  0.00     0.201 C 
HETATM   20  N1  UNL     1       0.359  25.980  12.105  1.00  0.00    -0.372 N 
HETATM   21  N2  UNL     1       1.120  23.892  12.901  1.00  0.00    -0.062 NA
ATOM     22  H12 UNL     1       0.458  26.347  13.051  1.00  0.00     0.158 HD
ATOM     23  H11 UNL     1       0.027  26.593  11.359  1.00  0.00     0.158 HD
ATOM     24  H3  UNL     1      -0.001  24.781   9.827  1.00  0.00     0.190 HD
ENDBRANCH  16  18
ENDBRANCH   1  16
BRANCH  15  25
HETATM   25  O4  UNL     1       3.356  22.469  11.365  1.00  0.00    -0.266 OA
ATOM     26  H4  UNL     1       4.000  21.889  11.753  1.00  0.00     0.246 HD
ENDBRANCH  15  25
BRANCH   7  27
HETATM   27  N7  UNL     1       3.815  22.603   3.899  1.00  0.00    -0.217 N 
ATOM     28  H7  UNL     1       3.009  22.093   3.536  1.00  0.00     0.178 HD
BRANCH  27  29
HETATM   29  C5  UNL     1       4.581  23.329   2.944  1.00  0.00     0.237 C 
BRANCH  29  30
HETATM   30  C6  UNL     1       4.589  24.797   3.280  1.00  0.00     0.249 C 
HETATM   31  N8  UNL     1       3.428  25.569   2.980  1.00  0.00    -0.061 NA
HETATM   32  O1  UNL     1       5.601  25.284   3.803  1.00  0.00    -0.275 OA
ENDBRANCH  29  30
ENDBRANCH  27  29
ENDBRANCH   7  27
TORSDOF 6
ENDMDL
MODEL 4
REMARK VINA RESULT: -7.151260452      5.100      8.206
REMARK  6 active torsions:
REMARK  status: ('A' for Active; 'I' for Inactive)
REMARK       I    between atoms: C1_4  and  N3_6 
REMARK    1  A    between atoms: N3_6  and  N4_8 
REMARK    2  A    between atoms: N4_8  and  C2_10 
REMARK    3  A    between atoms: C4_16  and  N7_17 
REMARK    4  A    between atoms: N7_17  and  C5_19 
REMARK    5  A    between atoms: C5_19  and  C6_20 
REMARK    6  A    between atoms: N10_30  and  O4_31 
ROOT
HETATM    1  C2  UNL     1       2.812  22.318   4.045  1.00  0.00     0.728 A 
HETATM    2  N5  UNL     1       4.021  21.809   3.711  1.00  0.00    -0.171 N 
ATOM      3  H5  UNL     1       4.854  22.387   3.818  1.00  0.00     0.186 HD
HETATM    4  C3  UNL     1       4.143  20.540   3.234  1.00  0.00     0.158 A 
HETATM    5  N6  UNL     1       5.351  20.052   2.906  1.00  0.00    -0.175 N 
ATOM      6  H6  UNL     1       6.172  20.645   3.021  1.00  0.00     0.186 HD
HETATM    7  C4  UNL     1       5.508  18.796   2.430  1.00  0.00     0.683 A 
HETATM    8  N9  UNL     1       4.401  18.044   2.292  1.00  0.00    -0.155 N 
ATOM      9  H9  UNL     1       4.504  17.095   1.932  1.00  0.00     0.187 HD
HETATM   10  C7  UNL     1       3.168  18.475   2.601  1.00  0.00     0.279 A 
HETATM   11  O2  UNL     1       2.141  17.763   2.468  1.00  0.00    -0.266 OA
HETATM   12  C8  UNL     1       3.020  19.754   3.086  1.00  0.00     0.148 A 
HETATM   13  C9  UNL     1       1.791  20.273   3.426  1.00  0.00     0.307 A 
HETATM   14  O3  UNL     1       0.753  19.601   3.309  1.00  0.00    -0.264 OA
HETATM   15  N10 UNL     1       1.719  21.553   3.901  1.00  0.00    -0.011 N 
ENDROOT
BRANCH   1  16
HETATM   16  N4  UNL     1       2.683  23.516   4.498  1.00  0.00    -0.127 N 
ATOM     17  H4  UNL     1       2.837  23.639   5.498  1.00  0.00     0.205 HD
BRANCH  16  18
HETATM   18  N3  UNL     1       2.363  24.644   3.792  1.00  0.00    -0.259 N 
HETATM   19  C1  UNL     1       3.381  25.364   3.118  1.00  0.00     0.201 C 
HETATM   20  N1  UNL     1       3.080  26.263   2.256  1.00  0.00    -0.372 N 
HETATM   21  N2  UNL     1       4.766  25.079   3.408  1.00  0.00    -0.062 NA
ATOM     22  H12 UNL     1       3.813  26.780   1.771  1.00  0.00     0.158 HD
ATOM     23  H11 UNL     1       2.101  26.464   2.052  1.00  0.00     0.158 HD
ATOM     24  H3  UNL     1       1.396  24.966   3.752  1.00  0.00     0.190 HD
ENDBRANCH  16  18
ENDBRANCH   1  16
BRANCH  15  25
HETATM   25  O4  UNL     1       0.505  22.077   4.242  1.00  0.00    -0.266 OA
ATOM     26  H4  UNL     1      -0.192  22.064   3.598  1.00  0.00     0.246 HD
ENDBRANCH  15  25
BRANCH   7  27
HETATM   27  N7  UNL     1       6.687  18.421   2.147  1.00  0.00    -0.217 N 
ATOM     28  H7  UNL     1       7.326  18.314   2.936  1.00  0.00     0.178 HD
BRANCH  27  29
HETATM   29  C5  UNL     1       7.223  18.133   0.861  1.00  0.00     0.237 C 
BRANCH  29  30
HETATM   30  C6  UNL     1       8.107  19.258   0.393  1.00  0.00     0.249 C 
HETATM   31  N8  UNL     1       9.080  18.984  -0.614  1.00  0.00    -0.061 NA
HETATM   32  O1  UNL     1       7.961  20.381   0.895  1.00  0.00    -0.275 OA
ENDBRANCH  29  30
ENDBRANCH  27  29
ENDBRANCH   7  27
TORSDOF 6
ENDMDL
MODEL 5
REMARK VINA RESULT: -7.054334620      5.829      8.188
REMARK  6 active torsions:
REMARK  status: ('A' for Active; 'I' for Inactive)
REMARK       I    between atoms: C1_4  and  N3_6 
REMARK    1  A    between atoms: N3_6  and  N4_8 
REMARK    2  A    between atoms: N4_8  and  C2_10 
REMARK    3  A    between atoms: C4_16  and  N7_17 
REMARK    4  A    between atoms: N7_17  and  C5_19 
REMARK    5  A    between atoms: C5_19  and  C6_20 
REMARK    6  A    between atoms: N10_30  and  O4_31 
ROOT
HETATM    1  C2  UNL     1       5.553  20.660   2.155  1.00  0.00     0.728 A 
HETATM    2  N5  UNL     1       5.205  19.547   2.841  1.00  0.00    -0.171 N 
ATOM      3  H5  UNL     1       4.380  19.565   3.440  1.00  0.00     0.186 HD
HETATM    4  C3  UNL     1       5.936  18.403   2.745  1.00  0.00     0.158 A 
HETATM    5  N6  UNL     1       5.575  17.307   3.433  1.00  0.00    -0.175 N 
ATOM      6  H6  UNL     1       4.747  17.346   4.028  1.00  0.00     0.186 HD
HETATM    7  C4  UNL     1       6.277  16.154   3.361  1.00  0.00     0.683 A 
HETATM    8  N9  UNL     1       7.364  16.141   2.568  1.00  0.00    -0.155 N 
ATOM      9  H9  UNL     1       7.906  15.279   2.505  1.00  0.00     0.187 HD
HETATM   10  C7  UNL     1       7.776  17.202   1.856  1.00  0.00     0.279 A 
HETATM   11  O2  UNL     1       8.792  17.179   1.118  1.00  0.00    -0.266 OA
HETATM   12  C8  UNL     1       7.052  18.369   1.937  1.00  0.00     0.148 A 
HETATM   13  C9  UNL     1       7.406  19.502   1.240  1.00  0.00     0.307 A 
HETATM   14  O3  UNL     1       8.404  19.520   0.500  1.00  0.00    -0.264 OA
HETATM   15  N10 UNL     1       6.641  20.628   1.368  1.00  0.00    -0.011 N 
ENDROOT
BRANCH   1  16
HETATM   16  N4  UNL     1       4.871  21.748   2.237  1.00  0.00    -0.127 N 
ATOM     17  H4  UNL     1       3.907  21.701   1.907  1.00  0.00     0.205 HD
BRANCH  16  18
HETATM   18  N3  UNL     1       5.288  22.961   2.715  1.00  0.00    -0.259 N 
HETATM   19  C1  UNL     1       4.914  23.367   4.020  1.00  0.00     0.201 C 
HETATM   20  N1  UNL     1       5.490  24.366   4.579  1.00  0.00    -0.372 N 
HETATM   21  N2  UNL     1       3.878  22.648   4.721  1.00  0.00    -0.062 NA
ATOM     22  H12 UNL     1       5.222  24.658   5.518  1.00  0.00     0.158 HD
ATOM     23  H11 UNL     1       6.223  24.875   4.084  1.00  0.00     0.158 HD
ATOM     24  H3  UNL     1       5.865  23.570   2.134  1.00  0.00     0.190 HD
ENDBRANCH  16  18
ENDBRANCH   1  16
BRANCH  15  25
HETATM   25  O4  UNL     1       6.982  21.757   0.681  1.00  0.00    -0.266 OA
ATOM     26  H4  UNL     1       7.797  22.192   0.899  1.00  0.00     0.246 HD
ENDBRANCH  15  25
BRANCH   7  27
HETATM   27  N7  UNL     1       5.861  15.171   4.047  1.00  0.00    -0.217 N 
ATOM     28  H7  UNL     1       6.499  14.380   4.132  1.00  0.00     0.178 HD
BRANCH  27  29
HETATM   29  C5  UNL     1       4.610  15.043   4.712  1.00  0.00     0.237 C 
BRANCH  29  30
HETATM   30  C6  UNL     1       4.720  15.505   6.141  1.00  0.00     0.249 C 
HETATM   31  N8  UNL     1       4.220  16.797   6.478  1.00  0.00    -0.061 NA
HETATM   32  O1  UNL     1       5.241  14.750   6.973  1.00  0.00    -0.275 OA
ENDBRANCH  29  30
ENDBRANCH  27  29
ENDBRANCH   7  27
TORSDOF 6
ENDMDL
