MODEL 1
REMARK VINA RESULT: -6.845308770      0.000      0.000
REMARK  7 active torsions:
REMARK  status: ('A' for Active; 'I' for Inactive)
REMARK    1  A    between atoms: N1_1  and  C1_5 
REMARK    2  A    between atoms: C1_5  and  C2_6 
REMARK       I    between atoms: C2_6  and  N2_8 
REMARK    3  A    between atoms: N2_8  and  C3_10 
REMARK    4  A    between atoms: C4_13  and  N5_14 
REMARK    5  A    between atoms: N6_17  and  N7_18 
REMARK       I    between atoms: N7_18  and  C7_20 
REMARK    6  A    between atoms: C10_25  and  O3_26 
REMARK    7  A    between atoms: C10_25  and  O4_28 
ROOT
HETATM    1  C3  UNL     1       4.672  22.022   2.939  1.00  0.00     0.261 C 
HETATM    2  N3  UNL     1       5.034  21.760   1.592  1.00  0.00    -0.115 NA
HETATM    3  N4  UNL     1       5.337  20.440   1.426  1.00  0.00    -0.115 NA
HETATM    4  C4  UNL     1       5.115  19.776   2.718  1.00  0.00     0.260 C 
HETATM    5  C10 UNL     1       4.081  20.677   3.371  1.00  0.00     0.234 C 
ENDROOT
BRANCH   4   6
HETATM    6  N5  UNL     1       4.768  18.457   2.506  1.00  0.00    -0.363 N 
HETATM    7  C5  UNL     1       4.797  17.470   3.482  1.00  0.00     0.106 C 
HETATM    8  C6  UNL     1       5.663  16.253   3.205  1.00  0.00     0.127 C 
HETATM    9  N6  UNL     1       5.875  16.010   1.838  1.00  0.00    -0.297 N 
HETATM   10  C8  UNL     1       4.810  16.534   0.990  1.00  0.00     0.168 C 
HETATM   11  C9  UNL     1       4.816  18.041   1.159  1.00  0.00     0.146 C 
BRANCH   9  12
HETATM   12  N7  UNL     1       7.090  16.183   1.275  1.00  0.00    -0.252 N 
HETATM   13  C7  UNL     1       8.229  16.912   1.651  1.00  0.00     0.347 C 
HETATM   14  N8  UNL     1       9.423  16.921   0.840  1.00  0.00    -0.038 NA
HETATM   15  O2  UNL     1       8.306  17.592   2.688  1.00  0.00    -0.249 OA
ATOM     16  H7  UNL     1       7.203  15.680   0.395  1.00  0.00     0.191 HD
ENDBRANCH   9  12
ENDBRANCH   4   6
BRANCH   5  17
HETATM   17  O3  UNL     1       4.119  20.630   4.743  1.00  0.00    -0.360 OA
ATOM     18  H3  UNL     1       3.365  21.108   5.068  1.00  0.00     0.213 HD
ENDBRANCH   5  17
BRANCH   5  19
HETATM   19  O4  UNL     1       2.860  20.440   2.808  1.00  0.00    -0.360 OA
ATOM     20  H4  UNL     1       2.144  20.754   3.349  1.00  0.00     0.213 HD
ENDBRANCH   5  19
BRANCH   1  21
HETATM   21  N2  UNL     1       3.747  23.116   3.085  1.00  0.00    -0.335 N 
HETATM   22  C2  UNL     1       4.244  24.398   3.395  1.00  0.00     0.244 C 
HETATM   23  O1  UNL     1       5.473  24.567   3.545  1.00  0.00    -0.272 OA
ATOM     24  H2  UNL     1       2.745  22.966   2.965  1.00  0.00     0.164 HD
BRANCH  22  25
HETATM   25  C1  UNL     1       3.329  25.540   3.543  1.00  0.00     0.332 C 
BRANCH  25  26
HETATM   26  N1  UNL     1       2.798  26.001   2.272  1.00  0.00    -0.071 N 
ATOM     27  H13 UNL     1       3.377  25.680   1.496  1.00  0.00     0.274 HD
ATOM     28  H12 UNL     1       1.930  25.517   2.041  1.00  0.00     0.274 HD
ATOM     29  H11 UNL     1       2.673  27.012   2.242  1.00  0.00     0.274 HD
ENDBRANCH  25  26
ENDBRANCH  22  25
ENDBRANCH   1  21
TORSDOF 7
ENDMDL
MODEL 2
REMARK VINA RESULT: -6.558125710      2.261      6.674
REMARK  7 active torsions:
REMARK  status: ('A' for Active; 'I' for Inactive)
REMARK    1  A    between atoms: N1_1  and  C1_5 
REMARK    2  A    between atoms: C1_5  and  C2_6 
REMARK       I    between atoms: C2_6  and  N2_8 
REMARK    3  A    between atoms: N2_8  and  C3_10 
REMARK    4  A    between atoms: C4_13  and  N5_14 
REMARK    5  A    between atoms: N6_17  and  N7_18 
REMARK       I    between atoms: N7_18  and  C7_20 
REMARK    6  A    between atoms: C10_25  and  O3_26 
REMARK    7  A    between atoms: C10_25  and  O4_28 
ROOT
HETATM    1  C3  UNL     1       4.199  19.069   2.134  1.00  0.00     0.261 C 
HETATM    2  N3  UNL     1       2.877  19.153   1.623  1.00  0.00    -0.115 NA
HETATM    3  N4  UNL     1       2.019  19.593   2.589  1.00  0.00    -0.115 NA
HETATM    4  C4  UNL     1       2.819  19.867   3.791  1.00  0.00     0.260 C 
HETATM    5  C10 UNL     1       4.190  20.160   3.207  1.00  0.00     0.234 C 
ENDROOT
BRANCH   4   6
HETATM    6  N5  UNL     1       2.215  20.864   4.531  1.00  0.00    -0.363 N 
HETATM    7  C5  UNL     1       1.239  21.723   4.045  1.00  0.00     0.106 C 
HETATM    8  C6  UNL     1       1.533  23.212   4.121  1.00  0.00     0.127 C 
HETATM    9  N6  UNL     1       2.449  23.556   5.128  1.00  0.00    -0.297 N 
HETATM   10  C8  UNL     1       2.470  22.605   6.234  1.00  0.00     0.168 C 
HETATM   11  C9  UNL     1       2.942  21.281   5.665  1.00  0.00     0.146 C 
BRANCH   9  12
HETATM   12  N7  UNL     1       3.689  23.997   4.828  1.00  0.00    -0.252 N 
HETATM   13  C7  UNL     1       4.173  24.986   3.956  1.00  0.00     0.347 C 
HETATM   14  N8  UNL     1       5.585  25.256   3.828  1.00  0.00    -0.038 NA
HETATM   15  O2  UNL     1       3.446  25.695   3.240  1.00  0.00    -0.249 OA
ATOM     16  H7  UNL     1       4.426  23.513   5.340  1.00  0.00     0.191 HD
ENDBRANCH   9  12
ENDBRANCH   4   6
BRANCH   5  17
HETATM   17  O3  UNL     1       5.215  19.889   4.081  1.00  0.00    -0.360 OA
ATOM     18  H3  UNL     1       6.028  20.130   3.653  1.00  0.00     0.213 HD
ENDBRANCH   5  17
BRANCH   5  19
HETATM   19  O4  UNL     1       4.191  21.417   2.672  1.00  0.00    -0.360 OA
ATOM     20  H4  UNL     1       4.825  21.988   3.089  1.00  0.00     0.213 HD
ENDBRANCH   5  19
BRANCH   1  21
HETATM   21  N2  UNL     1       5.216  19.270   1.134  1.00  0.00    -0.335 N 
HETATM   22  C2  UNL     1       6.493  18.708   1.331  1.00  0.00     0.244 C 
HETATM   23  O1  UNL     1       6.728  18.051   2.368  1.00  0.00    -0.272 OA
ATOM     24  H2  UNL     1       5.015  19.812   0.294  1.00  0.00     0.164 HD
BRANCH  22  25
HETATM   25  C1  UNL     1       7.553  18.887   0.327  1.00  0.00     0.332 C 
BRANCH  25  26
HETATM   26  N1  UNL     1       8.695  18.018   0.558  1.00  0.00    -0.071 N 
ATOM     27  H13 UNL     1       8.618  17.544   1.457  1.00  0.00     0.274 HD
ATOM     28  H12 UNL     1       8.667  17.206  -0.059  1.00  0.00     0.274 HD
ATOM     29  H11 UNL     1       9.585  18.509   0.478  1.00  0.00     0.274 HD
ENDBRANCH  25  26
ENDBRANCH  22  25
ENDBRANCH   1  21
TORSDOF 7
ENDMDL
MODEL 3
REMARK VINA RESULT: -6.450463110      1.966      2.361
REMARK  7 active torsions:
REMARK  status: ('A' for Active; 'I' for Inactive)
REMARK    1  A    between atoms: N1_1  and  C1_5 
REMARK    2  A    between atoms: C1_5  and  C2_6 
REMARK       I    between atoms: C2_6  and  N2_8 
REMARK    3  A    between atoms: N2_8  and  C3_10 
REMARK    4  A    between atoms: C4_13  and  N5_14 
REMARK    5  A    between atoms: N6_17  and  N7_18 
REMARK       I    between atoms: N7_18  and  C7_20 
REMARK    6  A    between atoms: C10_25  and  O3_26 
REMARK    7  A    between atoms: C10_25  and  O4_28 
ROOT
HETATM    1  C3  UNL     1       3.805  20.563   4.539  1.00  0.00     0.261 C 
HETATM    2  N3  UNL     1       3.761  19.633   5.610  1.00  0.00    -0.115 NA
HETATM    3  N4  UNL     1       3.666  18.358   5.132  1.00  0.00    -0.115 NA
HETATM    4  C4  UNL     1       3.701  18.439   3.665  1.00  0.00     0.260 C 
HETATM    5  C10 UNL     1       4.460  19.734   3.431  1.00  0.00     0.234 C 
ENDROOT
BRANCH   4   6
HETATM    6  N5  UNL     1       4.247  17.279   3.151  1.00  0.00    -0.363 N 
HETATM    7  C5  UNL     1       5.189  16.497   3.805  1.00  0.00     0.106 C 
HETATM    8  C6  UNL     1       6.506  16.259   3.085  1.00  0.00     0.127 C 
HETATM    9  N6  UNL     1       6.415  16.374   1.688  1.00  0.00    -0.297 N 
HETATM   10  C8  UNL     1       5.078  16.094   1.176  1.00  0.00     0.168 C 
HETATM   11  C9  UNL     1       4.158  17.154   1.749  1.00  0.00     0.146 C 
BRANCH   9  12
HETATM   12  N7  UNL     1       6.996  17.398   1.028  1.00  0.00    -0.252 N 
HETATM   13  C7  UNL     1       8.333  17.734   0.760  1.00  0.00     0.347 C 
HETATM   14  N8  UNL     1       8.680  18.918   0.012  1.00  0.00    -0.038 NA
HETATM   15  O2  UNL     1       9.306  17.057   1.134  1.00  0.00    -0.249 OA
ATOM     16  H7  UNL     1       6.326  18.065   0.645  1.00  0.00     0.191 HD
ENDBRANCH   9  12
ENDBRANCH   4   6
BRANCH   5  17
HETATM   17  O3  UNL     1       4.149  20.328   2.232  1.00  0.00    -0.360 OA
ATOM     18  H3  UNL     1       4.945  20.365   1.715  1.00  0.00     0.213 HD
ENDBRANCH   5  17
BRANCH   5  19
HETATM   19  O4  UNL     1       5.790  19.523   3.655  1.00  0.00    -0.360 OA
ATOM     20  H4  UNL     1       5.969  18.646   3.975  1.00  0.00     0.213 HD
ENDBRANCH   5  19
BRANCH   1  21
HETATM   21  N2  UNL     1       4.537  21.765   4.850  1.00  0.00    -0.335 N 
HETATM   22  C2  UNL     1       4.132  22.984   4.270  1.00  0.00     0.244 C 
HETATM   23  O1  UNL     1       3.153  23.007   3.494  1.00  0.00    -0.272 OA
ATOM     24  H2  UNL     1       5.337  21.734   5.481  1.00  0.00     0.164 HD
BRANCH  22  25
HETATM   25  C1  UNL     1       4.851  24.231   4.572  1.00  0.00     0.332 C 
BRANCH  25  26
HETATM   26  N1  UNL     1       5.765  24.620   3.511  1.00  0.00    -0.071 N 
ATOM     27  H13 UNL     1       6.628  24.078   3.555  1.00  0.00     0.274 HD
ATOM     28  H12 UNL     1       5.422  24.312   2.601  1.00  0.00     0.274 HD
ATOM     29  H11 UNL     1       5.961  25.621   3.509  1.00  0.00     0.274 HD
ENDBRANCH  25  26
ENDBRANCH  22  25
ENDBRANCH   1  21
TORSDOF 7
ENDMDL
MODEL 4
REMARK VINA RESULT: -6.318451378      6.605      8.754
REMARK  7 active torsions:
REMARK  status: ('A' for Active; 'I' for Inactive)
REMARK    1  A    between atoms: N1_1  and  C1_5 
REMARK    2  A    between atoms: C1_5  and  C2_6 
REMARK       I    between atoms: C2_6  and  N2_8 
REMARK    3  A    between atoms: N2_8  and  C3_10 
REMARK    4  A    between atoms: C4_13  and  N5_14 
REMARK    5  A    between atoms: N6_17  and  N7_18 
REMARK       I    between atoms: N7_18  and  C7_20 
REMARK    6  A    between atoms: C10_25  and  O3_26 
REMARK    7  A    between atoms: C10_25  and  O4_28 
ROOT
HETATM    1  C3  UNL     1       4.814  22.655   6.526  1.00  0.00     0.261 C 
HETATM    2  N3  UNL     1       5.575  21.723   7.278  1.00  0.00    -0.115 NA
HETATM    3  N4  UNL     1       4.965  21.459   8.470  1.00  0.00    -0.115 NA
HETATM    4  C4  UNL     1       3.705  22.216   8.492  1.00  0.00     0.260 C 
HETATM    5  C10 UNL     1       3.392  22.364   7.012  1.00  0.00     0.234 C 
ENDROOT
BRANCH   4   6
HETATM    6  N5  UNL     1       2.781  21.553   9.275  1.00  0.00    -0.363 N 
HETATM    7  C5  UNL     1       1.517  22.038   9.580  1.00  0.00     0.106 C 
HETATM    8  C6  UNL     1       1.177  22.195  11.053  1.00  0.00     0.127 C 
HETATM    9  N6  UNL     1       1.917  21.352  11.896  1.00  0.00    -0.297 N 
HETATM   10  C8  UNL     1       2.378  20.138  11.232  1.00  0.00     0.168 C 
HETATM   11  C9  UNL     1       3.325  20.573  10.131  1.00  0.00     0.146 C 
BRANCH   9  12
HETATM   12  N7  UNL     1       2.851  21.844  12.737  1.00  0.00    -0.252 N 
HETATM   13  C7  UNL     1       2.821  22.235  14.086  1.00  0.00     0.347 C 
HETATM   14  N8  UNL     1       3.996  22.740  14.754  1.00  0.00    -0.038 NA
HETATM   15  O2  UNL     1       1.806  22.179  14.801  1.00  0.00    -0.249 OA
ATOM     16  H7  UNL     1       3.768  21.955  12.304  1.00  0.00     0.191 HD
ENDBRANCH   9  12
ENDBRANCH   4   6
BRANCH   5  17
HETATM   17  O3  UNL     1       2.626  23.469   6.734  1.00  0.00    -0.360 OA
ATOM     18  H3  UNL     1       2.299  23.376   5.847  1.00  0.00     0.213 HD
ENDBRANCH   5  17
BRANCH   5  19
HETATM   19  O4  UNL     1       2.910  21.179   6.534  1.00  0.00    -0.360 OA
ATOM     20  H4  UNL     1       2.468  20.671   7.204  1.00  0.00     0.213 HD
ENDBRANCH   5  19
BRANCH   1  21
HETATM   21  N2  UNL     1       4.964  22.503   5.101  1.00  0.00    -0.335 N 
HETATM   22  C2  UNL     1       4.842  23.638   4.273  1.00  0.00     0.244 C 
HETATM   23  O1  UNL     1       4.602  24.753   4.782  1.00  0.00    -0.272 OA
ATOM     24  H2  UNL     1       5.156  21.587   4.696  1.00  0.00     0.164 HD
BRANCH  22  25
HETATM   25  C1  UNL     1       4.997  23.521   2.816  1.00  0.00     0.332 C 
BRANCH  25  26
HETATM   26  N1  UNL     1       5.348  22.175   2.396  1.00  0.00    -0.071 N 
ATOM     27  H13 UNL     1       4.988  21.977   1.463  1.00  0.00     0.274 HD
ATOM     28  H12 UNL     1       6.348  22.100   2.207  1.00  0.00     0.274 HD
ATOM     29  H11 UNL     1       5.048  21.464   3.063  1.00  0.00     0.274 HD
ENDBRANCH  25  26
ENDBRANCH  22  25
ENDBRANCH   1  21
TORSDOF 7
ENDMDL
MODEL 5
REMARK VINA RESULT: -6.133673209      3.194      6.733
REMARK  7 active torsions:
REMARK  status: ('A' for Active; 'I' for Inactive)
REMARK    1  A    between atoms: N1_1  and  C1_5 
REMARK    2  A    between atoms: C1_5  and  C2_6 
REMARK       I    between atoms: C2_6  and  N2_8 
REMARK    3  A    between atoms: N2_8  and  C3_10 
REMARK    4  A    between atoms: C4_13  and  N5_14 
REMARK    5  A    between atoms: N6_17  and  N7_18 
REMARK       I    between atoms: N7_18  and  C7_20 
REMARK    6  A    between atoms: C10_25  and  O3_26 
REMARK    7  A    between atoms: C10_25  and  O4_28 
ROOT
HETATM    1  C3  UNL     1       4.840  20.234   2.369  1.00  0.00     0.261 C 
HETATM    2  N3  UNL     1       4.872  21.614   2.038  1.00  0.00    -0.115 NA
HETATM    3  N4  UNL     1       3.852  22.277   2.656  1.00  0.00    -0.115 NA
HETATM    4  C4  UNL     1       3.133  21.298   3.483  1.00  0.00     0.260 C 
HETATM    5  C10 UNL     1       4.207  20.260   3.762  1.00  0.00     0.234 C 
ENDROOT
BRANCH   4   6
HETATM    6  N5  UNL     1       2.567  21.936   4.569  1.00  0.00    -0.363 N 
HETATM    7  C5  UNL     1       2.781  23.267   4.898  1.00  0.00     0.106 C 
HETATM    8  C6  UNL     1       3.344  23.552   6.281  1.00  0.00     0.127 C 
HETATM    9  N6  UNL     1       3.068  22.546   7.221  1.00  0.00    -0.297 N 
HETATM   10  C8  UNL     1       1.863  21.785   6.910  1.00  0.00     0.168 C 
HETATM   11  C9  UNL     1       2.121  21.076   5.594  1.00  0.00     0.146 C 
BRANCH   9  12
HETATM   12  N7  UNL     1       4.045  21.753   7.708  1.00  0.00    -0.252 N 
HETATM   13  C7  UNL     1       4.781  21.759   8.904  1.00  0.00     0.347 C 
HETATM   14  N8  UNL     1       5.794  20.766   9.174  1.00  0.00    -0.038 NA
HETATM   15  O2  UNL     1       4.625  22.595   9.810  1.00  0.00    -0.249 OA
ATOM     16  H7  UNL     1       4.302  20.994   7.078  1.00  0.00     0.191 HD
ENDBRANCH   9  12
ENDBRANCH   4   6
BRANCH   5  17
HETATM   17  O3  UNL     1       3.694  19.010   4.007  1.00  0.00    -0.360 OA
ATOM     18  H3  UNL     1       3.738  18.860   4.944  1.00  0.00     0.213 HD
ENDBRANCH   5  17
BRANCH   5  19
HETATM   19  O4  UNL     1       5.061  20.742   4.713  1.00  0.00    -0.360 OA
ATOM     20  H4  UNL     1       4.671  20.750   5.579  1.00  0.00     0.213 HD
ENDBRANCH   5  19
BRANCH   1  21
HETATM   21  N2  UNL     1       6.138  19.608   2.351  1.00  0.00    -0.335 N 
HETATM   22  C2  UNL     1       6.237  18.245   2.008  1.00  0.00     0.244 C 
HETATM   23  O1  UNL     1       5.204  17.598   1.730  1.00  0.00    -0.272 OA
ATOM     24  H2  UNL     1       6.974  20.144   2.584  1.00  0.00     0.164 HD
BRANCH  22  25
HETATM   25  C1  UNL     1       7.546  17.575   1.972  1.00  0.00     0.332 C 
BRANCH  25  26
HETATM   26  N1  UNL     1       8.359  17.996   0.844  1.00  0.00    -0.071 N 
ATOM     27  H13 UNL     1       7.888  18.721   0.304  1.00  0.00     0.274 HD
ATOM     28  H12 UNL     1       9.173  18.526   1.157  1.00  0.00     0.274 HD
ATOM     29  H11 UNL     1       8.637  17.217   0.247  1.00  0.00     0.274 HD
ENDBRANCH  25  26
ENDBRANCH  22  25
ENDBRANCH   1  21
TORSDOF 7
ENDMDL
