MODEL 1
REMARK VINA RESULT: -6.995884413      0.000      0.000
REMARK  4 active torsions:
REMARK  status: ('A' for Active; 'I' for Inactive)
REMARK    1  A    between atoms: C1_2  and  C2_3 
REMARK    2  A    between atoms: C2_3  and  N1_4 
REMARK    3  A    between atoms: C5_8  and  C6_9 
REMARK    4  A    between atoms: C6_9  and  N2_10 
ROOT
HETATM    1  N1  UNL     1      23.239   8.047  -3.427  1.00  0.00    -0.368 N 
HETATM    2  C3  UNL     1      22.889   9.339  -3.830  1.00  0.00     0.089 C 
HETATM    3  C4  UNL     1      21.594   9.828  -3.179  1.00  0.00     0.213 C 
HETATM    4  O1  UNL     1      20.693   8.804  -3.026  1.00  0.00    -0.377 OA
HETATM    5  C5  UNL     1      20.906   7.785  -3.972  1.00  0.00     0.168 C 
HETATM    6  C14 UNL     1      22.174   7.066  -3.609  1.00  0.00     0.160 C 
ENDROOT
BRANCH   5   7
HETATM    7  C6  UNL     1      19.756   6.836  -3.810  1.00  0.00     0.305 C 
BRANCH   7   8
HETATM    8  N2  UNL     1      18.823   6.832  -4.918  1.00  0.00     0.090 N 
HETATM    9  C7  UNL     1      19.523   7.578  -5.994  1.00  0.00     0.272 C 
HETATM   10  C8  UNL     1      18.801   7.391  -7.306  1.00  0.00     0.030 C 
HETATM   11  C9  UNL     1      17.810   8.498  -7.586  1.00  0.00     0.002 C 
HETATM   12  C10 UNL     1      16.384   8.076  -7.424  1.00  0.00     0.000 C 
HETATM   13  C11 UNL     1      15.849   8.184  -6.037  1.00  0.00     0.002 C 
HETATM   14  C12 UNL     1      16.378   7.111  -5.112  1.00  0.00     0.030 C 
HETATM   15  C13 UNL     1      17.652   7.597  -4.514  1.00  0.00     0.272 C 
ENDBRANCH   7   8
ENDBRANCH   5   7
BRANCH   1  16
HETATM   16  C2  UNL     1      24.029   7.762  -2.324  1.00  0.00     0.078 C 
BRANCH  16  17
HETATM   17  C1  UNL     1      25.381   7.184  -2.484  1.00  0.00     0.159 C 
HETATM   18 CL1  UNL     1      25.697   5.825  -1.422  1.00  0.00    -0.125 Cl
ENDBRANCH  16  17
ENDBRANCH   1  16
TORSDOF 4
ENDMDL
MODEL 2
REMARK VINA RESULT: -6.971384050      0.722      1.716
REMARK  4 active torsions:
REMARK  status: ('A' for Active; 'I' for Inactive)
REMARK    1  A    between atoms: C1_2  and  C2_3 
REMARK    2  A    between atoms: C2_3  and  N1_4 
REMARK    3  A    between atoms: C5_8  and  C6_9 
REMARK    4  A    between atoms: C6_9  and  N2_10 
ROOT
HETATM    1  N1  UNL     1      23.450   8.439  -3.305  1.00  0.00    -0.368 N 
HETATM    2  C3  UNL     1      22.969   9.748  -3.203  1.00  0.00     0.089 C 
HETATM    3  C4  UNL     1      21.516   9.807  -2.730  1.00  0.00     0.213 C 
HETATM    4  O1  UNL     1      20.783   8.759  -3.232  1.00  0.00    -0.377 OA
HETATM    5  C5  UNL     1      21.329   8.282  -4.438  1.00  0.00     0.168 C 
HETATM    6  C14 UNL     1      22.612   7.568  -4.122  1.00  0.00     0.160 C 
ENDROOT
BRANCH   5   7
HETATM    7  C6  UNL     1      20.341   7.280  -4.960  1.00  0.00     0.305 C 
BRANCH   7   8
HETATM    8  N2  UNL     1      19.062   7.844  -5.340  1.00  0.00     0.090 N 
HETATM    9  C7  UNL     1      18.066   7.047  -4.579  1.00  0.00     0.272 C 
HETATM   10  C8  UNL     1      16.715   7.718  -4.639  1.00  0.00     0.030 C 
HETATM   11  C9  UNL     1      15.852   7.185  -5.759  1.00  0.00     0.002 C 
HETATM   12  C10 UNL     1      15.710   8.134  -6.906  1.00  0.00     0.000 C 
HETATM   13  C11 UNL     1      16.789   8.049  -7.931  1.00  0.00     0.002 C 
HETATM   14  C12 UNL     1      18.098   8.647  -7.465  1.00  0.00     0.030 C 
HETATM   15  C13 UNL     1      18.869   7.587  -6.760  1.00  0.00     0.272 C 
ENDBRANCH   7   8
ENDBRANCH   5   7
BRANCH   1  16
HETATM   16  C2  UNL     1      24.065   7.752  -2.269  1.00  0.00     0.078 C 
BRANCH  16  17
HETATM   17  C1  UNL     1      25.396   7.134  -2.450  1.00  0.00     0.159 C 
HETATM   18 CL1  UNL     1      25.704   5.794  -1.361  1.00  0.00    -0.125 Cl
ENDBRANCH  16  17
ENDBRANCH   1  16
TORSDOF 4
ENDMDL
MODEL 3
REMARK VINA RESULT: -6.560384224      2.392      3.260
REMARK  4 active torsions:
REMARK  status: ('A' for Active; 'I' for Inactive)
REMARK    1  A    between atoms: C1_2  and  C2_3 
REMARK    2  A    between atoms: C2_3  and  N1_4 
REMARK    3  A    between atoms: C5_8  and  C6_9 
REMARK    4  A    between atoms: C6_9  and  N2_10 
ROOT
HETATM    1  N1  UNL     1      21.812   8.712  -3.193  1.00  0.00    -0.368 N 
HETATM    2  C3  UNL     1      23.026   8.052  -3.402  1.00  0.00     0.089 C 
HETATM    3  C4  UNL     1      23.191   7.566  -4.843  1.00  0.00     0.213 C 
HETATM    4  O1  UNL     1      21.993   7.152  -5.371  1.00  0.00    -0.377 OA
HETATM    5  C5  UNL     1      21.106   6.729  -4.365  1.00  0.00     0.168 C 
HETATM    6  C14 UNL     1      20.645   7.941  -3.607  1.00  0.00     0.160 C 
ENDROOT
BRANCH   5   7
HETATM    7  C6  UNL     1      19.929   6.140  -5.085  1.00  0.00     0.305 C 
BRANCH   7   8
HETATM    8  N2  UNL     1      18.866   7.083  -5.365  1.00  0.00     0.090 N 
HETATM    9  C7  UNL     1      17.640   6.424  -4.846  1.00  0.00     0.272 C 
HETATM   10  C8  UNL     1      16.505   7.418  -4.792  1.00  0.00     0.030 C 
HETATM   11  C9  UNL     1      15.645   7.384  -6.035  1.00  0.00     0.002 C 
HETATM   12  C10 UNL     1      15.845   8.565  -6.930  1.00  0.00     0.000 C 
HETATM   13  C11 UNL     1      16.960   8.430  -7.910  1.00  0.00     0.002 C 
HETATM   14  C12 UNL     1      18.327   8.553  -7.273  1.00  0.00     0.030 C 
HETATM   15  C13 UNL     1      18.748   7.202  -6.811  1.00  0.00     0.272 C 
ENDBRANCH   7   8
ENDBRANCH   5   7
BRANCH   1  16
HETATM   16  C2  UNL     1      21.626  10.076  -3.365  1.00  0.00     0.078 C 
BRANCH  16  17
HETATM   17  C1  UNL     1      21.597  10.993  -2.206  1.00  0.00     0.159 C 
HETATM   18 CL1  UNL     1      20.876  12.552  -2.560  1.00  0.00    -0.125 Cl
ENDBRANCH  16  17
ENDBRANCH   1  16
TORSDOF 4
ENDMDL
MODEL 4
REMARK VINA RESULT: -6.361283921      4.111      6.068
REMARK  4 active torsions:
REMARK  status: ('A' for Active; 'I' for Inactive)
REMARK    1  A    between atoms: C1_2  and  C2_3 
REMARK    2  A    between atoms: C2_3  and  N1_4 
REMARK    3  A    between atoms: C5_8  and  C6_9 
REMARK    4  A    between atoms: C6_9  and  N2_10 
ROOT
HETATM    1  N1  UNL     1      26.639   3.442  -1.641  1.00  0.00    -0.368 N 
HETATM    2  C3  UNL     1      25.375   2.914  -1.363  1.00  0.00     0.089 C 
HETATM    3  C4  UNL     1      24.306   3.400  -2.343  1.00  0.00     0.213 C 
HETATM    4  O1  UNL     1      24.525   4.702  -2.719  1.00  0.00    -0.377 OA
HETATM    5  C5  UNL     1      25.246   5.406  -1.736  1.00  0.00     0.168 C 
HETATM    6  C14 UNL     1      26.659   4.898  -1.737  1.00  0.00     0.160 C 
ENDROOT
BRANCH   5   7
HETATM    7  C6  UNL     1      25.253   6.837  -2.188  1.00  0.00     0.305 C 
BRANCH   7   8
HETATM    8  N2  UNL     1      23.992   7.298  -2.733  1.00  0.00     0.090 N 
HETATM    9  C7  UNL     1      24.190   7.259  -4.205  1.00  0.00     0.272 C 
HETATM   10  C8  UNL     1      22.863   7.419  -4.907  1.00  0.00     0.030 C 
HETATM   11  C9  UNL     1      22.573   8.855  -5.278  1.00  0.00     0.002 C 
HETATM   12  C10 UNL     1      21.522   9.490  -4.425  1.00  0.00     0.000 C 
HETATM   13  C11 UNL     1      22.022  10.100  -3.160  1.00  0.00     0.002 C 
HETATM   14  C12 UNL     1      22.395   9.074  -2.114  1.00  0.00     0.030 C 
HETATM   15  C13 UNL     1      23.816   8.685  -2.329  1.00  0.00     0.272 C 
ENDBRANCH   7   8
ENDBRANCH   5   7
BRANCH   1  16
HETATM   16  C2  UNL     1      27.563   2.848  -2.488  1.00  0.00     0.078 C 
BRANCH  16  17
HETATM   17  C1  UNL     1      28.688   2.054  -1.952  1.00  0.00     0.159 C 
HETATM   18 CL1  UNL     1      28.690   0.384  -2.488  1.00  0.00    -0.125 Cl
ENDBRANCH  16  17
ENDBRANCH   1  16
TORSDOF 4
ENDMDL
MODEL 5
REMARK VINA RESULT: -6.345112199      1.198      2.009
REMARK  4 active torsions:
REMARK  status: ('A' for Active; 'I' for Inactive)
REMARK    1  A    between atoms: C1_2  and  C2_3 
REMARK    2  A    between atoms: C2_3  and  N1_4 
REMARK    3  A    between atoms: C5_8  and  C6_9 
REMARK    4  A    between atoms: C6_9  and  N2_10 
ROOT
HETATM    1  N1  UNL     1      23.660   8.581  -3.129  1.00  0.00    -0.368 N 
HETATM    2  C3  UNL     1      23.028   9.813  -2.937  1.00  0.00     0.089 C 
HETATM    3  C4  UNL     1      21.519   9.674  -2.729  1.00  0.00     0.213 C 
HETATM    4  O1  UNL     1      21.000   8.659  -3.493  1.00  0.00    -0.377 OA
HETATM    5  C5  UNL     1      21.786   8.421  -4.636  1.00  0.00     0.168 C 
HETATM    6  C14 UNL     1      23.070   7.779  -4.195  1.00  0.00     0.160 C 
ENDROOT
BRANCH   5   7
HETATM    7  C6  UNL     1      21.015   7.432  -5.459  1.00  0.00     0.305 C 
BRANCH   7   8
HETATM    8  N2  UNL     1      19.710   7.099  -4.926  1.00  0.00     0.090 N 
HETATM    9  C7  UNL     1      19.715   5.617  -4.836  1.00  0.00     0.272 C 
HETATM   10  C8  UNL     1      18.539   5.147  -4.013  1.00  0.00     0.030 C 
HETATM   11  C9  UNL     1      17.339   4.799  -4.863  1.00  0.00     0.002 C 
HETATM   12  C10 UNL     1      16.236   5.805  -4.775  1.00  0.00     0.000 C 
HETATM   13  C11 UNL     1      16.353   6.952  -5.719  1.00  0.00     0.002 C 
HETATM   14  C12 UNL     1      17.424   7.942  -5.318  1.00  0.00     0.030 C 
HETATM   15  C13 UNL     1      18.714   7.497  -5.911  1.00  0.00     0.272 C 
ENDBRANCH   7   8
ENDBRANCH   5   7
BRANCH   1  16
HETATM   16  C2  UNL     1      24.168   7.797  -2.104  1.00  0.00     0.078 C 
BRANCH  16  17
HETATM   17  C1  UNL     1      25.451   7.077  -2.259  1.00  0.00     0.159 C 
HETATM   18 CL1  UNL     1      25.547   5.599  -1.322  1.00  0.00    -0.125 Cl
ENDBRANCH  16  17
ENDBRANCH   1  16
TORSDOF 4
ENDMDL
