MODEL 1
REMARK VINA RESULT: -6.577561969      0.000      0.000
REMARK  6 active torsions:
REMARK  status: ('A' for Active; 'I' for Inactive)
REMARK    1  A    between atoms: O1_2  and  C2_3 
REMARK    2  A    between atoms: C2_3  and  C3_5 
REMARK    3  A    between atoms: C3_5  and  C6_8 
REMARK    4  A    between atoms: C6_8  and  C7_9 
REMARK    5  A    between atoms: C7_9  and  N1_10 
REMARK    6  A    between atoms: N3_15  and  C8_17 
ROOT
HETATM    1  C6  UNL     1      20.769   7.825  -4.896  1.00  0.00     0.040 C 
HETATM    2  N3  UNL     1      19.833   8.368  -5.559  1.00  0.00    -0.384 N 
ATOM      3  H3  UNL     1      19.882   9.373  -5.718  1.00  0.00     0.160 HD
ENDROOT
BRANCH   1   4
HETATM    4  C3  UNL     1      21.935   8.490  -4.321  1.00  0.00     0.084 C 
HETATM    5  C4  UNL     1      21.580   9.298  -3.066  1.00  0.00     0.032 C 
HETATM    6  C5  UNL     1      22.418   9.511  -5.362  1.00  0.00     0.032 C 
BRANCH   4   7
HETATM    7  C2  UNL     1      23.055   7.587  -4.001  1.00  0.00     0.272 C 
HETATM    8  O2  UNL     1      23.844   7.265  -4.919  1.00  0.00    -0.264 OA
BRANCH   7   9
HETATM    9  O1  UNL     1      23.287   7.068  -2.740  1.00  0.00    -0.326 OA
HETATM   10  C1  UNL     1      24.531   7.280  -2.054  1.00  0.00     0.213 C 
ENDBRANCH   7   9
ENDBRANCH   4   7
ENDBRANCH   1   4
BRANCH   1  11
HETATM   11  C7  UNL     1      20.668   6.369  -4.683  1.00  0.00     0.132 C 
BRANCH  11  12
HETATM   12  N1  UNL     1      20.214   5.870  -3.629  1.00  0.00    -0.317 N 
HETATM   13  N2  UNL     1      19.501   5.199  -2.877  1.00  0.00    -0.345 N 
ATOM     14  H22 UNL     1      18.902   4.803  -3.600  1.00  0.00     0.176 HD
ATOM     15  H21 UNL     1      19.131   4.793  -2.018  1.00  0.00     0.176 HD
ATOM     16  H1  UNL     1      20.841   6.295  -2.946  1.00  0.00     0.185 HD
ENDBRANCH  11  12
ENDBRANCH   1  11
BRANCH   2  17
HETATM   17  C8  UNL     1      18.699   7.648  -6.105  1.00  0.00     0.115 C 
HETATM   18  C9  UNL     1      18.576   7.748  -7.572  1.00  0.00     0.028 C 
HETATM   19  C10 UNL     1      17.264   8.124  -8.128  1.00  0.00     0.002 C 
HETATM   20  C11 UNL     1      16.060   7.836  -7.327  1.00  0.00     0.003 C 
HETATM   21  C12 UNL     1      16.325   7.292  -5.946  1.00  0.00     0.039 C 
HETATM   22  C13 UNL     1      17.455   8.109  -5.354  1.00  0.00     0.192 C 
HETATM   23  F1  UNL     1      17.627   7.764  -4.041  1.00  0.00    -0.247 F 
ENDBRANCH   2  17
TORSDOF 6
ENDMDL
MODEL 2
REMARK VINA RESULT: -6.408532205      1.220      1.765
REMARK  6 active torsions:
REMARK  status: ('A' for Active; 'I' for Inactive)
REMARK    1  A    between atoms: O1_2  and  C2_3 
REMARK    2  A    between atoms: C2_3  and  C3_5 
REMARK    3  A    between atoms: C3_5  and  C6_8 
REMARK    4  A    between atoms: C6_8  and  C7_9 
REMARK    5  A    between atoms: C7_9  and  N1_10 
REMARK    6  A    between atoms: N3_15  and  C8_17 
ROOT
HETATM    1  C6  UNL     1      20.681   7.210  -4.891  1.00  0.00     0.040 C 
HETATM    2  N3  UNL     1      19.889   7.927  -5.576  1.00  0.00    -0.384 N 
ATOM      3  H3  UNL     1      20.157   8.893  -5.761  1.00  0.00     0.160 HD
ENDROOT
BRANCH   1   4
HETATM    4  C3  UNL     1      21.962   7.619  -4.323  1.00  0.00     0.084 C 
HETATM    5  C4  UNL     1      22.920   8.165  -5.390  1.00  0.00     0.032 C 
HETATM    6  C5  UNL     1      22.625   6.348  -3.769  1.00  0.00     0.032 C 
BRANCH   4   7
HETATM    7  C2  UNL     1      21.858   8.603  -3.232  1.00  0.00     0.272 C 
HETATM    8  O2  UNL     1      20.731   9.080  -2.962  1.00  0.00    -0.264 OA
BRANCH   7   9
HETATM    9  O1  UNL     1      22.937   9.037  -2.482  1.00  0.00    -0.326 OA
HETATM   10  C1  UNL     1      23.378  10.403  -2.516  1.00  0.00     0.213 C 
ENDBRANCH   7   9
ENDBRANCH   4   7
ENDBRANCH   1   4
BRANCH   1  11
HETATM   11  C7  UNL     1      20.263   5.818  -4.642  1.00  0.00     0.132 C 
BRANCH  11  12
HETATM   12  N1  UNL     1      19.705   5.460  -3.580  1.00  0.00    -0.317 N 
HETATM   13  N2  UNL     1      19.182   4.728  -2.736  1.00  0.00    -0.345 N 
ATOM     14  H22 UNL     1      19.268   3.858  -3.259  1.00  0.00     0.176 HD
ATOM     15  H21 UNL     1      18.727   4.437  -1.870  1.00  0.00     0.176 HD
ATOM     16  H1  UNL     1      19.643   6.358  -3.101  1.00  0.00     0.185 HD
ENDBRANCH  11  12
ENDBRANCH   1  11
BRANCH   2  17
HETATM   17  C8  UNL     1      18.626   7.459  -6.114  1.00  0.00     0.115 C 
HETATM   18  C9  UNL     1      18.518   7.577  -7.581  1.00  0.00     0.028 C 
HETATM   19  C10 UNL     1      17.312   8.216  -8.133  1.00  0.00     0.002 C 
HETATM   20  C11 UNL     1      16.078   8.190  -7.325  1.00  0.00     0.003 C 
HETATM   21  C12 UNL     1      16.231   7.609  -5.943  1.00  0.00     0.039 C 
HETATM   22  C13 UNL     1      17.510   8.173  -5.359  1.00  0.00     0.192 C 
HETATM   23  F1  UNL     1      17.613   7.805  -4.046  1.00  0.00    -0.247 F 
ENDBRANCH   2  17
TORSDOF 6
ENDMDL
MODEL 3
REMARK VINA RESULT: -5.983627870      2.366      3.467
REMARK  6 active torsions:
REMARK  status: ('A' for Active; 'I' for Inactive)
REMARK    1  A    between atoms: O1_2  and  C2_3 
REMARK    2  A    between atoms: C2_3  and  C3_5 
REMARK    3  A    between atoms: C3_5  and  C6_8 
REMARK    4  A    between atoms: C6_8  and  C7_9 
REMARK    5  A    between atoms: C7_9  and  N1_10 
REMARK    6  A    between atoms: N3_15  and  C8_17 
ROOT
HETATM    1  C6  UNL     1      21.515   7.434  -3.735  1.00  0.00     0.040 C 
HETATM    2  N3  UNL     1      21.066   6.257  -3.891  1.00  0.00    -0.384 N 
ATOM      3  H3  UNL     1      21.724   5.527  -4.163  1.00  0.00     0.160 HD
ENDROOT
BRANCH   1   4
HETATM    4  C3  UNL     1      22.897   7.874  -3.905  1.00  0.00     0.084 C 
HETATM    5  C4  UNL     1      22.990   9.222  -4.630  1.00  0.00     0.032 C 
HETATM    6  C5  UNL     1      23.576   6.849  -4.826  1.00  0.00     0.032 C 
BRANCH   4   7
HETATM    7  C2  UNL     1      23.668   7.955  -2.652  1.00  0.00     0.272 C 
HETATM    8  O2  UNL     1      23.868   9.084  -2.146  1.00  0.00    -0.264 OA
BRANCH   7   9
HETATM    9  O1  UNL     1      24.189   6.853  -1.997  1.00  0.00    -0.326 OA
HETATM   10  C1  UNL     1      25.603   6.686  -1.811  1.00  0.00     0.213 C 
ENDBRANCH   7   9
ENDBRANCH   4   7
ENDBRANCH   1   4
BRANCH   1  11
HETATM   11  C7  UNL     1      20.538   8.465  -3.342  1.00  0.00     0.132 C 
BRANCH  11  12
HETATM   12  N1  UNL     1      20.712   9.222  -2.360  1.00  0.00    -0.317 N 
HETATM   13  N2  UNL     1      21.016  10.224  -1.708  1.00  0.00    -0.345 N 
ATOM     14  H22 UNL     1      21.321  10.794  -2.497  1.00  0.00     0.176 HD
ATOM     15  H21 UNL     1      21.157  10.840  -0.907  1.00  0.00     0.176 HD
ATOM     16  H1  UNL     1      20.395   8.610  -1.608  1.00  0.00     0.185 HD
ENDBRANCH  11  12
ENDBRANCH   1  11
BRANCH   2  17
HETATM   17  C8  UNL     1      19.678   5.884  -3.706  1.00  0.00     0.115 C 
HETATM   18  C9  UNL     1      19.477   4.768  -2.762  1.00  0.00     0.028 C 
HETATM   19  C10 UNL     1      18.626   3.646  -3.194  1.00  0.00     0.002 C 
HETATM   20  C11 UNL     1      17.602   3.905  -4.223  1.00  0.00     0.003 C 
HETATM   21  C12 UNL     1      17.628   5.290  -4.818  1.00  0.00     0.039 C 
HETATM   22  C13 UNL     1      19.079   5.633  -5.086  1.00  0.00     0.192 C 
HETATM   23  F1  UNL     1      19.149   6.813  -5.775  1.00  0.00    -0.247 F 
ENDBRANCH   2  17
TORSDOF 6
ENDMDL
MODEL 4
REMARK VINA RESULT: -5.938050973      3.029      4.184
REMARK  6 active torsions:
REMARK  status: ('A' for Active; 'I' for Inactive)
REMARK    1  A    between atoms: O1_2  and  C2_3 
REMARK    2  A    between atoms: C2_3  and  C3_5 
REMARK    3  A    between atoms: C3_5  and  C6_8 
REMARK    4  A    between atoms: C6_8  and  C7_9 
REMARK    5  A    between atoms: C7_9  and  N1_10 
REMARK    6  A    between atoms: N3_15  and  C8_17 
ROOT
HETATM    1  C6  UNL     1      19.841   5.456  -4.234  1.00  0.00     0.040 C 
HETATM    2  N3  UNL     1      18.772   5.711  -4.868  1.00  0.00    -0.384 N 
ATOM      3  H3  UNL     1      18.115   4.946  -5.023  1.00  0.00     0.160 HD
ENDROOT
BRANCH   1   4
HETATM    4  C3  UNL     1      20.250   4.165  -3.689  1.00  0.00     0.084 C 
HETATM    5  C4  UNL     1      21.754   4.113  -3.389  1.00  0.00     0.032 C 
HETATM    6  C5  UNL     1      20.000   3.122  -4.789  1.00  0.00     0.032 C 
BRANCH   4   7
HETATM    7  C2  UNL     1      19.512   3.752  -2.482  1.00  0.00     0.272 C 
HETATM    8  O2  UNL     1      18.291   4.023  -2.406  1.00  0.00    -0.264 OA
BRANCH   7   9
HETATM    9  O1  UNL     1      20.091   3.082  -1.419  1.00  0.00    -0.326 OA
HETATM   10  C1  UNL     1      19.325   2.219  -0.565  1.00  0.00     0.213 C 
ENDBRANCH   7   9
ENDBRANCH   4   7
ENDBRANCH   1   4
BRANCH   1  11
HETATM   11  C7  UNL     1      20.769   6.583  -4.027  1.00  0.00     0.132 C 
BRANCH  11  12
HETATM   12  N1  UNL     1      20.555   7.490  -3.191  1.00  0.00    -0.317 N 
HETATM   13  N2  UNL     1      20.453   8.621  -2.709  1.00  0.00    -0.345 N 
ATOM     14  H22 UNL     1      20.718   9.135  -3.548  1.00  0.00     0.176 HD
ATOM     15  H21 UNL     1      20.279   9.360  -2.027  1.00  0.00     0.176 HD
ATOM     16  H1  UNL     1      20.298   6.928  -2.380  1.00  0.00     0.185 HD
ENDBRANCH  11  12
ENDBRANCH   1  11
BRANCH   2  17
HETATM   17  C8  UNL     1      18.424   7.020  -5.385  1.00  0.00     0.115 C 
HETATM   18  C9  UNL     1      17.122   7.526  -4.909  1.00  0.00     0.028 C 
HETATM   19  C10 UNL     1      16.174   8.039  -5.913  1.00  0.00     0.002 C 
HETATM   20  C11 UNL     1      16.717   8.548  -7.186  1.00  0.00     0.003 C 
HETATM   21  C12 UNL     1      18.202   8.364  -7.368  1.00  0.00     0.039 C 
HETATM   22  C13 UNL     1      18.539   6.962  -6.904  1.00  0.00     0.192 C 
HETATM   23  F1  UNL     1      19.846   6.686  -7.198  1.00  0.00    -0.247 F 
ENDBRANCH   2  17
TORSDOF 6
ENDMDL
MODEL 5
REMARK VINA RESULT: -5.850183339      2.611      5.606
REMARK  6 active torsions:
REMARK  status: ('A' for Active; 'I' for Inactive)
REMARK    1  A    between atoms: O1_2  and  C2_3 
REMARK    2  A    between atoms: C2_3  and  C3_5 
REMARK    3  A    between atoms: C3_5  and  C6_8 
REMARK    4  A    between atoms: C6_8  and  C7_9 
REMARK    5  A    between atoms: C7_9  and  N1_10 
REMARK    6  A    between atoms: N3_15  and  C8_17 
ROOT
HETATM    1  C6  UNL     1      19.126   7.208  -4.320  1.00  0.00     0.040 C 
HETATM    2  N3  UNL     1      19.900   8.213  -4.367  1.00  0.00    -0.384 N 
ATOM      3  H3  UNL     1      19.712   8.928  -5.070  1.00  0.00     0.160 HD
ENDROOT
BRANCH   1   4
HETATM    4  C3  UNL     1      17.971   6.951  -5.176  1.00  0.00     0.084 C 
HETATM    5  C4  UNL     1      16.748   7.778  -4.761  1.00  0.00     0.032 C 
HETATM    6  C5  UNL     1      17.582   5.480  -4.960  1.00  0.00     0.032 C 
BRANCH   4   7
HETATM    7  C2  UNL     1      18.220   7.160  -6.612  1.00  0.00     0.272 C 
HETATM    8  O2  UNL     1      19.378   6.972  -7.053  1.00  0.00    -0.264 OA
BRANCH   7   9
HETATM    9  O1  UNL     1      17.246   7.557  -7.511  1.00  0.00    -0.326 OA
HETATM   10  C1  UNL     1      17.288   8.842  -8.151  1.00  0.00     0.213 C 
ENDBRANCH   7   9
ENDBRANCH   4   7
ENDBRANCH   1   4
BRANCH   1  11
HETATM   11  C7  UNL     1      19.426   6.193  -3.293  1.00  0.00     0.132 C 
BRANCH  11  12
HETATM   12  N1  UNL     1      20.311   5.321  -3.443  1.00  0.00    -0.317 N 
HETATM   13  N2  UNL     1      20.855   4.214  -3.466  1.00  0.00    -0.345 N 
ATOM     14  H22 UNL     1      20.044   3.673  -3.167  1.00  0.00     0.176 HD
ATOM     15  H21 UNL     1      21.577   3.503  -3.588  1.00  0.00     0.176 HD
ATOM     16  H1  UNL     1      21.091   5.908  -3.738  1.00  0.00     0.185 HD
ENDBRANCH  11  12
ENDBRANCH   1  11
BRANCH   2  17
HETATM   17  C8  UNL     1      21.033   8.410  -3.485  1.00  0.00     0.115 C 
HETATM   18  C9  UNL     1      20.910   9.587  -2.604  1.00  0.00     0.028 C 
HETATM   19  C10 UNL     1      22.044  10.526  -2.547  1.00  0.00     0.002 C 
HETATM   20  C11 UNL     1      23.388  10.014  -2.872  1.00  0.00     0.003 C 
HETATM   21  C12 UNL     1      23.430   8.588  -3.359  1.00  0.00     0.039 C 
HETATM   22  C13 UNL     1      22.292   8.420  -4.346  1.00  0.00     0.192 C 
HETATM   23  F1  UNL     1      22.382   7.191  -4.940  1.00  0.00    -0.247 F 
ENDBRANCH   2  17
TORSDOF 6
ENDMDL
