MODEL 1
REMARK VINA RESULT: -6.401582868      0.000      0.000
REMARK  4 active torsions:
REMARK  status: ('A' for Active; 'I' for Inactive)
REMARK    1  A    between atoms: C2_2  and  C3_4 
REMARK       I    between atoms: C3_4  and  N1_6 
REMARK    2  A    between atoms: C6_10  and  C7_11 
REMARK    3  A    between atoms: C7_11  and  O2_12 
REMARK    4  A    between atoms: O2_12  and  C8_13 
ROOT
HETATM    1  C3  UNL     1      18.737   7.112  -5.697  1.00  0.00     0.239 C 
HETATM    2  O1  UNL     1      19.663   7.914  -5.964  1.00  0.00    -0.272 OA
HETATM    3  N1  UNL     1      18.892   6.183  -4.651  1.00  0.00    -0.335 N 
HETATM    4  C4  UNL     1      17.871   5.234  -4.282  1.00  0.00     0.137 C 
HETATM    5  C5  UNL     1      18.487   3.844  -4.530  1.00  0.00     0.096 C 
HETATM    6  S1  UNL     1      20.116   4.167  -3.786  1.00  0.00    -0.140 SA
HETATM    7  C6  UNL     1      19.999   6.011  -3.786  1.00  0.00     0.172 C 
ENDROOT
BRANCH   7   8
HETATM    8  C7  UNL     1      21.306   6.604  -4.209  1.00  0.00     0.204 C 
BRANCH   8   9
HETATM    9  O2  UNL     1      22.058   7.117  -3.189  1.00  0.00    -0.383 OA
BRANCH   9  10
HETATM   10  C8  UNL     1      22.584   8.373  -3.470  1.00  0.00     0.121 C 
HETATM   11  C9  UNL     1      21.434   9.372  -3.375  1.00  0.00     0.032 C 
HETATM   12  C10 UNL     1      21.993  10.588  -2.677  1.00  0.00     0.002 C 
HETATM   13  C11 UNL     1      23.485  10.358  -2.535  1.00  0.00     0.002 C 
HETATM   14  C12 UNL     1      23.577   8.846  -2.454  1.00  0.00     0.032 C 
ENDBRANCH   9  10
ENDBRANCH   8   9
ENDBRANCH   7   8
BRANCH   1  15
HETATM   15  C2  UNL     1      17.511   7.207  -6.532  1.00  0.00     0.170 C 
HETATM   16  C1  UNL     1      17.827   8.035  -7.761  1.00  0.00     0.036 C 
HETATM   17 CL1  UNL     1      16.184   7.997  -5.646  1.00  0.00    -0.115 Cl
ENDBRANCH   1  15
TORSDOF 4
ENDMDL
MODEL 2
REMARK VINA RESULT: -6.014985466      1.080      1.495
REMARK  4 active torsions:
REMARK  status: ('A' for Active; 'I' for Inactive)
REMARK    1  A    between atoms: C2_2  and  C3_4 
REMARK       I    between atoms: C3_4  and  N1_6 
REMARK    2  A    between atoms: C6_10  and  C7_11 
REMARK    3  A    between atoms: C7_11  and  O2_12 
REMARK    4  A    between atoms: O2_12  and  C8_13 
ROOT
HETATM    1  C3  UNL     1      18.509   7.607  -5.839  1.00  0.00     0.239 C 
HETATM    2  O1  UNL     1      19.263   8.592  -6.024  1.00  0.00    -0.272 OA
HETATM    3  N1  UNL     1      18.716   6.764  -4.732  1.00  0.00    -0.335 N 
HETATM    4  C4  UNL     1      17.889   5.616  -4.451  1.00  0.00     0.137 C 
HETATM    5  C5  UNL     1      18.827   4.398  -4.537  1.00  0.00     0.096 C 
HETATM    6  S1  UNL     1      20.221   5.100  -3.601  1.00  0.00    -0.140 SA
HETATM    7  C6  UNL     1      19.699   6.868  -3.719  1.00  0.00     0.172 C 
ENDROOT
BRANCH   7   8
HETATM    8  C7  UNL     1      20.888   7.733  -3.995  1.00  0.00     0.204 C 
BRANCH   8   9
HETATM    9  O2  UNL     1      21.912   7.105  -4.648  1.00  0.00    -0.383 OA
BRANCH   9  10
HETATM   10  C8  UNL     1      23.170   7.521  -4.228  1.00  0.00     0.121 C 
HETATM   11  C9  UNL     1      22.962   8.713  -3.300  1.00  0.00     0.032 C 
HETATM   12  C10 UNL     1      23.934   8.529  -2.159  1.00  0.00     0.002 C 
HETATM   13  C11 UNL     1      24.808   7.344  -2.522  1.00  0.00     0.002 C 
HETATM   14  C12 UNL     1      23.884   6.508  -3.386  1.00  0.00     0.032 C 
ENDBRANCH   9  10
ENDBRANCH   8   9
ENDBRANCH   7   8
BRANCH   1  15
HETATM   15  C2  UNL     1      17.425   7.401  -6.834  1.00  0.00     0.170 C 
HETATM   16  C1  UNL     1      17.808   8.110  -8.119  1.00  0.00     0.036 C 
HETATM   17 CL1  UNL     1      15.881   8.073  -6.258  1.00  0.00    -0.115 Cl
ENDBRANCH   1  15
TORSDOF 4
ENDMDL
MODEL 3
REMARK VINA RESULT: -5.938672696      1.050      1.085
REMARK  4 active torsions:
REMARK  status: ('A' for Active; 'I' for Inactive)
REMARK    1  A    between atoms: C2_2  and  C3_4 
REMARK       I    between atoms: C3_4  and  N1_6 
REMARK    2  A    between atoms: C6_10  and  C7_11 
REMARK    3  A    between atoms: C7_11  and  O2_12 
REMARK    4  A    between atoms: O2_12  and  C8_13 
ROOT
HETATM    1  C3  UNL     1      17.861   6.576  -4.972  1.00  0.00     0.239 C 
HETATM    2  O1  UNL     1      18.267   7.760  -5.048  1.00  0.00    -0.272 OA
HETATM    3  N1  UNL     1      18.517   5.662  -4.127  1.00  0.00    -0.335 N 
HETATM    4  C4  UNL     1      18.106   4.288  -3.984  1.00  0.00     0.137 C 
HETATM    5  C5  UNL     1      19.294   3.444  -4.485  1.00  0.00     0.096 C 
HETATM    6  S1  UNL     1      20.617   4.370  -3.645  1.00  0.00    -0.140 SA
HETATM    7  C6  UNL     1      19.630   5.889  -3.282  1.00  0.00     0.172 C 
ENDROOT
BRANCH   7   8
HETATM    8  C7  UNL     1      20.458   7.108  -3.541  1.00  0.00     0.204 C 
BRANCH   8   9
HETATM    9  O2  UNL     1      21.803   6.931  -3.374  1.00  0.00    -0.383 OA
BRANCH   9  10
HETATM   10  C8  UNL     1      22.540   8.094  -3.569  1.00  0.00     0.121 C 
HETATM   11  C9  UNL     1      21.544   9.246  -3.660  1.00  0.00     0.032 C 
HETATM   12  C10 UNL     1      22.154  10.388  -2.883  1.00  0.00     0.002 C 
HETATM   13  C11 UNL     1      23.557   9.954  -2.505  1.00  0.00     0.002 C 
HETATM   14  C12 UNL     1      23.419   8.447  -2.409  1.00  0.00     0.032 C 
ENDBRANCH   9  10
ENDBRANCH   8   9
ENDBRANCH   7   8
BRANCH   1  15
HETATM   15  C2  UNL     1      16.683   6.220  -5.806  1.00  0.00     0.170 C 
HETATM   16  C1  UNL     1      16.528   7.266  -6.892  1.00  0.00     0.036 C 
HETATM   17 CL1  UNL     1      15.191   6.188  -4.838  1.00  0.00    -0.115 Cl
ENDBRANCH   1  15
TORSDOF 4
ENDMDL
MODEL 4
REMARK VINA RESULT: -5.908067562      3.763      5.215
REMARK  4 active torsions:
REMARK  status: ('A' for Active; 'I' for Inactive)
REMARK    1  A    between atoms: C2_2  and  C3_4 
REMARK       I    between atoms: C3_4  and  N1_6 
REMARK    2  A    between atoms: C6_10  and  C7_11 
REMARK    3  A    between atoms: C7_11  and  O2_12 
REMARK    4  A    between atoms: O2_12  and  C8_13 
ROOT
HETATM    1  C3  UNL     1      21.128   6.521  -3.917  1.00  0.00     0.239 C 
HETATM    2  O1  UNL     1      21.369   5.307  -3.722  1.00  0.00    -0.272 OA
HETATM    3  N1  UNL     1      22.168   7.466  -3.834  1.00  0.00    -0.335 N 
HETATM    4  C4  UNL     1      21.969   8.877  -4.049  1.00  0.00     0.137 C 
HETATM    5  C5  UNL     1      22.330   9.556  -2.714  1.00  0.00     0.096 C 
HETATM    6  S1  UNL     1      23.854   8.622  -2.373  1.00  0.00    -0.140 SA
HETATM    7  C6  UNL     1      23.539   7.242  -3.560  1.00  0.00     0.172 C 
ENDROOT
BRANCH   7   8
HETATM    8  C7  UNL     1      23.915   5.936  -2.934  1.00  0.00     0.204 C 
BRANCH   8   9
HETATM    9  O2  UNL     1      24.751   6.038  -1.857  1.00  0.00    -0.383 OA
BRANCH   9  10
HETATM   10  C8  UNL     1      25.381   4.842  -1.534  1.00  0.00     0.121 C 
HETATM   11  C9  UNL     1      24.846   3.780  -2.490  1.00  0.00     0.032 C 
HETATM   12  C10 UNL     1      26.035   2.940  -2.889  1.00  0.00     0.002 C 
HETATM   13  C11 UNL     1      27.199   3.404  -2.035  1.00  0.00     0.002 C 
HETATM   14  C12 UNL     1      26.858   4.859  -1.780  1.00  0.00     0.032 C 
ENDBRANCH   9  10
ENDBRANCH   8   9
ENDBRANCH   7   8
BRANCH   1  15
HETATM   15  C2  UNL     1      19.720   6.880  -4.229  1.00  0.00     0.170 C 
HETATM   16  C1  UNL     1      18.837   5.690  -3.909  1.00  0.00     0.036 C 
HETATM   17 CL1  UNL     1      19.520   7.283  -5.951  1.00  0.00    -0.115 Cl
ENDBRANCH   1  15
TORSDOF 4
ENDMDL
MODEL 5
REMARK VINA RESULT: -5.808089357      1.124      1.463
REMARK  4 active torsions:
REMARK  status: ('A' for Active; 'I' for Inactive)
REMARK    1  A    between atoms: C2_2  and  C3_4 
REMARK       I    between atoms: C3_4  and  N1_6 
REMARK    2  A    between atoms: C6_10  and  C7_11 
REMARK    3  A    between atoms: C7_11  and  O2_12 
REMARK    4  A    between atoms: O2_12  and  C8_13 
ROOT
HETATM    1  C3  UNL     1      18.284   6.876  -5.795  1.00  0.00     0.239 C 
HETATM    2  O1  UNL     1      19.318   7.540  -6.043  1.00  0.00    -0.272 OA
HETATM    3  N1  UNL     1      18.313   5.875  -4.806  1.00  0.00    -0.335 N 
HETATM    4  C4  UNL     1      17.165   5.074  -4.463  1.00  0.00     0.137 C 
HETATM    5  C5  UNL     1      17.553   3.623  -4.804  1.00  0.00     0.096 C 
HETATM    6  S1  UNL     1      19.226   3.648  -4.088  1.00  0.00    -0.140 SA
HETATM    7  C6  UNL     1      19.396   5.484  -3.983  1.00  0.00     0.172 C 
ENDROOT
BRANCH   7   8
HETATM    8  C7  UNL     1      20.771   5.894  -4.408  1.00  0.00     0.204 C 
BRANCH   8   9
HETATM    9  O2  UNL     1      21.649   6.102  -3.381  1.00  0.00    -0.383 OA
BRANCH   9  10
HETATM   10  C8  UNL     1      22.265   7.347  -3.427  1.00  0.00     0.121 C 
HETATM   11  C9  UNL     1      22.868   7.498  -4.819  1.00  0.00     0.032 C 
HETATM   12  C10 UNL     1      22.596   8.923  -5.241  1.00  0.00     0.002 C 
HETATM   13  C11 UNL     1      22.004   9.625  -4.035  1.00  0.00     0.002 C 
HETATM   14  C12 UNL     1      21.307   8.493  -3.306  1.00  0.00     0.032 C 
ENDBRANCH   9  10
ENDBRANCH   8   9
ENDBRANCH   7   8
BRANCH   1  15
HETATM   15  C2  UNL     1      17.072   7.207  -6.590  1.00  0.00     0.170 C 
HETATM   16  C1  UNL     1      17.479   8.114  -7.735  1.00  0.00     0.036 C 
HETATM   17 CL1  UNL     1      15.862   8.057  -5.601  1.00  0.00    -0.115 Cl
ENDBRANCH   1  15
TORSDOF 4
ENDMDL
