MODEL 1
REMARK VINA RESULT: -6.341370480      0.000      0.000
REMARK  6 active torsions:
REMARK  status: ('A' for Active; 'I' for Inactive)
REMARK    1  A    between atoms: C2_2  and  C4_4 
REMARK    2  A    between atoms: C4_4  and  C5_6 
REMARK    3  A    between atoms: C5_6  and  N1_8 
REMARK    4  A    between atoms: N1_8  and  C7_9 
REMARK       I    between atoms: N1_8  and  C12_16 
REMARK    5  A    between atoms: C7_9  and  C8_10 
REMARK    6  A    between atoms: C12_16  and  C13_18 
ROOT
HETATM    1  N1  UNL     1      21.247   6.648  -4.851  1.00  0.00    -0.335 N 
HETATM    2  C12 UNL     1      21.038   5.374  -4.298  1.00  0.00     0.224 C 
HETATM    3  O3  UNL     1      21.378   5.147  -3.106  1.00  0.00    -0.273 OA
ENDROOT
BRANCH   1   4
HETATM    4  C5  UNL     1      21.848   7.656  -3.984  1.00  0.00     0.153 C 
HETATM    5  C6  UNL     1      20.919   8.790  -3.678  1.00  0.00     0.040 C 
BRANCH   4   6
HETATM    6  C4  UNL     1      23.073   8.238  -4.586  1.00  0.00     0.152 C 
HETATM    7  O1  UNL     1      23.038   8.875  -5.599  1.00  0.00    -0.295 OA
BRANCH   6   8
HETATM    8  C2  UNL     1      24.367   8.024  -3.915  1.00  0.00     0.049 C 
HETATM    9  C1  UNL     1      24.609   6.549  -3.690  1.00  0.00     0.017 C 
HETATM   10  C3  UNL     1      24.455   8.721  -2.577  1.00  0.00     0.017 C 
ENDBRANCH   6   8
ENDBRANCH   4   6
ENDBRANCH   1   4
BRANCH   1  11
HETATM   11  C7  UNL     1      20.861   6.962  -6.183  1.00  0.00     0.191 C 
BRANCH  11  12
HETATM   12  C8  UNL     1      19.553   7.598  -6.369  1.00  0.00     0.072 A 
HETATM   13  C9  UNL     1      19.149   8.668  -7.136  1.00  0.00     0.038 A 
HETATM   14  C10 UNL     1      17.794   8.804  -6.903  1.00  0.00     0.048 A 
HETATM   15  C11 UNL     1      17.419   7.830  -6.016  1.00  0.00     0.121 A 
HETATM   16 BR1  UNL     1      15.634   7.545  -5.333  1.00  0.00    -0.023 Br
HETATM   17  O2  UNL     1      18.479   7.139  -5.723  1.00  0.00    -0.306 OA
ENDBRANCH  11  12
ENDBRANCH   1  11
BRANCH   2  18
HETATM   18  C13 UNL     1      20.437   4.275  -5.042  1.00  0.00     0.070 C 
HETATM   19  C14 UNL     1      21.241   3.002  -5.084  1.00  0.00     0.019 C 
HETATM   20  C15 UNL     1      19.039   3.939  -4.539  1.00  0.00     0.019 C 
ENDBRANCH   2  18
TORSDOF 6
ENDMDL
MODEL 2
REMARK VINA RESULT: -6.003772166      2.744      5.315
REMARK  6 active torsions:
REMARK  status: ('A' for Active; 'I' for Inactive)
REMARK    1  A    between atoms: C2_2  and  C4_4 
REMARK    2  A    between atoms: C4_4  and  C5_6 
REMARK    3  A    between atoms: C5_6  and  N1_8 
REMARK    4  A    between atoms: N1_8  and  C7_9 
REMARK       I    between atoms: N1_8  and  C12_16 
REMARK    5  A    between atoms: C7_9  and  C8_10 
REMARK    6  A    between atoms: C12_16  and  C13_18 
ROOT
HETATM    1  N1  UNL     1      19.506   6.420  -4.485  1.00  0.00    -0.335 N 
HETATM    2  C12 UNL     1      19.565   5.054  -4.167  1.00  0.00     0.224 C 
HETATM    3  O3  UNL     1      19.270   4.195  -5.040  1.00  0.00    -0.273 OA
ENDROOT
BRANCH   1   4
HETATM    4  C5  UNL     1      19.108   6.767  -5.845  1.00  0.00     0.153 C 
HETATM    5  C6  UNL     1      20.234   7.328  -6.657  1.00  0.00     0.040 C 
BRANCH   4   6
HETATM    6  C4  UNL     1      18.012   7.768  -5.859  1.00  0.00     0.152 C 
HETATM    7  O1  UNL     1      18.149   8.846  -6.359  1.00  0.00    -0.295 OA
BRANCH   6   8
HETATM    8  C2  UNL     1      16.722   7.419  -5.239  1.00  0.00     0.049 C 
HETATM    9  C1  UNL     1      16.259   6.058  -5.708  1.00  0.00     0.017 C 
HETATM   10  C3  UNL     1      15.633   8.417  -5.553  1.00  0.00     0.017 C 
ENDBRANCH   6   8
ENDBRANCH   4   6
ENDBRANCH   1   4
BRANCH   1  11
HETATM   11  C7  UNL     1      19.851   7.428  -3.543  1.00  0.00     0.191 C 
BRANCH  11  12
HETATM   12  C8  UNL     1      21.189   8.018  -3.653  1.00  0.00     0.072 A 
HETATM   13  C9  UNL     1      21.612   9.317  -3.825  1.00  0.00     0.038 A 
HETATM   14  C10 UNL     1      22.992   9.259  -3.857  1.00  0.00     0.048 A 
HETATM   15  C11 UNL     1      23.363   7.949  -3.706  1.00  0.00     0.121 A 
HETATM   16 BR1  UNL     1      25.176   7.280  -3.674  1.00  0.00    -0.023 Br
HETATM   17  O2  UNL     1      22.277   7.247  -3.589  1.00  0.00    -0.306 OA
ENDBRANCH  11  12
ENDBRANCH   1  11
BRANCH   2  18
HETATM   18  C13 UNL     1      19.959   4.561  -2.853  1.00  0.00     0.070 C 
HETATM   19  C14 UNL     1      18.865   3.906  -2.051  1.00  0.00     0.019 C 
HETATM   20  C15 UNL     1      21.136   3.599  -2.930  1.00  0.00     0.019 C 
ENDBRANCH   2  18
TORSDOF 6
ENDMDL
MODEL 3
REMARK VINA RESULT: -5.965132824      1.281      1.992
REMARK  6 active torsions:
REMARK  status: ('A' for Active; 'I' for Inactive)
REMARK    1  A    between atoms: C2_2  and  C4_4 
REMARK    2  A    between atoms: C4_4  and  C5_6 
REMARK    3  A    between atoms: C5_6  and  N1_8 
REMARK    4  A    between atoms: N1_8  and  C7_9 
REMARK       I    between atoms: N1_8  and  C12_16 
REMARK    5  A    between atoms: C7_9  and  C8_10 
REMARK    6  A    between atoms: C12_16  and  C13_18 
ROOT
HETATM    1  N1  UNL     1      21.258   6.985  -4.042  1.00  0.00    -0.335 N 
HETATM    2  C12 UNL     1      21.022   5.625  -3.785  1.00  0.00     0.224 C 
HETATM    3  O3  UNL     1      21.960   4.793  -3.909  1.00  0.00    -0.273 OA
ENDROOT
BRANCH   1   4
HETATM    4  C5  UNL     1      22.613   7.359  -4.433  1.00  0.00     0.153 C 
HETATM    5  C6  UNL     1      23.665   6.672  -3.620  1.00  0.00     0.040 C 
BRANCH   4   6
HETATM    6  C4  UNL     1      22.839   8.821  -4.303  1.00  0.00     0.152 C 
HETATM    7  O1  UNL     1      22.959   9.529  -5.261  1.00  0.00    -0.295 OA
BRANCH   6   8
HETATM    8  C2  UNL     1      22.917   9.412  -2.957  1.00  0.00     0.049 C 
HETATM    9  C1  UNL     1      22.082  10.670  -2.880  1.00  0.00     0.017 C 
HETATM   10  C3  UNL     1      24.330   9.763  -2.552  1.00  0.00     0.017 C 
ENDBRANCH   6   8
ENDBRANCH   4   6
ENDBRANCH   1   4
BRANCH   1  11
HETATM   11  C7  UNL     1      20.240   7.968  -3.894  1.00  0.00     0.191 C 
BRANCH  11  12
HETATM   12  C8  UNL     1      19.412   8.256  -5.069  1.00  0.00     0.072 A 
HETATM   13  C9  UNL     1      19.735   8.628  -6.354  1.00  0.00     0.038 A 
HETATM   14  C10 UNL     1      18.530   8.758  -7.019  1.00  0.00     0.048 A 
HETATM   15  C11 UNL     1      17.526   8.466  -6.134  1.00  0.00     0.121 A 
HETATM   16 BR1  UNL     1      15.633   8.486  -6.519  1.00  0.00    -0.023 Br
HETATM   17  O2  UNL     1      18.081   8.176  -4.996  1.00  0.00    -0.306 OA
ENDBRANCH  11  12
ENDBRANCH   1  11
BRANCH   2  18
HETATM   18  C13 UNL     1      19.722   5.110  -3.374  1.00  0.00     0.070 C 
HETATM   19  C14 UNL     1      18.794   4.720  -4.495  1.00  0.00     0.019 C 
HETATM   20  C15 UNL     1      19.849   3.924  -2.426  1.00  0.00     0.019 C 
ENDBRANCH   2  18
TORSDOF 6
ENDMDL
MODEL 4
REMARK VINA RESULT: -5.931171412      2.309      4.237
REMARK  6 active torsions:
REMARK  status: ('A' for Active; 'I' for Inactive)
REMARK    1  A    between atoms: C2_2  and  C4_4 
REMARK    2  A    between atoms: C4_4  and  C5_6 
REMARK    3  A    between atoms: C5_6  and  N1_8 
REMARK    4  A    between atoms: N1_8  and  C7_9 
REMARK       I    between atoms: N1_8  and  C12_16 
REMARK    5  A    between atoms: C7_9  and  C8_10 
REMARK    6  A    between atoms: C12_16  and  C13_18 
ROOT
HETATM    1  N1  UNL     1      20.181   7.915  -4.537  1.00  0.00    -0.335 N 
HETATM    2  C12 UNL     1      19.037   8.108  -5.328  1.00  0.00     0.224 C 
HETATM    3  O3  UNL     1      19.107   8.816  -6.367  1.00  0.00    -0.273 OA
ENDROOT
BRANCH   1   4
HETATM    4  C5  UNL     1      21.413   8.553  -4.989  1.00  0.00     0.153 C 
HETATM    5  C6  UNL     1      22.086   7.802  -6.096  1.00  0.00     0.040 C 
BRANCH   4   6
HETATM    6  C4  UNL     1      22.398   8.689  -3.886  1.00  0.00     0.152 C 
HETATM    7  O1  UNL     1      22.949   7.740  -3.411  1.00  0.00    -0.295 OA
BRANCH   6   8
HETATM    8  C2  UNL     1      22.700  10.033  -3.365  1.00  0.00     0.049 C 
HETATM    9  C1  UNL     1      24.039  10.041  -2.663  1.00  0.00     0.017 C 
HETATM   10  C3  UNL     1      21.659  10.532  -2.391  1.00  0.00     0.017 C 
ENDBRANCH   6   8
ENDBRANCH   4   6
ENDBRANCH   1   4
BRANCH   1  11
HETATM   11  C7  UNL     1      20.161   7.106  -3.367  1.00  0.00     0.191 C 
BRANCH  11  12
HETATM   12  C8  UNL     1      20.259   5.655  -3.554  1.00  0.00     0.072 A 
HETATM   13  C9  UNL     1      20.960   4.889  -4.458  1.00  0.00     0.038 A 
HETATM   14  C10 UNL     1      20.661   3.576  -4.146  1.00  0.00     0.048 A 
HETATM   15  C11 UNL     1      19.801   3.582  -3.080  1.00  0.00     0.121 A 
HETATM   16 BR1  UNL     1      19.051   2.023  -2.219  1.00  0.00    -0.023 Br
HETATM   17  O2  UNL     1      19.586   4.822  -2.758  1.00  0.00    -0.306 OA
ENDBRANCH  11  12
ENDBRANCH   1  11
BRANCH   2  18
HETATM   18  C13 UNL     1      17.742   7.522  -5.005  1.00  0.00     0.070 C 
HETATM   19  C14 UNL     1      16.544   8.366  -5.348  1.00  0.00     0.019 C 
HETATM   20  C15 UNL     1      17.558   6.151  -5.644  1.00  0.00     0.019 C 
ENDBRANCH   2  18
TORSDOF 6
ENDMDL
MODEL 5
REMARK VINA RESULT: -5.919824433      1.450      4.560
REMARK  6 active torsions:
REMARK  status: ('A' for Active; 'I' for Inactive)
REMARK    1  A    between atoms: C2_2  and  C4_4 
REMARK    2  A    between atoms: C4_4  and  C5_6 
REMARK    3  A    between atoms: C5_6  and  N1_8 
REMARK    4  A    between atoms: N1_8  and  C7_9 
REMARK       I    between atoms: N1_8  and  C12_16 
REMARK    5  A    between atoms: C7_9  and  C8_10 
REMARK    6  A    between atoms: C12_16  and  C13_18 
ROOT
HETATM    1  N1  UNL     1      21.090   6.782  -3.807  1.00  0.00    -0.335 N 
HETATM    2  C12 UNL     1      22.403   7.279  -3.816  1.00  0.00     0.224 C 
HETATM    3  O3  UNL     1      23.371   6.487  -3.967  1.00  0.00    -0.273 OA
ENDROOT
BRANCH   1   4
HETATM    4  C5  UNL     1      20.926   5.344  -3.991  1.00  0.00     0.153 C 
HETATM    5  C6  UNL     1      20.947   4.935  -5.431  1.00  0.00     0.040 C 
BRANCH   4   6
HETATM    6  C4  UNL     1      19.647   4.859  -3.413  1.00  0.00     0.152 C 
HETATM    7  O1  UNL     1      19.383   5.004  -2.255  1.00  0.00    -0.295 OA
BRANCH   6   8
HETATM    8  C2  UNL     1      18.681   4.180  -4.293  1.00  0.00     0.049 C 
HETATM    9  C1  UNL     1      17.329   4.853  -4.215  1.00  0.00     0.017 C 
HETATM   10  C3  UNL     1      18.497   2.721  -3.947  1.00  0.00     0.017 C 
ENDBRANCH   6   8
ENDBRANCH   4   6
ENDBRANCH   1   4
BRANCH   1  11
HETATM   11  C7  UNL     1      19.962   7.637  -3.663  1.00  0.00     0.191 C 
BRANCH  11  12
HETATM   12  C8  UNL     1      19.255   8.023  -4.888  1.00  0.00     0.072 A 
HETATM   13  C9  UNL     1      19.707   8.421  -6.126  1.00  0.00     0.038 A 
HETATM   14  C10 UNL     1      18.573   8.655  -6.880  1.00  0.00     0.048 A 
HETATM   15  C11 UNL     1      17.482   8.398  -6.092  1.00  0.00     0.121 A 
HETATM   16 BR1  UNL     1      15.633   8.559  -6.628  1.00  0.00    -0.023 Br
HETATM   17  O2  UNL     1      17.921   8.029  -4.927  1.00  0.00    -0.306 OA
ENDBRANCH  11  12
ENDBRANCH   1  11
BRANCH   2  18
HETATM   18  C13 UNL     1      22.717   8.694  -3.656  1.00  0.00     0.070 C 
HETATM   19  C14 UNL     1      23.831   9.007  -2.693  1.00  0.00     0.019 C 
HETATM   20  C15 UNL     1      23.033   9.365  -4.986  1.00  0.00     0.019 C 
ENDBRANCH   2  18
TORSDOF 6
ENDMDL
