MODEL 1
REMARK VINA RESULT: -6.203041810      0.000      0.000
REMARK  5 active torsions:
REMARK  status: ('A' for Active; 'I' for Inactive)
REMARK    1  A    between atoms: C2_2  and  N1_3 
REMARK    2  A    between atoms: N2_6  and  C5_7 
REMARK    3  A    between atoms: C5_7  and  C6_8 
REMARK    4  A    between atoms: C12_15  and  C13_16 
REMARK    5  A    between atoms: C12_15  and  C14_18 
ROOT
HETATM    1  N1  UNL     1      16.931   6.328  -5.998  1.00  0.00    -0.408 N 
HETATM    2  C3  UNL     1      18.046   7.184  -6.100  1.00  0.00     0.161 C 
HETATM    3  C4  UNL     1      18.618   7.363  -4.683  1.00  0.00     0.083 C 
HETATM    4  N2  UNL     1      19.641   6.520  -4.328  1.00  0.00    -0.356 N 
HETATM    5  C12 UNL     1      19.410   5.097  -4.278  1.00  0.00     0.068 C 
HETATM    6  C18 UNL     1      18.141   4.602  -4.824  1.00  0.00     0.056 C 
HETATM    7  C19 UNL     1      16.924   5.434  -4.858  1.00  0.00     0.120 C 
ENDROOT
BRANCH   4   8
HETATM    8  C5  UNL     1      20.770   7.017  -3.676  1.00  0.00     0.100 C 
BRANCH   8   9
HETATM    9  C6  UNL     1      21.856   7.679  -4.418  1.00  0.00     0.262 C 
HETATM   10  C7  UNL     1      23.243   7.369  -3.817  1.00  0.00     0.048 C 
HETATM   11  C8  UNL     1      24.051   8.534  -4.276  1.00  0.00     0.018 C 
HETATM   12  C9  UNL     1      23.907   9.588  -3.182  1.00  0.00     0.036 C 
HETATM   13  C11 UNL     1      23.115   9.221  -5.287  1.00  0.00     0.278 C 
HETATM   14  C10 UNL     1      22.398   9.720  -3.209  1.00  0.00     0.273 C 
HETATM   15  N3  UNL     1      21.904   9.124  -4.428  1.00  0.00     0.098 N 
ENDBRANCH   8   9
ENDBRANCH   4   8
BRANCH   5  16
HETATM   16  C13 UNL     1      19.468   4.708  -2.814  1.00  0.00     0.150 C 
HETATM   17 CL1  UNL     1      18.449   3.254  -2.505  1.00  0.00    -0.128 Cl
ENDBRANCH   5  16
BRANCH   5  18
HETATM   18  C14 UNL     1      20.598   4.558  -5.036  1.00  0.00     0.007 C 
HETATM   19  C15 UNL     1      21.268   3.328  -4.750  1.00  0.00    -0.089 C 
HETATM   20  C16 UNL     1      20.621   2.002  -4.764  1.00  0.00     0.042 C 
HETATM   21  C17 UNL     1      22.223   3.362  -3.570  1.00  0.00     0.042 C 
ENDBRANCH   5  18
BRANCH   1  22
HETATM   22  C2  UNL     1      15.660   6.848  -6.340  1.00  0.00     0.112 C 
HETATM   23  C1  UNL     1      15.633   8.344  -6.534  1.00  0.00     0.026 C 
ENDBRANCH   1  22
TORSDOF 5
ENDMDL
MODEL 2
REMARK VINA RESULT: -5.995298308      2.260      5.315
REMARK  5 active torsions:
REMARK  status: ('A' for Active; 'I' for Inactive)
REMARK    1  A    between atoms: C2_2  and  N1_3 
REMARK    2  A    between atoms: N2_6  and  C5_7 
REMARK    3  A    between atoms: C5_7  and  C6_8 
REMARK    4  A    between atoms: C12_15  and  C13_16 
REMARK    5  A    between atoms: C12_15  and  C14_18 
ROOT
HETATM    1  N1  UNL     1      18.009   8.666  -6.176  1.00  0.00    -0.408 N 
HETATM    2  C3  UNL     1      17.647   7.940  -5.024  1.00  0.00     0.161 C 
HETATM    3  C4  UNL     1      18.577   6.717  -4.941  1.00  0.00     0.083 C 
HETATM    4  N2  UNL     1      19.701   6.859  -4.166  1.00  0.00    -0.356 N 
HETATM    5  C12 UNL     1      20.692   7.847  -4.516  1.00  0.00     0.068 C 
HETATM    6  C18 UNL     1      20.340   8.808  -5.568  1.00  0.00     0.056 C 
HETATM    7  C19 UNL     1      19.372   8.485  -6.633  1.00  0.00     0.120 C 
ENDROOT
BRANCH   4   8
HETATM    8  C5  UNL     1      20.078   5.849  -3.279  1.00  0.00     0.100 C 
BRANCH   8   9
HETATM    9  C6  UNL     1      19.591   4.469  -3.437  1.00  0.00     0.262 C 
HETATM   10  C7  UNL     1      18.860   3.962  -2.175  1.00  0.00     0.048 C 
HETATM   11  C8  UNL     1      19.006   2.485  -2.299  1.00  0.00     0.018 C 
HETATM   12  C9  UNL     1      20.307   2.141  -1.580  1.00  0.00     0.036 C 
HETATM   13  C11 UNL     1      19.561   2.316  -3.726  1.00  0.00     0.278 C 
HETATM   14  C10 UNL     1      21.240   3.013  -2.394  1.00  0.00     0.273 C 
HETATM   15  N3  UNL     1      20.562   3.410  -3.606  1.00  0.00     0.098 N 
ENDBRANCH   8   9
ENDBRANCH   4   8
BRANCH   5  16
HETATM   16  C13 UNL     1      21.914   7.079  -4.978  1.00  0.00     0.150 C 
HETATM   17 CL1  UNL     1      22.960   8.118  -6.015  1.00  0.00    -0.128 Cl
ENDBRANCH   5  16
BRANCH   5  18
HETATM   18  C14 UNL     1      20.939   8.527  -3.192  1.00  0.00     0.007 C 
HETATM   19  C15 UNL     1      21.916   9.545  -2.960  1.00  0.00    -0.089 C 
HETATM   20  C16 UNL     1      21.957  10.840  -3.666  1.00  0.00     0.042 C 
HETATM   21  C17 UNL     1      23.346   9.058  -2.809  1.00  0.00     0.042 C 
ENDBRANCH   5  18
BRANCH   1  22
HETATM   22  C2  UNL     1      17.056   8.785  -7.215  1.00  0.00     0.112 C 
HETATM   23  C1  UNL     1      15.633   8.534  -6.783  1.00  0.00     0.026 C 
ENDBRANCH   1  22
TORSDOF 5
ENDMDL
MODEL 3
REMARK VINA RESULT: -5.737461119     10.960     14.264
REMARK  5 active torsions:
REMARK  status: ('A' for Active; 'I' for Inactive)
REMARK    1  A    between atoms: C2_2  and  N1_3 
REMARK    2  A    between atoms: N2_6  and  C5_7 
REMARK    3  A    between atoms: C5_7  and  C6_8 
REMARK    4  A    between atoms: C12_15  and  C13_16 
REMARK    5  A    between atoms: C12_15  and  C14_18 
ROOT
HETATM    1  N1  UNL     1      27.116  -2.981  -0.341  1.00  0.00    -0.408 N 
HETATM    2  C3  UNL     1      28.487  -3.294  -0.434  1.00  0.00     0.161 C 
HETATM    3  C4  UNL     1      28.704  -4.008  -1.780  1.00  0.00     0.083 C 
HETATM    4  N2  UNL     1      29.093  -3.217  -2.832  1.00  0.00    -0.356 N 
HETATM    5  C12 UNL     1      28.222  -2.165  -3.296  1.00  0.00     0.068 C 
HETATM    6  C18 UNL     1      27.049  -1.850  -2.472  1.00  0.00     0.056 C 
HETATM    7  C19 UNL     1      26.411  -2.855  -1.600  1.00  0.00     0.120 C 
ENDROOT
BRANCH   4   8
HETATM    8  C5  UNL     1      30.122  -3.628  -3.680  1.00  0.00     0.100 C 
BRANCH   8   9
HETATM    9  C6  UNL     1      30.781  -4.933  -3.511  1.00  0.00     0.262 C 
HETATM   10  C7  UNL     1      32.295  -4.790  -3.247  1.00  0.00     0.048 C 
HETATM   11  C8  UNL     1      32.820  -6.107  -3.703  1.00  0.00     0.018 C 
HETATM   12  C9  UNL     1      33.147  -5.926  -5.183  1.00  0.00     0.036 C 
HETATM   13  C11 UNL     1      31.536  -6.929  -3.921  1.00  0.00     0.278 C 
HETATM   14  C10 UNL     1      31.770  -5.512  -5.658  1.00  0.00     0.273 C 
HETATM   15  N3  UNL     1      30.808  -5.843  -4.633  1.00  0.00     0.098 N 
ENDBRANCH   8   9
ENDBRANCH   4   8
BRANCH   5  16
HETATM   16  C13 UNL     1      27.726  -2.594  -4.663  1.00  0.00     0.150 C 
HETATM   17 CL1  UNL     1      28.301  -1.450  -5.932  1.00  0.00    -0.128 Cl
ENDBRANCH   5  16
BRANCH   5  18
HETATM   18  C14 UNL     1      29.169  -0.994  -3.398  1.00  0.00     0.007 C 
HETATM   19  C15 UNL     1      28.962   0.286  -2.796  1.00  0.00    -0.089 C 
HETATM   20  C16 UNL     1      28.794   0.510  -1.347  1.00  0.00     0.042 C 
HETATM   21  C17 UNL     1      27.989   1.200  -3.519  1.00  0.00     0.042 C 
ENDBRANCH   5  18
BRANCH   1  22
HETATM   22  C2  UNL     1      26.363  -3.590   0.690  1.00  0.00     0.112 C 
HETATM   23  C1  UNL     1      24.894  -3.246   0.673  1.00  0.00     0.026 C 
ENDBRANCH   1  22
TORSDOF 5
ENDMDL
MODEL 4
REMARK VINA RESULT: -5.708849619     11.096     13.798
REMARK  5 active torsions:
REMARK  status: ('A' for Active; 'I' for Inactive)
REMARK    1  A    between atoms: C2_2  and  N1_3 
REMARK    2  A    between atoms: N2_6  and  C5_7 
REMARK    3  A    between atoms: C5_7  and  C6_8 
REMARK    4  A    between atoms: C12_15  and  C13_16 
REMARK    5  A    between atoms: C12_15  and  C14_18 
ROOT
HETATM    1  N1  UNL     1      29.145  -3.478  -8.504  1.00  0.00    -0.408 N 
HETATM    2  C3  UNL     1      29.297  -2.313  -7.726  1.00  0.00     0.161 C 
HETATM    3  C4  UNL     1      28.645  -2.585  -6.359  1.00  0.00     0.083 C 
HETATM    4  N2  UNL     1      29.479  -3.030  -5.364  1.00  0.00    -0.356 N 
HETATM    5  C12 UNL     1      30.167  -4.289  -5.517  1.00  0.00     0.068 C 
HETATM    6  C18 UNL     1      30.109  -4.930  -6.835  1.00  0.00     0.056 C 
HETATM    7  C19 UNL     1      28.984  -4.713  -7.765  1.00  0.00     0.120 C 
ENDROOT
BRANCH   4   8
HETATM    8  C5  UNL     1      29.398  -2.487  -4.081  1.00  0.00     0.100 C 
BRANCH   8   9
HETATM    9  C6  UNL     1      28.532  -1.333  -3.789  1.00  0.00     0.262 C 
HETATM   10  C7  UNL     1      29.343  -0.033  -3.595  1.00  0.00     0.048 C 
HETATM   11  C8  UNL     1      28.424   0.789  -2.759  1.00  0.00     0.018 C 
HETATM   12  C9  UNL     1      28.778   0.453  -1.313  1.00  0.00     0.036 C 
HETATM   13  C11 UNL     1      27.114  -0.020  -2.797  1.00  0.00     0.278 C 
HETATM   14  C10 UNL     1      28.532  -1.041  -1.373  1.00  0.00     0.273 C 
HETATM   15  N3  UNL     1      27.768  -1.336  -2.562  1.00  0.00     0.098 N 
ENDBRANCH   8   9
ENDBRANCH   4   8
BRANCH   5  16
HETATM   16  C13 UNL     1      29.547  -5.238  -4.511  1.00  0.00     0.150 C 
HETATM   17 CL1  UNL     1      29.603  -6.932  -5.122  1.00  0.00    -0.128 Cl
ENDBRANCH   5  16
BRANCH   5  18
HETATM   18  C14 UNL     1      31.579  -3.924  -5.130  1.00  0.00     0.007 C 
HETATM   19  C15 UNL     1      32.567  -4.844  -4.660  1.00  0.00    -0.089 C 
HETATM   20  C16 UNL     1      33.047  -6.015  -5.419  1.00  0.00     0.042 C 
HETATM   21  C17 UNL     1      32.434  -5.262  -3.206  1.00  0.00     0.042 C 
ENDBRANCH   5  18
BRANCH   1  22
HETATM   22  C2  UNL     1      28.362  -3.395  -9.679  1.00  0.00     0.112 C 
HETATM   23  C1  UNL     1      29.122  -2.941 -10.901  1.00  0.00     0.026 C 
ENDBRANCH   1  22
TORSDOF 5
ENDMDL
MODEL 5
REMARK VINA RESULT: -5.662056927      1.621      5.675
REMARK  5 active torsions:
REMARK  status: ('A' for Active; 'I' for Inactive)
REMARK    1  A    between atoms: C2_2  and  N1_3 
REMARK    2  A    between atoms: N2_6  and  C5_7 
REMARK    3  A    between atoms: C5_7  and  C6_8 
REMARK    4  A    between atoms: C12_15  and  C13_16 
REMARK    5  A    between atoms: C12_15  and  C14_18 
ROOT
HETATM    1  N1  UNL     1      21.799   8.936  -4.084  1.00  0.00    -0.408 N 
HETATM    2  C3  UNL     1      22.292   7.932  -4.941  1.00  0.00     0.161 C 
HETATM    3  C4  UNL     1      21.981   6.575  -4.285  1.00  0.00     0.083 C 
HETATM    4  N2  UNL     1      20.819   5.960  -4.681  1.00  0.00    -0.356 N 
HETATM    5  C12 UNL     1      19.551   6.603  -4.435  1.00  0.00     0.068 C 
HETATM    6  C18 UNL     1      19.580   7.993  -3.967  1.00  0.00     0.056 C 
HETATM    7  C19 UNL     1      20.718   8.540  -3.204  1.00  0.00     0.120 C 
ENDROOT
BRANCH   4   8
HETATM    8  C5  UNL     1      20.809   4.597  -4.977  1.00  0.00     0.100 C 
BRANCH   8   9
HETATM    9  C6  UNL     1      21.678   3.649  -4.260  1.00  0.00     0.262 C 
HETATM   10  C7  UNL     1      21.721   2.267  -4.946  1.00  0.00     0.048 C 
HETATM   11  C8  UNL     1      22.100   1.369  -3.821  1.00  0.00     0.018 C 
HETATM   12  C9  UNL     1      20.783   0.921  -3.194  1.00  0.00     0.036 C 
HETATM   13  C11 UNL     1      22.481   2.361  -2.706  1.00  0.00     0.278 C 
HETATM   14  C10 UNL     1      20.232   2.290  -2.850  1.00  0.00     0.273 C 
HETATM   15  N3  UNL     1      21.308   3.252  -2.921  1.00  0.00     0.098 N 
ENDBRANCH   8   9
ENDBRANCH   4   8
BRANCH   5  16
HETATM   16  C13 UNL     1      18.850   5.772  -3.378  1.00  0.00     0.150 C 
HETATM   17 CL1  UNL     1      17.505   4.821  -4.109  1.00  0.00    -0.128 Cl
ENDBRANCH   5  16
BRANCH   5  18
HETATM   18  C14 UNL     1      18.869   6.474  -5.775  1.00  0.00     0.007 C 
HETATM   19  C15 UNL     1      18.243   7.545  -6.486  1.00  0.00    -0.089 C 
HETATM   20  C16 UNL     1      18.934   8.774  -6.923  1.00  0.00     0.042 C 
HETATM   21  C17 UNL     1      16.865   7.944  -5.989  1.00  0.00     0.042 C 
ENDBRANCH   5  18
BRANCH   1  22
HETATM   22  C2  UNL     1      22.728   9.828  -3.500  1.00  0.00     0.112 C 
HETATM   23  C1  UNL     1      22.107  10.890  -2.627  1.00  0.00     0.026 C 
ENDBRANCH   1  22
TORSDOF 5
ENDMDL
