MODEL 1
REMARK VINA RESULT: -7.542578370      0.000      0.000
REMARK  6 active torsions:
REMARK  status: ('A' for Active; 'I' for Inactive)
REMARK    1  A    between atoms: C2_2  and  N1_4 
REMARK    2  A    between atoms: N1_4  and  C4_5 
REMARK       I    between atoms: N1_4  and  C5_7 
REMARK    3  A    between atoms: C5_7  and  C6_9 
REMARK    4  A    between atoms: C6_9  and  O2_10 
REMARK    5  A    between atoms: O2_10  and  C7_11 
REMARK    6  A    between atoms: C7_11  and  C8_13 
ROOT
HETATM    1  C7  UNL     1      24.516   6.907  -2.762  1.00  0.00     0.268 C 
HETATM    2  O3  UNL     1      25.611   7.503  -2.687  1.00  0.00    -0.264 OA
ENDROOT
BRANCH   1   3
HETATM    3  O2  UNL     1      24.445   5.577  -2.403  1.00  0.00    -0.311 OA
BRANCH   3   4
HETATM    4  C6  UNL     1      25.130   4.949  -1.380  1.00  0.00     0.281 C 
BRANCH   4   5
HETATM    5  C5  UNL     1      26.239   4.106  -1.902  1.00  0.00     0.245 C 
HETATM    6  N1  UNL     1      26.104   2.700  -2.033  1.00  0.00    -0.333 N 
HETATM    7  O1  UNL     1      27.330   4.628  -2.241  1.00  0.00    -0.271 OA
BRANCH   6   8
HETATM    8  C2  UNL     1      27.204   1.926  -2.543  1.00  0.00     0.080 C 
HETATM    9  C1  UNL     1      26.704   0.965  -3.596  1.00  0.00     0.032 C 
HETATM   10  C3  UNL     1      27.821   1.188  -1.369  1.00  0.00     0.032 C 
ENDBRANCH   6   8
BRANCH   6  11
HETATM   11  C4  UNL     1      24.882   2.030  -1.665  1.00  0.00     0.241 C 
HETATM   12 CL1  UNL     1      23.621   2.245  -2.910  1.00  0.00    -0.109 Cl
ENDBRANCH   6  11
ENDBRANCH   4   5
ENDBRANCH   3   4
ENDBRANCH   1   3
BRANCH   1  13
HETATM   13  C8  UNL     1      23.264   7.558  -3.223  1.00  0.00     0.049 C 
HETATM   14  C9  UNL     1      22.967   8.661  -2.226  1.00  0.00     0.020 C 
HETATM   15  C10 UNL     1      22.384   9.883  -2.851  1.00  0.00     0.006 C 
HETATM   16  C11 UNL     1      21.199   9.612  -3.723  1.00  0.00    -0.014 C 
HETATM   17  C12 UNL     1      20.414   8.419  -3.328  1.00  0.00     0.009 C 
HETATM   18  C16 UNL     1      21.666   9.605  -5.157  1.00  0.00     0.009 C 
HETATM   19  C13 UNL     1      20.909   7.118  -3.844  1.00  0.00    -0.013 C 
HETATM   20  C14 UNL     1      21.242   7.223  -5.322  1.00  0.00     0.009 C 
HETATM   21  C18 UNL     1      22.114   6.577  -3.150  1.00  0.00     0.024 C 
HETATM   22  C15 UNL     1      22.310   8.278  -5.448  1.00  0.00    -0.013 C 
HETATM   23  C17 UNL     1      23.503   8.057  -4.607  1.00  0.00     0.024 C 
ENDBRANCH   1  13
TORSDOF 6
ENDMDL
MODEL 2
REMARK VINA RESULT: -7.494975876      0.458      1.803
REMARK  6 active torsions:
REMARK  status: ('A' for Active; 'I' for Inactive)
REMARK    1  A    between atoms: C2_2  and  N1_4 
REMARK    2  A    between atoms: N1_4  and  C4_5 
REMARK       I    between atoms: N1_4  and  C5_7 
REMARK    3  A    between atoms: C5_7  and  C6_9 
REMARK    4  A    between atoms: C6_9  and  O2_10 
REMARK    5  A    between atoms: O2_10  and  C7_11 
REMARK    6  A    between atoms: C7_11  and  C8_13 
ROOT
HETATM    1  C7  UNL     1      24.388   6.831  -2.688  1.00  0.00     0.268 C 
HETATM    2  O3  UNL     1      25.316   7.620  -2.416  1.00  0.00    -0.264 OA
ENDROOT
BRANCH   1   3
HETATM    3  O2  UNL     1      24.493   5.509  -2.305  1.00  0.00    -0.311 OA
BRANCH   3   4
HETATM    4  C6  UNL     1      25.250   4.995  -1.270  1.00  0.00     0.281 C 
BRANCH   4   5
HETATM    5  C5  UNL     1      26.334   4.110  -1.773  1.00  0.00     0.245 C 
HETATM    6  N1  UNL     1      26.137   2.715  -1.934  1.00  0.00    -0.333 N 
HETATM    7  O1  UNL     1      27.459   4.585  -2.068  1.00  0.00    -0.271 OA
BRANCH   6   8
HETATM    8  C2  UNL     1      27.216   1.898  -2.424  1.00  0.00     0.080 C 
HETATM    9  C1  UNL     1      26.707   0.986  -3.516  1.00  0.00     0.032 C 
HETATM   10  C3  UNL     1      27.754   1.105  -1.247  1.00  0.00     0.032 C 
ENDBRANCH   6   8
BRANCH   6  11
HETATM   11  C4  UNL     1      24.874   2.097  -1.615  1.00  0.00     0.241 C 
HETATM   12 CL1  UNL     1      23.684   2.336  -2.925  1.00  0.00    -0.109 Cl
ENDBRANCH   6  11
ENDBRANCH   4   5
ENDBRANCH   3   4
ENDBRANCH   1   3
BRANCH   1  13
HETATM   13  C8  UNL     1      23.158   7.237  -3.412  1.00  0.00     0.049 C 
HETATM   14  C9  UNL     1      22.323   5.981  -3.569  1.00  0.00     0.020 C 
HETATM   15  C10 UNL     1      20.858   6.224  -3.446  1.00  0.00     0.006 C 
HETATM   16  C11 UNL     1      20.349   7.321  -4.325  1.00  0.00    -0.014 C 
HETATM   17  C12 UNL     1      21.126   7.510  -5.573  1.00  0.00     0.009 C 
HETATM   18  C16 UNL     1      20.206   8.566  -3.484  1.00  0.00     0.009 C 
HETATM   19  C13 UNL     1      22.338   8.360  -5.459  1.00  0.00    -0.013 C 
HETATM   20  C14 UNL     1      22.028   9.627  -4.683  1.00  0.00     0.009 C 
HETATM   21  C18 UNL     1      23.510   7.709  -4.806  1.00  0.00     0.024 C 
HETATM   22  C15 UNL     1      21.563   9.193  -3.317  1.00  0.00    -0.013 C 
HETATM   23  C17 UNL     1      22.491   8.295  -2.601  1.00  0.00     0.024 C 
ENDBRANCH   1  13
TORSDOF 6
ENDMDL
MODEL 3
REMARK VINA RESULT: -7.290903120      2.047      7.550
REMARK  6 active torsions:
REMARK  status: ('A' for Active; 'I' for Inactive)
REMARK    1  A    between atoms: C2_2  and  N1_4 
REMARK    2  A    between atoms: N1_4  and  C4_5 
REMARK       I    between atoms: N1_4  and  C5_7 
REMARK    3  A    between atoms: C5_7  and  C6_9 
REMARK    4  A    between atoms: C6_9  and  O2_10 
REMARK    5  A    between atoms: O2_10  and  C7_11 
REMARK    6  A    between atoms: C7_11  and  C8_13 
ROOT
HETATM    1  C7  UNL     1      26.067   4.448  -2.047  1.00  0.00     0.268 C 
HETATM    2  O3  UNL     1      27.001   5.255  -1.856  1.00  0.00    -0.264 OA
ENDROOT
BRANCH   1   3
HETATM    3  O2  UNL     1      24.774   4.921  -2.125  1.00  0.00    -0.311 OA
BRANCH   3   4
HETATM    4  C6  UNL     1      24.260   5.806  -3.054  1.00  0.00     0.281 C 
BRANCH   4   5
HETATM    5  C5  UNL     1      23.901   7.108  -2.430  1.00  0.00     0.245 C 
HETATM    6  N1  UNL     1      22.955   7.979  -3.025  1.00  0.00    -0.333 N 
HETATM    7  O1  UNL     1      24.435   7.464  -1.350  1.00  0.00    -0.271 OA
BRANCH   6   8
HETATM    8  C2  UNL     1      22.639   9.228  -2.384  1.00  0.00     0.080 C 
HETATM    9  C1  UNL     1      21.247   9.664  -2.778  1.00  0.00     0.032 C 
HETATM   10  C3  UNL     1      23.681  10.240  -2.825  1.00  0.00     0.032 C 
ENDBRANCH   6   8
BRANCH   6  11
HETATM   11  C4  UNL     1      22.301   7.638  -4.264  1.00  0.00     0.241 C 
HETATM   12 CL1  UNL     1      20.937   6.519  -3.993  1.00  0.00    -0.109 Cl
ENDBRANCH   6  11
ENDBRANCH   4   5
ENDBRANCH   3   4
ENDBRANCH   1   3
BRANCH   1  13
HETATM   13  C8  UNL     1      26.270   2.986  -2.198  1.00  0.00     0.049 C 
HETATM   14  C9  UNL     1      25.643   2.604  -3.524  1.00  0.00     0.020 C 
HETATM   15  C10 UNL     1      26.396   1.544  -4.253  1.00  0.00     0.006 C 
HETATM   16  C11 UNL     1      26.690   0.332  -3.428  1.00  0.00    -0.014 C 
HETATM   17  C12 UNL     1      25.696   0.067  -2.361  1.00  0.00     0.009 C 
HETATM   18  C16 UNL     1      28.115   0.431  -2.943  1.00  0.00     0.009 C 
HETATM   19  C13 UNL     1      25.900   0.805  -1.088  1.00  0.00    -0.013 C 
HETATM   20  C14 UNL     1      27.355   0.735  -0.660  1.00  0.00     0.009 C 
HETATM   21  C18 UNL     1      25.510   2.244  -1.120  1.00  0.00     0.024 C 
HETATM   22  C15 UNL     1      28.160   1.366  -1.766  1.00  0.00    -0.013 C 
HETATM   23  C17 UNL     1      27.739   2.730  -2.141  1.00  0.00     0.024 C 
ENDBRANCH   1  13
TORSDOF 6
ENDMDL
MODEL 4
REMARK VINA RESULT: -7.146727584      2.306      7.728
REMARK  6 active torsions:
REMARK  status: ('A' for Active; 'I' for Inactive)
REMARK    1  A    between atoms: C2_2  and  N1_4 
REMARK    2  A    between atoms: N1_4  and  C4_5 
REMARK       I    between atoms: N1_4  and  C5_7 
REMARK    3  A    between atoms: C5_7  and  C6_9 
REMARK    4  A    between atoms: C6_9  and  O2_10 
REMARK    5  A    between atoms: O2_10  and  C7_11 
REMARK    6  A    between atoms: C7_11  and  C8_13 
ROOT
HETATM    1  C7  UNL     1      26.284   4.103  -2.160  1.00  0.00     0.268 C 
HETATM    2  O3  UNL     1      27.226   4.910  -2.015  1.00  0.00    -0.264 OA
ENDROOT
BRANCH   1   3
HETATM    3  O2  UNL     1      24.992   4.582  -2.237  1.00  0.00    -0.311 OA
BRANCH   3   4
HETATM    4  C6  UNL     1      24.595   5.881  -2.489  1.00  0.00     0.281 C 
BRANCH   4   5
HETATM    5  C5  UNL     1      23.251   5.928  -3.127  1.00  0.00     0.245 C 
HETATM    6  N1  UNL     1      22.784   7.093  -3.786  1.00  0.00    -0.333 N 
HETATM    7  O1  UNL     1      22.496   4.925  -3.094  1.00  0.00    -0.271 OA
BRANCH   6   8
HETATM    8  C2  UNL     1      21.477   7.091  -4.389  1.00  0.00     0.080 C 
HETATM    9  C1  UNL     1      21.517   7.857  -5.690  1.00  0.00     0.032 C 
HETATM   10  C3  UNL     1      20.521   7.731  -3.399  1.00  0.00     0.032 C 
ENDBRANCH   6   8
BRANCH   6  11
HETATM   11  C4  UNL     1      23.594   8.283  -3.865  1.00  0.00     0.241 C 
HETATM   12 CL1  UNL     1      23.436   9.277  -2.390  1.00  0.00    -0.109 Cl
ENDBRANCH   6  11
ENDBRANCH   4   5
ENDBRANCH   3   4
ENDBRANCH   1   3
BRANCH   1  13
HETATM   13  C8  UNL     1      26.475   2.634  -2.257  1.00  0.00     0.049 C 
HETATM   14  C9  UNL     1      25.711   2.187  -3.488  1.00  0.00     0.020 C 
HETATM   15  C10 UNL     1      26.385   1.090  -4.238  1.00  0.00     0.006 C 
HETATM   16  C11 UNL     1      26.770  -0.079  -3.389  1.00  0.00    -0.014 C 
HETATM   17  C12 UNL     1      25.897  -0.288  -2.210  1.00  0.00     0.009 C 
HETATM   18  C16 UNL     1      28.239   0.042  -3.065  1.00  0.00     0.009 C 
HETATM   19  C13 UNL     1      26.233   0.514  -1.005  1.00  0.00    -0.013 C 
HETATM   20  C14 UNL     1      27.726   0.463  -0.732  1.00  0.00     0.009 C 
HETATM   21  C18 UNL     1      25.837   1.950  -1.068  1.00  0.00     0.024 C 
HETATM   22  C15 UNL     1      28.406   1.036  -1.949  1.00  0.00    -0.013 C 
HETATM   23  C17 UNL     1      27.942   2.380  -2.345  1.00  0.00     0.024 C 
ENDBRANCH   1  13
TORSDOF 6
ENDMDL
MODEL 5
REMARK VINA RESULT: -7.107256309      0.823      1.867
REMARK  6 active torsions:
REMARK  status: ('A' for Active; 'I' for Inactive)
REMARK    1  A    between atoms: C2_2  and  N1_4 
REMARK    2  A    between atoms: N1_4  and  C4_5 
REMARK       I    between atoms: N1_4  and  C5_7 
REMARK    3  A    between atoms: C5_7  and  C6_9 
REMARK    4  A    between atoms: C6_9  and  O2_10 
REMARK    5  A    between atoms: O2_10  and  C7_11 
REMARK    6  A    between atoms: C7_11  and  C8_13 
ROOT
HETATM    1  C7  UNL     1      23.865   7.438  -2.428  1.00  0.00     0.268 C 
HETATM    2  O3  UNL     1      24.435   8.297  -1.723  1.00  0.00    -0.264 OA
ENDROOT
BRANCH   1   3
HETATM    3  O2  UNL     1      24.314   6.134  -2.396  1.00  0.00    -0.311 OA
BRANCH   3   4
HETATM    4  C6  UNL     1      24.956   5.495  -1.352  1.00  0.00     0.281 C 
BRANCH   4   5
HETATM    5  C5  UNL     1      25.965   4.520  -1.845  1.00  0.00     0.245 C 
HETATM    6  N1  UNL     1      25.674   3.135  -1.937  1.00  0.00    -0.333 N 
HETATM    7  O1  UNL     1      27.108   4.907  -2.194  1.00  0.00    -0.271 OA
BRANCH   6   8
HETATM    8  C2  UNL     1      26.682   2.229  -2.421  1.00  0.00     0.080 C 
HETATM    9  C1  UNL     1      26.267   1.678  -3.765  1.00  0.00     0.032 C 
HETATM   10  C3  UNL     1      26.830   1.124  -1.392  1.00  0.00     0.032 C 
ENDBRANCH   6   8
BRANCH   6  11
HETATM   11  C4  UNL     1      24.385   2.615  -1.556  1.00  0.00     0.241 C 
HETATM   12 CL1  UNL     1      23.153   2.947  -2.805  1.00  0.00    -0.109 Cl
ENDBRANCH   6  11
ENDBRANCH   4   5
ENDBRANCH   3   4
ENDBRANCH   1   3
BRANCH   1  13
HETATM   13  C8  UNL     1      22.715   7.743  -3.315  1.00  0.00     0.049 C 
HETATM   14  C9  UNL     1      23.306   8.182  -4.640  1.00  0.00     0.020 C 
HETATM   15  C10 UNL     1      22.519   7.725  -5.821  1.00  0.00     0.006 C 
HETATM   16  C11 UNL     1      21.062   8.055  -5.745  1.00  0.00    -0.014 C 
HETATM   17  C12 UNL     1      20.756   9.273  -4.957  1.00  0.00     0.009 C 
HETATM   18  C16 UNL     1      20.325   6.818  -5.295  1.00  0.00     0.009 C 
HETATM   19  C13 UNL     1      20.642   9.082  -3.489  1.00  0.00    -0.013 C 
HETATM   20  C14 UNL     1      19.787   7.867  -3.174  1.00  0.00     0.009 C 
HETATM   21  C18 UNL     1      21.937   8.919  -2.767  1.00  0.00     0.024 C 
HETATM   22  C15 UNL     1      20.475   6.683  -3.804  1.00  0.00    -0.013 C 
HETATM   23  C17 UNL     1      21.888   6.506  -3.415  1.00  0.00     0.024 C 
ENDBRANCH   1  13
TORSDOF 6
ENDMDL
