MODEL 1
REMARK VINA RESULT: -6.348068731      0.000      0.000
REMARK  5 active torsions:
REMARK  status: ('A' for Active; 'I' for Inactive)
REMARK    1  A    between atoms: C1_2  and  C2_3 
REMARK    2  A    between atoms: C2_3  and  C3_4 
REMARK    3  A    between atoms: C3_4  and  C4_5 
REMARK    4  A    between atoms: C4_5  and  C5_6 
REMARK    5  A    between atoms: C5_6  and  N1_7 
ROOT
HETATM    1  N1  UNL     1      19.395   7.945  -4.574  1.00  0.00     0.090 N 
HETATM    2  C6  UNL     1      18.524   7.548  -5.652  1.00  0.00     0.272 C 
HETATM    3  C7  UNL     1      17.160   8.150  -5.575  1.00  0.00     0.030 C 
HETATM    4  C8  UNL     1      16.081   7.302  -5.007  1.00  0.00     0.004 C 
HETATM    5  C9  UNL     1      15.692   6.106  -5.808  1.00  0.00     0.026 C 
HETATM    6  C10 UNL     1      15.625   4.842  -4.937  1.00  0.00     0.167 C 
HETATM    7  O1  UNL     1      16.600   4.833  -3.969  1.00  0.00    -0.389 OA
HETATM    8  C11 UNL     1      17.263   3.638  -3.819  1.00  0.00     0.193 C 
HETATM    9  C12 UNL     1      18.761   3.779  -4.044  1.00  0.00     0.193 C 
HETATM   10  O2  UNL     1      19.339   4.647  -3.143  1.00  0.00    -0.387 OA
HETATM   11  C13 UNL     1      20.022   5.694  -3.770  1.00  0.00     0.198 C 
HETATM   12  C14 UNL     1      19.395   7.017  -3.459  1.00  0.00     0.298 C 
ENDROOT
BRANCH   1  13
HETATM   13  C5  UNL     1      20.758   8.105  -4.970  1.00  0.00     0.272 C 
BRANCH  13  14
HETATM   14  C4  UNL     1      21.357   9.448  -4.756  1.00  0.00     0.030 C 
BRANCH  14  15
HETATM   15  C3  UNL     1      21.610   9.678  -3.292  1.00  0.00     0.002 C 
BRANCH  15  16
HETATM   16  C2  UNL     1      23.077   9.812  -2.991  1.00  0.00     0.011 C 
BRANCH  16  17
HETATM   17  C1  UNL     1      23.475   8.612  -2.118  1.00  0.00     0.085 C 
HETATM   18 BR1  UNL     1      23.978   7.142  -3.275  1.00  0.00    -0.097 Br
ENDBRANCH  16  17
ENDBRANCH  15  16
ENDBRANCH  14  15
ENDBRANCH  13  14
ENDBRANCH   1  13
TORSDOF 5
ENDMDL
MODEL 2
REMARK VINA RESULT: -6.211265840      1.412      1.583
REMARK  5 active torsions:
REMARK  status: ('A' for Active; 'I' for Inactive)
REMARK    1  A    between atoms: C1_2  and  C2_3 
REMARK    2  A    between atoms: C2_3  and  C3_4 
REMARK    3  A    between atoms: C3_4  and  C4_5 
REMARK    4  A    between atoms: C4_5  and  C5_6 
REMARK    5  A    between atoms: C5_6  and  N1_7 
ROOT
HETATM    1  N1  UNL     1      20.185   7.837  -5.056  1.00  0.00     0.090 N 
HETATM    2  C6  UNL     1      19.287   7.508  -6.135  1.00  0.00     0.272 C 
HETATM    3  C7  UNL     1      18.140   8.453  -6.272  1.00  0.00     0.030 C 
HETATM    4  C8  UNL     1      16.845   8.032  -5.682  1.00  0.00     0.004 C 
HETATM    5  C9  UNL     1      16.177   6.863  -6.323  1.00  0.00     0.026 C 
HETATM    6  C10 UNL     1      15.725   5.829  -5.281  1.00  0.00     0.167 C 
HETATM    7  O1  UNL     1      16.615   5.727  -4.239  1.00  0.00    -0.389 OA
HETATM    8  C11 UNL     1      16.914   4.443  -3.851  1.00  0.00     0.193 C 
HETATM    9  C12 UNL     1      18.402   4.142  -3.959  1.00  0.00     0.193 C 
HETATM   10  O2  UNL     1      19.157   4.966  -3.153  1.00  0.00    -0.387 OA
HETATM   11  C13 UNL     1      20.129   5.672  -3.867  1.00  0.00     0.198 C 
HETATM   12  C14 UNL     1      19.878   7.147  -3.818  1.00  0.00     0.298 C 
ENDROOT
BRANCH   1  13
HETATM   13  C5  UNL     1      21.555   7.561  -5.348  1.00  0.00     0.272 C 
BRANCH  13  14
HETATM   14  C4  UNL     1      22.537   8.611  -4.973  1.00  0.00     0.030 C 
BRANCH  14  15
HETATM   15  C3  UNL     1      23.465   8.101  -3.906  1.00  0.00     0.002 C 
BRANCH  15  16
HETATM   16  C2  UNL     1      23.169   8.713  -2.565  1.00  0.00     0.011 C 
BRANCH  16  17
HETATM   17  C1  UNL     1      23.188  10.238  -2.745  1.00  0.00     0.085 C 
HETATM   18 BR1  UNL     1      21.404  10.923  -2.431  1.00  0.00    -0.097 Br
ENDBRANCH  16  17
ENDBRANCH  15  16
ENDBRANCH  14  15
ENDBRANCH  13  14
ENDBRANCH   1  13
TORSDOF 5
ENDMDL
MODEL 3
REMARK VINA RESULT: -6.145422026      1.319      3.001
REMARK  5 active torsions:
REMARK  status: ('A' for Active; 'I' for Inactive)
REMARK    1  A    between atoms: C1_2  and  C2_3 
REMARK    2  A    between atoms: C2_3  and  C3_4 
REMARK    3  A    between atoms: C3_4  and  C4_5 
REMARK    4  A    between atoms: C4_5  and  C5_6 
REMARK    5  A    between atoms: C5_6  and  N1_7 
ROOT
HETATM    1  N1  UNL     1      20.716   7.463  -4.974  1.00  0.00     0.090 N 
HETATM    2  C6  UNL     1      20.368   6.854  -3.715  1.00  0.00     0.272 C 
HETATM    3  C7  UNL     1      20.811   5.433  -3.592  1.00  0.00     0.030 C 
HETATM    4  C8  UNL     1      19.792   4.385  -3.854  1.00  0.00     0.004 C 
HETATM    5  C9  UNL     1      18.670   4.297  -2.875  1.00  0.00     0.026 C 
HETATM    6  C10 UNL     1      17.308   4.235  -3.581  1.00  0.00     0.167 C 
HETATM    7  O1  UNL     1      17.279   5.016  -4.712  1.00  0.00    -0.389 OA
HETATM    8  C11 UNL     1      16.150   5.785  -4.861  1.00  0.00     0.193 C 
HETATM    9  C12 UNL     1      16.473   7.270  -4.942  1.00  0.00     0.193 C 
HETATM   10  O2  UNL     1      17.278   7.567  -6.020  1.00  0.00    -0.387 OA
HETATM   11  C13 UNL     1      18.459   8.214  -5.646  1.00  0.00     0.198 C 
HETATM   12  C14 UNL     1      19.662   7.381  -5.967  1.00  0.00     0.298 C 
ENDROOT
BRANCH   1  13
HETATM   13  C5  UNL     1      21.064   8.844  -4.864  1.00  0.00     0.272 C 
BRANCH  13  14
HETATM   14  C4  UNL     1      21.356   9.346  -3.496  1.00  0.00     0.030 C 
BRANCH  14  15
HETATM   15  C3  UNL     1      22.831   9.585  -3.331  1.00  0.00     0.002 C 
BRANCH  15  16
HETATM   16  C2  UNL     1      23.447   8.636  -2.342  1.00  0.00     0.011 C 
BRANCH  16  17
HETATM   17  C1  UNL     1      24.127   7.517  -3.145  1.00  0.00     0.085 C 
HETATM   18 BR1  UNL     1      25.296   6.526  -1.961  1.00  0.00    -0.097 Br
ENDBRANCH  16  17
ENDBRANCH  15  16
ENDBRANCH  14  15
ENDBRANCH  13  14
ENDBRANCH   1  13
TORSDOF 5
ENDMDL
MODEL 4
REMARK VINA RESULT: -5.952291699      1.412      1.528
REMARK  5 active torsions:
REMARK  status: ('A' for Active; 'I' for Inactive)
REMARK    1  A    between atoms: C1_2  and  C2_3 
REMARK    2  A    between atoms: C2_3  and  C3_4 
REMARK    3  A    between atoms: C3_4  and  C4_5 
REMARK    4  A    between atoms: C4_5  and  C5_6 
REMARK    5  A    between atoms: C5_6  and  N1_7 
ROOT
HETATM    1  N1  UNL     1      19.625   7.071  -4.023  1.00  0.00     0.090 N 
HETATM    2  C6  UNL     1      18.877   7.111  -5.255  1.00  0.00     0.272 C 
HETATM    3  C7  UNL     1      17.682   8.005  -5.204  1.00  0.00     0.030 C 
HETATM    4  C8  UNL     1      16.367   7.358  -4.966  1.00  0.00     0.004 C 
HETATM    5  C9  UNL     1      15.864   6.467  -6.051  1.00  0.00     0.026 C 
HETATM    6  C10 UNL     1      15.383   5.118  -5.496  1.00  0.00     0.167 C 
HETATM    7  O1  UNL     1      16.160   4.687  -4.449  1.00  0.00    -0.389 OA
HETATM    8  C11 UNL     1      16.514   3.359  -4.492  1.00  0.00     0.193 C 
HETATM    9  C12 UNL     1      18.024   3.167  -4.507  1.00  0.00     0.193 C 
HETATM   10  O2  UNL     1      18.621   3.680  -3.376  1.00  0.00    -0.387 OA
HETATM   11  C13 UNL     1      19.608   4.625  -3.672  1.00  0.00     0.198 C 
HETATM   12  C14 UNL     1      19.240   5.979  -3.150  1.00  0.00     0.298 C 
ENDROOT
BRANCH   1  13
HETATM   13  C5  UNL     1      21.036   6.962  -4.215  1.00  0.00     0.272 C 
BRANCH  13  14
HETATM   14  C4  UNL     1      21.631   7.832  -5.262  1.00  0.00     0.030 C 
BRANCH  14  15
HETATM   15  C3  UNL     1      22.921   8.429  -4.774  1.00  0.00     0.002 C 
BRANCH  15  16
HETATM   16  C2  UNL     1      23.076   8.288  -3.285  1.00  0.00     0.011 C 
BRANCH  16  17
HETATM   17  C1  UNL     1      23.205   9.704  -2.703  1.00  0.00     0.085 C 
HETATM   18 BR1  UNL     1      21.449  10.522  -2.666  1.00  0.00    -0.097 Br
ENDBRANCH  16  17
ENDBRANCH  15  16
ENDBRANCH  14  15
ENDBRANCH  13  14
ENDBRANCH   1  13
TORSDOF 5
ENDMDL
MODEL 5
REMARK VINA RESULT: -5.806981037      1.708      3.167
REMARK  5 active torsions:
REMARK  status: ('A' for Active; 'I' for Inactive)
REMARK    1  A    between atoms: C1_2  and  C2_3 
REMARK    2  A    between atoms: C2_3  and  C3_4 
REMARK    3  A    between atoms: C3_4  and  C4_5 
REMARK    4  A    between atoms: C4_5  and  C5_6 
REMARK    5  A    between atoms: C5_6  and  N1_7 
ROOT
HETATM    1  N1  UNL     1      20.443   7.134  -5.077  1.00  0.00     0.090 N 
HETATM    2  C6  UNL     1      19.991   6.519  -3.854  1.00  0.00     0.272 C 
HETATM    3  C7  UNL     1      20.234   5.047  -3.797  1.00  0.00     0.030 C 
HETATM    4  C8  UNL     1      19.087   4.162  -4.124  1.00  0.00     0.004 C 
HETATM    5  C9  UNL     1      17.945   4.180  -3.165  1.00  0.00     0.026 C 
HETATM    6  C10 UNL     1      16.601   4.339  -3.892  1.00  0.00     0.167 C 
HETATM    7  O1  UNL     1      16.701   5.170  -4.982  1.00  0.00    -0.389 OA
HETATM    8  C11 UNL     1      15.690   6.093  -5.107  1.00  0.00     0.193 C 
HETATM    9  C12 UNL     1      16.214   7.522  -5.109  1.00  0.00     0.193 C 
HETATM   10  O2  UNL     1      17.072   7.757  -6.161  1.00  0.00    -0.387 OA
HETATM   11  C13 UNL     1      18.323   8.218  -5.740  1.00  0.00     0.198 C 
HETATM   12  C14 UNL     1      19.407   7.245  -6.086  1.00  0.00     0.298 C 
ENDROOT
BRANCH   1  13
HETATM   13  C5  UNL     1      20.974   8.448  -4.893  1.00  0.00     0.272 C 
BRANCH  13  14
HETATM   14  C4  UNL     1      22.409   8.635  -5.229  1.00  0.00     0.030 C 
BRANCH  14  15
HETATM   15  C3  UNL     1      23.277   8.131  -4.111  1.00  0.00     0.002 C 
BRANCH  15  16
HETATM   16  C2  UNL     1      22.836   8.661  -2.775  1.00  0.00     0.011 C 
BRANCH  16  17
HETATM   17  C1  UNL     1      23.159  10.163  -2.751  1.00  0.00     0.085 C 
HETATM   18 BR1  UNL     1      21.529  11.142  -2.379  1.00  0.00    -0.097 Br
ENDBRANCH  16  17
ENDBRANCH  15  16
ENDBRANCH  14  15
ENDBRANCH  13  14
ENDBRANCH   1  13
TORSDOF 5
ENDMDL
