MODEL 1
REMARK VINA RESULT: -6.992824589      0.000      0.000
REMARK  5 active torsions:
REMARK  status: ('A' for Active; 'I' for Inactive)
REMARK    1  A    between atoms: O1_2  and  C2_3 
REMARK    2  A    between atoms: C5_6  and  C6_7 
REMARK    3  A    between atoms: C6_7  and  C7_8 
REMARK    4  A    between atoms: C7_8  and  S1_9 
REMARK    5  A    between atoms: S1_9  and  N1_12 
ROOT
HETATM    1  C6  UNL     1      19.135   7.284  -4.626  1.00  0.00     0.008 C 
HETATM    2  C10 UNL     1      17.744   7.831  -4.472  1.00  0.00     0.014 C 
HETATM    3  C11 UNL     1      16.847   7.466  -5.635  1.00  0.00     0.001 C 
HETATM    4  C12 UNL     1      17.397   7.996  -6.938  1.00  0.00     0.003 C 
HETATM    5  C13 UNL     1      18.696   8.705  -6.667  1.00  0.00     0.038 C 
HETATM    6  C14 UNL     1      19.614   7.701  -5.993  1.00  0.00     0.179 C 
HETATM    7  F1  UNL     1      19.621   6.626  -6.895  1.00  0.00    -0.249 F 
ENDROOT
BRANCH   1   8
HETATM    8  C5  UNL     1      19.067   5.747  -4.662  1.00  0.00    -0.002 C 
HETATM    9  C4  UNL     1      17.770   5.237  -4.112  1.00  0.00     0.008 C 
HETATM   10  C3  UNL     1      17.772   3.731  -4.288  1.00  0.00     0.032 C 
HETATM   11  C2  UNL     1      18.879   3.095  -3.521  1.00  0.00     0.120 C 
HETATM   12  C16 UNL     1      19.660   4.183  -2.824  1.00  0.00     0.032 C 
HETATM   13  C15 UNL     1      20.182   5.108  -3.904  1.00  0.00     0.008 C 
BRANCH  11  14
HETATM   14  O1  UNL     1      18.445   2.114  -2.639  1.00  0.00    -0.391 OA
HETATM   15  C1  UNL     1      18.507   2.519  -1.309  1.00  0.00     0.202 C 
ENDBRANCH  11  14
ENDBRANCH   1   8
BRANCH   1  16
HETATM   16  C7  UNL     1      20.091   7.756  -3.599  1.00  0.00     0.170 C 
BRANCH  16  17
HETATM   17  S1  UNL     1      21.579   8.484  -4.109  1.00  0.00     0.211 S 
HETATM   18  O2  UNL     1      21.421   9.842  -4.721  1.00  0.00    -0.211 OA
HETATM   19  O3  UNL     1      22.457   7.576  -4.932  1.00  0.00    -0.211 OA
BRANCH  17  20
HETATM   20  N1  UNL     1      22.525   8.766  -2.653  1.00  0.00    -0.219 NA
HETATM   21  C8  UNL     1      23.676   7.881  -2.673  1.00  0.00     0.128 C 
HETATM   22  C9  UNL     1      23.051  10.129  -2.747  1.00  0.00     0.128 C 
ENDBRANCH  17  20
ENDBRANCH  16  17
ENDBRANCH   1  16
TORSDOF 5
ENDMDL
MODEL 2
REMARK VINA RESULT: -6.626610789      2.443      5.248
REMARK  5 active torsions:
REMARK  status: ('A' for Active; 'I' for Inactive)
REMARK    1  A    between atoms: O1_2  and  C2_3 
REMARK    2  A    between atoms: C5_6  and  C6_7 
REMARK    3  A    between atoms: C6_7  and  C7_8 
REMARK    4  A    between atoms: C7_8  and  S1_9 
REMARK    5  A    between atoms: S1_9  and  N1_12 
ROOT
HETATM    1  C6  UNL     1      18.890   7.077  -5.469  1.00  0.00     0.008 C 
HETATM    2  C10 UNL     1      18.725   7.349  -6.937  1.00  0.00     0.014 C 
HETATM    3  C11 UNL     1      17.850   8.554  -7.207  1.00  0.00     0.001 C 
HETATM    4  C12 UNL     1      16.468   8.369  -6.627  1.00  0.00     0.003 C 
HETATM    5  C13 UNL     1      16.407   7.037  -5.930  1.00  0.00     0.038 C 
HETATM    6  C14 UNL     1      17.503   7.038  -4.879  1.00  0.00     0.179 C 
HETATM    7  F1  UNL     1      17.220   8.192  -4.132  1.00  0.00    -0.249 F 
ENDROOT
BRANCH   1   8
HETATM    8  C5  UNL     1      19.586   8.282  -4.811  1.00  0.00    -0.002 C 
HETATM    9  C4  UNL     1      20.885   8.606  -5.484  1.00  0.00     0.008 C 
HETATM   10  C3  UNL     1      21.429   9.858  -4.825  1.00  0.00     0.032 C 
HETATM   11  C2  UNL     1      21.704   9.634  -3.378  1.00  0.00     0.120 C 
HETATM   12  C16 UNL     1      21.324   8.214  -3.036  1.00  0.00     0.032 C 
HETATM   13  C15 UNL     1      19.851   8.065  -3.359  1.00  0.00     0.008 C 
BRANCH  11  14
HETATM   14  O1  UNL     1      23.011   9.930  -3.013  1.00  0.00    -0.391 OA
HETATM   15  C1  UNL     1      23.629   8.886  -2.332  1.00  0.00     0.202 C 
ENDBRANCH  11  14
ENDBRANCH   1   8
BRANCH   1  16
HETATM   16  C7  UNL     1      19.596   5.813  -5.160  1.00  0.00     0.170 C 
BRANCH  16  17
HETATM   17  S1  UNL     1      18.820   4.645  -4.142  1.00  0.00     0.211 S 
HETATM   18  O2  UNL     1      17.494   4.171  -4.651  1.00  0.00    -0.211 OA
HETATM   19  O3  UNL     1      18.779   5.030  -2.685  1.00  0.00    -0.211 OA
BRANCH  17  20
HETATM   20  N1  UNL     1      19.836   3.208  -4.163  1.00  0.00    -0.219 NA
HETATM   21  C8  UNL     1      20.898   3.382  -3.188  1.00  0.00     0.128 C 
HETATM   22  C9  UNL     1      19.010   2.100  -3.679  1.00  0.00     0.128 C 
ENDBRANCH  17  20
ENDBRANCH  16  17
ENDBRANCH   1  16
TORSDOF 5
ENDMDL
MODEL 3
REMARK VINA RESULT: -6.187120307      6.985      8.976
REMARK  5 active torsions:
REMARK  status: ('A' for Active; 'I' for Inactive)
REMARK    1  A    between atoms: O1_2  and  C2_3 
REMARK    2  A    between atoms: C5_6  and  C6_7 
REMARK    3  A    between atoms: C6_7  and  C7_8 
REMARK    4  A    between atoms: C7_8  and  S1_9 
REMARK    5  A    between atoms: S1_9  and  N1_12 
ROOT
HETATM    1  C6  UNL     1      26.216   1.470  -2.724  1.00  0.00     0.008 C 
HETATM    2  C10 UNL     1      27.708   1.381  -2.874  1.00  0.00     0.014 C 
HETATM    3  C11 UNL     1      28.253   0.033  -2.454  1.00  0.00     0.001 C 
HETATM    4  C12 UNL     1      27.929  -0.262  -1.008  1.00  0.00     0.003 C 
HETATM    5  C13 UNL     1      27.132   0.883  -0.444  1.00  0.00     0.038 C 
HETATM    6  C14 UNL     1      25.897   1.034  -1.317  1.00  0.00     0.179 C 
HETATM    7  F1  UNL     1      25.331  -0.250  -1.282  1.00  0.00    -0.249 F 
ENDROOT
BRANCH   1   8
HETATM    8  C5  UNL     1      25.556   0.424  -3.641  1.00  0.00    -0.002 C 
HETATM    9  C4  UNL     1      25.901   0.655  -5.080  1.00  0.00     0.008 C 
HETATM   10  C3  UNL     1      25.286  -0.481  -5.874  1.00  0.00     0.032 C 
HETATM   11  C2  UNL     1      23.801  -0.489  -5.751  1.00  0.00     0.120 C 
HETATM   12  C16 UNL     1      23.394   0.648  -4.845  1.00  0.00     0.032 C 
HETATM   13  C15 UNL     1      24.070   0.407  -3.510  1.00  0.00     0.008 C 
BRANCH  11  14
HETATM   14  O1  UNL     1      23.147  -0.443  -6.976  1.00  0.00    -0.391 OA
HETATM   15  C1  UNL     1      24.015  -0.578  -8.055  1.00  0.00     0.202 C 
ENDBRANCH  11  14
ENDBRANCH   1   8
BRANCH   1  16
HETATM   16  C7  UNL     1      25.660   2.821  -2.962  1.00  0.00     0.170 C 
BRANCH  16  17
HETATM   17  S1  UNL     1      26.243   4.148  -2.011  1.00  0.00     0.211 S 
HETATM   18  O2  UNL     1      27.726   4.344  -2.074  1.00  0.00    -0.211 OA
HETATM   19  O3  UNL     1      25.714   4.172  -0.599  1.00  0.00    -0.211 OA
BRANCH  17  20
HETATM   20  N1  UNL     1      25.577   5.610  -2.728  1.00  0.00    -0.219 NA
HETATM   21  C8  UNL     1      24.155   5.409  -2.946  1.00  0.00     0.128 C 
HETATM   22  C9  UNL     1      25.694   6.666  -1.721  1.00  0.00     0.128 C 
ENDBRANCH  17  20
ENDBRANCH  16  17
ENDBRANCH   1  16
TORSDOF 5
ENDMDL
MODEL 4
REMARK VINA RESULT: -6.105399631      9.060     10.952
REMARK  5 active torsions:
REMARK  status: ('A' for Active; 'I' for Inactive)
REMARK    1  A    between atoms: O1_2  and  C2_3 
REMARK    2  A    between atoms: C5_6  and  C6_7 
REMARK    3  A    between atoms: C6_7  and  C7_8 
REMARK    4  A    between atoms: C7_8  and  S1_9 
REMARK    5  A    between atoms: S1_9  and  N1_12 
ROOT
HETATM    1  C6  UNL     1      26.854  -0.410  -2.684  1.00  0.00     0.008 C 
HETATM    2  C10 UNL     1      27.861  -0.646  -1.594  1.00  0.00     0.014 C 
HETATM    3  C11 UNL     1      27.761  -2.036  -1.006  1.00  0.00     0.001 C 
HETATM    4  C12 UNL     1      26.394  -2.285  -0.415  1.00  0.00     0.003 C 
HETATM    5  C13 UNL     1      25.542  -1.063  -0.627  1.00  0.00     0.038 C 
HETATM    6  C14 UNL     1      25.511  -0.800  -2.122  1.00  0.00     0.179 C 
HETATM    7  F1  UNL     1      25.060  -2.022  -2.646  1.00  0.00    -0.249 F 
ENDROOT
BRANCH   1   8
HETATM    8  C5  UNL     1      27.123  -1.394  -3.836  1.00  0.00    -0.002 C 
HETATM    9  C4  UNL     1      28.510  -1.242  -4.382  1.00  0.00     0.008 C 
HETATM   10  C3  UNL     1      28.697  -2.318  -5.433  1.00  0.00     0.032 C 
HETATM   11  C2  UNL     1      27.737  -2.148  -6.561  1.00  0.00     0.120 C 
HETATM   12  C16 UNL     1      26.867  -0.950  -6.268  1.00  0.00     0.032 C 
HETATM   13  C15 UNL     1      26.156  -1.234  -4.961  1.00  0.00     0.008 C 
BRANCH  11  14
HETATM   14  O1  UNL     1      28.356  -2.057  -7.801  1.00  0.00    -0.391 OA
HETATM   15  C1  UNL     1      27.579  -1.388  -8.742  1.00  0.00     0.202 C 
ENDBRANCH  11  14
ENDBRANCH   1   8
BRANCH   1  16
HETATM   16  C7  UNL     1      26.801   0.987  -3.171  1.00  0.00     0.170 C 
BRANCH  16  17
HETATM   17  S1  UNL     1      27.133   2.276  -2.061  1.00  0.00     0.211 S 
HETATM   18  O2  UNL     1      28.570   2.692  -2.013  1.00  0.00    -0.211 OA
HETATM   19  O3  UNL     1      26.542   2.073  -0.688  1.00  0.00    -0.211 OA
BRANCH  17  20
HETATM   20  N1  UNL     1      26.286   3.694  -2.670  1.00  0.00    -0.219 NA
HETATM   21  C8  UNL     1      24.858   3.442  -2.600  1.00  0.00     0.128 C 
HETATM   22  C9  UNL     1      26.559   4.784  -1.732  1.00  0.00     0.128 C 
ENDBRANCH  17  20
ENDBRANCH  16  17
ENDBRANCH   1  16
TORSDOF 5
ENDMDL
MODEL 5
REMARK VINA RESULT: -6.104371550      3.057      5.672
REMARK  5 active torsions:
REMARK  status: ('A' for Active; 'I' for Inactive)
REMARK    1  A    between atoms: O1_2  and  C2_3 
REMARK    2  A    between atoms: C5_6  and  C6_7 
REMARK    3  A    between atoms: C6_7  and  C7_8 
REMARK    4  A    between atoms: C7_8  and  S1_9 
REMARK    5  A    between atoms: S1_9  and  N1_12 
ROOT
HETATM    1  C6  UNL     1      17.368   6.883  -5.347  1.00  0.00     0.008 C 
HETATM    2  C10 UNL     1      17.281   7.028  -6.840  1.00  0.00     0.014 C 
HETATM    3  C11 UNL     1      16.867   8.421  -7.263  1.00  0.00     0.001 C 
HETATM    4  C12 UNL     1      15.515   8.786  -6.696  1.00  0.00     0.003 C 
HETATM    5  C13 UNL     1      15.014   7.642  -5.856  1.00  0.00     0.038 C 
HETATM    6  C14 UNL     1      16.063   7.387  -4.788  1.00  0.00     0.179 C 
HETATM    7  F1  UNL     1      16.205   8.644  -4.180  1.00  0.00    -0.249 F 
ENDROOT
BRANCH   1   8
HETATM    8  C5  UNL     1      18.446   7.843  -4.813  1.00  0.00    -0.002 C 
HETATM    9  C4  UNL     1      19.600   7.963  -5.760  1.00  0.00     0.008 C 
HETATM   10  C3  UNL     1      20.545   9.000  -5.186  1.00  0.00     0.032 C 
HETATM   11  C2  UNL     1      21.079   8.573  -3.861  1.00  0.00     0.120 C 
HETATM   12  C16 UNL     1      20.476   7.233  -3.515  1.00  0.00     0.032 C 
HETATM   13  C15 UNL     1      18.973   7.425  -3.481  1.00  0.00     0.008 C 
BRANCH  11  14
HETATM   14  O1  UNL     1      22.466   8.554  -3.807  1.00  0.00    -0.391 OA
HETATM   15  C1  UNL     1      22.968   9.143  -2.651  1.00  0.00     0.202 C 
ENDBRANCH  11  14
ENDBRANCH   1   8
BRANCH   1  16
HETATM   16  C7  UNL     1      17.605   5.497  -4.884  1.00  0.00     0.170 C 
BRANCH  16  17
HETATM   17  S1  UNL     1      16.256   4.417  -4.746  1.00  0.00     0.211 S 
HETATM   18  O2  UNL     1      15.642   4.031  -6.056  1.00  0.00    -0.211 OA
HETATM   19  O3  UNL     1      15.230   4.841  -3.726  1.00  0.00    -0.211 OA
BRANCH  17  20
HETATM   20  N1  UNL     1      16.886   2.908  -4.096  1.00  0.00    -0.219 NA
HETATM   21  C8  UNL     1      17.614   2.222  -5.149  1.00  0.00     0.128 C 
HETATM   22  C9  UNL     1      17.875   3.266  -3.079  1.00  0.00     0.128 C 
ENDBRANCH  17  20
ENDBRANCH  16  17
ENDBRANCH   1  16
TORSDOF 5
ENDMDL
