MODEL 1
REMARK VINA RESULT: -7.431184679      0.000      0.000
REMARK  5 active torsions:
REMARK  status: ('A' for Active; 'I' for Inactive)
REMARK    1  A    between atoms: N1_5  and  C4_6 
REMARK    2  A    between atoms: C4_6  and  C5_7 
REMARK    3  A    between atoms: N2_9  and  C7_10 
REMARK    4  A    between atoms: C7_10  and  C8_11 
REMARK    5  A    between atoms: C16_20  and  C17_21 
ROOT
HETATM    1  C5  UNL     1      24.235   4.897  -2.190  1.00  0.00     0.188 C 
HETATM    2  C6  UNL     1      24.621   3.479  -2.281  1.00  0.00     0.309 C 
HETATM    3  N2  UNL     1      25.932   3.178  -1.766  1.00  0.00     0.093 N 
HETATM    4  C13 UNL     1      26.861   4.241  -1.896  1.00  0.00     0.298 C 
HETATM    5  C14 UNL     1      26.299   5.507  -1.281  1.00  0.00     0.199 C 
HETATM    6  O1  UNL     1      24.933   5.449  -1.083  1.00  0.00    -0.377 OA
ENDROOT
BRANCH   1   7
HETATM    7  C4  UNL     1      24.472   5.799  -3.332  1.00  0.00     0.096 C 
BRANCH   7   8
HETATM    8  N1  UNL     1      23.634   6.888  -3.567  1.00  0.00    -0.371 N 
HETATM    9  C3  UNL     1      23.869   8.156  -3.044  1.00  0.00     0.064 C 
HETATM   10  C2  UNL     1      22.656   8.900  -2.502  1.00  0.00     0.065 C 
HETATM   11  C1  UNL     1      21.547   8.793  -3.513  1.00  0.00     0.093 C 
HETATM   12 CL1  UNL     1      22.076   9.505  -5.054  1.00  0.00    -0.124 Cl
HETATM   13  C16 UNL     1      21.235   7.318  -3.666  1.00  0.00     0.027 C 
HETATM   14  C15 UNL     1      22.457   6.707  -4.325  1.00  0.00     0.133 C 
BRANCH  13  15
HETATM   15  C17 UNL     1      20.004   7.027  -4.449  1.00  0.00    -0.007 A 
HETATM   16  C18 UNL     1      18.891   6.333  -3.693  1.00  0.00     0.005 A 
HETATM   17  C19 UNL     1      18.723   7.733  -4.106  1.00  0.00     0.005 A 
ENDBRANCH  13  15
ENDBRANCH   7   8
ENDBRANCH   1   7
BRANCH   3  18
HETATM   18  C7  UNL     1      26.404   1.904  -2.173  1.00  0.00     0.277 C 
BRANCH  18  19
HETATM   19  C8  UNL     1      27.812   1.603  -1.704  1.00  0.00     0.014 C 
HETATM   20  C9  UNL     1      28.566   0.919  -2.829  1.00  0.00     0.006 C 
HETATM   21  C10 UNL     1      28.233  -0.545  -2.642  1.00  0.00     0.000 C 
HETATM   22  C11 UNL     1      27.599  -0.699  -1.285  1.00  0.00     0.000 C 
HETATM   23  C12 UNL     1      27.724   0.623  -0.571  1.00  0.00     0.006 C 
ENDBRANCH  18  19
ENDBRANCH   3  18
TORSDOF 5
ENDMDL
MODEL 2
REMARK VINA RESULT: -7.302063504      0.800      1.238
REMARK  5 active torsions:
REMARK  status: ('A' for Active; 'I' for Inactive)
REMARK    1  A    between atoms: N1_5  and  C4_6 
REMARK    2  A    between atoms: C4_6  and  C5_7 
REMARK    3  A    between atoms: N2_9  and  C7_10 
REMARK    4  A    between atoms: C7_10  and  C8_11 
REMARK    5  A    between atoms: C16_20  and  C17_21 
ROOT
HETATM    1  C5  UNL     1      24.248   5.486  -2.150  1.00  0.00     0.188 C 
HETATM    2  C6  UNL     1      24.641   4.204  -2.759  1.00  0.00     0.309 C 
HETATM    3  N2  UNL     1      25.925   3.706  -2.336  1.00  0.00     0.093 N 
HETATM    4  C13 UNL     1      26.857   4.723  -2.007  1.00  0.00     0.298 C 
HETATM    5  C14 UNL     1      26.263   5.668  -0.981  1.00  0.00     0.199 C 
HETATM    6  O1  UNL     1      24.889   5.562  -0.885  1.00  0.00    -0.377 OA
ENDROOT
BRANCH   1   7
HETATM    7  C4  UNL     1      24.540   6.752  -2.849  1.00  0.00     0.096 C 
BRANCH   7   8
HETATM    8  N1  UNL     1      23.508   7.553  -3.335  1.00  0.00    -0.371 N 
HETATM    9  C3  UNL     1      23.397   8.910  -3.047  1.00  0.00     0.064 C 
HETATM   10  C2  UNL     1      21.998   9.421  -2.731  1.00  0.00     0.065 C 
HETATM   11  C1  UNL     1      21.052   8.883  -3.770  1.00  0.00     0.093 C 
HETATM   12 CL1  UNL     1      21.565   9.431  -5.381  1.00  0.00    -0.124 Cl
HETATM   13  C16 UNL     1      21.097   7.372  -3.661  1.00  0.00     0.027 C 
HETATM   14  C15 UNL     1      22.487   6.970  -4.117  1.00  0.00     0.133 C 
BRANCH  13  15
HETATM   15  C17 UNL     1      20.052   6.667  -4.449  1.00  0.00    -0.007 A 
HETATM   16  C18 UNL     1      19.103   5.796  -3.654  1.00  0.00     0.005 A 
HETATM   17  C19 UNL     1      18.608   7.037  -4.264  1.00  0.00     0.005 A 
ENDBRANCH  13  15
ENDBRANCH   7   8
ENDBRANCH   1   7
BRANCH   3  18
HETATM   18  C7  UNL     1      26.419   2.677  -3.177  1.00  0.00     0.277 C 
BRANCH  18  19
HETATM   19  C8  UNL     1      26.181   1.285  -2.630  1.00  0.00     0.014 C 
HETATM   20  C9  UNL     1      26.671   1.232  -1.196  1.00  0.00     0.006 C 
HETATM   21  C10 UNL     1      28.137   0.885  -1.332  1.00  0.00     0.000 C 
HETATM   22  C11 UNL     1      28.371   0.439  -2.751  1.00  0.00     0.000 C 
HETATM   23  C12 UNL     1      27.025   0.326  -3.420  1.00  0.00     0.006 C 
ENDBRANCH  18  19
ENDBRANCH   3  18
TORSDOF 5
ENDMDL
MODEL 3
REMARK VINA RESULT: -6.838407849      5.344      6.368
REMARK  5 active torsions:
REMARK  status: ('A' for Active; 'I' for Inactive)
REMARK    1  A    between atoms: N1_5  and  C4_6 
REMARK    2  A    between atoms: C4_6  and  C5_7 
REMARK    3  A    between atoms: N2_9  and  C7_10 
REMARK    4  A    between atoms: C7_10  and  C8_11 
REMARK    5  A    between atoms: C16_20  and  C17_21 
ROOT
HETATM    1  C5  UNL     1      19.884   3.376  -2.639  1.00  0.00     0.188 C 
HETATM    2  C6  UNL     1      20.102   2.595  -1.410  1.00  0.00     0.309 C 
HETATM    3  N2  UNL     1      19.346   1.371  -1.334  1.00  0.00     0.093 N 
HETATM    4  C13 UNL     1      18.099   1.420  -2.007  1.00  0.00     0.298 C 
HETATM    5  C14 UNL     1      18.296   1.863  -3.443  1.00  0.00     0.199 C 
HETATM    6  O1  UNL     1      19.525   2.457  -3.660  1.00  0.00    -0.377 OA
ENDROOT
BRANCH   1   7
HETATM    7  C4  UNL     1      18.872   4.448  -2.660  1.00  0.00     0.096 C 
BRANCH   7   8
HETATM    8  N1  UNL     1      18.972   5.506  -3.563  1.00  0.00    -0.371 N 
HETATM    9  C3  UNL     1      19.949   6.493  -3.476  1.00  0.00     0.064 C 
HETATM   10  C2  UNL     1      19.491   7.921  -3.735  1.00  0.00     0.065 C 
HETATM   11  C1  UNL     1      18.648   7.929  -4.981  1.00  0.00     0.093 C 
HETATM   12 CL1  UNL     1      19.608   7.326  -6.351  1.00  0.00    -0.124 Cl
HETATM   13  C16 UNL     1      17.455   7.036  -4.708  1.00  0.00     0.027 C 
HETATM   14  C15 UNL     1      18.014   5.630  -4.593  1.00  0.00     0.133 C 
BRANCH  13  15
HETATM   15  C17 UNL     1      16.387   7.104  -5.740  1.00  0.00    -0.007 A 
HETATM   16  C18 UNL     1      15.214   8.005  -5.416  1.00  0.00     0.005 A 
HETATM   17  C19 UNL     1      16.152   8.389  -6.480  1.00  0.00     0.005 A 
ENDBRANCH  13  15
ENDBRANCH   7   8
ENDBRANCH   1   7
BRANCH   3  18
HETATM   18  C7  UNL     1      19.310   0.828  -0.024  1.00  0.00     0.277 C 
BRANCH  18  19
HETATM   19  C8  UNL     1      20.293   1.477   0.927  1.00  0.00     0.014 C 
HETATM   20  C9  UNL     1      21.314   0.441   1.358  1.00  0.00     0.006 C 
HETATM   21  C10 UNL     1      20.663  -0.226   2.549  1.00  0.00     0.000 C 
HETATM   22  C11 UNL     1      19.489   0.622   2.963  1.00  0.00     0.000 C 
HETATM   23  C12 UNL     1      19.541   1.895   2.157  1.00  0.00     0.006 C 
ENDBRANCH  18  19
ENDBRANCH   3  18
TORSDOF 5
ENDMDL
MODEL 4
REMARK VINA RESULT: -6.721950172      2.589      7.864
REMARK  5 active torsions:
REMARK  status: ('A' for Active; 'I' for Inactive)
REMARK    1  A    between atoms: N1_5  and  C4_6 
REMARK    2  A    between atoms: C4_6  and  C5_7 
REMARK    3  A    between atoms: N2_9  and  C7_10 
REMARK    4  A    between atoms: C7_10  and  C8_11 
REMARK    5  A    between atoms: C16_20  and  C17_21 
ROOT
HETATM    1  C5  UNL     1      24.543   6.642  -3.378  1.00  0.00     0.188 C 
HETATM    2  C6  UNL     1      23.512   7.088  -4.330  1.00  0.00     0.309 C 
HETATM    3  N2  UNL     1      22.784   8.262  -3.921  1.00  0.00     0.093 N 
HETATM    4  C13 UNL     1      22.647   8.396  -2.516  1.00  0.00     0.298 C 
HETATM    5  C14 UNL     1      24.006   8.324  -1.848  1.00  0.00     0.199 C 
HETATM    6  O1  UNL     1      24.982   7.790  -2.668  1.00  0.00    -0.377 OA
ENDROOT
BRANCH   1   7
HETATM    7  C4  UNL     1      24.217   5.619  -2.367  1.00  0.00     0.096 C 
BRANCH   7   8
HETATM    8  N1  UNL     1      25.049   4.518  -2.171  1.00  0.00    -0.371 N 
HETATM    9  C3  UNL     1      26.312   4.611  -1.593  1.00  0.00     0.064 C 
HETATM   10  C2  UNL     1      27.415   3.786  -2.241  1.00  0.00     0.065 C 
HETATM   11  C1  UNL     1      26.891   2.395  -2.473  1.00  0.00     0.093 C 
HETATM   12 CL1  UNL     1      26.409   1.676  -0.920  1.00  0.00    -0.124 Cl
HETATM   13  C16 UNL     1      25.709   2.523  -3.411  1.00  0.00     0.027 C 
HETATM   14  C15 UNL     1      24.634   3.246  -2.620  1.00  0.00     0.133 C 
BRANCH  13  15
HETATM   15  C17 UNL     1      25.202   1.230  -3.943  1.00  0.00    -0.007 A 
HETATM   16  C18 UNL     1      25.743   0.816  -5.295  1.00  0.00     0.005 A 
HETATM   17  C19 UNL     1      26.144   0.070  -4.094  1.00  0.00     0.005 A 
ENDBRANCH  13  15
ENDBRANCH   7   8
ENDBRANCH   1   7
BRANCH   3  18
HETATM   18  C7  UNL     1      21.596   8.460  -4.670  1.00  0.00     0.277 C 
BRANCH  18  19
HETATM   19  C8  UNL     1      20.818   7.185  -4.919  1.00  0.00     0.014 C 
HETATM   20  C9  UNL     1      20.026   7.338  -6.203  1.00  0.00     0.006 C 
HETATM   21  C10 UNL     1      18.738   7.989  -5.752  1.00  0.00     0.000 C 
HETATM   22  C11 UNL     1      18.681   7.896  -4.250  1.00  0.00     0.000 C 
HETATM   23  C12 UNL     1      19.826   7.023  -3.804  1.00  0.00     0.006 C 
ENDBRANCH  18  19
ENDBRANCH   3  18
TORSDOF 5
ENDMDL
MODEL 5
REMARK VINA RESULT: -6.630198036      2.244      8.022
REMARK  5 active torsions:
REMARK  status: ('A' for Active; 'I' for Inactive)
REMARK    1  A    between atoms: N1_5  and  C4_6 
REMARK    2  A    between atoms: C4_6  and  C5_7 
REMARK    3  A    between atoms: N2_9  and  C7_10 
REMARK    4  A    between atoms: C7_10  and  C8_11 
REMARK    5  A    between atoms: C16_20  and  C17_21 
ROOT
HETATM    1  C5  UNL     1      24.659   6.669  -3.303  1.00  0.00     0.188 C 
HETATM    2  C6  UNL     1      23.579   7.095  -4.209  1.00  0.00     0.309 C 
HETATM    3  N2  UNL     1      22.855   8.261  -3.774  1.00  0.00     0.093 N 
HETATM    4  C13 UNL     1      22.782   8.403  -2.365  1.00  0.00     0.298 C 
HETATM    5  C14 UNL     1      24.171   8.355  -1.760  1.00  0.00     0.199 C 
HETATM    6  O1  UNL     1      25.114   7.829  -2.622  1.00  0.00    -0.377 OA
ENDROOT
BRANCH   1   7
HETATM    7  C4  UNL     1      24.394   5.649  -2.271  1.00  0.00     0.096 C 
BRANCH   7   8
HETATM    8  N1  UNL     1      24.589   4.295  -2.539  1.00  0.00    -0.371 N 
HETATM    9  C3  UNL     1      23.571   3.349  -2.461  1.00  0.00     0.064 C 
HETATM   10  C2  UNL     1      23.933   2.018  -1.816  1.00  0.00     0.065 C 
HETATM   11  C1  UNL     1      25.235   1.547  -2.405  1.00  0.00     0.093 C 
HETATM   12 CL1  UNL     1      25.057   1.357  -4.163  1.00  0.00    -0.124 Cl
HETATM   13  C16 UNL     1      26.274   2.596  -2.066  1.00  0.00     0.027 C 
HETATM   14  C15 UNL     1      25.883   3.830  -2.857  1.00  0.00     0.133 C 
BRANCH  13  15
HETATM   15  C17 UNL     1      27.675   2.193  -2.362  1.00  0.00    -0.007 A 
HETATM   16  C18 UNL     1      28.377   1.403  -1.278  1.00  0.00     0.005 A 
HETATM   17  C19 UNL     1      28.007   0.738  -2.534  1.00  0.00     0.005 A 
ENDBRANCH  13  15
ENDBRANCH   7   8
ENDBRANCH   1   7
BRANCH   3  18
HETATM   18  C7  UNL     1      21.631   8.439  -4.468  1.00  0.00     0.277 C 
BRANCH  18  19
HETATM   19  C8  UNL     1      20.885   7.145  -4.718  1.00  0.00     0.014 C 
HETATM   20  C9  UNL     1      20.137   7.257  -6.033  1.00  0.00     0.006 C 
HETATM   21  C10 UNL     1      18.822   7.893  -5.641  1.00  0.00     0.000 C 
HETATM   22  C11 UNL     1      18.713   7.829  -4.141  1.00  0.00     0.000 C 
HETATM   23  C12 UNL     1      19.856   6.986  -3.637  1.00  0.00     0.006 C 
ENDBRANCH  18  19
ENDBRANCH   3  18
TORSDOF 5
ENDMDL
