MODEL 1
REMARK VINA RESULT: -7.717267613      0.000      0.000
REMARK  6 active torsions:
REMARK  status: ('A' for Active; 'I' for Inactive)
REMARK    1  A    between atoms: N1_1  and  C1_4 
REMARK    2  A    between atoms: C5_15  and  C6_16 
REMARK       I    between atoms: C6_16  and  N5_18 
REMARK    3  A    between atoms: N5_18  and  N6_20 
REMARK    4  A    between atoms: N7_23  and  C7_24 
REMARK    5  A    between atoms: C7_24  and  C8_25 
REMARK    6  A    between atoms: C8_25  and  C9_26 
ROOT
HETATM    1  C1  UNL     1       6.534  20.267   1.609  1.00  0.00     0.134 A 
HETATM    2  N2  UNL     1       6.393  18.999   1.963  1.00  0.00    -0.293 N 
ATOM      3  H2  UNL     1       7.029  18.299   1.583  1.00  0.00     0.172 HD
HETATM    4  C2  UNL     1       5.428  18.617   2.813  1.00  0.00     0.327 A 
HETATM    5  O1  UNL     1       5.354  17.392   3.104  1.00  0.00    -0.247 OA
HETATM    6  N3  UNL     1       4.553  19.512   3.348  1.00  0.00    -0.292 N 
ATOM      7  H3  UNL     1       3.826  19.201   3.993  1.00  0.00     0.172 HD
HETATM    8  C3  UNL     1       4.660  20.809   3.017  1.00  0.00     0.144 A 
HETATM    9  C4  UNL     1       5.639  21.201   2.153  1.00  0.00     0.123 A 
HETATM   10  N4  UNL     1       5.496  22.513   2.019  1.00  0.00    -0.332 N 
ATOM     11  H4  UNL     1       6.084  23.106   1.432  1.00  0.00     0.168 HD
HETATM   12  C5  UNL     1       4.427  22.968   2.793  1.00  0.00     0.180 A 
HETATM   13  N7  UNL     1       3.917  21.914   3.406  1.00  0.00    -0.312 N 
ENDROOT
BRANCH  13  14
HETATM   14  C7  UNL     1       2.829  21.787   4.340  1.00  0.00     0.140 C 
BRANCH  14  15
HETATM   15  C8  UNL     1       2.915  22.756   5.496  1.00  0.00     0.100 C 
BRANCH  15  16
HETATM   16  C9  UNL     1       4.050  22.393   6.367  1.00  0.00     0.114 A 
HETATM   17  N8  UNL     1       5.359  22.699   6.221  1.00  0.00    -0.272 N 
HETATM   18  N9  UNL     1       6.025  22.173   7.230  1.00  0.00    -0.227 N 
ATOM     19  H8  UNL     1       5.763  23.244   5.459  1.00  0.00     0.190 HD
HETATM   20  N10 UNL     1       5.190  21.535   8.029  1.00  0.00    -0.227 N 
ATOM     21  H9  UNL     1       7.032  22.248   7.373  1.00  0.00     0.210 HD
HETATM   22  N11 UNL     1       3.990  21.673   7.498  1.00  0.00    -0.272 N 
ATOM     23  H10 UNL     1       5.425  21.034   8.886  1.00  0.00     0.210 HD
ATOM     24  H11 UNL     1       3.133  21.286   7.893  1.00  0.00     0.190 HD
ENDBRANCH  15  16
ENDBRANCH  14  15
ENDBRANCH  13  14
BRANCH  12  25
HETATM   25  C6  UNL     1       4.086  24.372   2.838  1.00  0.00     0.303 C 
HETATM   26  O2  UNL     1       4.931  25.152   3.442  1.00  0.00    -0.263 OA
HETATM   27  N5  UNL     1       2.952  24.959   2.298  1.00  0.00    -0.270 N 
ATOM     28  H5  UNL     1       2.257  24.396   1.808  1.00  0.00     0.189 HD
BRANCH  27  29
HETATM   29  N6  UNL     1       2.773  26.390   2.445  1.00  0.00    -0.342 N 
ATOM     30  H62 UNL     1       2.878  26.998   1.633  1.00  0.00     0.176 HD
ATOM     31  H61 UNL     1       2.545  26.762   3.366  1.00  0.00     0.176 HD
ENDBRANCH  27  29
ENDBRANCH  12  25
BRANCH   1  32
HETATM   32  N1  UNL     1       7.427  20.723   0.802  1.00  0.00    -0.383 N 
ATOM     33  H12 UNL     1       8.327  20.242   0.793  1.00  0.00     0.157 HD
ATOM     34  H11 UNL     1       7.310  21.520   0.177  1.00  0.00     0.157 HD
ENDBRANCH   1  32
TORSDOF 6
ENDMDL
MODEL 2
REMARK VINA RESULT: -7.652838553      2.685      4.953
REMARK  6 active torsions:
REMARK  status: ('A' for Active; 'I' for Inactive)
REMARK    1  A    between atoms: N1_1  and  C1_4 
REMARK    2  A    between atoms: C5_15  and  C6_16 
REMARK       I    between atoms: C6_16  and  N5_18 
REMARK    3  A    between atoms: N5_18  and  N6_20 
REMARK    4  A    between atoms: N7_23  and  C7_24 
REMARK    5  A    between atoms: C7_24  and  C8_25 
REMARK    6  A    between atoms: C8_25  and  C9_26 
ROOT
HETATM    1  C1  UNL     1       0.732  19.697   3.932  1.00  0.00     0.134 A 
HETATM    2  N2  UNL     1       0.094  19.775   5.090  1.00  0.00    -0.293 N 
ATOM      3  H2  UNL     1      -0.778  19.262   5.216  1.00  0.00     0.172 HD
HETATM    4  C2  UNL     1       0.573  20.516   6.100  1.00  0.00     0.327 A 
HETATM    5  O1  UNL     1      -0.090  20.543   7.173  1.00  0.00    -0.247 OA
HETATM    6  N3  UNL     1       1.732  21.219   5.982  1.00  0.00    -0.292 N 
ATOM      7  H3  UNL     1       2.080  21.777   6.763  1.00  0.00     0.172 HD
HETATM    8  C3  UNL     1       2.413  21.169   4.826  1.00  0.00     0.144 A 
HETATM    9  C4  UNL     1       1.930  20.418   3.797  1.00  0.00     0.123 A 
HETATM   10  N4  UNL     1       2.800  20.562   2.806  1.00  0.00    -0.332 N 
ATOM     11  H4  UNL     1       2.719  20.119   1.890  1.00  0.00     0.168 HD
HETATM   12  C5  UNL     1       3.843  21.405   3.194  1.00  0.00     0.180 A 
HETATM   13  N7  UNL     1       3.599  21.775   4.439  1.00  0.00    -0.312 N 
ENDROOT
BRANCH  13  14
HETATM   14  C7  UNL     1       4.339  22.610   5.348  1.00  0.00     0.140 C 
BRANCH  14  15
HETATM   15  C8  UNL     1       3.694  23.956   5.585  1.00  0.00     0.100 C 
BRANCH  15  16
HETATM   16  C9  UNL     1       3.503  24.652   4.297  1.00  0.00     0.114 A 
HETATM   17  N8  UNL     1       4.435  25.215   3.495  1.00  0.00    -0.272 N 
HETATM   18  N9  UNL     1       3.824  25.725   2.443  1.00  0.00    -0.227 N 
ATOM     19  H8  UNL     1       5.438  25.240   3.672  1.00  0.00     0.190 HD
HETATM   20  N10 UNL     1       2.525  25.512   2.536  1.00  0.00    -0.227 N 
ATOM     21  H9  UNL     1       4.286  26.211   1.674  1.00  0.00     0.210 HD
HETATM   22  N11 UNL     1       2.337  24.858   3.667  1.00  0.00    -0.272 N 
ATOM     23  H10 UNL     1       1.809  25.796   1.868  1.00  0.00     0.210 HD
ATOM     24  H11 UNL     1       1.428  24.551   4.014  1.00  0.00     0.190 HD
ENDBRANCH  15  16
ENDBRANCH  14  15
ENDBRANCH  13  14
BRANCH  12  25
HETATM   25  C6  UNL     1       4.936  21.698   2.294  1.00  0.00     0.303 C 
HETATM   26  O2  UNL     1       4.872  22.829   1.659  1.00  0.00    -0.263 OA
HETATM   27  N5  UNL     1       6.039  20.893   2.052  1.00  0.00    -0.270 N 
ATOM     28  H5  UNL     1       6.144  19.997   2.528  1.00  0.00     0.189 HD
BRANCH  27  29
HETATM   29  N6  UNL     1       7.040  21.350   1.109  1.00  0.00    -0.342 N 
ATOM     30  H62 UNL     1       7.410  22.297   1.185  1.00  0.00     0.176 HD
ATOM     31  H61 UNL     1       7.355  20.710   0.381  1.00  0.00     0.176 HD
ENDBRANCH  27  29
ENDBRANCH  12  25
BRANCH   1  32
HETATM   32  N1  UNL     1       0.349  19.014   2.911  1.00  0.00    -0.383 N 
ATOM     33  H12 UNL     1       0.982  18.284   2.584  1.00  0.00     0.157 HD
ATOM     34  H11 UNL     1      -0.527  19.143   2.406  1.00  0.00     0.157 HD
ENDBRANCH   1  32
TORSDOF 6
ENDMDL
MODEL 3
REMARK VINA RESULT: -7.561701402      2.250      5.293
REMARK  6 active torsions:
REMARK  status: ('A' for Active; 'I' for Inactive)
REMARK    1  A    between atoms: N1_1  and  C1_4 
REMARK    2  A    between atoms: C5_15  and  C6_16 
REMARK       I    between atoms: C6_16  and  N5_18 
REMARK    3  A    between atoms: N5_18  and  N6_20 
REMARK    4  A    between atoms: N7_23  and  C7_24 
REMARK    5  A    between atoms: C7_24  and  C8_25 
REMARK    6  A    between atoms: C8_25  and  C9_26 
ROOT
HETATM    1  C1  UNL     1       4.846  22.451   8.223  1.00  0.00     0.134 A 
HETATM    2  N2  UNL     1       3.845  22.257   9.069  1.00  0.00    -0.293 N 
ATOM      3  H2  UNL     1       4.023  22.302  10.072  1.00  0.00     0.172 HD
HETATM    4  C2  UNL     1       2.603  22.003   8.631  1.00  0.00     0.327 A 
HETATM    5  O1  UNL     1       1.701  21.829   9.496  1.00  0.00    -0.247 OA
HETATM    6  N3  UNL     1       2.315  21.933   7.303  1.00  0.00    -0.292 N 
ATOM      7  H3  UNL     1       1.364  21.739   6.990  1.00  0.00     0.172 HD
HETATM    8  C3  UNL     1       3.299  22.123   6.409  1.00  0.00     0.144 A 
HETATM    9  C4  UNL     1       4.563  22.381   6.849  1.00  0.00     0.123 A 
HETATM   10  N4  UNL     1       5.304  22.519   5.757  1.00  0.00    -0.332 N 
ATOM     11  H4  UNL     1       6.304  22.720   5.754  1.00  0.00     0.168 HD
HETATM   12  C5  UNL     1       4.521  22.351   4.614  1.00  0.00     0.180 A 
HETATM   13  N7  UNL     1       3.287  22.107   5.022  1.00  0.00    -0.312 N 
ENDROOT
BRANCH  13  14
HETATM   14  C7  UNL     1       2.068  21.881   4.292  1.00  0.00     0.140 C 
BRANCH  14  15
HETATM   15  C8  UNL     1       1.189  23.107   4.198  1.00  0.00     0.100 C 
BRANCH  15  16
HETATM   16  C9  UNL     1       2.009  24.284   3.850  1.00  0.00     0.114 A 
HETATM   17  N8  UNL     1       2.602  25.175   4.678  1.00  0.00    -0.272 N 
HETATM   18  N9  UNL     1       3.237  26.067   3.943  1.00  0.00    -0.227 N 
ATOM     19  H8  UNL     1       2.565  25.159   5.697  1.00  0.00     0.190 HD
HETATM   20  N10 UNL     1       3.076  25.785   2.663  1.00  0.00    -0.227 N 
ATOM     21  H9  UNL     1       3.771  26.855   4.307  1.00  0.00     0.210 HD
HETATM   22  N11 UNL     1       2.328  24.698   2.615  1.00  0.00    -0.272 N 
ATOM     23  H10 UNL     1       3.453  26.303   1.870  1.00  0.00     0.210 HD
ATOM     24  H11 UNL     1       2.032  24.236   1.755  1.00  0.00     0.190 HD
ENDBRANCH  15  16
ENDBRANCH  14  15
ENDBRANCH  13  14
BRANCH  12  25
HETATM   25  C6  UNL     1       5.094  22.482   3.294  1.00  0.00     0.303 C 
HETATM   26  O2  UNL     1       5.110  23.679   2.789  1.00  0.00    -0.263 OA
HETATM   27  N5  UNL     1       5.628  21.459   2.525  1.00  0.00    -0.270 N 
ATOM     28  H5  UNL     1       5.646  20.501   2.873  1.00  0.00     0.189 HD
BRANCH  27  29
HETATM   29  N6  UNL     1       6.158  21.779   1.214  1.00  0.00    -0.342 N 
ATOM     30  H62 UNL     1       6.614  22.678   1.060  1.00  0.00     0.176 HD
ATOM     31  H61 UNL     1       6.062  21.092   0.467  1.00  0.00     0.176 HD
ENDBRANCH  27  29
ENDBRANCH  12  25
BRANCH   1  32
HETATM   32  N1  UNL     1       6.066  22.698   8.551  1.00  0.00    -0.383 N 
ATOM     33  H12 UNL     1       6.258  23.621   8.941  1.00  0.00     0.157 HD
ATOM     34  H11 UNL     1       6.849  22.053   8.453  1.00  0.00     0.157 HD
ENDBRANCH   1  32
TORSDOF 6
ENDMDL
MODEL 4
REMARK VINA RESULT: -7.465945841      3.244      5.205
REMARK  6 active torsions:
REMARK  status: ('A' for Active; 'I' for Inactive)
REMARK    1  A    between atoms: N1_1  and  C1_4 
REMARK    2  A    between atoms: C5_15  and  C6_16 
REMARK       I    between atoms: C6_16  and  N5_18 
REMARK    3  A    between atoms: N5_18  and  N6_20 
REMARK    4  A    between atoms: N7_23  and  C7_24 
REMARK    5  A    between atoms: C7_24  and  C8_25 
REMARK    6  A    between atoms: C8_25  and  C9_26 
ROOT
HETATM    1  C1  UNL     1      -0.323  19.899   4.227  1.00  0.00     0.134 A 
HETATM    2  N2  UNL     1      -0.979  19.957   5.376  1.00  0.00    -0.293 N 
ATOM      3  H2  UNL     1      -1.946  19.636   5.416  1.00  0.00     0.172 HD
HETATM    4  C2  UNL     1      -0.396  20.429   6.488  1.00  0.00     0.327 A 
HETATM    5  O1  UNL     1      -1.084  20.455   7.545  1.00  0.00    -0.247 OA
HETATM    6  N3  UNL     1       0.892  20.869   6.486  1.00  0.00    -0.292 N 
ATOM      7  H3  UNL     1       1.317  21.225   7.342  1.00  0.00     0.172 HD
HETATM    8  C3  UNL     1       1.596  20.829   5.343  1.00  0.00     0.144 A 
HETATM    9  C4  UNL     1       1.006  20.349   4.211  1.00  0.00     0.123 A 
HETATM   10  N4  UNL     1       1.930  20.432   3.261  1.00  0.00    -0.332 N 
ATOM     11  H4  UNL     1       1.794  20.148   2.291  1.00  0.00     0.168 HD
HETATM   12  C5  UNL     1       3.112  20.964   3.779  1.00  0.00     0.180 A 
HETATM   13  N7  UNL     1       2.900  21.206   5.061  1.00  0.00    -0.312 N 
ENDROOT
BRANCH  13  14
HETATM   14  C7  UNL     1       3.762  21.726   6.089  1.00  0.00     0.140 C 
BRANCH  14  15
HETATM   15  C8  UNL     1       3.670  23.226   6.248  1.00  0.00     0.100 C 
BRANCH  15  16
HETATM   16  C9  UNL     1       4.355  23.889   5.121  1.00  0.00     0.114 A 
HETATM   17  N8  UNL     1       3.890  24.862   4.305  1.00  0.00    -0.272 N 
HETATM   18  N9  UNL     1       4.835  25.162   3.435  1.00  0.00    -0.227 N 
ATOM     19  H8  UNL     1       2.966  25.290   4.353  1.00  0.00     0.190 HD
HETATM   20  N10 UNL     1       5.900  24.416   3.661  1.00  0.00    -0.227 N 
ATOM     21  H9  UNL     1       4.756  25.865   2.700  1.00  0.00     0.210 HD
HETATM   22  N11 UNL     1       5.601  23.644   4.689  1.00  0.00    -0.272 N 
ATOM     23  H10 UNL     1       6.779  24.432   3.144  1.00  0.00     0.210 HD
ATOM     24  H11 UNL     1       6.231  22.954   5.098  1.00  0.00     0.190 HD
ENDBRANCH  15  16
ENDBRANCH  14  15
ENDBRANCH  13  14
BRANCH  12  25
HETATM   25  C6  UNL     1       4.281  21.129   2.944  1.00  0.00     0.303 C 
HETATM   26  O2  UNL     1       4.338  22.221   2.242  1.00  0.00    -0.263 OA
HETATM   27  N5  UNL     1       5.339  20.240   2.827  1.00  0.00    -0.270 N 
ATOM     28  H5  UNL     1       5.349  19.370   3.359  1.00  0.00     0.189 HD
BRANCH  27  29
HETATM   29  N6  UNL     1       6.429  20.573   1.933  1.00  0.00    -0.342 N 
ATOM     30  H62 UNL     1       6.294  20.507   0.924  1.00  0.00     0.176 HD
ATOM     31  H61 UNL     1       7.319  20.868   2.335  1.00  0.00     0.176 HD
ENDBRANCH  27  29
ENDBRANCH  12  25
BRANCH   1  32
HETATM   32  N1  UNL     1      -0.800  19.463   3.114  1.00  0.00    -0.383 N 
ATOM     33  H12 UNL     1      -0.844  20.128   2.342  1.00  0.00     0.157 HD
ATOM     34  H11 UNL     1      -1.135  18.515   2.943  1.00  0.00     0.157 HD
ENDBRANCH   1  32
TORSDOF 6
ENDMDL
MODEL 5
REMARK VINA RESULT: -7.373794282      1.135      1.389
REMARK  6 active torsions:
REMARK  status: ('A' for Active; 'I' for Inactive)
REMARK    1  A    between atoms: N1_1  and  C1_4 
REMARK    2  A    between atoms: C5_15  and  C6_16 
REMARK       I    between atoms: C6_16  and  N5_18 
REMARK    3  A    between atoms: N5_18  and  N6_20 
REMARK    4  A    between atoms: N7_23  and  C7_24 
REMARK    5  A    between atoms: C7_24  and  C8_25 
REMARK    6  A    between atoms: C8_25  and  C9_26 
ROOT
HETATM    1  C1  UNL     1       7.062  20.325   1.035  1.00  0.00     0.134 A 
HETATM    2  N2  UNL     1       6.966  19.006   0.969  1.00  0.00    -0.293 N 
ATOM      3  H2  UNL     1       7.696  18.474   0.497  1.00  0.00     0.172 HD
HETATM    4  C2  UNL     1       5.924  18.356   1.510  1.00  0.00     0.327 A 
HETATM    5  O1  UNL     1       5.901  17.099   1.406  1.00  0.00    -0.247 OA
HETATM    6  N3  UNL     1       4.923  19.020   2.150  1.00  0.00    -0.292 N 
ATOM      7  H3  UNL     1       4.140  18.506   2.555  1.00  0.00     0.172 HD
HETATM    8  C3  UNL     1       4.980  20.358   2.242  1.00  0.00     0.144 A 
HETATM    9  C4  UNL     1       6.036  21.023   1.693  1.00  0.00     0.123 A 
HETATM   10  N4  UNL     1       5.819  22.309   1.938  1.00  0.00    -0.332 N 
ATOM     11  H4  UNL     1       6.437  23.068   1.651  1.00  0.00     0.168 HD
HETATM   12  C5  UNL     1       4.625  22.474   2.643  1.00  0.00     0.180 A 
HETATM   13  N7  UNL     1       4.114  21.270   2.827  1.00  0.00    -0.312 N 
ENDROOT
BRANCH  13  14
HETATM   14  C7  UNL     1       2.922  20.833   3.505  1.00  0.00     0.140 C 
BRANCH  14  15
HETATM   15  C8  UNL     1       3.176  20.351   4.915  1.00  0.00     0.100 C 
BRANCH  15  16
HETATM   16  C9  UNL     1       3.628  21.479   5.753  1.00  0.00     0.114 A 
HETATM   17  N8  UNL     1       2.892  22.478   6.292  1.00  0.00    -0.272 N 
HETATM   18  N9  UNL     1       3.700  23.270   6.970  1.00  0.00    -0.227 N 
ATOM     19  H8  UNL     1       1.885  22.599   6.191  1.00  0.00     0.190 HD
HETATM   20  N10 UNL     1       4.938  22.818   6.889  1.00  0.00    -0.227 N 
ATOM     21  H9  UNL     1       3.413  24.106   7.479  1.00  0.00     0.210 HD
HETATM   22  N11 UNL     1       4.886  21.727   6.147  1.00  0.00    -0.272 N 
ATOM     23  H10 UNL     1       5.768  23.229   7.314  1.00  0.00     0.210 HD
ATOM     24  H11 UNL     1       5.692  21.152   5.906  1.00  0.00     0.190 HD
ENDBRANCH  15  16
ENDBRANCH  14  15
ENDBRANCH  13  14
BRANCH  12  25
HETATM   25  C6  UNL     1       4.181  23.787   3.053  1.00  0.00     0.303 C 
HETATM   26  O2  UNL     1       4.632  24.218   4.193  1.00  0.00    -0.263 OA
HETATM   27  N5  UNL     1       3.328  24.623   2.349  1.00  0.00    -0.270 N 
ATOM     28  H5  UNL     1       2.948  24.339   1.446  1.00  0.00     0.189 HD
BRANCH  27  29
HETATM   29  N6  UNL     1       2.987  25.910   2.922  1.00  0.00    -0.342 N 
ATOM     30  H62 UNL     1       3.709  26.469   3.375  1.00  0.00     0.176 HD
ATOM     31  H61 UNL     1       2.021  26.232   2.861  1.00  0.00     0.176 HD
ENDBRANCH  27  29
ENDBRANCH  12  25
BRANCH   1  32
HETATM   32  N1  UNL     1       8.021  21.031   0.547  1.00  0.00    -0.383 N 
ATOM     33  H12 UNL     1       7.799  21.605  -0.267  1.00  0.00     0.157 HD
ATOM     34  H11 UNL     1       8.975  21.064   0.903  1.00  0.00     0.157 HD
ENDBRANCH   1  32
TORSDOF 6
ENDMDL
