MODEL 1
REMARK VINA RESULT: -7.878411477      0.000      0.000
REMARK  5 active torsions:
REMARK  status: ('A' for Active; 'I' for Inactive)
REMARK    1  A    between atoms: C1_2  and  N1_3 
REMARK    2  A    between atoms: C3_10  and  C4_11 
REMARK    3  A    between atoms: N4_12  and  N5_14 
REMARK       I    between atoms: N5_14  and  C5_16 
REMARK    4  A    between atoms: C5_16  and  C6_18 
REMARK    5  A    between atoms: C6_18  and  N6_19 
ROOT
HETATM    1  N5  UNL     1       3.492  19.673   2.352  1.00  0.00    -0.269 N 
ATOM      2  H5  UNL     1       4.363  20.002   2.768  1.00  0.00     0.190 HD
HETATM    3  C5  UNL     1       2.260  19.888   3.017  1.00  0.00     0.255 C 
HETATM    4  O3  UNL     1       1.165  19.495   2.535  1.00  0.00    -0.270 OA
ENDROOT
BRANCH   3   5
HETATM    5  C6  UNL     1       2.294  20.603   4.323  1.00  0.00     0.255 C 
BRANCH   5   6
HETATM    6  N6  UNL     1       3.341  21.589   4.378  1.00  0.00    -0.263 N 
HETATM    7  N7  UNL     1       4.557  21.654   4.892  1.00  0.00    -0.277 N 
HETATM    8  C7  UNL     1       4.669  22.908   4.419  1.00  0.00     0.181 A 
ATOM      9  H7  UNL     1       5.156  21.021   5.421  1.00  0.00     0.189 HD
HETATM   10  C8  UNL     1       3.411  22.849   3.884  1.00  0.00     0.174 A 
HETATM   11  N10 UNL     1       5.428  24.111   4.256  1.00  0.00    -0.277 N 
HETATM   12  N8  UNL     1       2.859  23.964   3.174  1.00  0.00    -0.289 N 
HETATM   13  C9  UNL     1       3.612  25.157   3.013  1.00  0.00     0.340 A 
ATOM     14  H8  UNL     1       1.919  23.900   2.783  1.00  0.00     0.172 HD
HETATM   15  O4  UNL     1       3.185  26.163   2.404  1.00  0.00    -0.245 OA
HETATM   16  N9  UNL     1       4.929  25.221   3.571  1.00  0.00    -0.250 N 
ATOM     17  H9  UNL     1       5.493  26.064   3.470  1.00  0.00     0.192 HD
ATOM     18  H10 UNL     1       6.365  24.159   4.655  1.00  0.00     0.189 HD
ENDBRANCH   5   6
ENDBRANCH   3   5
BRANCH   1  19
HETATM   19  N4  UNL     1       3.509  19.014   1.139  1.00  0.00    -0.306 N 
HETATM   20  C4  UNL     1       4.508  18.478   0.577  1.00  0.00     0.157 C 
ATOM     21  H4  UNL     1       2.621  18.954   0.641  1.00  0.00     0.186 HD
BRANCH  20  22
HETATM   22  C3  UNL     1       5.809  18.494   1.177  1.00  0.00     0.150 A 
HETATM   23  N1  UNL     1       6.641  19.521   1.364  1.00  0.00    -0.209 N 
HETATM   24  N2  UNL     1       7.717  19.033   1.958  1.00  0.00    -0.241 N 
HETATM   25  C2  UNL     1       7.607  17.726   2.160  1.00  0.00     0.341 A 
ATOM     26  H2  UNL     1       8.529  19.590   2.226  1.00  0.00     0.192 HD
HETATM   27  O2  UNL     1       8.486  16.998   2.710  1.00  0.00    -0.245 OA
HETATM   28  N3  UNL     1       6.411  17.371   1.675  1.00  0.00    -0.291 N 
ATOM     29  H3  UNL     1       6.017  16.429   1.676  1.00  0.00     0.172 HD
BRANCH  23  30
HETATM   30  C1  UNL     1       6.456  20.882   1.013  1.00  0.00     0.378 C 
HETATM   31  O1  UNL     1       5.474  21.565   1.312  1.00  0.00    -0.281 OA
ENDBRANCH  23  30
ENDBRANCH  20  22
ENDBRANCH   1  19
TORSDOF 5
ENDMDL
MODEL 2
REMARK VINA RESULT: -7.712058835      1.144      1.510
REMARK  5 active torsions:
REMARK  status: ('A' for Active; 'I' for Inactive)
REMARK    1  A    between atoms: C1_2  and  N1_3 
REMARK    2  A    between atoms: C3_10  and  C4_11 
REMARK    3  A    between atoms: N4_12  and  N5_14 
REMARK       I    between atoms: N5_14  and  C5_16 
REMARK    4  A    between atoms: C5_16  and  C6_18 
REMARK    5  A    between atoms: C6_18  and  N6_19 
ROOT
HETATM    1  N5  UNL     1       3.288  19.646   2.399  1.00  0.00    -0.269 N 
ATOM      2  H5  UNL     1       4.126  20.079   2.785  1.00  0.00     0.190 HD
HETATM    3  C5  UNL     1       2.064  19.709   3.108  1.00  0.00     0.255 C 
HETATM    4  O3  UNL     1       1.007  19.185   2.664  1.00  0.00    -0.270 OA
ENDROOT
BRANCH   3   5
HETATM    5  C6  UNL     1       2.057  20.423   4.416  1.00  0.00     0.255 C 
BRANCH   5   6
HETATM    6  N6  UNL     1       2.056  21.853   4.256  1.00  0.00    -0.263 N 
HETATM    7  N7  UNL     1       1.139  22.804   4.231  1.00  0.00    -0.277 N 
HETATM    8  C7  UNL     1       2.113  23.713   4.044  1.00  0.00     0.181 A 
ATOM      9  H7  UNL     1       0.123  22.836   4.317  1.00  0.00     0.189 HD
HETATM   10  C8  UNL     1       3.069  22.733   4.070  1.00  0.00     0.174 A 
HETATM   11  N10 UNL     1       2.527  25.070   3.856  1.00  0.00    -0.277 N 
HETATM   12  N8  UNL     1       4.456  23.054   3.912  1.00  0.00    -0.289 N 
HETATM   13  C9  UNL     1       4.866  24.400   3.725  1.00  0.00     0.340 A 
ATOM     14  H8  UNL     1       5.154  22.310   3.934  1.00  0.00     0.172 HD
HETATM   15  O4  UNL     1       6.061  24.743   3.582  1.00  0.00    -0.245 OA
HETATM   16  N9  UNL     1       3.868  25.427   3.699  1.00  0.00    -0.250 N 
ATOM     17  H9  UNL     1       4.132  26.403   3.568  1.00  0.00     0.192 HD
ATOM     18  H10 UNL     1       1.817  25.802   3.835  1.00  0.00     0.189 HD
ENDBRANCH   5   6
ENDBRANCH   3   5
BRANCH   1  19
HETATM   19  N4  UNL     1       3.341  18.995   1.183  1.00  0.00    -0.306 N 
HETATM   20  C4  UNL     1       4.366  18.502   0.627  1.00  0.00     0.157 C 
ATOM     21  H4  UNL     1       2.460  18.900   0.678  1.00  0.00     0.186 HD
BRANCH  20  22
HETATM   22  C3  UNL     1       5.660  18.569   1.237  1.00  0.00     0.150 A 
HETATM   23  N1  UNL     1       6.449  19.629   1.432  1.00  0.00    -0.209 N 
HETATM   24  N2  UNL     1       7.539  19.183   2.034  1.00  0.00    -0.241 N 
HETATM   25  C2  UNL     1       7.479  17.871   2.233  1.00  0.00     0.341 A 
ATOM     26  H2  UNL     1       8.325  19.771   2.309  1.00  0.00     0.192 HD
HETATM   27  O2  UNL     1       8.383  17.178   2.787  1.00  0.00    -0.245 OA
HETATM   28  N3  UNL     1       6.302  17.470   1.737  1.00  0.00    -0.291 N 
ATOM     29  H3  UNL     1       5.947  16.514   1.734  1.00  0.00     0.172 HD
BRANCH  23  30
HETATM   30  C1  UNL     1       6.212  20.981   1.083  1.00  0.00     0.378 C 
HETATM   31  O1  UNL     1       5.243  21.650   1.449  1.00  0.00    -0.281 OA
ENDBRANCH  23  30
ENDBRANCH  20  22
ENDBRANCH   1  19
TORSDOF 5
ENDMDL
MODEL 3
REMARK VINA RESULT: -7.552761623      2.071      6.905
REMARK  5 active torsions:
REMARK  status: ('A' for Active; 'I' for Inactive)
REMARK    1  A    between atoms: C1_2  and  N1_3 
REMARK    2  A    between atoms: C3_10  and  C4_11 
REMARK    3  A    between atoms: N4_12  and  N5_14 
REMARK       I    between atoms: N5_14  and  C5_16 
REMARK    4  A    between atoms: C5_16  and  C6_18 
REMARK    5  A    between atoms: C6_18  and  N6_19 
ROOT
HETATM    1  N5  UNL     1       4.950  21.602   3.775  1.00  0.00    -0.269 N 
ATOM      2  H5  UNL     1       5.245  22.125   2.951  1.00  0.00     0.190 HD
HETATM    3  C5  UNL     1       4.580  20.240   3.659  1.00  0.00     0.255 C 
HETATM    4  O3  UNL     1       4.210  19.562   4.655  1.00  0.00    -0.270 OA
ENDROOT
BRANCH   3   5
HETATM    5  C6  UNL     1       4.640  19.619   2.306  1.00  0.00     0.255 C 
BRANCH   5   6
HETATM    6  N6  UNL     1       5.795  18.776   2.145  1.00  0.00    -0.263 N 
HETATM    7  N7  UNL     1       6.273  17.697   2.741  1.00  0.00    -0.277 N 
HETATM    8  C7  UNL     1       7.315  17.712   1.890  1.00  0.00     0.181 A 
ATOM      9  H7  UNL     1       5.977  17.104   3.516  1.00  0.00     0.189 HD
HETATM   10  C8  UNL     1       6.826  18.829   1.267  1.00  0.00     0.174 A 
HETATM   11  N10 UNL     1       8.542  17.146   1.419  1.00  0.00    -0.277 N 
HETATM   12  N8  UNL     1       7.525  19.423   0.167  1.00  0.00    -0.289 N 
HETATM   13  C9  UNL     1       8.742  18.861  -0.300  1.00  0.00     0.340 A 
ATOM     14  H8  UNL     1       7.145  20.255  -0.284  1.00  0.00     0.172 HD
HETATM   15  O4  UNL     1       9.397  19.334  -1.255  1.00  0.00    -0.245 OA
HETATM   16  N9  UNL     1       9.255  17.692   0.350  1.00  0.00    -0.250 N 
ATOM     17  H9  UNL     1      10.126  17.266   0.035  1.00  0.00     0.192 HD
ATOM     18  H10 UNL     1       8.909  16.314   1.882  1.00  0.00     0.189 HD
ENDBRANCH   5   6
ENDBRANCH   3   5
BRANCH   1  19
HETATM   19  N4  UNL     1       4.909  22.219   5.010  1.00  0.00    -0.306 N 
HETATM   20  C4  UNL     1       4.326  23.304   5.300  1.00  0.00     0.157 C 
ATOM     21  H4  UNL     1       5.403  21.750   5.769  1.00  0.00     0.186 HD
BRANCH  20  22
HETATM   22  C3  UNL     1       3.598  24.055   4.321  1.00  0.00     0.150 A 
HETATM   23  N1  UNL     1       2.357  23.870   3.866  1.00  0.00    -0.209 N 
HETATM   24  N2  UNL     1       2.137  24.819   2.971  1.00  0.00    -0.241 N 
HETATM   25  C2  UNL     1       3.195  25.610   2.835  1.00  0.00     0.341 A 
ATOM     26  H2  UNL     1       1.266  24.929   2.452  1.00  0.00     0.192 HD
HETATM   27  O2  UNL     1       3.266  26.600   2.050  1.00  0.00    -0.245 OA
HETATM   28  N3  UNL     1       4.123  25.142   3.679  1.00  0.00    -0.291 N 
ATOM     29  H3  UNL     1       5.057  25.529   3.818  1.00  0.00     0.172 HD
BRANCH  23  30
HETATM   30  C1  UNL     1       1.422  22.871   4.234  1.00  0.00     0.378 C 
HETATM   31  O1  UNL     1       1.640  21.658   4.229  1.00  0.00    -0.281 OA
ENDBRANCH  23  30
ENDBRANCH  20  22
ENDBRANCH   1  19
TORSDOF 5
ENDMDL
MODEL 4
REMARK VINA RESULT: -7.408156864      2.720      6.093
REMARK  5 active torsions:
REMARK  status: ('A' for Active; 'I' for Inactive)
REMARK    1  A    between atoms: C1_2  and  N1_3 
REMARK    2  A    between atoms: C3_10  and  C4_11 
REMARK    3  A    between atoms: N4_12  and  N5_14 
REMARK       I    between atoms: N5_14  and  C5_16 
REMARK    4  A    between atoms: C5_16  and  C6_18 
REMARK    5  A    between atoms: C6_18  and  N6_19 
ROOT
HETATM    1  N5  UNL     1       4.704  20.368   2.974  1.00  0.00    -0.269 N 
ATOM      2  H5  UNL     1       5.244  20.504   3.828  1.00  0.00     0.190 HD
HETATM    3  C5  UNL     1       5.150  19.455   1.988  1.00  0.00     0.255 C 
HETATM    4  O3  UNL     1       4.510  19.261   0.920  1.00  0.00    -0.270 OA
ENDROOT
BRANCH   3   5
HETATM    5  C6  UNL     1       6.418  18.718   2.249  1.00  0.00     0.255 C 
BRANCH   5   6
HETATM    6  N6  UNL     1       7.358  18.850   1.168  1.00  0.00    -0.263 N 
HETATM    7  N7  UNL     1       8.004  18.021   0.366  1.00  0.00    -0.277 N 
HETATM    8  C7  UNL     1       8.580  19.079  -0.234  1.00  0.00     0.181 A 
ATOM      9  H7  UNL     1       8.048  17.008   0.250  1.00  0.00     0.189 HD
HETATM   10  C8  UNL     1       7.914  19.944   0.593  1.00  0.00     0.174 A 
HETATM   11  N10 UNL     1       9.462  19.618  -1.222  1.00  0.00    -0.277 N 
HETATM   12  N8  UNL     1       8.093  21.360   0.475  1.00  0.00    -0.289 N 
HETATM   13  C9  UNL     1       8.969  21.894  -0.506  1.00  0.00     0.340 A 
ATOM     14  H8  UNL     1       7.588  21.989   1.100  1.00  0.00     0.172 HD
HETATM   15  O4  UNL     1       9.167  23.121  -0.658  1.00  0.00    -0.245 OA
HETATM   16  N9  UNL     1       9.666  20.991  -1.372  1.00  0.00    -0.250 N 
ATOM     17  H9  UNL     1      10.301  21.346  -2.088  1.00  0.00     0.192 HD
ATOM     18  H10 UNL     1       9.961  18.976  -1.839  1.00  0.00     0.189 HD
ENDBRANCH   5   6
ENDBRANCH   3   5
BRANCH   1  19
HETATM   19  N4  UNL     1       3.534  21.073   2.774  1.00  0.00    -0.306 N 
HETATM   20  C4  UNL     1       3.062  21.989   3.509  1.00  0.00     0.157 C 
ATOM     21  H4  UNL     1       2.992  20.829   1.945  1.00  0.00     0.186 HD
BRANCH  20  22
HETATM   22  C3  UNL     1       3.732  22.422   4.699  1.00  0.00     0.150 A 
HETATM   23  N1  UNL     1       4.695  23.335   4.841  1.00  0.00    -0.209 N 
HETATM   24  N2  UNL     1       4.985  23.380   6.131  1.00  0.00    -0.241 N 
HETATM   25  C2  UNL     1       4.241  22.527   6.824  1.00  0.00     0.341 A 
ATOM     26  H2  UNL     1       5.691  23.992   6.541  1.00  0.00     0.192 HD
HETATM   27  O2  UNL     1       4.305  22.358   8.077  1.00  0.00    -0.245 OA
HETATM   28  N3  UNL     1       3.446  21.916   5.937  1.00  0.00    -0.291 N 
ATOM     29  H3  UNL     1       2.750  21.200   6.147  1.00  0.00     0.172 HD
BRANCH  23  30
HETATM   30  C1  UNL     1       5.317  24.125   3.843  1.00  0.00     0.378 C 
HETATM   31  O1  UNL     1       4.989  25.274   3.539  1.00  0.00    -0.281 OA
ENDBRANCH  23  30
ENDBRANCH  20  22
ENDBRANCH   1  19
TORSDOF 5
ENDMDL
MODEL 5
REMARK VINA RESULT: -7.394568262      1.797      6.949
REMARK  5 active torsions:
REMARK  status: ('A' for Active; 'I' for Inactive)
REMARK    1  A    between atoms: C1_2  and  N1_3 
REMARK    2  A    between atoms: C3_10  and  C4_11 
REMARK    3  A    between atoms: N4_12  and  N5_14 
REMARK       I    between atoms: N5_14  and  C5_16 
REMARK    4  A    between atoms: C5_16  and  C6_18 
REMARK    5  A    between atoms: C6_18  and  N6_19 
ROOT
HETATM    1  N5  UNL     1       4.852  21.512   3.851  1.00  0.00    -0.269 N 
ATOM      2  H5  UNL     1       5.151  21.979   2.995  1.00  0.00     0.190 HD
HETATM    3  C5  UNL     1       4.363  20.185   3.804  1.00  0.00     0.255 C 
HETATM    4  O3  UNL     1       3.984  19.576   4.841  1.00  0.00    -0.270 OA
ENDROOT
BRANCH   3   5
HETATM    5  C6  UNL     1       4.306  19.514   2.475  1.00  0.00     0.255 C 
BRANCH   5   6
HETATM    6  N6  UNL     1       5.547  19.625   1.755  1.00  0.00    -0.263 N 
HETATM    7  N7  UNL     1       6.191  20.587   1.117  1.00  0.00    -0.277 N 
HETATM    8  C7  UNL     1       7.172  19.713   0.829  1.00  0.00     0.181 A 
ATOM      9  H7  UNL     1       6.017  21.573   0.925  1.00  0.00     0.189 HD
HETATM   10  C8  UNL     1       6.512  18.711   1.489  1.00  0.00     0.174 A 
HETATM   11  N10 UNL     1       8.432  19.417   0.217  1.00  0.00    -0.277 N 
HETATM   12  N8  UNL     1       7.065  17.393   1.568  1.00  0.00    -0.289 N 
HETATM   13  C9  UNL     1       8.314  17.100   0.961  1.00  0.00     0.340 A 
ATOM     14  H8  UNL     1       6.558  16.659   2.064  1.00  0.00     0.172 HD
HETATM   15  O4  UNL     1       8.849  15.968   0.996  1.00  0.00    -0.245 OA
HETATM   16  N9  UNL     1       9.008  18.146   0.271  1.00  0.00    -0.250 N 
ATOM     17  H9  UNL     1       9.908  17.966  -0.173  1.00  0.00     0.192 HD
ATOM     18  H10 UNL     1       8.926  20.161  -0.275  1.00  0.00     0.189 HD
ENDBRANCH   5   6
ENDBRANCH   3   5
BRANCH   1  19
HETATM   19  N4  UNL     1       4.923  22.173   5.061  1.00  0.00    -0.306 N 
HETATM   20  C4  UNL     1       4.410  23.294   5.348  1.00  0.00     0.157 C 
ATOM     21  H4  UNL     1       5.445  21.708   5.804  1.00  0.00     0.186 HD
BRANCH  20  22
HETATM   22  C3  UNL     1       3.652  24.044   4.391  1.00  0.00     0.150 A 
HETATM   23  N1  UNL     1       2.393  23.865   3.983  1.00  0.00    -0.209 N 
HETATM   24  N2  UNL     1       2.147  24.810   3.091  1.00  0.00    -0.241 N 
HETATM   25  C2  UNL     1       3.205  25.592   2.911  1.00  0.00     0.341 A 
ATOM     26  H2  UNL     1       1.258  24.923   2.604  1.00  0.00     0.192 HD
HETATM   27  O2  UNL     1       3.254  26.577   2.117  1.00  0.00    -0.245 OA
HETATM   28  N3  UNL     1       4.160  25.123   3.723  1.00  0.00    -0.291 N 
ATOM     29  H3  UNL     1       5.101  25.504   3.825  1.00  0.00     0.172 HD
BRANCH  23  30
HETATM   30  C1  UNL     1       1.465  22.875   4.392  1.00  0.00     0.378 C 
HETATM   31  O1  UNL     1       1.478  21.697   4.031  1.00  0.00    -0.281 OA
ENDBRANCH  23  30
ENDBRANCH  20  22
ENDBRANCH   1  19
TORSDOF 5
ENDMDL
