MODEL 1
REMARK VINA RESULT: -7.037838791      0.000      0.000
REMARK  7 active torsions:
REMARK  status: ('A' for Active; 'I' for Inactive)
REMARK    1  A    between atoms: N1_1  and  C1_4 
REMARK       I    between atoms: N4_13  and  C5_14 
REMARK    2  A    between atoms: C5_14  and  C6_16 
REMARK    3  A    between atoms: C6_16  and  O3_17 
REMARK    4  A    between atoms: C6_16  and  C7_19 
REMARK    5  A    between atoms: C7_19  and  C8_21 
REMARK    6  A    between atoms: C8_21  and  N5_22 
REMARK    7  A    between atoms: C8_21  and  C9_26 
ROOT
HETATM    1  C1  UNL     1       7.185  17.696   2.193  1.00  0.00     0.680 A 
HETATM    2  N2  UNL     1       7.990  18.118   1.213  1.00  0.00    -0.154 N 
ATOM      3  H2  UNL     1       8.704  17.488   0.848  1.00  0.00     0.187 HD
HETATM    4  C2  UNL     1       7.880  19.348   0.701  1.00  0.00     0.290 A 
HETATM    5  O1  UNL     1       8.600  19.806  -0.216  1.00  0.00    -0.265 OA
HETATM    6  C3  UNL     1       6.899  20.202   1.212  1.00  0.00     0.148 A 
HETATM    7  N3  UNL     1       6.584  21.448   0.889  1.00  0.00    -0.344 N 
ATOM      8  H3  UNL     1       7.033  22.021   0.174  1.00  0.00     0.167 HD
HETATM    9  C4  UNL     1       5.549  21.820   1.692  1.00  0.00     0.194 A 
HETATM   10  N4  UNL     1       5.193  20.832   2.527  1.00  0.00    -0.259 N 
HETATM   11  C5  UNL     1       4.199  20.750   3.515  1.00  0.00     0.267 C 
HETATM   12  O2  UNL     1       4.086  19.658   4.176  1.00  0.00    -0.269 OA
HETATM   13  C10 UNL     1       6.045  19.795   2.232  1.00  0.00     0.163 A 
HETATM   14  N6  UNL     1       6.229  18.542   2.683  1.00  0.00    -0.174 N 
ATOM     15  H6  UNL     1       5.623  18.204   3.430  1.00  0.00     0.186 HD
ENDROOT
BRANCH  11  16
HETATM   16  C6  UNL     1       3.271  21.826   3.854  1.00  0.00     0.282 C 
BRANCH  16  17
HETATM   17  O3  UNL     1       2.081  21.408   4.360  1.00  0.00    -0.379 OA
ATOM     18  H3  UNL     1       1.331  21.914   4.073  1.00  0.00     0.211 HD
ENDBRANCH  16  17
BRANCH  16  19
HETATM   19  C7  UNL     1       3.892  22.851   4.740  1.00  0.00     0.205 C 
HETATM   20  O4  UNL     1       4.759  22.507   5.523  1.00  0.00    -0.292 OA
BRANCH  19  21
HETATM   21  C8  UNL     1       3.453  24.254   4.656  1.00  0.00     0.355 C 
BRANCH  21  22
HETATM   22  N5  UNL     1       2.052  24.323   4.221  1.00  0.00    -0.058 N 
ATOM     23  H53 UNL     1       1.951  24.118   3.227  1.00  0.00     0.275 HD
ATOM     24  H52 UNL     1       1.500  23.548   4.590  1.00  0.00     0.275 HD
ATOM     25  H51 UNL     1       1.650  25.228   4.467  1.00  0.00     0.275 HD
ENDBRANCH  21  22
BRANCH  21  26
HETATM   26  C9  UNL     1       4.208  25.074   3.689  1.00  0.00     0.212 C 
HETATM   27  O5  UNL     1       5.450  25.166   3.776  1.00  0.00    -0.646 OA
HETATM   28  O6  UNL     1       3.577  25.755   2.680  1.00  0.00    -0.646 OA
ENDBRANCH  21  26
ENDBRANCH  19  21
ENDBRANCH  16  19
ENDBRANCH  11  16
BRANCH   1  29
HETATM   29  N1  UNL     1       7.270  16.502   2.710  1.00  0.00    -0.234 N 
ATOM     30  H12 UNL     1       8.097  15.945   2.495  1.00  0.00     0.174 HD
ATOM     31  H11 UNL     1       6.547  16.111   3.314  1.00  0.00     0.174 HD
ENDBRANCH   1  29
TORSDOF 7
ENDMDL
MODEL 2
REMARK VINA RESULT: -6.883123104      1.165      1.186
REMARK  7 active torsions:
REMARK  status: ('A' for Active; 'I' for Inactive)
REMARK    1  A    between atoms: N1_1  and  C1_4 
REMARK       I    between atoms: N4_13  and  C5_14 
REMARK    2  A    between atoms: C5_14  and  C6_16 
REMARK    3  A    between atoms: C6_16  and  O3_17 
REMARK    4  A    between atoms: C6_16  and  C7_19 
REMARK    5  A    between atoms: C7_19  and  C8_21 
REMARK    6  A    between atoms: C8_21  and  N5_22 
REMARK    7  A    between atoms: C8_21  and  C9_26 
ROOT
HETATM    1  C1  UNL     1       7.467  17.533   2.048  1.00  0.00     0.680 A 
HETATM    2  N2  UNL     1       8.289  17.868   1.049  1.00  0.00    -0.154 N 
ATOM      3  H2  UNL     1       8.980  17.192   0.724  1.00  0.00     0.187 HD
HETATM    4  C2  UNL     1       8.227  19.070   0.467  1.00  0.00     0.290 A 
HETATM    5  O1  UNL     1       8.965  19.447  -0.472  1.00  0.00    -0.265 OA
HETATM    6  C3  UNL     1       7.276  19.987   0.924  1.00  0.00     0.148 A 
HETATM    7  N3  UNL     1       7.009  21.224   0.528  1.00  0.00    -0.344 N 
ATOM      8  H3  UNL     1       7.481  21.737  -0.217  1.00  0.00     0.167 HD
HETATM    9  C4  UNL     1       5.987  21.680   1.304  1.00  0.00     0.194 A 
HETATM   10  N4  UNL     1       5.593  20.755   2.193  1.00  0.00    -0.259 N 
HETATM   11  C5  UNL     1       4.594  20.767   3.180  1.00  0.00     0.267 C 
HETATM   12  O2  UNL     1       4.440  19.720   3.902  1.00  0.00    -0.269 OA
HETATM   13  C10 UNL     1       6.406  19.672   1.962  1.00  0.00     0.163 A 
HETATM   14  N6  UNL     1       6.543  18.441   2.485  1.00  0.00    -0.174 N 
ATOM     15  H6  UNL     1       5.922  18.169   3.248  1.00  0.00     0.186 HD
ENDROOT
BRANCH  11  16
HETATM   16  C6  UNL     1       3.707  21.895   3.453  1.00  0.00     0.282 C 
BRANCH  16  17
HETATM   17  O3  UNL     1       2.580  21.573   4.141  1.00  0.00    -0.379 OA
ATOM     18  H3  UNL     1       1.903  22.239   4.124  1.00  0.00     0.211 HD
ENDBRANCH  16  17
BRANCH  16  19
HETATM   19  C7  UNL     1       4.418  23.031   4.104  1.00  0.00     0.205 C 
HETATM   20  O4  UNL     1       4.849  22.887   5.234  1.00  0.00    -0.292 OA
BRANCH  19  21
HETATM   21  C8  UNL     1       4.589  24.300   3.378  1.00  0.00     0.355 C 
BRANCH  21  22
HETATM   22  N5  UNL     1       5.725  25.052   3.929  1.00  0.00    -0.058 N 
ATOM     23  H53 UNL     1       5.483  25.520   4.802  1.00  0.00     0.275 HD
ATOM     24  H52 UNL     1       6.454  24.434   4.286  1.00  0.00     0.275 HD
ATOM     25  H51 UNL     1       6.086  25.706   3.234  1.00  0.00     0.275 HD
ENDBRANCH  21  22
BRANCH  21  26
HETATM   26  C9  UNL     1       3.433  25.213   3.460  1.00  0.00     0.212 C 
HETATM   27  O5  UNL     1       2.676  25.182   4.453  1.00  0.00    -0.646 OA
HETATM   28  O6  UNL     1       3.156  26.111   2.462  1.00  0.00    -0.646 OA
ENDBRANCH  21  26
ENDBRANCH  19  21
ENDBRANCH  16  19
ENDBRANCH  11  16
BRANCH   1  29
HETATM   29  N1  UNL     1       7.506  16.369   2.633  1.00  0.00    -0.234 N 
ATOM     30  H12 UNL     1       7.940  15.594   2.130  1.00  0.00     0.174 HD
ATOM     31  H11 UNL     1       7.123  16.207   3.564  1.00  0.00     0.174 HD
ENDBRANCH   1  29
TORSDOF 7
ENDMDL
MODEL 3
REMARK VINA RESULT: -6.481268494      1.980      2.711
REMARK  7 active torsions:
REMARK  status: ('A' for Active; 'I' for Inactive)
REMARK    1  A    between atoms: N1_1  and  C1_4 
REMARK       I    between atoms: N4_13  and  C5_14 
REMARK    2  A    between atoms: C5_14  and  C6_16 
REMARK    3  A    between atoms: C6_16  and  O3_17 
REMARK    4  A    between atoms: C6_16  and  C7_19 
REMARK    5  A    between atoms: C7_19  and  C8_21 
REMARK    6  A    between atoms: C8_21  and  N5_22 
REMARK    7  A    between atoms: C8_21  and  C9_26 
ROOT
HETATM    1  C1  UNL     1       8.666  19.221  -0.219  1.00  0.00     0.680 A 
HETATM    2  N2  UNL     1       8.960  17.971   0.151  1.00  0.00    -0.154 N 
ATOM      3  H2  UNL     1       9.734  17.486  -0.303  1.00  0.00     0.187 HD
HETATM    4  C2  UNL     1       8.261  17.342   1.102  1.00  0.00     0.290 A 
HETATM    5  O1  UNL     1       8.484  16.174   1.496  1.00  0.00    -0.265 OA
HETATM    6  C3  UNL     1       7.202  18.019   1.714  1.00  0.00     0.148 A 
HETATM    7  N3  UNL     1       6.365  17.633   2.666  1.00  0.00    -0.344 N 
ATOM      8  H3  UNL     1       6.357  16.727   3.135  1.00  0.00     0.167 HD
HETATM    9  C4  UNL     1       5.518  18.674   2.901  1.00  0.00     0.194 A 
HETATM   10  N4  UNL     1       5.798  19.723   2.114  1.00  0.00    -0.259 N 
HETATM   11  C5  UNL     1       5.212  20.994   2.000  1.00  0.00     0.267 C 
HETATM   12  O2  UNL     1       5.695  21.812   1.141  1.00  0.00    -0.269 OA
HETATM   13  C10 UNL     1       6.869  19.320   1.353  1.00  0.00     0.163 A 
HETATM   14  N6  UNL     1       7.627  19.871   0.389  1.00  0.00    -0.174 N 
ATOM     15  H6  UNL     1       7.416  20.825   0.095  1.00  0.00     0.186 HD
ENDROOT
BRANCH  11  16
HETATM   16  C6  UNL     1       4.078  21.462   2.794  1.00  0.00     0.282 C 
BRANCH  16  17
HETATM   17  O3  UNL     1       3.010  20.620   2.805  1.00  0.00    -0.379 OA
ATOM     18  H3  UNL     1       2.440  20.698   2.050  1.00  0.00     0.211 HD
ENDBRANCH  16  17
BRANCH  16  19
HETATM   19  C7  UNL     1       4.473  21.834   4.182  1.00  0.00     0.205 C 
HETATM   20  O4  UNL     1       4.413  20.991   5.058  1.00  0.00    -0.292 OA
BRANCH  19  21
HETATM   21  C8  UNL     1       4.927  23.204   4.470  1.00  0.00     0.355 C 
BRANCH  21  22
HETATM   22  N5  UNL     1       4.921  23.447   5.919  1.00  0.00    -0.058 N 
ATOM     23  H53 UNL     1       4.509  22.669   6.434  1.00  0.00     0.275 HD
ATOM     24  H52 UNL     1       5.860  23.409   6.316  1.00  0.00     0.275 HD
ATOM     25  H51 UNL     1       4.455  24.330   6.128  1.00  0.00     0.275 HD
ENDBRANCH  21  22
BRANCH  21  26
HETATM   26  C9  UNL     1       4.083  24.265   3.888  1.00  0.00     0.212 C 
HETATM   27  O5  UNL     1       4.593  25.158   3.181  1.00  0.00    -0.646 OA
HETATM   28  O6  UNL     1       2.729  24.303   4.104  1.00  0.00    -0.646 OA
ENDBRANCH  21  26
ENDBRANCH  19  21
ENDBRANCH  16  19
ENDBRANCH  11  16
BRANCH   1  29
HETATM   29  N1  UNL     1       9.330  19.858  -1.142  1.00  0.00    -0.234 N 
ATOM     30  H12 UNL     1       9.880  19.307  -1.802  1.00  0.00     0.174 HD
ATOM     31  H11 UNL     1       9.319  20.874  -1.227  1.00  0.00     0.174 HD
ENDBRANCH   1  29
TORSDOF 7
ENDMDL
MODEL 4
REMARK VINA RESULT: -6.453969398      2.542      6.655
REMARK  7 active torsions:
REMARK  status: ('A' for Active; 'I' for Inactive)
REMARK    1  A    between atoms: N1_1  and  C1_4 
REMARK       I    between atoms: N4_13  and  C5_14 
REMARK    2  A    between atoms: C5_14  and  C6_16 
REMARK    3  A    between atoms: C6_16  and  O3_17 
REMARK    4  A    between atoms: C6_16  and  C7_19 
REMARK    5  A    between atoms: C7_19  and  C8_21 
REMARK    6  A    between atoms: C8_21  and  N5_22 
REMARK    7  A    between atoms: C8_21  and  C9_26 
ROOT
HETATM    1  C1  UNL     1       5.028  24.030   4.332  1.00  0.00     0.680 A 
HETATM    2  N2  UNL     1       4.504  24.021   5.561  1.00  0.00    -0.154 N 
ATOM      3  H2  UNL     1       4.542  24.869   6.126  1.00  0.00     0.187 HD
HETATM    4  C2  UNL     1       3.932  22.923   6.067  1.00  0.00     0.290 A 
HETATM    5  O1  UNL     1       3.422  22.846   7.209  1.00  0.00    -0.265 OA
HETATM    6  C3  UNL     1       3.889  21.767   5.283  1.00  0.00     0.148 A 
HETATM    7  N3  UNL     1       3.391  20.566   5.540  1.00  0.00    -0.344 N 
ATOM      8  H3  UNL     1       2.930  20.273   6.401  1.00  0.00     0.167 HD
HETATM    9  C4  UNL     1       3.609  19.798   4.436  1.00  0.00     0.194 A 
HETATM   10  N4  UNL     1       4.241  20.487   3.474  1.00  0.00    -0.259 N 
HETATM   11  C5  UNL     1       4.667  20.124   2.186  1.00  0.00     0.267 C 
HETATM   12  O2  UNL     1       5.261  21.006   1.472  1.00  0.00    -0.269 OA
HETATM   13  C10 UNL     1       4.426  21.742   4.000  1.00  0.00     0.163 A 
HETATM   14  N6  UNL     1       4.979  22.892   3.576  1.00  0.00    -0.174 N 
ATOM     15  H6  UNL     1       5.383  22.917   2.640  1.00  0.00     0.186 HD
ENDROOT
BRANCH  11  16
HETATM   16  C6  UNL     1       4.484  18.803   1.589  1.00  0.00     0.282 C 
BRANCH  16  17
HETATM   17  O3  UNL     1       3.736  18.794   0.455  1.00  0.00    -0.379 OA
ATOM     18  H3  UNL     1       4.173  19.152  -0.309  1.00  0.00     0.211 HD
ENDBRANCH  16  17
BRANCH  16  19
HETATM   19  C7  UNL     1       5.778  18.094   1.376  1.00  0.00     0.205 C 
HETATM   20  O4  UNL     1       5.890  17.347   0.421  1.00  0.00    -0.292 OA
BRANCH  19  21
HETATM   21  C8  UNL     1       6.892  18.307   2.313  1.00  0.00     0.355 C 
BRANCH  21  22
HETATM   22  N5  UNL     1       7.678  19.481   1.910  1.00  0.00    -0.058 N 
ATOM     23  H53 UNL     1       8.675  19.273   1.859  1.00  0.00     0.275 HD
ATOM     24  H52 UNL     1       7.525  19.725   0.932  1.00  0.00     0.275 HD
ATOM     25  H51 UNL     1       7.485  20.266   2.533  1.00  0.00     0.275 HD
ENDBRANCH  21  22
BRANCH  21  26
HETATM   26  C9  UNL     1       7.856  17.192   2.383  1.00  0.00     0.212 C 
HETATM   27  O5  UNL     1       7.683  16.261   3.198  1.00  0.00    -0.646 OA
HETATM   28  O6  UNL     1       8.957  17.143   1.567  1.00  0.00    -0.646 OA
ENDBRANCH  21  26
ENDBRANCH  19  21
ENDBRANCH  16  19
ENDBRANCH  11  16
BRANCH   1  29
HETATM   29  N1  UNL     1       5.591  25.086   3.814  1.00  0.00    -0.234 N 
ATOM     30  H12 UNL     1       5.100  25.977   3.891  1.00  0.00     0.174 HD
ATOM     31  H11 UNL     1       6.493  25.052   3.340  1.00  0.00     0.174 HD
ENDBRANCH   1  29
TORSDOF 7
ENDMDL
MODEL 5
REMARK VINA RESULT: -6.452634241      1.030      1.260
REMARK  7 active torsions:
REMARK  status: ('A' for Active; 'I' for Inactive)
REMARK    1  A    between atoms: N1_1  and  C1_4 
REMARK       I    between atoms: N4_13  and  C5_14 
REMARK    2  A    between atoms: C5_14  and  C6_16 
REMARK    3  A    between atoms: C6_16  and  O3_17 
REMARK    4  A    between atoms: C6_16  and  C7_19 
REMARK    5  A    between atoms: C7_19  and  C8_21 
REMARK    6  A    between atoms: C8_21  and  N5_22 
REMARK    7  A    between atoms: C8_21  and  C9_26 
ROOT
HETATM    1  C1  UNL     1       5.717  17.389   2.742  1.00  0.00     0.680 A 
HETATM    2  N2  UNL     1       6.752  17.589   1.921  1.00  0.00    -0.154 N 
ATOM      3  H2  UNL     1       7.317  16.792   1.628  1.00  0.00     0.187 HD
HETATM    4  C2  UNL     1       7.064  18.811   1.477  1.00  0.00     0.290 A 
HETATM    5  O1  UNL     1       8.018  19.068   0.707  1.00  0.00    -0.265 OA
HETATM    6  C3  UNL     1       6.282  19.894   1.889  1.00  0.00     0.148 A 
HETATM    7  N3  UNL     1       6.373  21.185   1.601  1.00  0.00    -0.344 N 
ATOM      8  H3  UNL     1       7.068  21.623   0.998  1.00  0.00     0.167 HD
HETATM    9  C4  UNL     1       5.363  21.814   2.263  1.00  0.00     0.194 A 
HETATM   10  N4  UNL     1       4.624  20.947   2.973  1.00  0.00    -0.259 N 
HETATM   11  C5  UNL     1       3.500  21.126   3.794  1.00  0.00     0.267 C 
HETATM   12  O2  UNL     1       2.991  20.096   4.361  1.00  0.00    -0.269 OA
HETATM   13  C10 UNL     1       5.198  19.721   2.743  1.00  0.00     0.163 A 
HETATM   14  N6  UNL     1       4.961  18.457   3.137  1.00  0.00    -0.174 N 
ATOM     15  H6  UNL     1       4.174  18.287   3.763  1.00  0.00     0.186 HD
ENDROOT
BRANCH  11  16
HETATM   16  C6  UNL     1       2.857  22.411   4.059  1.00  0.00     0.282 C 
BRANCH  16  17
HETATM   17  O3  UNL     1       1.532  22.330   4.353  1.00  0.00    -0.379 OA
ATOM     18  H3  UNL     1       1.341  22.006   5.225  1.00  0.00     0.211 HD
ENDBRANCH  16  17
BRANCH  16  19
HETATM   19  C7  UNL     1       3.580  23.205   5.092  1.00  0.00     0.205 C 
HETATM   20  O4  UNL     1       4.008  22.636   6.080  1.00  0.00    -0.292 OA
BRANCH  19  21
HETATM   21  C8  UNL     1       3.767  24.653   4.905  1.00  0.00     0.355 C 
BRANCH  21  22
HETATM   22  N5  UNL     1       2.468  25.311   4.708  1.00  0.00    -0.058 N 
ATOM     23  H53 UNL     1       1.790  24.691   4.266  1.00  0.00     0.275 HD
ATOM     24  H52 UNL     1       1.980  25.463   5.591  1.00  0.00     0.275 HD
ATOM     25  H51 UNL     1       2.588  26.179   4.185  1.00  0.00     0.275 HD
ENDBRANCH  21  22
BRANCH  21  26
HETATM   26  C9  UNL     1       4.578  25.018   3.727  1.00  0.00     0.212 C 
HETATM   27  O5  UNL     1       4.037  25.532   2.726  1.00  0.00    -0.646 OA
HETATM   28  O6  UNL     1       5.932  24.807   3.696  1.00  0.00    -0.646 OA
ENDBRANCH  21  26
ENDBRANCH  19  21
ENDBRANCH  16  19
ENDBRANCH  11  16
BRANCH   1  29
HETATM   29  N1  UNL     1       5.391  16.209   3.190  1.00  0.00    -0.234 N 
ATOM     30  H12 UNL     1       5.345  15.438   2.523  1.00  0.00     0.174 HD
ATOM     31  H11 UNL     1       5.182  16.031   4.172  1.00  0.00     0.174 HD
ENDBRANCH   1  29
TORSDOF 7
ENDMDL
