MODEL 1
REMARK VINA RESULT: -7.537101490      0.000      0.000
REMARK  5 active torsions:
REMARK  status: ('A' for Active; 'I' for Inactive)
REMARK    1  A    between atoms: O1_2  and  C2_3 
REMARK    2  A    between atoms: C2_3  and  C3_5 
REMARK    3  A    between atoms: C3_5  and  N1_6 
REMARK    4  A    between atoms: C3_5  and  C5_11 
REMARK       I    between atoms: N1_6  and  C4_8 
REMARK    5  A    between atoms: C7_18  and  C8_19 
REMARK       I    between atoms: C8_19  and  N6_21 
REMARK       I    between atoms: N6_21  and  C9_23 
ROOT
HETATM    1  C5  UNL     1       4.421  22.168   3.519  1.00  0.00     0.118 A 
HETATM    2  N3  UNL     1       3.375  21.333   3.405  1.00  0.00    -0.318 N 
ATOM      3  H3  UNL     1       2.549  21.490   3.982  1.00  0.00     0.170 HD
HETATM    4  C6  UNL     1       3.387  20.284   2.540  1.00  0.00     0.195 A 
HETATM    5  N4  UNL     1       2.272  19.400   2.421  1.00  0.00    -0.063 NA
HETATM    6  N5  UNL     1       4.506  20.130   1.808  1.00  0.00    -0.312 N 
ATOM      7  H5  UNL     1       4.545  19.351   1.150  1.00  0.00     0.170 HD
HETATM    8  C7  UNL     1       5.575  20.941   1.892  1.00  0.00     0.178 A 
HETATM    9  N9  UNL     1       5.510  21.964   2.763  1.00  0.00    -0.325 N 
ATOM     10  H9  UNL     1       6.304  22.597   2.851  1.00  0.00     0.169 HD
ENDROOT
BRANCH   1  11
HETATM   11  C3  UNL     1       4.352  23.315   4.495  1.00  0.00     0.253 C 
BRANCH  11  12
HETATM   12  C2  UNL     1       4.856  24.501   3.760  1.00  0.00     0.289 C 
HETATM   13  O2  UNL     1       6.071  24.602   3.526  1.00  0.00    -0.262 OA
BRANCH  12  14
HETATM   14  O1  UNL     1       3.960  25.474   3.347  1.00  0.00    -0.325 OA
HETATM   15  C1  UNL     1       3.094  25.274   2.229  1.00  0.00     0.213 C 
ENDBRANCH  12  14
ENDBRANCH  11  12
BRANCH  11  16
HETATM   16  N1  UNL     1       5.269  22.989   5.572  1.00  0.00    -0.325 N 
HETATM   17  C4  UNL     1       4.901  22.119   6.625  1.00  0.00     0.329 C 
HETATM   18  N2  UNL     1       5.786  21.795   7.682  1.00  0.00    -0.040 NA
HETATM   19  O3  UNL     1       3.745  21.606   6.636  1.00  0.00    -0.251 OA
ATOM     20  H1  UNL     1       6.204  23.398   5.570  1.00  0.00     0.165 HD
ENDBRANCH  11  16
ENDBRANCH   1  11
BRANCH   8  21
HETATM   21  C8  UNL     1       6.721  20.676   1.055  1.00  0.00     0.292 C 
HETATM   22  O4  UNL     1       7.239  21.582   0.364  1.00  0.00    -0.264 OA
HETATM   23  N6  UNL     1       7.296  19.378   0.992  1.00  0.00    -0.295 N 
HETATM   24  C9  UNL     1       8.425  19.119   0.167  1.00  0.00     0.188 C 
ATOM     25  H6  UNL     1       6.893  18.622   1.545  1.00  0.00     0.171 HD
HETATM   26  N7  UNL     1       8.928  17.938   0.126  1.00  0.00    -0.373 N 
HETATM   27  N8  UNL     1       9.008  20.151  -0.615  1.00  0.00    -0.064 NA
ATOM     28  H72 UNL     1       8.509  17.197   0.687  1.00  0.00     0.158 HD
ATOM     29  H71 UNL     1       9.738  17.752  -0.466  1.00  0.00     0.158 HD
ENDBRANCH   8  21
TORSDOF 5
ENDMDL
MODEL 2
REMARK VINA RESULT: -7.436630898      1.198      1.472
REMARK  5 active torsions:
REMARK  status: ('A' for Active; 'I' for Inactive)
REMARK    1  A    between atoms: O1_2  and  C2_3 
REMARK    2  A    between atoms: C2_3  and  C3_5 
REMARK    3  A    between atoms: C3_5  and  N1_6 
REMARK    4  A    between atoms: C3_5  and  C5_11 
REMARK       I    between atoms: N1_6  and  C4_8 
REMARK    5  A    between atoms: C7_18  and  C8_19 
REMARK       I    between atoms: C8_19  and  N6_21 
REMARK       I    between atoms: N6_21  and  C9_23 
ROOT
HETATM    1  C5  UNL     1       3.857  22.563   4.015  1.00  0.00     0.118 A 
HETATM    2  N3  UNL     1       2.753  21.800   3.970  1.00  0.00    -0.318 N 
ATOM      3  H3  UNL     1       1.935  22.076   4.513  1.00  0.00     0.170 HD
HETATM    4  C6  UNL     1       2.695  20.668   3.220  1.00  0.00     0.195 A 
HETATM    5  N4  UNL     1       1.519  19.859   3.173  1.00  0.00    -0.063 NA
HETATM    6  N5  UNL     1       3.807  20.356   2.527  1.00  0.00    -0.312 N 
ATOM      7  H5  UNL     1       3.794  19.511   1.955  1.00  0.00     0.170 HD
HETATM    8  C7  UNL     1       4.932  21.091   2.545  1.00  0.00     0.178 A 
HETATM    9  N9  UNL     1       4.935  22.202   3.304  1.00  0.00    -0.325 N 
ATOM     10  H9  UNL     1       5.773  22.781   3.339  1.00  0.00     0.169 HD
ENDROOT
BRANCH   1  11
HETATM   11  C3  UNL     1       3.864  23.809   4.865  1.00  0.00     0.253 C 
BRANCH  11  12
HETATM   12  C2  UNL     1       4.371  24.893   3.989  1.00  0.00     0.289 C 
HETATM   13  O2  UNL     1       5.591  24.995   3.789  1.00  0.00    -0.262 OA
BRANCH  12  14
HETATM   14  O1  UNL     1       3.471  25.771   3.407  1.00  0.00    -0.325 OA
HETATM   15  C1  UNL     1       2.968  25.569   2.085  1.00  0.00     0.213 C 
ENDBRANCH  12  14
ENDBRANCH  11  12
BRANCH  11  16
HETATM   16  N1  UNL     1       4.816  23.567   5.934  1.00  0.00    -0.325 N 
HETATM   17  C4  UNL     1       4.483  22.785   7.064  1.00  0.00     0.329 C 
HETATM   18  N2  UNL     1       5.403  22.543   8.114  1.00  0.00    -0.040 NA
HETATM   19  O3  UNL     1       3.328  22.277   7.154  1.00  0.00    -0.251 OA
ATOM     20  H1  UNL     1       5.750  23.972   5.868  1.00  0.00     0.165 HD
ENDBRANCH  11  16
ENDBRANCH   1  11
BRANCH   8  21
HETATM   21  C8  UNL     1       6.064  20.657   1.761  1.00  0.00     0.292 C 
HETATM   22  O4  UNL     1       6.370  19.445   1.686  1.00  0.00    -0.264 OA
HETATM   23  N6  UNL     1       6.863  21.591   1.050  1.00  0.00    -0.295 N 
HETATM   24  C9  UNL     1       7.977  21.161   0.277  1.00  0.00     0.188 C 
ATOM     25  H6  UNL     1       6.635  22.585   1.094  1.00  0.00     0.171 HD
HETATM   26  N7  UNL     1       8.684  22.025  -0.358  1.00  0.00    -0.373 N 
HETATM   27  N8  UNL     1       8.319  19.787   0.196  1.00  0.00    -0.064 NA
ATOM     28  H72 UNL     1       8.438  23.012  -0.299  1.00  0.00     0.158 HD
ATOM     29  H71 UNL     1       9.483  21.716  -0.912  1.00  0.00     0.158 HD
ENDBRANCH   8  21
TORSDOF 5
ENDMDL
MODEL 3
REMARK VINA RESULT: -7.334582512      1.881      3.181
REMARK  5 active torsions:
REMARK  status: ('A' for Active; 'I' for Inactive)
REMARK    1  A    between atoms: O1_2  and  C2_3 
REMARK    2  A    between atoms: C2_3  and  C3_5 
REMARK    3  A    between atoms: C3_5  and  N1_6 
REMARK    4  A    between atoms: C3_5  and  C5_11 
REMARK       I    between atoms: N1_6  and  C4_8 
REMARK    5  A    between atoms: C7_18  and  C8_19 
REMARK       I    between atoms: C8_19  and  N6_21 
REMARK       I    between atoms: N6_21  and  C9_23 
ROOT
HETATM    1  C5  UNL     1       4.503  21.239   3.235  1.00  0.00     0.118 A 
HETATM    2  N3  UNL     1       3.320  20.706   2.884  1.00  0.00    -0.318 N 
ATOM      3  H3  UNL     1       2.461  21.186   3.151  1.00  0.00     0.170 HD
HETATM    4  C6  UNL     1       3.238  19.544   2.184  1.00  0.00     0.195 A 
HETATM    5  N4  UNL     1       1.979  18.982   1.812  1.00  0.00    -0.063 NA
HETATM    6  N5  UNL     1       4.407  18.958   1.863  1.00  0.00    -0.312 N 
ATOM      7  H5  UNL     1       4.377  18.084   1.337  1.00  0.00     0.170 HD
HETATM    8  C7  UNL     1       5.611  19.457   2.195  1.00  0.00     0.178 A 
HETATM    9  N9  UNL     1       5.634  20.610   2.887  1.00  0.00    -0.325 N 
ATOM     10  H9  UNL     1       6.532  21.014   3.154  1.00  0.00     0.169 HD
ENDROOT
BRANCH   1  11
HETATM   11  C3  UNL     1       4.534  22.530   4.012  1.00  0.00     0.253 C 
BRANCH  11  12
HETATM   12  C2  UNL     1       3.958  22.214   5.342  1.00  0.00     0.289 C 
HETATM   13  O2  UNL     1       4.131  21.086   5.829  1.00  0.00    -0.262 OA
BRANCH  12  14
HETATM   14  O1  UNL     1       3.238  23.187   6.018  1.00  0.00    -0.325 OA
HETATM   15  C1  UNL     1       2.763  22.983   7.350  1.00  0.00     0.213 C 
ENDBRANCH  12  14
ENDBRANCH  11  12
BRANCH  11  16
HETATM   16  N1  UNL     1       3.655  23.449   3.312  1.00  0.00    -0.325 N 
HETATM   17  C4  UNL     1       3.996  24.809   3.125  1.00  0.00     0.329 C 
HETATM   18  N2  UNL     1       3.146  25.715   2.445  1.00  0.00    -0.040 NA
HETATM   19  O3  UNL     1       5.095  25.245   3.576  1.00  0.00    -0.251 OA
ATOM     20  H1  UNL     1       2.768  23.105   2.943  1.00  0.00     0.165 HD
ENDBRANCH  11  16
ENDBRANCH   1  11
BRANCH   8  21
HETATM   21  C8  UNL     1       6.798  18.739   1.796  1.00  0.00     0.292 C 
HETATM   22  O4  UNL     1       7.249  17.800   2.491  1.00  0.00    -0.264 OA
HETATM   23  N6  UNL     1       7.491  19.078   0.603  1.00  0.00    -0.295 N 
HETATM   24  C9  UNL     1       8.660  18.370   0.211  1.00  0.00     0.188 C 
ATOM     25  H6  UNL     1       7.145  19.839   0.019  1.00  0.00     0.171 HD
HETATM   26  N7  UNL     1       9.270  18.693  -0.872  1.00  0.00    -0.373 N 
HETATM   27  N8  UNL     1       9.166  17.306   1.002  1.00  0.00    -0.064 NA
ATOM     28  H72 UNL     1       8.906  19.458  -1.440  1.00  0.00     0.158 HD
ATOM     29  H71 UNL     1      10.108  18.185  -1.153  1.00  0.00     0.158 HD
ENDBRANCH   8  21
TORSDOF 5
ENDMDL
MODEL 4
REMARK VINA RESULT: -7.306973820      1.283      1.430
REMARK  5 active torsions:
REMARK  status: ('A' for Active; 'I' for Inactive)
REMARK    1  A    between atoms: O1_2  and  C2_3 
REMARK    2  A    between atoms: C2_3  and  C3_5 
REMARK    3  A    between atoms: C3_5  and  N1_6 
REMARK    4  A    between atoms: C3_5  and  C5_11 
REMARK       I    between atoms: N1_6  and  C4_8 
REMARK    5  A    between atoms: C7_18  and  C8_19 
REMARK       I    between atoms: C8_19  and  N6_21 
REMARK       I    between atoms: N6_21  and  C9_23 
ROOT
HETATM    1  C5  UNL     1       4.209  21.463   3.491  1.00  0.00     0.118 A 
HETATM    2  N3  UNL     1       3.027  20.943   3.121  1.00  0.00    -0.318 N 
ATOM      3  H3  UNL     1       2.167  21.422   3.391  1.00  0.00     0.170 HD
HETATM    4  C6  UNL     1       2.945  19.795   2.398  1.00  0.00     0.195 A 
HETATM    5  N4  UNL     1       1.686  19.245   2.006  1.00  0.00    -0.063 NA
HETATM    6  N5  UNL     1       4.114  19.210   2.075  1.00  0.00    -0.312 N 
ATOM      7  H5  UNL     1       4.084  18.347   1.532  1.00  0.00     0.170 HD
HETATM    8  C7  UNL     1       5.317  19.697   2.425  1.00  0.00     0.178 A 
HETATM    9  N9  UNL     1       5.340  20.836   3.140  1.00  0.00    -0.325 N 
ATOM     10  H9  UNL     1       6.237  21.231   3.421  1.00  0.00     0.169 HD
ENDROOT
BRANCH   1  11
HETATM   11  C3  UNL     1       4.239  22.740   4.293  1.00  0.00     0.253 C 
BRANCH  11  12
HETATM   12  C2  UNL     1       4.689  23.796   3.354  1.00  0.00     0.289 C 
HETATM   13  O2  UNL     1       5.755  24.392   3.571  1.00  0.00    -0.262 OA
BRANCH  12  14
HETATM   14  O1  UNL     1       3.908  24.097   2.248  1.00  0.00    -0.325 OA
HETATM   15  C1  UNL     1       3.098  25.272   2.197  1.00  0.00     0.213 C 
ENDBRANCH  12  14
ENDBRANCH  11  12
BRANCH  11  16
HETATM   16  N1  UNL     1       5.245  22.550   5.323  1.00  0.00    -0.325 N 
HETATM   17  C4  UNL     1       4.916  22.029   6.596  1.00  0.00     0.329 C 
HETATM   18  N2  UNL     1       5.889  21.840   7.609  1.00  0.00    -0.040 NA
HETATM   19  O3  UNL     1       3.718  21.716   6.853  1.00  0.00    -0.251 OA
ATOM     20  H1  UNL     1       6.214  22.798   5.122  1.00  0.00     0.165 HD
ENDBRANCH  11  16
ENDBRANCH   1  11
BRANCH   8  21
HETATM   21  C8  UNL     1       6.504  18.982   2.022  1.00  0.00     0.292 C 
HETATM   22  O4  UNL     1       6.981  18.068   2.734  1.00  0.00    -0.264 OA
HETATM   23  N6  UNL     1       7.167  19.293   0.804  1.00  0.00    -0.295 N 
HETATM   24  C9  UNL     1       8.337  18.587   0.408  1.00  0.00     0.188 C 
ATOM     25  H6  UNL     1       6.800  20.033   0.206  1.00  0.00     0.171 HD
HETATM   26  N7  UNL     1       8.919  18.886  -0.697  1.00  0.00    -0.373 N 
HETATM   27  N8  UNL     1       8.872  17.553   1.219  1.00  0.00    -0.064 NA
ATOM     28  H72 UNL     1       8.534  19.629  -1.279  1.00  0.00     0.158 HD
ATOM     29  H71 UNL     1       9.757  18.380  -0.981  1.00  0.00     0.158 HD
ENDBRANCH   8  21
TORSDOF 5
ENDMDL
MODEL 5
REMARK VINA RESULT: -7.263842762      2.004      3.890
REMARK  5 active torsions:
REMARK  status: ('A' for Active; 'I' for Inactive)
REMARK    1  A    between atoms: O1_2  and  C2_3 
REMARK    2  A    between atoms: C2_3  and  C3_5 
REMARK    3  A    between atoms: C3_5  and  N1_6 
REMARK    4  A    between atoms: C3_5  and  C5_11 
REMARK       I    between atoms: N1_6  and  C4_8 
REMARK    5  A    between atoms: C7_18  and  C8_19 
REMARK       I    between atoms: C8_19  and  N6_21 
REMARK       I    between atoms: N6_21  and  C9_23 
ROOT
HETATM    1  C5  UNL     1       4.519  21.925   3.074  1.00  0.00     0.118 A 
HETATM    2  N3  UNL     1       5.623  22.050   2.318  1.00  0.00    -0.318 N 
ATOM      3  H3  UNL     1       6.187  22.895   2.399  1.00  0.00     0.170 HD
HETATM    4  C6  UNL     1       6.007  21.079   1.447  1.00  0.00     0.195 A 
HETATM    5  N4  UNL     1       7.181  21.216   0.646  1.00  0.00    -0.063 NA
HETATM    6  N5  UNL     1       5.219  19.990   1.384  1.00  0.00    -0.312 N 
ATOM      7  H5  UNL     1       5.482  19.244   0.739  1.00  0.00     0.170 HD
HETATM    8  C7  UNL     1       4.107  19.825   2.122  1.00  0.00     0.178 A 
HETATM    9  N9  UNL     1       3.773  20.816   2.968  1.00  0.00    -0.325 N 
ATOM     10  H9  UNL     1       2.936  20.722   3.542  1.00  0.00     0.169 HD
ENDROOT
BRANCH   1  11
HETATM   11  C3  UNL     1       4.141  23.033   4.024  1.00  0.00     0.253 C 
BRANCH  11  12
HETATM   12  C2  UNL     1       4.426  24.298   3.302  1.00  0.00     0.289 C 
HETATM   13  O2  UNL     1       5.307  25.059   3.731  1.00  0.00    -0.262 OA
BRANCH  12  14
HETATM   14  O1  UNL     1       3.704  24.604   2.159  1.00  0.00    -0.325 OA
HETATM   15  C1  UNL     1       2.900  25.782   2.070  1.00  0.00     0.213 C 
ENDBRANCH  12  14
ENDBRANCH  11  12
BRANCH  11  16
HETATM   16  N1  UNL     1       5.032  22.916   5.163  1.00  0.00    -0.325 N 
HETATM   17  C4  UNL     1       4.758  22.033   6.234  1.00  0.00     0.329 C 
HETATM   18  N2  UNL     1       5.620  21.911   7.351  1.00  0.00    -0.040 NA
HETATM   19  O3  UNL     1       3.712  21.323   6.206  1.00  0.00    -0.251 OA
ATOM     20  H1  UNL     1       5.878  23.484   5.192  1.00  0.00     0.165 HD
ENDBRANCH  11  16
ENDBRANCH   1  11
BRANCH   8  21
HETATM   21  C8  UNL     1       3.341  18.612   1.969  1.00  0.00     0.292 C 
HETATM   22  O4  UNL     1       3.627  17.581   2.620  1.00  0.00    -0.264 OA
HETATM   23  N6  UNL     1       2.238  18.551   1.076  1.00  0.00    -0.295 N 
HETATM   24  C9  UNL     1       1.484  17.354   0.927  1.00  0.00     0.188 C 
ATOM     25  H6  UNL     1       1.984  19.376   0.533  1.00  0.00     0.171 HD
HETATM   26  N7  UNL     1       0.491  17.323   0.113  1.00  0.00    -0.373 N 
HETATM   27  N8  UNL     1       1.813  16.190   1.668  1.00  0.00    -0.064 NA
ATOM     28  H72 UNL     1       0.254  18.160  -0.419  1.00  0.00     0.158 HD
ATOM     29  H71 UNL     1      -0.051  16.465   0.007  1.00  0.00     0.158 HD
ENDBRANCH   8  21
TORSDOF 5
ENDMDL
