MODEL 1
REMARK VINA RESULT: -7.326627864      0.000      0.000
REMARK  6 active torsions:
REMARK  status: ('A' for Active; 'I' for Inactive)
REMARK    1  A    between atoms: N1_1  and  C1_4 
REMARK    2  A    between atoms: C2_9  and  S1_10 
REMARK    3  A    between atoms: S1_10  and  N4_13 
REMARK    4  A    between atoms: N4_13  and  C3_15 
REMARK    5  A    between atoms: C3_15  and  N5_16 
REMARK    6  A    between atoms: C3_15  and  C4_20 
ROOT
HETATM    1  N4  UNL     1      74.803  13.105  12.658  1.00  0.00    -0.280 N 
ATOM      2  H4  UNL     1      75.725  13.280  12.258  1.00  0.00     0.175 HD
ENDROOT
BRANCH   1   3
HETATM    3  S1  UNL     1      74.554  12.746  14.319  1.00  0.00     0.283 S 
HETATM    4  O1  UNL     1      74.454  11.242  14.448  1.00  0.00    -0.199 OA
HETATM    5  O2  UNL     1      73.272  13.343  14.824  1.00  0.00    -0.199 OA
BRANCH   3   6
HETATM    6  C2  UNL     1      75.938  13.280  15.247  1.00  0.00     0.233 A 
HETATM    7  N3  UNL     1      76.518  12.391  16.086  1.00  0.00    -0.270 N 
HETATM    8  N2  UNL     1      77.567  12.748  16.808  1.00  0.00    -0.131 N 
ATOM      9  H3  UNL     1      76.147  11.445  16.160  1.00  0.00     0.188 HD
HETATM   10  C1  UNL     1      78.113  13.979  16.763  1.00  0.00     0.693 A 
ATOM     11  H2  UNL     1      77.983  12.056  17.431  1.00  0.00     0.205 HD
HETATM   12  N9  UNL     1      77.537  14.867  15.929  1.00  0.00    -0.153 N 
HETATM   13  C6  UNL     1      76.468  14.532  15.180  1.00  0.00     0.301 A 
ATOM     14  H9  UNL     1      77.919  15.810  15.861  1.00  0.00     0.187 HD
HETATM   15  O4  UNL     1      75.928  15.365  14.397  1.00  0.00    -0.264 OA
BRANCH  10  16
HETATM   16  N1  UNL     1      79.120  14.294  17.469  1.00  0.00    -0.233 N 
ATOM     17  H12 UNL     1      79.529  13.636  18.131  1.00  0.00     0.174 HD
ATOM     18  H11 UNL     1      79.559  15.212  17.404  1.00  0.00     0.174 HD
ENDBRANCH  10  16
ENDBRANCH   3   6
ENDBRANCH   1   3
BRANCH   1  19
HETATM   19  C3  UNL     1      73.601  13.136  11.888  1.00  0.00     0.347 C 
BRANCH  19  20
HETATM   20  N5  UNL     1      72.624  12.192  12.395  1.00  0.00    -0.052 N 
ATOM     21  H53 UNL     1      72.898  11.228  12.201  1.00  0.00     0.277 HD
ATOM     22  H52 UNL     1      72.632  12.156  13.414  1.00  0.00     0.277 HD
ATOM     23  H51 UNL     1      71.691  12.393  12.035  1.00  0.00     0.277 HD
ENDBRANCH  19  20
BRANCH  19  24
HETATM   24  C4  UNL     1      73.016  14.513  11.811  1.00  0.00     0.129 A 
HETATM   25  N6  UNL     1      73.066  15.470  12.772  1.00  0.00    -0.238 N 
HETATM   26  O3  UNL     1      72.446  16.523  12.333  1.00  0.00    -0.155 OA
ATOM     27  H6  UNL     1      73.513  15.377  13.685  1.00  0.00     0.196 HD
HETATM   28  N7  UNL     1      71.986  16.331  11.138  1.00  0.00    -0.224 N 
HETATM   29  C5  UNL     1      72.317  15.089  10.769  1.00  0.00     0.150 A 
ATOM     30  H7  UNL     1      71.464  17.007  10.579  1.00  0.00     0.198 HD
HETATM   31  N8  UNL     1      72.048  14.492   9.643  1.00  0.00    -0.382 N 
ATOM     32  H82 UNL     1      72.300  13.544   9.361  1.00  0.00     0.157 HD
ATOM     33  H81 UNL     1      71.531  14.918   8.873  1.00  0.00     0.157 HD
ENDBRANCH  19  24
ENDBRANCH   1  19
TORSDOF 6
ENDMDL
MODEL 2
REMARK VINA RESULT: -7.175631333      2.615      3.796
REMARK  6 active torsions:
REMARK  status: ('A' for Active; 'I' for Inactive)
REMARK    1  A    between atoms: N1_1  and  C1_4 
REMARK    2  A    between atoms: C2_9  and  S1_10 
REMARK    3  A    between atoms: S1_10  and  N4_13 
REMARK    4  A    between atoms: N4_13  and  C3_15 
REMARK    5  A    between atoms: C3_15  and  N5_16 
REMARK    6  A    between atoms: C3_15  and  C4_20 
ROOT
HETATM    1  N4  UNL     1      75.171  14.369  15.160  1.00  0.00    -0.280 N 
ATOM      2  H4  UNL     1      74.754  14.667  16.041  1.00  0.00     0.175 HD
ENDROOT
BRANCH   1   3
HETATM    3  S1  UNL     1      76.868  14.315  14.897  1.00  0.00     0.283 S 
HETATM    4  O1  UNL     1      77.337  15.737  14.675  1.00  0.00    -0.199 OA
HETATM    5  O2  UNL     1      77.209  13.516  13.673  1.00  0.00    -0.199 OA
BRANCH   3   6
HETATM    6  C2  UNL     1      77.663  13.697  16.328  1.00  0.00     0.233 A 
HETATM    7  N3  UNL     1      78.841  13.053  16.168  1.00  0.00    -0.270 N 
HETATM    8  N2  UNL     1      79.480  12.568  17.220  1.00  0.00    -0.131 N 
ATOM      9  H3  UNL     1      79.238  12.942  15.236  1.00  0.00     0.188 HD
HETATM   10  C1  UNL     1      79.018  12.676  18.481  1.00  0.00     0.693 A 
ATOM     11  H2  UNL     1      80.367  12.087  17.068  1.00  0.00     0.205 HD
HETATM   12  N9  UNL     1      77.844  13.317  18.644  1.00  0.00    -0.153 N 
HETATM   13  C6  UNL     1      77.171  13.822  17.591  1.00  0.00     0.301 A 
ATOM     14  H9  UNL     1      77.458  13.424  19.581  1.00  0.00     0.187 HD
HETATM   15  O4  UNL     1      76.070  14.424  17.743  1.00  0.00    -0.264 OA
BRANCH  10  16
HETATM   16  N1  UNL     1      79.652  12.200  19.473  1.00  0.00    -0.233 N 
ATOM     17  H12 UNL     1      79.612  11.207  19.700  1.00  0.00     0.174 HD
ATOM     18  H11 UNL     1      80.224  12.786  20.081  1.00  0.00     0.174 HD
ENDBRANCH  10  16
ENDBRANCH   3   6
ENDBRANCH   1   3
BRANCH   1  19
HETATM   19  C3  UNL     1      74.399  13.958  14.031  1.00  0.00     0.347 C 
BRANCH  19  20
HETATM   20  N5  UNL     1      74.941  14.492  12.796  1.00  0.00    -0.052 N 
ATOM     21  H53 UNL     1      74.233  14.531  12.063  1.00  0.00     0.277 HD
ATOM     22  H52 UNL     1      75.139  15.489  12.876  1.00  0.00     0.277 HD
ATOM     23  H51 UNL     1      75.763  13.970  12.494  1.00  0.00     0.277 HD
ENDBRANCH  19  20
BRANCH  19  24
HETATM   24  C4  UNL     1      74.270  12.467  13.950  1.00  0.00     0.129 A 
HETATM   25  N6  UNL     1      74.991  11.551  14.644  1.00  0.00    -0.238 N 
HETATM   26  O3  UNL     1      74.587  10.366  14.299  1.00  0.00    -0.155 OA
ATOM     27  H6  UNL     1      75.727  11.759  15.320  1.00  0.00     0.196 HD
HETATM   28  N7  UNL     1      73.640  10.432  13.419  1.00  0.00    -0.224 N 
HETATM   29  C5  UNL     1      73.406  11.724  13.168  1.00  0.00     0.150 A 
ATOM     30  H7  UNL     1      73.159   9.639  12.993  1.00  0.00     0.198 HD
HETATM   31  N8  UNL     1      72.534  12.234  12.345  1.00  0.00    -0.382 N 
ATOM     32  H82 UNL     1      72.356  13.220  12.154  1.00  0.00     0.157 HD
ATOM     33  H81 UNL     1      71.897  11.685  11.768  1.00  0.00     0.157 HD
ENDBRANCH  19  24
ENDBRANCH   1  19
TORSDOF 6
ENDMDL
MODEL 3
REMARK VINA RESULT: -7.089530693      2.057      3.065
REMARK  6 active torsions:
REMARK  status: ('A' for Active; 'I' for Inactive)
REMARK    1  A    between atoms: N1_1  and  C1_4 
REMARK    2  A    between atoms: C2_9  and  S1_10 
REMARK    3  A    between atoms: S1_10  and  N4_13 
REMARK    4  A    between atoms: N4_13  and  C3_15 
REMARK    5  A    between atoms: C3_15  and  N5_16 
REMARK    6  A    between atoms: C3_15  and  C4_20 
ROOT
HETATM    1  N4  UNL     1      74.882  15.354  14.315  1.00  0.00    -0.280 N 
ATOM      2  H4  UNL     1      74.498  15.918  15.073  1.00  0.00     0.175 HD
ENDROOT
BRANCH   1   3
HETATM    3  S1  UNL     1      76.423  14.599  14.397  1.00  0.00     0.283 S 
HETATM    4  O1  UNL     1      77.443  15.595  13.891  1.00  0.00    -0.199 OA
HETATM    5  O2  UNL     1      76.486  13.383  13.519  1.00  0.00    -0.199 OA
BRANCH   3   6
HETATM    6  C2  UNL     1      76.805  14.227  16.064  1.00  0.00     0.233 A 
HETATM    7  N3  UNL     1      78.025  14.582  16.527  1.00  0.00    -0.270 N 
HETATM    8  N2  UNL     1      78.361  14.322  17.779  1.00  0.00    -0.131 N 
ATOM      9  H3  UNL     1      78.688  15.050  15.909  1.00  0.00     0.188 HD
HETATM   10  C1  UNL     1      77.540  13.707  18.653  1.00  0.00     0.693 A 
ATOM     11  H2  UNL     1      79.288  14.601  18.100  1.00  0.00     0.205 HD
HETATM   12  N9  UNL     1      76.323  13.353  18.195  1.00  0.00    -0.153 N 
HETATM   13  C6  UNL     1      75.954  13.604  16.924  1.00  0.00     0.301 A 
ATOM     14  H9  UNL     1      75.668  12.886  18.822  1.00  0.00     0.187 HD
HETATM   15  O4  UNL     1      74.812  13.272  16.494  1.00  0.00    -0.264 OA
BRANCH  10  16
HETATM   16  N1  UNL     1      77.888  13.470  19.850  1.00  0.00    -0.233 N 
ATOM     17  H12 UNL     1      78.625  12.798  20.065  1.00  0.00     0.174 HD
ATOM     18  H11 UNL     1      77.449  13.936  20.644  1.00  0.00     0.174 HD
ENDBRANCH  10  16
ENDBRANCH   3   6
ENDBRANCH   1   3
BRANCH   1  19
HETATM   19  C3  UNL     1      74.189  15.120  13.089  1.00  0.00     0.347 C 
BRANCH  19  20
HETATM   20  N5  UNL     1      75.076  15.244  11.948  1.00  0.00    -0.052 N 
ATOM     21  H53 UNL     1      74.892  16.099  11.422  1.00  0.00     0.277 HD
ATOM     22  H52 UNL     1      76.033  15.440  12.238  1.00  0.00     0.277 HD
ATOM     23  H51 UNL     1      75.028  14.420  11.349  1.00  0.00     0.277 HD
ENDBRANCH  19  20
BRANCH  19  24
HETATM   24  C4  UNL     1      73.496  13.791  13.078  1.00  0.00     0.129 A 
HETATM   25  N6  UNL     1      73.335  12.952  14.132  1.00  0.00    -0.238 N 
HETATM   26  O3  UNL     1      72.684  11.904  13.725  1.00  0.00    -0.155 OA
ATOM     27  H6  UNL     1      73.668  13.116  15.083  1.00  0.00     0.196 HD
HETATM   28  N7  UNL     1      72.401  11.990  12.465  1.00  0.00    -0.224 N 
HETATM   29  C5  UNL     1      72.887  13.152  12.016  1.00  0.00     0.150 A 
ATOM     30  H7  UNL     1      71.896  11.295  11.913  1.00  0.00     0.198 HD
HETATM   31  N8  UNL     1      72.821  13.632  10.807  1.00  0.00    -0.382 N 
ATOM     32  H82 UNL     1      73.193  14.518  10.464  1.00  0.00     0.157 HD
ATOM     33  H81 UNL     1      72.372  13.160  10.022  1.00  0.00     0.157 HD
ENDBRANCH  19  24
ENDBRANCH   1  19
TORSDOF 6
ENDMDL
MODEL 4
REMARK VINA RESULT: -7.019403087      2.397      7.269
REMARK  6 active torsions:
REMARK  status: ('A' for Active; 'I' for Inactive)
REMARK    1  A    between atoms: N1_1  and  C1_4 
REMARK    2  A    between atoms: C2_9  and  S1_10 
REMARK    3  A    between atoms: S1_10  and  N4_13 
REMARK    4  A    between atoms: N4_13  and  C3_15 
REMARK    5  A    between atoms: C3_15  and  N5_16 
REMARK    6  A    between atoms: C3_15  and  C4_20 
ROOT
HETATM    1  N4  UNL     1      77.543  12.986  16.158  1.00  0.00    -0.280 N 
ATOM      2  H4  UNL     1      77.779  11.996  16.091  1.00  0.00     0.175 HD
ENDROOT
BRANCH   1   3
HETATM    3  S1  UNL     1      77.239  13.971  14.784  1.00  0.00     0.283 S 
HETATM    4  O1  UNL     1      78.377  13.756  13.811  1.00  0.00    -0.199 OA
HETATM    5  O2  UNL     1      77.207  15.427  15.149  1.00  0.00    -0.199 OA
BRANCH   3   6
HETATM    6  C2  UNL     1      75.756  13.455  14.011  1.00  0.00     0.233 A 
HETATM    7  N3  UNL     1      75.341  14.138  12.919  1.00  0.00    -0.270 N 
HETATM    8  N2  UNL     1      74.227  13.786  12.301  1.00  0.00    -0.131 N 
ATOM      9  H3  UNL     1      75.889  14.926  12.574  1.00  0.00     0.188 HD
HETATM   10  C1  UNL     1      73.452  12.759  12.699  1.00  0.00     0.693 A 
ATOM     11  H2  UNL     1      73.940  14.320  11.480  1.00  0.00     0.205 HD
HETATM   12  N9  UNL     1      73.863  12.075  13.785  1.00  0.00    -0.153 N 
HETATM   13  C6  UNL     1      74.994  12.411  14.436  1.00  0.00     0.301 A 
ATOM     14  H9  UNL     1      73.308  11.288  14.121  1.00  0.00     0.187 HD
HETATM   15  O4  UNL     1      75.380  11.770  15.456  1.00  0.00    -0.264 OA
BRANCH  10  16
HETATM   16  N1  UNL     1      72.387  12.442  12.085  1.00  0.00    -0.233 N 
ATOM     17  H12 UNL     1      71.776  13.153  11.683  1.00  0.00     0.174 HD
ATOM     18  H11 UNL     1      72.097  11.471  11.969  1.00  0.00     0.174 HD
ENDBRANCH  10  16
ENDBRANCH   3   6
ENDBRANCH   1   3
BRANCH   1  19
HETATM   19  C3  UNL     1      77.437  13.679  17.401  1.00  0.00     0.347 C 
BRANCH  19  20
HETATM   20  N5  UNL     1      76.171  13.405  18.054  1.00  0.00    -0.052 N 
ATOM     21  H53 UNL     1      75.918  14.147  18.707  1.00  0.00     0.277 HD
ATOM     22  H52 UNL     1      75.389  13.493  17.405  1.00  0.00     0.277 HD
ATOM     23  H51 UNL     1      76.178  12.493  18.509  1.00  0.00     0.277 HD
ENDBRANCH  19  20
BRANCH  19  24
HETATM   24  C4  UNL     1      78.582  13.372  18.317  1.00  0.00     0.129 A 
HETATM   25  N6  UNL     1      78.687  12.310  19.156  1.00  0.00    -0.238 N 
HETATM   26  O3  UNL     1      79.822  12.394  19.781  1.00  0.00    -0.155 OA
ATOM     27  H6  UNL     1      77.992  11.573  19.276  1.00  0.00     0.196 HD
HETATM   28  N7  UNL     1      80.483  13.444  19.414  1.00  0.00    -0.224 N 
HETATM   29  C5  UNL     1      79.749  14.088  18.500  1.00  0.00     0.150 A 
ATOM     30  H7  UNL     1      81.399  13.730  19.760  1.00  0.00     0.198 HD
HETATM   31  N8  UNL     1      80.042  15.191  17.872  1.00  0.00    -0.382 N 
ATOM     32  H82 UNL     1      79.482  15.682  17.175  1.00  0.00     0.157 HD
ATOM     33  H81 UNL     1      80.904  15.720  18.007  1.00  0.00     0.157 HD
ENDBRANCH  19  24
ENDBRANCH   1  19
TORSDOF 6
ENDMDL
MODEL 5
REMARK VINA RESULT: -7.003298285      2.012      6.784
REMARK  6 active torsions:
REMARK  status: ('A' for Active; 'I' for Inactive)
REMARK    1  A    between atoms: N1_1  and  C1_4 
REMARK    2  A    between atoms: C2_9  and  S1_10 
REMARK    3  A    between atoms: S1_10  and  N4_13 
REMARK    4  A    between atoms: N4_13  and  C3_15 
REMARK    5  A    between atoms: C3_15  and  N5_16 
REMARK    6  A    between atoms: C3_15  and  C4_20 
ROOT
HETATM    1  N4  UNL     1      76.655  13.814  15.181  1.00  0.00    -0.280 N 
ATOM      2  H4  UNL     1      76.788  14.702  14.699  1.00  0.00     0.175 HD
ENDROOT
BRANCH   1   3
HETATM    3  S1  UNL     1      75.194  12.914  15.103  1.00  0.00     0.283 S 
HETATM    4  O1  UNL     1      74.304  13.398  16.228  1.00  0.00    -0.199 OA
HETATM    5  O2  UNL     1      75.440  11.447  15.303  1.00  0.00    -0.199 OA
BRANCH   3   6
HETATM    6  C2  UNL     1      74.383  13.245  13.588  1.00  0.00     0.233 A 
HETATM    7  N3  UNL     1      74.951  14.142  12.750  1.00  0.00    -0.270 N 
HETATM    8  N2  UNL     1      74.376  14.426  11.593  1.00  0.00    -0.131 N 
ATOM      9  H3  UNL     1      75.824  14.600  13.010  1.00  0.00     0.188 HD
HETATM   10  C1  UNL     1      73.224  13.862  11.181  1.00  0.00     0.693 A 
ATOM     11  H2  UNL     1      74.828  15.106  10.982  1.00  0.00     0.205 HD
HETATM   12  N9  UNL     1      72.656  12.967  12.014  1.00  0.00    -0.153 N 
HETATM   13  C6  UNL     1      73.219  12.659  13.199  1.00  0.00     0.301 A 
ATOM     14  H9  UNL     1      71.783  12.514  11.742  1.00  0.00     0.187 HD
HETATM   15  O4  UNL     1      72.686  11.819  13.980  1.00  0.00    -0.264 OA
BRANCH  10  16
HETATM   16  N1  UNL     1      72.694  14.152  10.065  1.00  0.00    -0.233 N 
ATOM     17  H12 UNL     1      73.216  14.651   9.345  1.00  0.00     0.174 HD
ATOM     18  H11 UNL     1      71.731  13.903   9.842  1.00  0.00     0.174 HD
ENDBRANCH  10  16
ENDBRANCH   3   6
ENDBRANCH   1   3
BRANCH   1  19
HETATM   19  C3  UNL     1      77.667  13.202  15.982  1.00  0.00     0.347 C 
BRANCH  19  20
HETATM   20  N5  UNL     1      78.991  13.462  15.450  1.00  0.00    -0.052 N 
ATOM     21  H53 UNL     1      78.996  13.443  14.430  1.00  0.00     0.277 HD
ATOM     22  H52 UNL     1      79.266  14.434  15.591  1.00  0.00     0.277 HD
ATOM     23  H51 UNL     1      79.681  12.819  15.838  1.00  0.00     0.277 HD
ENDBRANCH  19  20
BRANCH  19  24
HETATM   24  C4  UNL     1      77.581  13.625  17.416  1.00  0.00     0.129 A 
HETATM   25  N6  UNL     1      76.765  14.577  17.934  1.00  0.00    -0.238 N 
HETATM   26  O3  UNL     1      76.983  14.653  19.213  1.00  0.00    -0.155 OA
ATOM     27  H6  UNL     1      76.094  15.139  17.409  1.00  0.00     0.196 HD
HETATM   28  N7  UNL     1      77.895  13.811  19.582  1.00  0.00    -0.224 N 
HETATM   29  C5  UNL     1      78.299  13.145  18.495  1.00  0.00     0.150 A 
ATOM     30  H7  UNL     1      78.242  13.680  20.532  1.00  0.00     0.198 HD
HETATM   31  N8  UNL     1      79.202  12.209  18.421  1.00  0.00    -0.382 N 
ATOM     32  H82 UNL     1      79.510  11.701  17.592  1.00  0.00     0.157 HD
ATOM     33  H81 UNL     1      79.732  11.855  19.217  1.00  0.00     0.157 HD
ENDBRANCH  19  24
ENDBRANCH   1  19
TORSDOF 6
ENDMDL
