MODEL 1
REMARK VINA RESULT: -7.717888998      0.000      0.000
REMARK  10 active torsions:
REMARK  status: ('A' for Active; 'I' for Inactive)
REMARK    1  A    between atoms: N1_1  and  C1_4 
REMARK    2  A    between atoms: C2_7  and  N3_8 
REMARK    3  A    between atoms: N3_8  and  N4_10 
REMARK    4  A    between atoms: N7_19  and  C5_20 
REMARK    5  A    between atoms: C5_20  and  C6_21 
REMARK    6  A    between atoms: C6_21  and  C7_23 
REMARK    7  A    between atoms: C7_23  and  C8_24 
REMARK    8  A    between atoms: C8_24  and  N8_25 
REMARK    9  A    between atoms: C8_24  and  C9_29 
REMARK   10  A    between atoms: N9_32  and  N10_33 
ROOT
HETATM    1  C1  UNL     1      73.084  12.924  12.903  1.00  0.00     0.700 A 
HETATM    2  N2  UNL     1      73.148  14.169  13.403  1.00  0.00    -0.171 N 
ATOM      3  H2  UNL     1      72.600  14.916  12.976  1.00  0.00     0.186 HD
HETATM    4  C2  UNL     1      73.932  14.435  14.463  1.00  0.00     0.167 A 
HETATM    5  C3  UNL     1      74.666  13.411  15.027  1.00  0.00     0.146 A 
HETATM    6  C4  UNL     1      74.578  12.113  14.482  1.00  0.00     0.193 A 
HETATM    7  N5  UNL     1      75.392  11.368  15.235  1.00  0.00    -0.267 N 
ATOM      8  H5  UNL     1      75.562  10.370  15.109  1.00  0.00     0.190 HD
HETATM    9  N6  UNL     1      75.942  12.121  16.168  1.00  0.00    -0.238 N 
ATOM     10  H6  UNL     1      76.603  11.790  16.871  1.00  0.00     0.208 HD
HETATM   11  N7  UNL     1      75.512  13.373  16.062  1.00  0.00    -0.264 N 
HETATM   12  N9  UNL     1      73.781  11.899  13.421  1.00  0.00    -0.073 N 
ENDROOT
BRANCH  11  13
HETATM   13  C5  UNL     1      75.906  14.446  16.928  1.00  0.00     0.229 C 
BRANCH  13  14
HETATM   14  C6  UNL     1      77.367  14.445  17.215  1.00  0.00     0.149 C 
HETATM   15  O1  UNL     1      78.222  14.685  16.402  1.00  0.00    -0.296 OA
BRANCH  14  16
HETATM   16  C7  UNL     1      77.777  14.124  18.610  1.00  0.00     0.124 C 
BRANCH  16  17
HETATM   17  C8  UNL     1      79.081  13.353  18.640  1.00  0.00     0.290 C 
BRANCH  17  18
HETATM   18  N8  UNL     1      78.900  12.150  19.391  1.00  0.00    -0.065 N 
ATOM     19  H83 UNL     1      79.642  12.007  20.077  1.00  0.00     0.275 HD
ATOM     20  H82 UNL     1      78.114  12.212  20.038  1.00  0.00     0.275 HD
ATOM     21  H81 UNL     1      78.812  11.363  18.748  1.00  0.00     0.275 HD
ENDBRANCH  17  18
BRANCH  17  22
HETATM   22  C9  UNL     1      80.184  14.172  19.198  1.00  0.00     0.204 C 
HETATM   23  O2  UNL     1      80.862  13.678  20.134  1.00  0.00    -0.646 OA
HETATM   24  O3  UNL     1      80.472  15.439  18.718  1.00  0.00    -0.646 OA
ENDBRANCH  17  22
ENDBRANCH  16  17
ENDBRANCH  14  16
ENDBRANCH  13  14
ENDBRANCH  11  13
BRANCH   4  25
HETATM   25  N3  UNL     1      74.033  15.609  14.976  1.00  0.00    -0.290 N 
ATOM     26  H3  UNL     1      74.928  15.943  15.333  1.00  0.00     0.188 HD
BRANCH  25  27
HETATM   27  N4  UNL     1      72.896  16.418  15.035  1.00  0.00    -0.344 N 
ATOM     28  H42 UNL     1      72.246  16.316  15.814  1.00  0.00     0.176 HD
ATOM     29  H41 UNL     1      72.739  17.099  14.292  1.00  0.00     0.176 HD
ENDBRANCH  25  27
ENDBRANCH   4  25
BRANCH  12  30
HETATM   30  N10 UNL     1      73.681  10.629  12.870  1.00  0.00    -0.322 N 
ATOM     31 2H10 UNL     1      72.880  10.386  12.286  1.00  0.00     0.178 HD
ATOM     32 1H10 UNL     1      74.405   9.932  13.042  1.00  0.00     0.178 HD
ENDBRANCH  12  30
BRANCH   1  33
HETATM   33  N1  UNL     1      72.324  12.708  11.890  1.00  0.00    -0.233 N 
ATOM     34  H12 UNL     1      72.500  11.889  11.309  1.00  0.00     0.174 HD
ATOM     35  H11 UNL     1      71.567  13.365  11.701  1.00  0.00     0.174 HD
ENDBRANCH   1  33
TORSDOF 10
ENDMDL
MODEL 2
REMARK VINA RESULT: -7.495461098      1.400      1.659
REMARK  10 active torsions:
REMARK  status: ('A' for Active; 'I' for Inactive)
REMARK    1  A    between atoms: N1_1  and  C1_4 
REMARK    2  A    between atoms: C2_7  and  N3_8 
REMARK    3  A    between atoms: N3_8  and  N4_10 
REMARK    4  A    between atoms: N7_19  and  C5_20 
REMARK    5  A    between atoms: C5_20  and  C6_21 
REMARK    6  A    between atoms: C6_21  and  C7_23 
REMARK    7  A    between atoms: C7_23  and  C8_24 
REMARK    8  A    between atoms: C8_24  and  N8_25 
REMARK    9  A    between atoms: C8_24  and  C9_29 
REMARK   10  A    between atoms: N9_32  and  N10_33 
ROOT
HETATM    1  C1  UNL     1      73.092  14.188  12.203  1.00  0.00     0.700 A 
HETATM    2  N2  UNL     1      73.767  15.309  12.506  1.00  0.00    -0.171 N 
ATOM      3  H2  UNL     1      73.532  16.185  12.039  1.00  0.00     0.186 HD
HETATM    4  C2  UNL     1      74.750  15.283  13.423  1.00  0.00     0.167 A 
HETATM    5  C3  UNL     1      75.054  14.088  14.045  1.00  0.00     0.146 A 
HETATM    6  C4  UNL     1      74.329  12.926  13.708  1.00  0.00     0.193 A 
HETATM    7  N5  UNL     1      74.855  11.961  14.466  1.00  0.00    -0.267 N 
ATOM      8  H5  UNL     1      74.555  10.985  14.468  1.00  0.00     0.190 HD
HETATM    9  N6  UNL     1      75.820  12.462  15.213  1.00  0.00    -0.238 N 
ATOM     10  H6  UNL     1      76.379  11.929  15.879  1.00  0.00     0.208 HD
HETATM   11  N7  UNL     1      75.959  13.761  14.974  1.00  0.00    -0.264 N 
HETATM   12  N9  UNL     1      73.355  13.006  12.784  1.00  0.00    -0.073 N 
ENDROOT
BRANCH  11  13
HETATM   13  C5  UNL     1      76.912  14.612  15.626  1.00  0.00     0.229 C 
BRANCH  13  14
HETATM   14  C6  UNL     1      77.974  13.846  16.335  1.00  0.00     0.149 C 
HETATM   15  O1  UNL     1      78.760  13.109  15.795  1.00  0.00    -0.296 OA
BRANCH  14  16
HETATM   16  C7  UNL     1      78.054  14.018  17.811  1.00  0.00     0.124 C 
BRANCH  16  17
HETATM   17  C8  UNL     1      79.249  13.289  18.390  1.00  0.00     0.290 C 
BRANCH  17  18
HETATM   18  N8  UNL     1      78.793  12.274  19.288  1.00  0.00    -0.065 N 
ATOM     19  H83 UNL     1      78.104  12.627  19.952  1.00  0.00     0.275 HD
ATOM     20  H82 UNL     1      78.206  11.582  18.823  1.00  0.00     0.275 HD
ATOM     21  H81 UNL     1      79.597  11.851  19.753  1.00  0.00     0.275 HD
ENDBRANCH  17  18
BRANCH  17  22
HETATM   22  C9  UNL     1      80.181  14.223  19.065  1.00  0.00     0.204 C 
HETATM   23  O2  UNL     1      80.210  15.412  18.661  1.00  0.00    -0.646 OA
HETATM   24  O3  UNL     1      81.000  13.817  20.107  1.00  0.00    -0.646 OA
ENDBRANCH  17  22
ENDBRANCH  16  17
ENDBRANCH  14  16
ENDBRANCH  13  14
ENDBRANCH  11  13
BRANCH   4  25
HETATM   25  N3  UNL     1      75.429  16.325  13.745  1.00  0.00    -0.290 N 
ATOM     26  H3  UNL     1      75.344  16.733  14.676  1.00  0.00     0.188 HD
BRANCH  25  27
HETATM   27  N4  UNL     1      76.285  16.889  12.797  1.00  0.00    -0.344 N 
ATOM     28  H42 UNL     1      76.733  16.291  12.103  1.00  0.00     0.176 HD
ATOM     29  H41 UNL     1      76.446  17.897  12.818  1.00  0.00     0.176 HD
ENDBRANCH  25  27
ENDBRANCH   4  25
BRANCH  12  30
HETATM   30  N10 UNL     1      72.630  11.874  12.438  1.00  0.00    -0.322 N 
ATOM     31 2H10 UNL     1      71.991  11.899  11.643  1.00  0.00     0.178 HD
ATOM     32 1H10 UNL     1      72.730  11.011  12.972  1.00  0.00     0.178 HD
ENDBRANCH  12  30
BRANCH   1  33
HETATM   33  N1  UNL     1      72.159  14.252  11.323  1.00  0.00    -0.233 N 
ATOM     34  H12 UNL     1      71.188  14.254  11.635  1.00  0.00     0.174 HD
ATOM     35  H11 UNL     1      72.421  14.299  10.338  1.00  0.00     0.174 HD
ENDBRANCH   1  33
TORSDOF 10
ENDMDL
MODEL 3
REMARK VINA RESULT: -7.399715567      1.896      3.602
REMARK  10 active torsions:
REMARK  status: ('A' for Active; 'I' for Inactive)
REMARK    1  A    between atoms: N1_1  and  C1_4 
REMARK    2  A    between atoms: C2_7  and  N3_8 
REMARK    3  A    between atoms: N3_8  and  N4_10 
REMARK    4  A    between atoms: N7_19  and  C5_20 
REMARK    5  A    between atoms: C5_20  and  C6_21 
REMARK    6  A    between atoms: C6_21  and  C7_23 
REMARK    7  A    between atoms: C7_23  and  C8_24 
REMARK    8  A    between atoms: C8_24  and  N8_25 
REMARK    9  A    between atoms: C8_24  and  C9_29 
REMARK   10  A    between atoms: N9_32  and  N10_33 
ROOT
HETATM    1  C1  UNL     1      72.500  14.601  10.788  1.00  0.00     0.700 A 
HETATM    2  N2  UNL     1      72.991  13.452  11.280  1.00  0.00    -0.171 N 
ATOM      3  H2  UNL     1      73.024  12.620  10.690  1.00  0.00     0.186 HD
HETATM    4  C2  UNL     1      73.438  13.392  12.547  1.00  0.00     0.167 A 
HETATM    5  C3  UNL     1      73.385  14.528  13.329  1.00  0.00     0.146 A 
HETATM    6  C4  UNL     1      72.865  15.721  12.787  1.00  0.00     0.193 A 
HETATM    7  N5  UNL     1      72.948  16.614  13.777  1.00  0.00    -0.267 N 
ATOM      8  H5  UNL     1      72.653  17.590  13.716  1.00  0.00     0.190 HD
HETATM    9  N6  UNL     1      73.471  16.042  14.844  1.00  0.00    -0.238 N 
ATOM     10  H6  UNL     1      73.639  16.511  15.734  1.00  0.00     0.208 HD
HETATM   11  N7  UNL     1      73.747  14.768  14.595  1.00  0.00    -0.264 N 
HETATM   12  N9  UNL     1      72.430  15.728  11.515  1.00  0.00    -0.073 N 
ENDROOT
BRANCH  11  13
HETATM   13  C5  UNL     1      74.334  13.862  15.538  1.00  0.00     0.229 C 
BRANCH  13  14
HETATM   14  C6  UNL     1      75.654  14.332  16.041  1.00  0.00     0.149 C 
HETATM   15  O1  UNL     1      76.419  15.017  15.411  1.00  0.00    -0.296 OA
BRANCH  14  16
HETATM   16  C7  UNL     1      76.035  13.916  17.419  1.00  0.00     0.124 C 
BRANCH  16  17
HETATM   17  C8  UNL     1      77.537  13.779  17.560  1.00  0.00     0.290 C 
BRANCH  17  18
HETATM   18  N8  UNL     1      77.965  12.580  16.911  1.00  0.00    -0.065 N 
ATOM     19  H83 UNL     1      78.923  12.327  17.156  1.00  0.00     0.275 HD
ATOM     20  H82 UNL     1      77.499  11.752  17.282  1.00  0.00     0.275 HD
ATOM     21  H81 UNL     1      77.837  12.678  15.904  1.00  0.00     0.275 HD
ENDBRANCH  17  18
BRANCH  17  22
HETATM   22  C9  UNL     1      77.953  13.796  18.983  1.00  0.00     0.204 C 
HETATM   23  O2  UNL     1      77.467  14.687  19.723  1.00  0.00    -0.646 OA
HETATM   24  O3  UNL     1      78.845  12.869  19.498  1.00  0.00    -0.646 OA
ENDBRANCH  17  22
ENDBRANCH  16  17
ENDBRANCH  14  16
ENDBRANCH  13  14
ENDBRANCH  11  13
BRANCH   4  25
HETATM   25  N3  UNL     1      73.912  12.317  13.067  1.00  0.00    -0.290 N 
ATOM     26  H3  UNL     1      74.875  12.282  13.400  1.00  0.00     0.188 HD
BRANCH  25  27
HETATM   27  N4  UNL     1      73.083  11.197  13.168  1.00  0.00    -0.344 N 
ATOM     28  H42 UNL     1      72.081  11.323  13.313  1.00  0.00     0.176 HD
ATOM     29  H41 UNL     1      73.500  10.269  13.093  1.00  0.00     0.176 HD
ENDBRANCH  25  27
ENDBRANCH   4  25
BRANCH  12  30
HETATM   30  N10 UNL     1      71.915  16.893  10.962  1.00  0.00    -0.322 N 
ATOM     31 2H10 UNL     1      71.161  16.843  10.276  1.00  0.00     0.178 HD
ATOM     32 1H10 UNL     1      72.283  17.803  11.236  1.00  0.00     0.178 HD
ENDBRANCH  12  30
BRANCH   1  33
HETATM   33  N1  UNL     1      72.082  14.620   9.573  1.00  0.00    -0.233 N 
ATOM     34  H12 UNL     1      72.370  15.387   8.966  1.00  0.00     0.174 HD
ATOM     35  H11 UNL     1      71.475  13.864   9.256  1.00  0.00     0.174 HD
ENDBRANCH   1  33
TORSDOF 10
ENDMDL
MODEL 4
REMARK VINA RESULT: -7.386226202      1.311      2.888
REMARK  10 active torsions:
REMARK  status: ('A' for Active; 'I' for Inactive)
REMARK    1  A    between atoms: N1_1  and  C1_4 
REMARK    2  A    between atoms: C2_7  and  N3_8 
REMARK    3  A    between atoms: N3_8  and  N4_10 
REMARK    4  A    between atoms: N7_19  and  C5_20 
REMARK    5  A    between atoms: C5_20  and  C6_21 
REMARK    6  A    between atoms: C6_21  and  C7_23 
REMARK    7  A    between atoms: C7_23  and  C8_24 
REMARK    8  A    between atoms: C8_24  and  N8_25 
REMARK    9  A    between atoms: C8_24  and  C9_29 
REMARK   10  A    between atoms: N9_32  and  N10_33 
ROOT
HETATM    1  C1  UNL     1      72.892  14.050  11.755  1.00  0.00     0.700 A 
HETATM    2  N2  UNL     1      73.353  12.868  12.195  1.00  0.00    -0.171 N 
ATOM      3  H2  UNL     1      73.229  12.031  11.625  1.00  0.00     0.186 HD
HETATM    4  C2  UNL     1      73.976  12.782  13.383  1.00  0.00     0.167 A 
HETATM    5  C3  UNL     1      74.134  13.926  14.140  1.00  0.00     0.146 A 
HETATM    6  C4  UNL     1      73.641  15.154  13.654  1.00  0.00     0.193 A 
HETATM    7  N5  UNL     1      73.943  16.046  14.601  1.00  0.00    -0.267 N 
ATOM      8  H5  UNL     1      73.725  17.042  14.563  1.00  0.00     0.190 HD
HETATM    9  N6  UNL     1      74.569  15.441  15.593  1.00  0.00    -0.238 N 
ATOM     10  H6  UNL     1      74.905  15.902  16.438  1.00  0.00     0.208 HD
HETATM   11  N7  UNL     1      74.698  14.145  15.334  1.00  0.00    -0.264 N 
HETATM   12  N9  UNL     1      73.024  15.186  12.459  1.00  0.00    -0.073 N 
ENDROOT
BRANCH  11  13
HETATM   13  C5  UNL     1      75.341  13.201  16.201  1.00  0.00     0.229 C 
BRANCH  13  14
HETATM   14  C6  UNL     1      76.767  13.540  16.462  1.00  0.00     0.149 C 
HETATM   15  O1  UNL     1      77.664  13.371  15.676  1.00  0.00    -0.296 OA
BRANCH  14  16
HETATM   16  C7  UNL     1      77.084  14.129  17.792  1.00  0.00     0.124 C 
BRANCH  16  17
HETATM   17  C8  UNL     1      78.188  13.360  18.488  1.00  0.00     0.290 C 
BRANCH  17  18
HETATM   18  N8  UNL     1      77.714  12.895  19.754  1.00  0.00    -0.065 N 
ATOM     19  H83 UNL     1      76.782  13.248  19.972  1.00  0.00     0.275 HD
ATOM     20  H82 UNL     1      77.491  11.899  19.741  1.00  0.00     0.275 HD
ATOM     21  H81 UNL     1      78.395  13.130  20.476  1.00  0.00     0.275 HD
ENDBRANCH  17  18
BRANCH  17  22
HETATM   22  C9  UNL     1      79.410  14.185  18.645  1.00  0.00     0.204 C 
HETATM   23  O2  UNL     1      79.756  14.501  19.811  1.00  0.00    -0.646 OA
HETATM   24  O3  UNL     1      80.157  14.605  17.556  1.00  0.00    -0.646 OA
ENDBRANCH  17  22
ENDBRANCH  16  17
ENDBRANCH  14  16
ENDBRANCH  13  14
ENDBRANCH  11  13
BRANCH   4  25
HETATM   25  N3  UNL     1      74.430  11.675  13.852  1.00  0.00    -0.290 N 
ATOM     26  H3  UNL     1      75.244  11.667  14.467  1.00  0.00     0.188 HD
BRANCH  25  27
HETATM   27  N4  UNL     1      73.790  10.484  13.504  1.00  0.00    -0.344 N 
ATOM     28  H42 UNL     1      73.714  10.221  12.522  1.00  0.00     0.176 HD
ATOM     29  H41 UNL     1      73.409   9.897  14.246  1.00  0.00     0.176 HD
ENDBRANCH  25  27
ENDBRANCH   4  25
BRANCH  12  30
HETATM   30  N10 UNL     1      72.531  16.385  11.963  1.00  0.00    -0.322 N 
ATOM     31 2H10 UNL     1      72.460  16.530  10.955  1.00  0.00     0.178 HD
ATOM     32 1H10 UNL     1      72.238  17.127  12.598  1.00  0.00     0.178 HD
ENDBRANCH  12  30
BRANCH   1  33
HETATM   33  N1  UNL     1      72.302  14.093  10.615  1.00  0.00    -0.233 N 
ATOM     34  H12 UNL     1      72.146  13.222  10.109  1.00  0.00     0.174 HD
ATOM     35  H11 UNL     1      72.009  15.000  10.252  1.00  0.00     0.174 HD
ENDBRANCH   1  33
TORSDOF 10
ENDMDL
MODEL 5
REMARK VINA RESULT: -7.381327899      2.007      2.374
REMARK  10 active torsions:
REMARK  status: ('A' for Active; 'I' for Inactive)
REMARK    1  A    between atoms: N1_1  and  C1_4 
REMARK    2  A    between atoms: C2_7  and  N3_8 
REMARK    3  A    between atoms: N3_8  and  N4_10 
REMARK    4  A    between atoms: N7_19  and  C5_20 
REMARK    5  A    between atoms: C5_20  and  C6_21 
REMARK    6  A    between atoms: C6_21  and  C7_23 
REMARK    7  A    between atoms: C7_23  and  C8_24 
REMARK    8  A    between atoms: C8_24  and  N8_25 
REMARK    9  A    between atoms: C8_24  and  C9_29 
REMARK   10  A    between atoms: N9_32  and  N10_33 
ROOT
HETATM    1  C1  UNL     1      73.238  14.039  11.798  1.00  0.00     0.700 A 
HETATM    2  N2  UNL     1      73.990  15.152  11.829  1.00  0.00    -0.171 N 
ATOM      3  H2  UNL     1      73.780  15.924  11.196  1.00  0.00     0.186 HD
HETATM    4  C2  UNL     1      75.018  15.253  12.689  1.00  0.00     0.167 A 
HETATM    5  C3  UNL     1      75.287  14.197  13.537  1.00  0.00     0.146 A 
HETATM    6  C4  UNL     1      74.481  13.042  13.484  1.00  0.00     0.193 A 
HETATM    7  N5  UNL     1      74.992  12.223  14.409  1.00  0.00    -0.267 N 
ATOM      8  H5  UNL     1      74.639  11.292  14.630  1.00  0.00     0.190 HD
HETATM    9  N6  UNL     1      76.022  12.805  14.992  1.00  0.00    -0.238 N 
ATOM     10  H6  UNL     1      76.586  12.387  15.733  1.00  0.00     0.208 HD
HETATM   11  N7  UNL     1      76.221  14.012  14.477  1.00  0.00    -0.264 N 
HETATM   12  N9  UNL     1      73.465  12.991  12.606  1.00  0.00    -0.073 N 
ENDROOT
BRANCH  11  13
HETATM   13  C5  UNL     1      77.254  14.916  14.894  1.00  0.00     0.229 C 
BRANCH  13  14
HETATM   14  C6  UNL     1      78.480  14.210  15.360  1.00  0.00     0.149 C 
HETATM   15  O1  UNL     1      79.068  13.372  14.725  1.00  0.00    -0.296 OA
BRANCH  14  16
HETATM   16  C7  UNL     1      78.998  14.582  16.705  1.00  0.00     0.124 C 
BRANCH  16  17
HETATM   17  C8  UNL     1      78.540  13.601  17.765  1.00  0.00     0.290 C 
BRANCH  17  18
HETATM   18  N8  UNL     1      78.415  12.302  17.183  1.00  0.00    -0.065 N 
ATOM     19  H83 UNL     1      78.284  11.574  17.886  1.00  0.00     0.275 HD
ATOM     20  H82 UNL     1      77.532  12.184  16.686  1.00  0.00     0.275 HD
ATOM     21  H81 UNL     1      79.223  12.121  16.586  1.00  0.00     0.275 HD
ENDBRANCH  17  18
BRANCH  17  22
HETATM   22  C9  UNL     1      77.268  14.032  18.391  1.00  0.00     0.204 C 
HETATM   23  O2  UNL     1      77.337  14.750  19.421  1.00  0.00    -0.646 OA
HETATM   24  O3  UNL     1      76.035  13.667  17.875  1.00  0.00    -0.646 OA
ENDBRANCH  17  22
ENDBRANCH  16  17
ENDBRANCH  14  16
ENDBRANCH  13  14
ENDBRANCH  11  13
BRANCH   4  25
HETATM   25  N3  UNL     1      75.771  16.292  12.754  1.00  0.00    -0.290 N 
ATOM     26  H3  UNL     1      76.772  16.220  12.569  1.00  0.00     0.188 HD
BRANCH  25  27
HETATM   27  N4  UNL     1      75.195  17.521  13.083  1.00  0.00    -0.344 N 
ATOM     28  H42 UNL     1      74.807  17.662  14.016  1.00  0.00     0.176 HD
ATOM     29  H41 UNL     1      75.174  18.258  12.378  1.00  0.00     0.176 HD
ENDBRANCH  25  27
ENDBRANCH   4  25
BRANCH  12  30
HETATM   30  N10 UNL     1      72.660  11.862  12.538  1.00  0.00    -0.322 N 
ATOM     31 2H10 UNL     1      71.664  11.930  12.749  1.00  0.00     0.178 HD
ATOM     32 1H10 UNL     1      73.055  10.959  12.277  1.00  0.00     0.178 HD
ENDBRANCH  12  30
BRANCH   1  33
HETATM   33  N1  UNL     1      72.264  13.980  10.963  1.00  0.00    -0.233 N 
ATOM     34  H12 UNL     1      72.368  13.409  10.125  1.00  0.00     0.174 HD
ATOM     35  H11 UNL     1      71.415  14.507  11.167  1.00  0.00     0.174 HD
ENDBRANCH   1  33
TORSDOF 10
ENDMDL
