MODEL 1
REMARK VINA RESULT: -7.668260073      0.000      0.000
REMARK  8 active torsions:
REMARK  status: ('A' for Active; 'I' for Inactive)
REMARK    1  A    between atoms: C1_2  and  C2_4 
REMARK    2  A    between atoms: N3_8  and  C4_10 
REMARK    3  A    between atoms: C4_10  and  O2_11 
REMARK    4  A    between atoms: C4_10  and  C5_13 
REMARK    5  A    between atoms: C4_10  and  C6_21 
REMARK    6  A    between atoms: C5_13  and  N4_14 
REMARK    7  A    between atoms: C6_21  and  N8_22 
REMARK    8  A    between atoms: C6_21  and  O3_26 
ROOT
HETATM    1  C4  UNL     1      77.929  14.048  18.068  1.00  0.00     0.205 C 
ENDROOT
BRANCH   1   2
HETATM    2  N3  UNL     1      77.206  13.214  17.186  1.00  0.00    -0.340 N 
HETATM    3  C3  UNL     1      76.244  13.457  16.405  1.00  0.00     0.108 A 
HETATM    4  N2  UNL     1      75.751  12.417  15.666  1.00  0.00    -0.324 N 
HETATM    5  C7  UNL     1      75.643  14.673  16.230  1.00  0.00     0.093 A 
HETATM    6  C2  UNL     1      74.743  12.541  14.811  1.00  0.00     0.174 A 
ATOM      7  H2  UNL     1      76.181  11.499  15.778  1.00  0.00     0.169 HD
HETATM    8  N10 UNL     1      74.184  13.752  14.670  1.00  0.00    -0.327 N 
HETATM    9  C8  UNL     1      74.576  14.851  15.337  1.00  0.00     0.121 A 
ATOM     10  H10 UNL     1      73.409  13.844  14.013  1.00  0.00     0.168 HD
HETATM   11  N9  UNL     1      73.972  16.119  15.174  1.00  0.00    -0.083 NA
ATOM     12  H3  UNL     1      77.516  12.242  17.178  1.00  0.00     0.164 HD
BRANCH   6  13
HETATM   13  C1  UNL     1      74.287  11.376  14.069  1.00  0.00     0.298 C 
HETATM   14  N1  UNL     1      73.445  11.553  12.936  1.00  0.00    -0.054 NA
HETATM   15  O1  UNL     1      74.637  10.210  14.428  1.00  0.00    -0.268 OA
ENDBRANCH   6  13
ENDBRANCH   1   2
BRANCH   1  16
HETATM   16  O2  UNL     1      77.185  14.971  18.784  1.00  0.00    -0.365 OA
ATOM     17  H2  UNL     1      77.677  15.646  19.235  1.00  0.00     0.212 HD
ENDBRANCH   1  16
BRANCH   1  18
HETATM   18  C5  UNL     1      78.979  14.823  17.280  1.00  0.00     0.238 C 
BRANCH  18  19
HETATM   19  N4  UNL     1      79.825  13.898  16.528  1.00  0.00    -0.198 N 
HETATM   20  N5  UNL     1      79.669  12.995  15.589  1.00  0.00    -0.209 N 
HETATM   21  N6  UNL     1      80.957  12.762  15.624  1.00  0.00    -0.211 N 
ATOM     22  H5  UNL     1      78.880  12.631  15.057  1.00  0.00     0.211 HD
HETATM   23  N7  UNL     1      81.117  13.663  16.564  1.00  0.00    -0.209 N 
ATOM     24  H6  UNL     1      81.583  12.132  15.122  1.00  0.00     0.211 HD
ATOM     25  H7  UNL     1      81.908  14.027  17.096  1.00  0.00     0.211 HD
ENDBRANCH  18  19
ENDBRANCH   1  18
BRANCH   1  26
HETATM   26  C6  UNL     1      78.694  13.245  19.125  1.00  0.00     0.374 C 
BRANCH  26  27
HETATM   27  N8  UNL     1      77.786  12.558  20.013  1.00  0.00    -0.048 N 
ATOM     28  H83 UNL     1      77.709  13.033  20.912  1.00  0.00     0.277 HD
ATOM     29  H82 UNL     1      76.818  12.650  19.704  1.00  0.00     0.277 HD
ATOM     30  H81 UNL     1      78.054  11.580  20.126  1.00  0.00     0.277 HD
ENDBRANCH  26  27
BRANCH  26  31
HETATM   31  O3  UNL     1      79.429  14.156  19.866  1.00  0.00    -0.366 OA
ATOM     32  H3  UNL     1      79.813  13.676  20.590  1.00  0.00     0.212 HD
ENDBRANCH  26  31
ENDBRANCH   1  26
TORSDOF 8
ENDMDL
MODEL 2
REMARK VINA RESULT: -7.657062545      1.934      6.259
REMARK  8 active torsions:
REMARK  status: ('A' for Active; 'I' for Inactive)
REMARK    1  A    between atoms: C1_2  and  C2_4 
REMARK    2  A    between atoms: N3_8  and  C4_10 
REMARK    3  A    between atoms: C4_10  and  O2_11 
REMARK    4  A    between atoms: C4_10  and  C5_13 
REMARK    5  A    between atoms: C4_10  and  C6_21 
REMARK    6  A    between atoms: C5_13  and  N4_14 
REMARK    7  A    between atoms: C6_21  and  N8_22 
REMARK    8  A    between atoms: C6_21  and  O3_26 
ROOT
HETATM    1  C4  UNL     1      74.664  13.820  15.304  1.00  0.00     0.205 C 
ENDROOT
BRANCH   1   2
HETATM    2  N3  UNL     1      75.592  13.617  16.350  1.00  0.00    -0.340 N 
HETATM    3  C3  UNL     1      76.797  13.969  16.478  1.00  0.00     0.108 A 
HETATM    4  N2  UNL     1      77.441  13.615  17.631  1.00  0.00    -0.324 N 
HETATM    5  C7  UNL     1      77.525  14.678  15.563  1.00  0.00     0.093 A 
HETATM    6  C2  UNL     1      78.707  13.924  17.887  1.00  0.00     0.174 A 
ATOM      7  H2  UNL     1      76.921  13.085  18.332  1.00  0.00     0.169 HD
HETATM    8  N10 UNL     1      79.382  14.621  16.962  1.00  0.00    -0.327 N 
HETATM    9  C8  UNL     1      78.865  15.029  15.790  1.00  0.00     0.121 A 
ATOM     10  H10 UNL     1      80.354  14.856  17.161  1.00  0.00     0.168 HD
HETATM   11  N9  UNL     1      79.595  15.762  14.828  1.00  0.00    -0.083 NA
ATOM     12  H3  UNL     1      75.223  13.091  17.143  1.00  0.00     0.164 HD
BRANCH   6  13
HETATM   13  C1  UNL     1      79.306  13.502  19.144  1.00  0.00     0.298 C 
HETATM   14  N1  UNL     1      80.191  14.381  19.827  1.00  0.00    -0.054 NA
HETATM   15  O1  UNL     1      79.043  12.359  19.627  1.00  0.00    -0.268 OA
ENDBRANCH   6  13
ENDBRANCH   1   2
BRANCH   1  16
HETATM   16  O2  UNL     1      73.354  13.455  15.571  1.00  0.00    -0.365 OA
ATOM     17  H2  UNL     1      72.734  14.166  15.674  1.00  0.00     0.212 HD
ENDBRANCH   1  16
BRANCH   1  18
HETATM   18  C5  UNL     1      75.111  13.038  14.074  1.00  0.00     0.238 C 
BRANCH  18  19
HETATM   19  N4  UNL     1      73.954  12.437  13.414  1.00  0.00    -0.198 N 
HETATM   20  N5  UNL     1      73.408  11.247  13.320  1.00  0.00    -0.209 N 
HETATM   21  N6  UNL     1      72.477  11.756  12.552  1.00  0.00    -0.211 N 
ATOM     22  H5  UNL     1      73.620  10.321  13.688  1.00  0.00     0.211 HD
HETATM   23  N7  UNL     1      73.020  12.947  12.644  1.00  0.00    -0.209 N 
ATOM     24  H6  UNL     1      71.659  11.377  12.075  1.00  0.00     0.211 HD
ATOM     25  H7  UNL     1      72.808  13.874  12.275  1.00  0.00     0.211 HD
ENDBRANCH  18  19
ENDBRANCH   1  18
BRANCH   1  26
HETATM   26  C6  UNL     1      74.589  15.288  14.874  1.00  0.00     0.374 C 
BRANCH  26  27
HETATM   27  N8  UNL     1      73.247  15.801  15.010  1.00  0.00    -0.048 N 
ATOM     28  H83 UNL     1      72.885  15.662  15.954  1.00  0.00     0.277 HD
ATOM     29  H82 UNL     1      73.230  16.822  14.985  1.00  0.00     0.277 HD
ATOM     30  H81 UNL     1      72.627  15.398  14.307  1.00  0.00     0.277 HD
ENDBRANCH  26  27
BRANCH  26  31
HETATM   31  O3  UNL     1      74.943  15.332  13.537  1.00  0.00    -0.366 OA
ATOM     32  H3  UNL     1      74.307  14.807  13.066  1.00  0.00     0.212 HD
ENDBRANCH  26  31
ENDBRANCH   1  26
TORSDOF 8
ENDMDL
MODEL 3
REMARK VINA RESULT: -7.628327370      1.385      1.605
REMARK  8 active torsions:
REMARK  status: ('A' for Active; 'I' for Inactive)
REMARK    1  A    between atoms: C1_2  and  C2_4 
REMARK    2  A    between atoms: N3_8  and  C4_10 
REMARK    3  A    between atoms: C4_10  and  O2_11 
REMARK    4  A    between atoms: C4_10  and  C5_13 
REMARK    5  A    between atoms: C4_10  and  C6_21 
REMARK    6  A    between atoms: C5_13  and  N4_14 
REMARK    7  A    between atoms: C6_21  and  N8_22 
REMARK    8  A    between atoms: C6_21  and  O3_26 
ROOT
HETATM    1  C4  UNL     1      78.374  13.796  17.841  1.00  0.00     0.205 C 
ENDROOT
BRANCH   1   2
HETATM    2  N3  UNL     1      77.384  13.081  17.129  1.00  0.00    -0.340 N 
HETATM    3  C3  UNL     1      76.663  13.407  16.146  1.00  0.00     0.108 A 
HETATM    4  N2  UNL     1      75.782  12.475  15.672  1.00  0.00    -0.324 N 
HETATM    5  C7  UNL     1      76.681  14.615  15.505  1.00  0.00     0.093 A 
HETATM    6  C2  UNL     1      74.968  12.693  14.645  1.00  0.00     0.174 A 
ATOM      7  H2  UNL     1      75.747  11.565  16.132  1.00  0.00     0.169 HD
HETATM    8  N10 UNL     1      75.020  13.892  14.047  1.00  0.00    -0.327 N 
HETATM    9  C8  UNL     1      75.841  14.890  14.416  1.00  0.00     0.121 A 
ATOM     10  H10 UNL     1      74.394  14.057  13.260  1.00  0.00     0.168 HD
HETATM   11  N9  UNL     1      75.879  16.147  13.771  1.00  0.00    -0.083 NA
ATOM     12  H3  UNL     1      77.224  12.133  17.471  1.00  0.00     0.164 HD
BRANCH   6  13
HETATM   13  C1  UNL     1      74.063  11.639  14.214  1.00  0.00     0.298 C 
HETATM   14  N1  UNL     1      72.804  11.985  13.650  1.00  0.00    -0.054 NA
HETATM   15  O1  UNL     1      74.393  10.420  14.339  1.00  0.00    -0.268 OA
ENDBRANCH   6  13
ENDBRANCH   1   2
BRANCH   1  16
HETATM   16  O2  UNL     1      78.058  15.100  18.185  1.00  0.00    -0.365 OA
ATOM     17  H2  UNL     1      77.597  15.216  19.007  1.00  0.00     0.212 HD
ENDBRANCH   1  16
BRANCH   1  18
HETATM   18  C5  UNL     1      79.655  13.841  17.015  1.00  0.00     0.238 C 
BRANCH  18  19
HETATM   19  N4  UNL     1      80.138  15.218  16.916  1.00  0.00    -0.198 N 
HETATM   20  N5  UNL     1      80.095  16.194  16.041  1.00  0.00    -0.209 N 
HETATM   21  N6  UNL     1      80.780  16.942  16.869  1.00  0.00    -0.211 N 
ATOM     22  H5  UNL     1      79.698  16.317  15.110  1.00  0.00     0.211 HD
HETATM   23  N7  UNL     1      80.825  15.968  17.747  1.00  0.00    -0.209 N 
ATOM     24  H6  UNL     1      81.135  17.898  16.842  1.00  0.00     0.211 HD
ATOM     25  H7  UNL     1      81.224  15.845  18.678  1.00  0.00     0.211 HD
ENDBRANCH  18  19
ENDBRANCH   1  18
BRANCH   1  26
HETATM   26  C6  UNL     1      78.742  13.112  19.163  1.00  0.00     0.374 C 
BRANCH  26  27
HETATM   27  N8  UNL     1      77.560  12.763  19.914  1.00  0.00    -0.048 N 
ATOM     28  H83 UNL     1      77.777  12.585  20.894  1.00  0.00     0.277 HD
ATOM     29  H82 UNL     1      76.941  13.566  20.034  1.00  0.00     0.277 HD
ATOM     30  H81 UNL     1      77.074  11.975  19.487  1.00  0.00     0.277 HD
ENDBRANCH  26  27
BRANCH  26  31
HETATM   31  O3  UNL     1      79.476  14.028  19.897  1.00  0.00    -0.366 OA
ATOM     32  H3  UNL     1      79.108  14.037  20.773  1.00  0.00     0.212 HD
ENDBRANCH  26  31
ENDBRANCH   1  26
TORSDOF 8
ENDMDL
MODEL 4
REMARK VINA RESULT: -7.621975735      2.337      3.791
REMARK  8 active torsions:
REMARK  status: ('A' for Active; 'I' for Inactive)
REMARK    1  A    between atoms: C1_2  and  C2_4 
REMARK    2  A    between atoms: N3_8  and  C4_10 
REMARK    3  A    between atoms: C4_10  and  O2_11 
REMARK    4  A    between atoms: C4_10  and  C5_13 
REMARK    5  A    between atoms: C4_10  and  C6_21 
REMARK    6  A    between atoms: C5_13  and  N4_14 
REMARK    7  A    between atoms: C6_21  and  N8_22 
REMARK    8  A    between atoms: C6_21  and  O3_26 
ROOT
HETATM    1  C4  UNL     1      77.862  13.690  16.294  1.00  0.00     0.205 C 
ENDROOT
BRANCH   1   2
HETATM    2  N3  UNL     1      76.824  14.391  15.641  1.00  0.00    -0.340 N 
HETATM    3  C3  UNL     1      75.803  13.986  15.019  1.00  0.00     0.108 A 
HETATM    4  N2  UNL     1      74.970  14.931  14.487  1.00  0.00    -0.324 N 
HETATM    5  C7  UNL     1      75.450  12.679  14.826  1.00  0.00     0.093 A 
HETATM    6  C2  UNL     1      73.865  14.635  13.812  1.00  0.00     0.174 A 
ATOM      7  H2  UNL     1      75.209  15.915  14.617  1.00  0.00     0.169 HD
HETATM    8  N10 UNL     1      73.558  13.342  13.647  1.00  0.00    -0.327 N 
HETATM    9  C8  UNL     1      74.292  12.320  14.120  1.00  0.00     0.121 A 
ATOM     10  H10 UNL     1      72.709  13.117  13.127  1.00  0.00     0.168 HD
HETATM   11  N9  UNL     1      73.949  10.961  13.934  1.00  0.00    -0.083 NA
ATOM     12  H3  UNL     1      76.917  15.407  15.677  1.00  0.00     0.164 HD
BRANCH   6  13
HETATM   13  C1  UNL     1      73.041  15.711  13.283  1.00  0.00     0.298 C 
HETATM   14  N1  UNL     1      72.645  16.776  14.139  1.00  0.00    -0.054 NA
HETATM   15  O1  UNL     1      72.677  15.701  12.067  1.00  0.00    -0.268 OA
ENDBRANCH   6  13
ENDBRANCH   1   2
BRANCH   1  16
HETATM   16  O2  UNL     1      77.631  12.345  16.538  1.00  0.00    -0.365 OA
ATOM     17  H2  UNL     1      76.860  12.139  17.051  1.00  0.00     0.212 HD
ENDBRANCH   1  16
BRANCH   1  18
HETATM   18  C5  UNL     1      78.149  14.352  17.637  1.00  0.00     0.238 C 
BRANCH  18  19
HETATM   19  N4  UNL     1      78.376  13.332  18.660  1.00  0.00    -0.198 N 
HETATM   20  N5  UNL     1      77.737  12.851  19.700  1.00  0.00    -0.209 N 
HETATM   21  N6  UNL     1      78.737  12.031  19.912  1.00  0.00    -0.211 N 
ATOM     22  H5  UNL     1      76.843  13.036  20.152  1.00  0.00     0.211 HD
HETATM   23  N7  UNL     1      79.379  12.510  18.872  1.00  0.00    -0.209 N 
ATOM     24  H6  UNL     1      78.935  11.310  20.605  1.00  0.00     0.211 HD
ATOM     25  H7  UNL     1      80.274  12.324  18.421  1.00  0.00     0.211 HD
ENDBRANCH  18  19
ENDBRANCH   1  18
BRANCH   1  26
HETATM   26  C6  UNL     1      79.175  13.734  15.507  1.00  0.00     0.374 C 
BRANCH  26  27
HETATM   27  N8  UNL     1      78.930  13.676  14.085  1.00  0.00    -0.048 N 
ATOM     28  H83 UNL     1      78.109  13.112  13.868  1.00  0.00     0.277 HD
ATOM     29  H82 UNL     1      78.604  14.573  13.724  1.00  0.00     0.277 HD
ATOM     30  H81 UNL     1      79.756  13.347  13.584  1.00  0.00     0.277 HD
ENDBRANCH  26  27
BRANCH  26  31
HETATM   31  O3  UNL     1      79.900  12.613  15.874  1.00  0.00    -0.366 OA
ATOM     32  H3  UNL     1      80.538  12.896  16.518  1.00  0.00     0.212 HD
ENDBRANCH  26  31
ENDBRANCH   1  26
TORSDOF 8
ENDMDL
MODEL 5
REMARK VINA RESULT: -7.586679734      1.845      6.342
REMARK  8 active torsions:
REMARK  status: ('A' for Active; 'I' for Inactive)
REMARK    1  A    between atoms: C1_2  and  C2_4 
REMARK    2  A    between atoms: N3_8  and  C4_10 
REMARK    3  A    between atoms: C4_10  and  O2_11 
REMARK    4  A    between atoms: C4_10  and  C5_13 
REMARK    5  A    between atoms: C4_10  and  C6_21 
REMARK    6  A    between atoms: C5_13  and  N4_14 
REMARK    7  A    between atoms: C6_21  and  N8_22 
REMARK    8  A    between atoms: C6_21  and  O3_26 
ROOT
HETATM    1  C4  UNL     1      74.745  12.822  14.276  1.00  0.00     0.205 C 
ENDROOT
BRANCH   1   2
HETATM    2  N3  UNL     1      75.440  12.870  15.505  1.00  0.00    -0.340 N 
HETATM    3  C3  UNL     1      76.484  13.489  15.852  1.00  0.00     0.108 A 
HETATM    4  N2  UNL     1      76.917  13.328  17.139  1.00  0.00    -0.324 N 
HETATM    5  C7  UNL     1      77.229  14.312  15.053  1.00  0.00     0.093 A 
HETATM    6  C2  UNL     1      77.999  13.924  17.626  1.00  0.00     0.174 A 
ATOM      7  H2  UNL     1      76.379  12.720  17.757  1.00  0.00     0.169 HD
HETATM    8  N10 UNL     1      78.699  14.722  16.808  1.00  0.00    -0.327 N 
HETATM    9  C8  UNL     1      78.379  14.962  15.524  1.00  0.00     0.121 A 
ATOM     10  H10 UNL     1      79.530  15.177  17.184  1.00  0.00     0.168 HD
HETATM   11  N9  UNL     1      79.132  15.808  14.678  1.00  0.00    -0.083 NA
ATOM     12  H3  UNL     1      75.025  12.302  16.244  1.00  0.00     0.164 HD
BRANCH   6  13
HETATM   13  C1  UNL     1      78.381  13.691  19.011  1.00  0.00     0.298 C 
HETATM   14  N1  UNL     1      79.606  14.224  19.498  1.00  0.00    -0.054 NA
HETATM   15  O1  UNL     1      77.628  13.016  19.778  1.00  0.00    -0.268 OA
ENDBRANCH   6  13
ENDBRANCH   1   2
BRANCH   1  16
HETATM   16  O2  UNL     1      75.335  13.487  13.214  1.00  0.00    -0.365 OA
ATOM     17  H2  UNL     1      76.163  13.915  13.396  1.00  0.00     0.212 HD
ENDBRANCH   1  16
BRANCH   1  18
HETATM   18  C5  UNL     1      73.351  13.411  14.463  1.00  0.00     0.238 C 
BRANCH  18  19
HETATM   19  N4  UNL     1      73.094  14.425  13.442  1.00  0.00    -0.198 N 
HETATM   20  N5  UNL     1      72.753  14.453  12.175  1.00  0.00    -0.209 N 
HETATM   21  N6  UNL     1      72.788  15.762  12.213  1.00  0.00    -0.211 N 
ATOM     22  H5  UNL     1      72.548  13.753  11.463  1.00  0.00     0.211 HD
HETATM   23  N7  UNL     1      73.130  15.738  13.480  1.00  0.00    -0.209 N 
ATOM     24  H6  UNL     1      72.618  16.501  11.532  1.00  0.00     0.211 HD
ATOM     25  H7  UNL     1      73.335  16.439  14.192  1.00  0.00     0.211 HD
ENDBRANCH  18  19
ENDBRANCH   1  18
BRANCH   1  26
HETATM   26  C6  UNL     1      74.539  11.386  13.783  1.00  0.00     0.374 C 
BRANCH  26  27
HETATM   27  N8  UNL     1      73.170  11.167  13.379  1.00  0.00    -0.048 N 
ATOM     28  H83 UNL     1      72.524  11.293  14.158  1.00  0.00     0.277 HD
ATOM     29  H82 UNL     1      72.833  11.916  12.774  1.00  0.00     0.277 HD
ATOM     30  H81 UNL     1      73.059  10.252  12.943  1.00  0.00     0.277 HD
ENDBRANCH  26  27
BRANCH  26  31
HETATM   31  O3  UNL     1      74.821  10.551  14.851  1.00  0.00    -0.366 OA
ATOM     32  H3  UNL     1      75.436  11.014  15.407  1.00  0.00     0.212 HD
ENDBRANCH  26  31
ENDBRANCH   1  26
TORSDOF 8
ENDMDL
