MODEL 1
REMARK VINA RESULT: -6.257910883      0.000      0.000
REMARK  10 active torsions:
REMARK  status: ('A' for Active; 'I' for Inactive)
REMARK    1  A    between atoms: O1_2  and  C2_3 
REMARK    2  A    between atoms: C2_3  and  C3_5 
REMARK    3  A    between atoms: C4_8  and  N2_9 
REMARK    4  A    between atoms: C5_14  and  N4_15 
REMARK    5  A    between atoms: C6_18  and  O3_19 
REMARK    6  A    between atoms: O3_19  and  C7_20 
REMARK    7  A    between atoms: C7_20  and  N5_21 
REMARK    8  A    between atoms: C7_20  and  C8_25 
REMARK    9  A    between atoms: C8_25  and  C9_30 
REMARK   10  A    between atoms: N6_26  and  O4_28 
ROOT
HETATM    1  C3  UNL     1      77.339  14.168  14.532  1.00  0.00     0.161 A 
HETATM    2  N1  UNL     1      76.409  13.943  13.537  1.00  0.00    -0.183 N 
ATOM      3  H1  UNL     1      76.640  14.192  12.575  1.00  0.00     0.184 HD
HETATM    4  C4  UNL     1      75.215  13.407  13.801  1.00  0.00     0.678 A 
HETATM    5  N3  UNL     1      74.923  13.087  15.063  1.00  0.00    -0.174 N 
ATOM      6  H3  UNL     1      74.009  12.680  15.257  1.00  0.00     0.186 HD
HETATM    7  C5  UNL     1      75.784  13.276  16.114  1.00  0.00     0.151 A 
HETATM    8  C6  UNL     1      77.029  13.831  15.829  1.00  0.00     0.149 A 
ENDROOT
BRANCH   8   9
HETATM    9  O3  UNL     1      77.890  14.004  16.912  1.00  0.00    -0.306 OA
BRANCH   9  10
HETATM   10  C7  UNL     1      78.921  13.146  17.292  1.00  0.00     0.382 C 
BRANCH  10  11
HETATM   11  N5  UNL     1      78.614  12.376  18.506  1.00  0.00    -0.047 N 
ATOM     12  H53 UNL     1      78.294  11.437  18.269  1.00  0.00     0.277 HD
ATOM     13  H52 UNL     1      79.467  12.140  19.012  1.00  0.00     0.277 HD
ATOM     14  H51 UNL     1      77.945  12.843  19.118  1.00  0.00     0.277 HD
ENDBRANCH  10  11
BRANCH  10  15
HETATM   15  C8  UNL     1      80.180  13.872  17.451  1.00  0.00     0.152 C 
HETATM   16  N6  UNL     1      81.183  13.709  16.626  1.00  0.00    -0.264 N 
ATOM     17  H6  UNL     1      82.057  14.221  16.747  1.00  0.00     0.194 HD
BRANCH  16  18
HETATM   18  O4  UNL     1      81.014  12.824  15.592  1.00  0.00    -0.289 OA
ATOM     19  H4  UNL     1      81.347  13.078  14.739  1.00  0.00     0.244 HD
ENDBRANCH  16  18
BRANCH  15  20
HETATM   20  C9  UNL     1      80.423  14.819  18.541  1.00  0.00     0.283 C 
HETATM   21  N7  UNL     1      80.595  14.430  19.888  1.00  0.00    -0.056 NA
HETATM   22  O5  UNL     1      80.478  16.039  18.239  1.00  0.00    -0.270 OA
ENDBRANCH  15  20
ENDBRANCH  10  15
ENDBRANCH   9  10
ENDBRANCH   8   9
BRANCH   1  23
HETATM   23  C2  UNL     1      78.591  14.785  14.152  1.00  0.00     0.313 C 
HETATM   24  O2  UNL     1      79.555  14.162  13.728  1.00  0.00    -0.258 OA
BRANCH  23  25
HETATM   25  O1  UNL     1      78.741  16.169  14.263  1.00  0.00    -0.321 OA
HETATM   26  C1  UNL     1      79.856  16.726  14.927  1.00  0.00     0.213 C 
ENDBRANCH  23  25
ENDBRANCH   1  23
BRANCH   7  27
HETATM   27  N4  UNL     1      75.339  12.972  17.261  1.00  0.00    -0.383 N 
ATOM     28  H42 UNL     1      74.479  13.314  17.687  1.00  0.00     0.157 HD
ATOM     29  H41 UNL     1      75.881  12.285  17.785  1.00  0.00     0.157 HD
ENDBRANCH   7  27
BRANCH   4  30
HETATM   30  N2  UNL     1      74.346  13.198  12.841  1.00  0.00    -0.234 N 
ATOM     31  H22 UNL     1      74.468  13.633  11.926  1.00  0.00     0.174 HD
ATOM     32  H21 UNL     1      73.535  12.600  12.992  1.00  0.00     0.174 HD
ENDBRANCH   4  30
TORSDOF 10
ENDMDL
MODEL 2
REMARK VINA RESULT: -6.240244409      1.372      1.998
REMARK  10 active torsions:
REMARK  status: ('A' for Active; 'I' for Inactive)
REMARK    1  A    between atoms: O1_2  and  C2_3 
REMARK    2  A    between atoms: C2_3  and  C3_5 
REMARK    3  A    between atoms: C4_8  and  N2_9 
REMARK    4  A    between atoms: C5_14  and  N4_15 
REMARK    5  A    between atoms: C6_18  and  O3_19 
REMARK    6  A    between atoms: O3_19  and  C7_20 
REMARK    7  A    between atoms: C7_20  and  N5_21 
REMARK    8  A    between atoms: C7_20  and  C8_25 
REMARK    9  A    between atoms: C8_25  and  C9_30 
REMARK   10  A    between atoms: N6_26  and  O4_28 
ROOT
HETATM    1  C3  UNL     1      77.242  14.112  14.364  1.00  0.00     0.161 A 
HETATM    2  N1  UNL     1      76.394  13.668  13.368  1.00  0.00    -0.183 N 
ATOM      3  H1  UNL     1      76.644  13.830  12.393  1.00  0.00     0.184 HD
HETATM    4  C4  UNL     1      75.254  13.032  13.649  1.00  0.00     0.678 A 
HETATM    5  N3  UNL     1      74.936  12.827  14.929  1.00  0.00    -0.174 N 
ATOM      6  H3  UNL     1      74.063  12.342  15.136  1.00  0.00     0.186 HD
HETATM    7  C5  UNL     1      75.716  13.232  15.981  1.00  0.00     0.151 A 
HETATM    8  C6  UNL     1      76.905  13.891  15.679  1.00  0.00     0.149 A 
ENDROOT
BRANCH   8   9
HETATM    9  O3  UNL     1      77.687  14.284  16.765  1.00  0.00    -0.306 OA
BRANCH   9  10
HETATM   10  C7  UNL     1      78.800  13.613  17.267  1.00  0.00     0.382 C 
BRANCH  10  11
HETATM   11  N5  UNL     1      78.708  12.153  17.123  1.00  0.00    -0.047 N 
ATOM     12  H53 UNL     1      78.571  11.892  16.147  1.00  0.00     0.277 HD
ATOM     13  H52 UNL     1      79.614  11.714  17.287  1.00  0.00     0.277 HD
ATOM     14  H51 UNL     1      77.989  11.737  17.715  1.00  0.00     0.277 HD
ENDBRANCH  10  11
BRANCH  10  15
HETATM   15  C8  UNL     1      79.051  13.976  18.661  1.00  0.00     0.152 C 
HETATM   16  N6  UNL     1      78.217  13.659  19.619  1.00  0.00    -0.264 N 
ATOM     17  H6  UNL     1      78.403  13.918  20.589  1.00  0.00     0.194 HD
BRANCH  16  18
HETATM   18  O4  UNL     1      77.085  12.967  19.272  1.00  0.00    -0.289 OA
ATOM     19  H4  UNL     1      76.517  12.674  19.975  1.00  0.00     0.244 HD
ENDBRANCH  16  18
BRANCH  15  20
HETATM   20  C9  UNL     1      80.234  14.724  19.091  1.00  0.00     0.283 C 
HETATM   21  N7  UNL     1      80.785  15.798  18.359  1.00  0.00    -0.056 NA
HETATM   22  O5  UNL     1      80.771  14.375  20.173  1.00  0.00    -0.270 OA
ENDBRANCH  15  20
ENDBRANCH  10  15
ENDBRANCH   9  10
ENDBRANCH   8   9
BRANCH   1  23
HETATM   23  C2  UNL     1      78.435  14.821  13.959  1.00  0.00     0.313 C 
HETATM   24  O2  UNL     1      78.580  16.031  14.074  1.00  0.00    -0.258 OA
BRANCH  23  25
HETATM   25  O1  UNL     1      79.504  14.114  13.402  1.00  0.00    -0.321 OA
HETATM   26  C1  UNL     1      80.650  13.809  14.169  1.00  0.00     0.213 C 
ENDBRANCH  23  25
ENDBRANCH   1  23
BRANCH   7  27
HETATM   27  N4  UNL     1      75.251  13.012  17.139  1.00  0.00    -0.383 N 
ATOM     28  H42 UNL     1      74.477  13.505  17.584  1.00  0.00     0.157 HD
ATOM     29  H41 UNL     1      75.670  12.237  17.652  1.00  0.00     0.157 HD
ENDBRANCH   7  27
BRANCH   4  30
HETATM   30  N2  UNL     1      74.463  12.616  12.690  1.00  0.00    -0.234 N 
ATOM     31  H22 UNL     1      74.456  13.084  11.783  1.00  0.00     0.174 HD
ATOM     32  H21 UNL     1      73.842  11.821  12.833  1.00  0.00     0.174 HD
ENDBRANCH   4  30
TORSDOF 10
ENDMDL
MODEL 3
REMARK VINA RESULT: -6.197517307      1.897      3.305
REMARK  10 active torsions:
REMARK  status: ('A' for Active; 'I' for Inactive)
REMARK    1  A    between atoms: O1_2  and  C2_3 
REMARK    2  A    between atoms: C2_3  and  C3_5 
REMARK    3  A    between atoms: C4_8  and  N2_9 
REMARK    4  A    between atoms: C5_14  and  N4_15 
REMARK    5  A    between atoms: C6_18  and  O3_19 
REMARK    6  A    between atoms: O3_19  and  C7_20 
REMARK    7  A    between atoms: C7_20  and  N5_21 
REMARK    8  A    between atoms: C7_20  and  C8_25 
REMARK    9  A    between atoms: C8_25  and  C9_30 
REMARK   10  A    between atoms: N6_26  and  O4_28 
ROOT
HETATM    1  C3  UNL     1      76.118  14.078  15.025  1.00  0.00     0.161 A 
HETATM    2  N1  UNL     1      75.389  15.018  14.323  1.00  0.00    -0.183 N 
ATOM      3  H1  UNL     1      74.375  14.921  14.268  1.00  0.00     0.184 HD
HETATM    4  C4  UNL     1      75.976  16.050  13.713  1.00  0.00     0.678 A 
HETATM    5  N3  UNL     1      77.304  16.165  13.789  1.00  0.00    -0.174 N 
ATOM      6  H3  UNL     1      77.746  16.954  13.319  1.00  0.00     0.186 HD
HETATM    7  C5  UNL     1      78.106  15.281  14.463  1.00  0.00     0.151 A 
HETATM    8  C6  UNL     1      77.485  14.210  15.100  1.00  0.00     0.149 A 
ENDROOT
BRANCH   8   9
HETATM    9  O3  UNL     1      78.320  13.331  15.787  1.00  0.00    -0.306 OA
BRANCH   9  10
HETATM   10  C7  UNL     1      78.616  13.366  17.149  1.00  0.00     0.382 C 
BRANCH  10  11
HETATM   11  N5  UNL     1      77.610  14.088  17.940  1.00  0.00    -0.047 N 
ATOM     12  H53 UNL     1      77.785  15.093  17.920  1.00  0.00     0.277 HD
ATOM     13  H52 UNL     1      76.701  14.068  17.477  1.00  0.00     0.277 HD
ATOM     14  H51 UNL     1      77.537  13.752  18.900  1.00  0.00     0.277 HD
ENDBRANCH  10  11
BRANCH  10  15
HETATM   15  C8  UNL     1      79.948  13.921  17.385  1.00  0.00     0.152 C 
HETATM   16  N6  UNL     1      80.974  13.603  16.637  1.00  0.00    -0.264 N 
ATOM     17  H6  UNL     1      81.899  13.997  16.812  1.00  0.00     0.194 HD
BRANCH  16  18
HETATM   18  O4  UNL     1      80.759  12.721  15.609  1.00  0.00    -0.289 OA
ATOM     19  H4  UNL     1      80.267  13.034  14.858  1.00  0.00     0.244 HD
ENDBRANCH  16  18
BRANCH  15  20
HETATM   20  C9  UNL     1      80.242  14.857  18.473  1.00  0.00     0.283 C 
HETATM   21  N7  UNL     1      80.493  14.452  19.802  1.00  0.00    -0.056 NA
HETATM   22  O5  UNL     1      80.266  16.081  18.186  1.00  0.00    -0.270 OA
ENDBRANCH  15  20
ENDBRANCH  10  15
ENDBRANCH   9  10
ENDBRANCH   8   9
BRANCH   1  23
HETATM   23  C2  UNL     1      75.394  12.978  15.622  1.00  0.00     0.313 C 
HETATM   24  O2  UNL     1      74.907  13.013  16.745  1.00  0.00    -0.258 OA
BRANCH  23  25
HETATM   25  O1  UNL     1      75.221  11.793  14.903  1.00  0.00    -0.321 OA
HETATM   26  C1  UNL     1      74.409  11.758  13.748  1.00  0.00     0.213 C 
ENDBRANCH  23  25
ENDBRANCH   1  23
BRANCH   7  27
HETATM   27  N4  UNL     1      79.353  15.497  14.397  1.00  0.00    -0.383 N 
ATOM     28  H42 UNL     1      79.828  16.102  13.728  1.00  0.00     0.157 HD
ATOM     29  H41 UNL     1      79.925  15.050  15.113  1.00  0.00     0.157 HD
ENDBRANCH   7  27
BRANCH   4  30
HETATM   30  N2  UNL     1      75.266  16.932  13.053  1.00  0.00    -0.234 N 
ATOM     31  H22 UNL     1      74.481  17.406  13.499  1.00  0.00     0.174 HD
ATOM     32  H21 UNL     1      75.486  17.160  12.083  1.00  0.00     0.174 HD
ENDBRANCH   4  30
TORSDOF 10
ENDMDL
MODEL 4
REMARK VINA RESULT: -6.085650871      2.178      3.709
REMARK  10 active torsions:
REMARK  status: ('A' for Active; 'I' for Inactive)
REMARK    1  A    between atoms: O1_2  and  C2_3 
REMARK    2  A    between atoms: C2_3  and  C3_5 
REMARK    3  A    between atoms: C4_8  and  N2_9 
REMARK    4  A    between atoms: C5_14  and  N4_15 
REMARK    5  A    between atoms: C6_18  and  O3_19 
REMARK    6  A    between atoms: O3_19  and  C7_20 
REMARK    7  A    between atoms: C7_20  and  N5_21 
REMARK    8  A    between atoms: C7_20  and  C8_25 
REMARK    9  A    between atoms: C8_25  and  C9_30 
REMARK   10  A    between atoms: N6_26  and  O4_28 
ROOT
HETATM    1  C3  UNL     1      76.082  14.184  14.662  1.00  0.00     0.161 A 
HETATM    2  N1  UNL     1      75.935  14.684  13.383  1.00  0.00    -0.183 N 
ATOM      3  H1  UNL     1      75.134  14.392  12.824  1.00  0.00     0.184 HD
HETATM    4  C4  UNL     1      76.814  15.541  12.859  1.00  0.00     0.678 A 
HETATM    5  N3  UNL     1      77.860  15.915  13.599  1.00  0.00    -0.174 N 
ATOM      6  H3  UNL     1      78.529  16.568  13.191  1.00  0.00     0.186 HD
HETATM    7  C5  UNL     1      78.086  15.470  14.876  1.00  0.00     0.151 A 
HETATM    8  C6  UNL     1      77.162  14.580  15.417  1.00  0.00     0.149 A 
ENDROOT
BRANCH   8   9
HETATM    9  O3  UNL     1      77.407  14.149  16.719  1.00  0.00    -0.306 OA
BRANCH   9  10
HETATM   10  C7  UNL     1      78.578  13.554  17.185  1.00  0.00     0.382 C 
BRANCH  10  11
HETATM   11  N5  UNL     1      78.568  12.089  17.066  1.00  0.00    -0.047 N 
ATOM     12  H53 UNL     1      78.010  11.668  17.809  1.00  0.00     0.277 HD
ATOM     13  H52 UNL     1      78.019  11.794  16.259  1.00  0.00     0.277 HD
ATOM     14  H51 UNL     1      79.503  11.682  17.039  1.00  0.00     0.277 HD
ENDBRANCH  10  11
BRANCH  10  15
HETATM   15  C8  UNL     1      78.861  13.953  18.563  1.00  0.00     0.152 C 
HETATM   16  N6  UNL     1      78.054  13.659  19.550  1.00  0.00    -0.264 N 
ATOM     17  H6  UNL     1      78.262  13.944  20.507  1.00  0.00     0.194 HD
BRANCH  16  18
HETATM   18  O4  UNL     1      76.916  12.954  19.249  1.00  0.00    -0.289 OA
ATOM     19  H4  UNL     1      76.088  13.417  19.295  1.00  0.00     0.244 HD
ENDBRANCH  16  18
BRANCH  15  20
HETATM   20  C9  UNL     1      80.051  14.718  18.944  1.00  0.00     0.283 C 
HETATM   21  N7  UNL     1      80.555  15.801  18.192  1.00  0.00    -0.056 NA
HETATM   22  O5  UNL     1      80.640  14.373  20.000  1.00  0.00    -0.270 OA
ENDBRANCH  15  20
ENDBRANCH  10  15
ENDBRANCH   9  10
ENDBRANCH   8   9
BRANCH   1  23
HETATM   23  C2  UNL     1      75.095  13.235  15.127  1.00  0.00     0.313 C 
HETATM   24  O2  UNL     1      74.190  13.518  15.901  1.00  0.00    -0.258 OA
BRANCH  23  25
HETATM   25  O1  UNL     1      75.150  11.910  14.687  1.00  0.00    -0.321 OA
HETATM   26  C1  UNL     1      74.289  11.449  13.666  1.00  0.00     0.213 C 
ENDBRANCH  23  25
ENDBRANCH   1  23
BRANCH   7  27
HETATM   27  N4  UNL     1      79.153  15.875  15.428  1.00  0.00    -0.383 N 
ATOM     28  H42 UNL     1      80.028  15.357  15.507  1.00  0.00     0.157 HD
ATOM     29  H41 UNL     1      79.138  16.828  15.789  1.00  0.00     0.157 HD
ENDBRANCH   7  27
BRANCH   4  30
HETATM   30  N2  UNL     1      76.656  16.007  11.643  1.00  0.00    -0.234 N 
ATOM     31  H22 UNL     1      75.799  15.819  11.123  1.00  0.00     0.174 HD
ATOM     32  H21 UNL     1      77.385  16.562  11.198  1.00  0.00     0.174 HD
ENDBRANCH   4  30
TORSDOF 10
ENDMDL
MODEL 5
REMARK VINA RESULT: -6.030710265      2.103      3.646
REMARK  10 active torsions:
REMARK  status: ('A' for Active; 'I' for Inactive)
REMARK    1  A    between atoms: O1_2  and  C2_3 
REMARK    2  A    between atoms: C2_3  and  C3_5 
REMARK    3  A    between atoms: C4_8  and  N2_9 
REMARK    4  A    between atoms: C5_14  and  N4_15 
REMARK    5  A    between atoms: C6_18  and  O3_19 
REMARK    6  A    between atoms: O3_19  and  C7_20 
REMARK    7  A    between atoms: C7_20  and  N5_21 
REMARK    8  A    between atoms: C7_20  and  C8_25 
REMARK    9  A    between atoms: C8_25  and  C9_30 
REMARK   10  A    between atoms: N6_26  and  O4_28 
ROOT
HETATM    1  C3  UNL     1      76.742  14.591  14.471  1.00  0.00     0.161 A 
HETATM    2  N1  UNL     1      76.782  15.089  13.183  1.00  0.00    -0.183 N 
ATOM      3  H1  UNL     1      76.045  14.832  12.528  1.00  0.00     0.184 HD
HETATM    4  C4  UNL     1      77.761  15.900  12.775  1.00  0.00     0.678 A 
HETATM    5  N3  UNL     1      78.721  16.229  13.641  1.00  0.00    -0.174 N 
ATOM      6  H3  UNL     1      79.467  16.847  13.320  1.00  0.00     0.186 HD
HETATM    7  C5  UNL     1      78.763  15.782  14.936  1.00  0.00     0.151 A 
HETATM    8  C6  UNL     1      77.736  14.940  15.356  1.00  0.00     0.149 A 
ENDROOT
BRANCH   8   9
HETATM    9  O3  UNL     1      77.794  14.507  16.679  1.00  0.00    -0.306 OA
BRANCH   9  10
HETATM   10  C7  UNL     1      78.713  13.605  17.213  1.00  0.00     0.382 C 
BRANCH  10  11
HETATM   11  N5  UNL     1      78.320  12.201  17.027  1.00  0.00    -0.047 N 
ATOM     12  H53 UNL     1      78.311  11.955  16.037  1.00  0.00     0.277 HD
ATOM     13  H52 UNL     1      79.055  11.572  17.349  1.00  0.00     0.277 HD
ATOM     14  H51 UNL     1      77.428  11.973  17.466  1.00  0.00     0.277 HD
ENDBRANCH  10  11
BRANCH  10  15
HETATM   15  C8  UNL     1      78.965  13.883  18.627  1.00  0.00     0.152 C 
HETATM   16  N6  UNL     1      78.043  13.717  19.540  1.00  0.00    -0.264 N 
ATOM     17  H6  UNL     1      78.230  13.915  20.524  1.00  0.00     0.194 HD
BRANCH  16  18
HETATM   18  O4  UNL     1      76.814  13.268  19.126  1.00  0.00    -0.289 OA
ATOM     19  H4  UNL     1      76.647  13.250  18.191  1.00  0.00     0.244 HD
ENDBRANCH  16  18
BRANCH  15  20
HETATM   20  C9  UNL     1      80.250  14.375  19.127  1.00  0.00     0.283 C 
HETATM   21  N7  UNL     1      81.021  13.696  20.097  1.00  0.00    -0.056 NA
HETATM   22  O5  UNL     1      80.672  15.461  18.654  1.00  0.00    -0.270 OA
ENDBRANCH  15  20
ENDBRANCH  10  15
ENDBRANCH   9  10
ENDBRANCH   8   9
BRANCH   1  23
HETATM   23  C2  UNL     1      75.661  13.693  14.808  1.00  0.00     0.313 C 
HETATM   24  O2  UNL     1      75.825  12.532  15.159  1.00  0.00    -0.258 OA
BRANCH  23  25
HETATM   25  O1  UNL     1      74.340  14.144  14.739  1.00  0.00    -0.321 OA
HETATM   26  C1  UNL     1      73.369  13.434  13.999  1.00  0.00     0.213 C 
ENDBRANCH  23  25
ENDBRANCH   1  23
BRANCH   7  27
HETATM   27  N4  UNL     1      79.769  16.139  15.618  1.00  0.00    -0.383 N 
ATOM     28  H42 UNL     1      80.082  15.728  16.497  1.00  0.00     0.157 HD
ATOM     29  H41 UNL     1      80.341  16.884  15.220  1.00  0.00     0.157 HD
ENDBRANCH   7  27
BRANCH   4  30
HETATM   30  N2  UNL     1      77.779  16.365  11.548  1.00  0.00    -0.234 N 
ATOM     31  H22 UNL     1      77.728  15.730  10.752  1.00  0.00     0.174 HD
ATOM     32  H21 UNL     1      77.845  17.367  11.370  1.00  0.00     0.174 HD
ENDBRANCH   4  30
TORSDOF 10
ENDMDL
