MODEL 1
REMARK VINA RESULT: -7.147405190      0.000      0.000
REMARK  9 active torsions:
REMARK  status: ('A' for Active; 'I' for Inactive)
REMARK    1  A    between atoms: N1_1  and  C1_4 
REMARK    2  A    between atoms: C2_7  and  O1_8 
REMARK    3  A    between atoms: C3_12  and  C4_13 
REMARK       I    between atoms: C4_13  and  N4_15 
REMARK    4  A    between atoms: N4_15  and  C5_17 
REMARK    5  A    between atoms: C5_17  and  C6_18 
REMARK    6  A    between atoms: C5_17  and  C7_21 
REMARK       I    between atoms: C7_21  and  N6_23 
REMARK    7  A    between atoms: N6_23  and  N7_25 
REMARK    8  A    between atoms: C8_28  and  N8_29 
REMARK    9  A    between atoms: N8_29  and  O5_31 
ROOT
HETATM    1  C1  UNL     1      79.850  13.802  18.187  1.00  0.00     0.133 A 
HETATM    2  N2  UNL     1      80.633  13.667  17.103  1.00  0.00    -0.307 N 
ATOM      3  H2  UNL     1      81.648  13.657  17.208  1.00  0.00     0.171 HD
HETATM    4  C2  UNL     1      80.087  13.544  15.882  1.00  0.00     0.223 A 
HETATM    5  N3  UNL     1      78.756  13.554  15.708  1.00  0.00    -0.316 N 
ATOM      6  H3  UNL     1      78.372  13.459  14.768  1.00  0.00     0.169 HD
HETATM    7  C3  UNL     1      77.917  13.687  16.755  1.00  0.00     0.136 A 
HETATM    8  C8  UNL     1      78.483  13.812  18.002  1.00  0.00     0.130 A 
ENDROOT
BRANCH   7   9
HETATM    9  C4  UNL     1      76.476  13.702  16.620  1.00  0.00     0.271 C 
HETATM   10  O2  UNL     1      75.767  13.364  17.588  1.00  0.00    -0.266 OA
HETATM   11  N4  UNL     1      75.886  14.097  15.412  1.00  0.00    -0.335 N 
ATOM     12  H4  UNL     1      76.500  14.367  14.644  1.00  0.00     0.164 HD
BRANCH  11  13
HETATM   13  C5  UNL     1      74.452  14.142  15.189  1.00  0.00     0.268 C 
BRANCH  13  14
HETATM   14  C6  UNL     1      74.113  15.453  14.592  1.00  0.00     0.263 C 
HETATM   15  N5  UNL     1      72.797  15.994  14.568  1.00  0.00    -0.060 NA
HETATM   16  O3  UNL     1      75.023  16.137  14.076  1.00  0.00    -0.274 OA
ENDBRANCH  13  14
BRANCH  13  17
HETATM   17  C7  UNL     1      73.991  12.984  14.393  1.00  0.00     0.267 C 
HETATM   18  O4  UNL     1      74.556  11.858  14.576  1.00  0.00    -0.269 OA
HETATM   19  N6  UNL     1      72.956  13.031  13.429  1.00  0.00    -0.274 N 
ATOM     20  H6  UNL     1      72.484  13.920  13.262  1.00  0.00     0.189 HD
BRANCH  19  21
HETATM   21  N7  UNL     1      72.556  11.926  12.706  1.00  0.00    -0.343 N 
ATOM     22  H72 UNL     1      73.250  11.198  12.533  1.00  0.00     0.176 HD
ATOM     23  H71 UNL     1      71.608  11.814  12.345  1.00  0.00     0.176 HD
ENDBRANCH  19  21
ENDBRANCH  13  17
ENDBRANCH  11  13
ENDBRANCH   7   9
BRANCH   8  24
HETATM   24  N8  UNL     1      77.652  13.954  19.143  1.00  0.00    -0.263 N 
ATOM     25  H8  UNL     1      77.129  14.811  19.322  1.00  0.00     0.194 HD
BRANCH  24  26
HETATM   26  O5  UNL     1      77.594  12.966  19.922  1.00  0.00    -0.289 OA
ATOM     27  H5  UNL     1      77.771  13.140  20.839  1.00  0.00     0.244 HD
ENDBRANCH  24  26
ENDBRANCH   8  24
BRANCH   4  28
HETATM   28  O1  UNL     1      80.920  13.405  14.771  1.00  0.00    -0.332 OA
ATOM     29  H1  UNL     1      80.896  12.599  14.270  1.00  0.00     0.220 HD
ENDBRANCH   4  28
BRANCH   1  30
HETATM   30  N1  UNL     1      80.356  13.920  19.366  1.00  0.00    -0.383 N 
ATOM     31  H12 UNL     1      81.280  14.331  19.498  1.00  0.00     0.157 HD
ATOM     32  H11 UNL     1      79.848  13.608  20.193  1.00  0.00     0.157 HD
ENDBRANCH   1  30
TORSDOF 9
ENDMDL
MODEL 2
REMARK VINA RESULT: -7.121781670      1.727      3.430
REMARK  9 active torsions:
REMARK  status: ('A' for Active; 'I' for Inactive)
REMARK    1  A    between atoms: N1_1  and  C1_4 
REMARK    2  A    between atoms: C2_7  and  O1_8 
REMARK    3  A    between atoms: C3_12  and  C4_13 
REMARK       I    between atoms: C4_13  and  N4_15 
REMARK    4  A    between atoms: N4_15  and  C5_17 
REMARK    5  A    between atoms: C5_17  and  C6_18 
REMARK    6  A    between atoms: C5_17  and  C7_21 
REMARK       I    between atoms: C7_21  and  N6_23 
REMARK    7  A    between atoms: N6_23  and  N7_25 
REMARK    8  A    between atoms: C8_28  and  N8_29 
REMARK    9  A    between atoms: N8_29  and  O5_31 
ROOT
HETATM    1  C1  UNL     1      79.751  14.108  17.882  1.00  0.00     0.133 A 
HETATM    2  N2  UNL     1      79.297  13.584  19.034  1.00  0.00    -0.307 N 
ATOM      3  H2  UNL     1      79.924  13.493  19.833  1.00  0.00     0.171 HD
HETATM    4  C2  UNL     1      78.020  13.178  19.138  1.00  0.00     0.223 A 
HETATM    5  N3  UNL     1      77.168  13.282  18.105  1.00  0.00    -0.316 N 
ATOM      6  H3  UNL     1      76.204  12.965  18.215  1.00  0.00     0.169 HD
HETATM    7  C3  UNL     1      77.564  13.798  16.924  1.00  0.00     0.136 A 
HETATM    8  C8  UNL     1      78.872  14.211  16.825  1.00  0.00     0.130 A 
ENDROOT
BRANCH   7   9
HETATM    9  C4  UNL     1      76.684  13.932  15.782  1.00  0.00     0.271 C 
HETATM   10  O2  UNL     1      76.604  15.031  15.198  1.00  0.00    -0.266 OA
HETATM   11  N4  UNL     1      75.933  12.836  15.339  1.00  0.00    -0.335 N 
ATOM     12  H4  UNL     1      76.027  11.955  15.844  1.00  0.00     0.164 HD
BRANCH  11  13
HETATM   13  C5  UNL     1      75.028  12.880  14.205  1.00  0.00     0.268 C 
BRANCH  13  14
HETATM   14  C6  UNL     1      74.511  11.515  13.965  1.00  0.00     0.263 C 
HETATM   15  N5  UNL     1      74.800  10.402  14.802  1.00  0.00    -0.060 NA
HETATM   16  O3  UNL     1      73.775  11.312  12.974  1.00  0.00    -0.274 OA
ENDBRANCH  13  14
BRANCH  13  17
HETATM   17  C7  UNL     1      73.970  13.896  14.396  1.00  0.00     0.267 C 
HETATM   18  O4  UNL     1      73.075  13.682  15.275  1.00  0.00    -0.269 OA
HETATM   19  N6  UNL     1      73.874  15.105  13.667  1.00  0.00    -0.274 N 
ATOM     20  H6  UNL     1      74.579  15.304  12.957  1.00  0.00     0.189 HD
BRANCH  19  21
HETATM   21  N7  UNL     1      72.869  16.028  13.876  1.00  0.00    -0.343 N 
ATOM     22  H72 UNL     1      72.947  16.634  14.693  1.00  0.00     0.176 HD
ATOM     23  H71 UNL     1      72.067  16.122  13.252  1.00  0.00     0.176 HD
ENDBRANCH  19  21
ENDBRANCH  13  17
ENDBRANCH  11  13
ENDBRANCH   7   9
BRANCH   8  24
HETATM   24  N8  UNL     1      79.346  14.764  15.608  1.00  0.00    -0.263 N 
ATOM     25  H8  UNL     1      79.573  14.177  14.804  1.00  0.00     0.194 HD
BRANCH  24  26
HETATM   26  O5  UNL     1      79.474  16.017  15.572  1.00  0.00    -0.289 OA
ATOM     27  H5  UNL     1      79.645  16.448  16.401  1.00  0.00     0.244 HD
ENDBRANCH  24  26
ENDBRANCH   8  24
BRANCH   4  28
HETATM   28  O1  UNL     1      77.570  12.638  20.342  1.00  0.00    -0.332 OA
ATOM     29  H1  UNL     1      76.913  13.104  20.845  1.00  0.00     0.220 HD
ENDBRANCH   4  28
BRANCH   1  30
HETATM   30  N1  UNL     1      80.972  14.502  17.764  1.00  0.00    -0.383 N 
ATOM     31  H12 UNL     1      81.428  14.519  16.852  1.00  0.00     0.157 HD
ATOM     32  H11 UNL     1      81.511  14.804  18.576  1.00  0.00     0.157 HD
ENDBRANCH   1  30
TORSDOF 9
ENDMDL
MODEL 3
REMARK VINA RESULT: -7.043622111      1.642      3.464
REMARK  9 active torsions:
REMARK  status: ('A' for Active; 'I' for Inactive)
REMARK    1  A    between atoms: N1_1  and  C1_4 
REMARK    2  A    between atoms: C2_7  and  O1_8 
REMARK    3  A    between atoms: C3_12  and  C4_13 
REMARK       I    between atoms: C4_13  and  N4_15 
REMARK    4  A    between atoms: N4_15  and  C5_17 
REMARK    5  A    between atoms: C5_17  and  C6_18 
REMARK    6  A    between atoms: C5_17  and  C7_21 
REMARK       I    between atoms: C7_21  and  N6_23 
REMARK    7  A    between atoms: N6_23  and  N7_25 
REMARK    8  A    between atoms: C8_28  and  N8_29 
REMARK    9  A    between atoms: N8_29  and  O5_31 
ROOT
HETATM    1  C1  UNL     1      79.757  14.832  18.024  1.00  0.00     0.133 A 
HETATM    2  N2  UNL     1      79.337  14.129  19.090  1.00  0.00    -0.307 N 
ATOM      3  H2  UNL     1      79.848  14.189  19.972  1.00  0.00     0.171 HD
HETATM    4  C2  UNL     1      78.250  13.345  19.001  1.00  0.00     0.223 A 
HETATM    5  N3  UNL     1      77.556  13.241  17.856  1.00  0.00    -0.316 N 
ATOM      6  H3  UNL     1      76.734  12.638  17.820  1.00  0.00     0.169 HD
HETATM    7  C3  UNL     1      77.927  13.921  16.752  1.00  0.00     0.136 A 
HETATM    8  C8  UNL     1      79.040  14.721  16.851  1.00  0.00     0.130 A 
ENDROOT
BRANCH   7   9
HETATM    9  C4  UNL     1      77.212  13.843  15.495  1.00  0.00     0.271 C 
HETATM   10  O2  UNL     1      77.840  13.585  14.449  1.00  0.00    -0.266 OA
HETATM   11  N4  UNL     1      75.827  14.054  15.458  1.00  0.00    -0.335 N 
ATOM     12  H4  UNL     1      75.350  14.262  16.335  1.00  0.00     0.164 HD
BRANCH  11  13
HETATM   13  C5  UNL     1      75.032  13.995  14.245  1.00  0.00     0.268 C 
BRANCH  13  14
HETATM   14  C6  UNL     1      74.219  12.759  14.278  1.00  0.00     0.263 C 
HETATM   15  N5  UNL     1      74.765  11.457  14.453  1.00  0.00    -0.060 NA
HETATM   16  O3  UNL     1      72.978  12.848  14.149  1.00  0.00    -0.274 OA
ENDBRANCH  13  14
BRANCH  13  17
HETATM   17  C7  UNL     1      74.239  15.229  14.057  1.00  0.00     0.267 C 
HETATM   18  O4  UNL     1      74.411  15.905  12.992  1.00  0.00    -0.269 OA
HETATM   19  N6  UNL     1      73.290  15.724  14.983  1.00  0.00    -0.274 N 
ATOM     20  H6  UNL     1      73.130  15.203  15.845  1.00  0.00     0.189 HD
BRANCH  19  21
HETATM   21  N7  UNL     1      72.570  16.883  14.769  1.00  0.00    -0.343 N 
ATOM     22  H72 UNL     1      73.096  17.737  14.584  1.00  0.00     0.176 HD
ATOM     23  H71 UNL     1      71.550  16.912  14.790  1.00  0.00     0.176 HD
ENDBRANCH  19  21
ENDBRANCH  13  17
ENDBRANCH  11  13
ENDBRANCH   7   9
BRANCH   8  24
HETATM   24  N8  UNL     1      79.479  15.462  15.723  1.00  0.00    -0.263 N 
ATOM     25  H8  UNL     1      79.003  16.312  15.421  1.00  0.00     0.194 HD
BRANCH  24  26
HETATM   26  O5  UNL     1      80.486  15.012  15.114  1.00  0.00    -0.289 OA
ATOM     27  H5  UNL     1      80.701  15.430  14.288  1.00  0.00     0.244 HD
ENDBRANCH  24  26
ENDBRANCH   8  24
BRANCH   4  28
HETATM   28  O1  UNL     1      77.833  12.624  20.119  1.00  0.00    -0.332 OA
ATOM     29  H1  UNL     1      77.123  11.999  20.033  1.00  0.00     0.220 HD
ENDBRANCH   4  28
BRANCH   1  30
HETATM   30  N1  UNL     1      80.797  15.589  18.091  1.00  0.00    -0.383 N 
ATOM     31  H12 UNL     1      80.771  16.544  17.735  1.00  0.00     0.157 HD
ATOM     32  H11 UNL     1      81.670  15.253  18.499  1.00  0.00     0.157 HD
ENDBRANCH   1  30
TORSDOF 9
ENDMDL
MODEL 4
REMARK VINA RESULT: -7.029433474      1.389      2.682
REMARK  9 active torsions:
REMARK  status: ('A' for Active; 'I' for Inactive)
REMARK    1  A    between atoms: N1_1  and  C1_4 
REMARK    2  A    between atoms: C2_7  and  O1_8 
REMARK    3  A    between atoms: C3_12  and  C4_13 
REMARK       I    between atoms: C4_13  and  N4_15 
REMARK    4  A    between atoms: N4_15  and  C5_17 
REMARK    5  A    between atoms: C5_17  and  C6_18 
REMARK    6  A    between atoms: C5_17  and  C7_21 
REMARK       I    between atoms: C7_21  and  N6_23 
REMARK    7  A    between atoms: N6_23  and  N7_25 
REMARK    8  A    between atoms: C8_28  and  N8_29 
REMARK    9  A    between atoms: N8_29  and  O5_31 
ROOT
HETATM    1  C1  UNL     1      79.846  13.585  17.121  1.00  0.00     0.133 A 
HETATM    2  N2  UNL     1      79.707  13.051  18.347  1.00  0.00    -0.307 N 
ATOM      3  H2  UNL     1      80.532  12.747  18.865  1.00  0.00     0.171 HD
HETATM    4  C2  UNL     1      78.488  12.916  18.894  1.00  0.00     0.223 A 
HETATM    5  N3  UNL     1      77.381  13.304  18.240  1.00  0.00    -0.316 N 
ATOM      6  H3  UNL     1      76.469  13.188  18.682  1.00  0.00     0.169 HD
HETATM    7  C3  UNL     1      77.455  13.846  17.007  1.00  0.00     0.136 A 
HETATM    8  C8  UNL     1      78.706  13.982  16.454  1.00  0.00     0.130 A 
ENDROOT
BRANCH   7   9
HETATM    9  C4  UNL     1      76.293  14.282  16.262  1.00  0.00     0.271 C 
HETATM   10  O2  UNL     1      75.516  15.113  16.771  1.00  0.00    -0.266 OA
HETATM   11  N4  UNL     1      76.047  13.774  14.980  1.00  0.00    -0.335 N 
ATOM     12  H4  UNL     1      76.707  13.096  14.598  1.00  0.00     0.164 HD
BRANCH  11  13
HETATM   13  C5  UNL     1      74.909  14.155  14.163  1.00  0.00     0.268 C 
BRANCH  13  14
HETATM   14  C6  UNL     1      75.401  14.951  13.017  1.00  0.00     0.263 C 
HETATM   15  N5  UNL     1      74.558  15.466  11.993  1.00  0.00    -0.060 NA
HETATM   16  O3  UNL     1      76.624  15.196  12.930  1.00  0.00    -0.274 OA
ENDBRANCH  13  14
BRANCH  13  17
HETATM   17  C7  UNL     1      74.105  12.976  13.771  1.00  0.00     0.267 C 
HETATM   18  O4  UNL     1      74.296  11.879  14.388  1.00  0.00    -0.269 OA
HETATM   19  N6  UNL     1      73.126  12.973  12.750  1.00  0.00    -0.274 N 
ATOM     20  H6  UNL     1      72.950  13.839  12.239  1.00  0.00     0.189 HD
BRANCH  19  21
HETATM   21  N7  UNL     1      72.397  11.850  12.415  1.00  0.00    -0.343 N 
ATOM     22  H72 UNL     1      71.689  11.947  11.686  1.00  0.00     0.176 HD
ATOM     23  H71 UNL     1      72.541  10.944  12.862  1.00  0.00     0.176 HD
ENDBRANCH  19  21
ENDBRANCH  13  17
ENDBRANCH  11  13
ENDBRANCH   7   9
BRANCH   8  24
HETATM   24  N8  UNL     1      78.847  14.547  15.160  1.00  0.00    -0.263 N 
ATOM     25  H8  UNL     1      78.853  15.556  15.012  1.00  0.00     0.194 HD
BRANCH  24  26
HETATM   26  O5  UNL     1      78.964  13.735  14.203  1.00  0.00    -0.289 OA
ATOM     27  H5  UNL     1      78.418  13.896  13.443  1.00  0.00     0.244 HD
ENDBRANCH  24  26
ENDBRANCH   8  24
BRANCH   4  28
HETATM   28  O1  UNL     1      78.368  12.359  20.167  1.00  0.00    -0.332 OA
ATOM     29  H1  UNL     1      77.619  12.585  20.705  1.00  0.00     0.220 HD
ENDBRANCH   4  28
BRANCH   1  30
HETATM   30  N1  UNL     1      81.007  13.723  16.581  1.00  0.00    -0.383 N 
ATOM     31  H12 UNL     1      81.561  12.907  16.320  1.00  0.00     0.157 HD
ATOM     32  H11 UNL     1      81.400  14.647  16.401  1.00  0.00     0.157 HD
ENDBRANCH   1  30
TORSDOF 9
ENDMDL
MODEL 5
REMARK VINA RESULT: -7.019397828      1.820      6.590
REMARK  9 active torsions:
REMARK  status: ('A' for Active; 'I' for Inactive)
REMARK    1  A    between atoms: N1_1  and  C1_4 
REMARK    2  A    between atoms: C2_7  and  O1_8 
REMARK    3  A    between atoms: C3_12  and  C4_13 
REMARK       I    between atoms: C4_13  and  N4_15 
REMARK    4  A    between atoms: N4_15  and  C5_17 
REMARK    5  A    between atoms: C5_17  and  C6_18 
REMARK    6  A    between atoms: C5_17  and  C7_21 
REMARK       I    between atoms: C7_21  and  N6_23 
REMARK    7  A    between atoms: N6_23  and  N7_25 
REMARK    8  A    between atoms: C8_28  and  N8_29 
REMARK    9  A    between atoms: N8_29  and  O5_31 
ROOT
HETATM    1  C1  UNL     1      74.377  13.487  12.367  1.00  0.00     0.133 A 
HETATM    2  N2  UNL     1      73.875  12.265  12.616  1.00  0.00    -0.307 N 
ATOM      3  H2  UNL     1      73.228  11.837  11.953  1.00  0.00     0.171 HD
HETATM    4  C2  UNL     1      74.219  11.604  13.733  1.00  0.00     0.223 A 
HETATM    5  N3  UNL     1      75.066  12.139  14.628  1.00  0.00    -0.316 N 
ATOM      6  H3  UNL     1      75.309  11.612  15.467  1.00  0.00     0.169 HD
HETATM    7  C3  UNL     1      75.603  13.361  14.435  1.00  0.00     0.136 A 
HETATM    8  C8  UNL     1      75.246  14.031  13.289  1.00  0.00     0.130 A 
ENDROOT
BRANCH   7   9
HETATM    9  C4  UNL     1      76.521  13.979  15.368  1.00  0.00     0.271 C 
HETATM   10  O2  UNL     1      76.291  15.134  15.778  1.00  0.00    -0.266 OA
HETATM   11  N4  UNL     1      77.656  13.284  15.806  1.00  0.00    -0.335 N 
ATOM     12  H4  UNL     1      77.808  12.341  15.449  1.00  0.00     0.164 HD
BRANCH  11  13
HETATM   13  C5  UNL     1      78.627  13.825  16.739  1.00  0.00     0.268 C 
BRANCH  13  14
HETATM   14  C6  UNL     1      78.369  13.243  18.075  1.00  0.00     0.263 C 
HETATM   15  N5  UNL     1      77.306  13.656  18.926  1.00  0.00    -0.060 NA
HETATM   16  O3  UNL     1      79.118  12.334  18.494  1.00  0.00    -0.274 OA
ENDBRANCH  13  14
BRANCH  13  17
HETATM   17  C7  UNL     1      80.011  13.626  16.256  1.00  0.00     0.267 C 
HETATM   18  O4  UNL     1      80.877  14.523  16.510  1.00  0.00    -0.269 OA
HETATM   19  N6  UNL     1      80.453  12.499  15.523  1.00  0.00    -0.274 N 
ATOM     20  H6  UNL     1      79.781  11.763  15.307  1.00  0.00     0.189 HD
BRANCH  19  21
HETATM   21  N7  UNL     1      81.755  12.352  15.090  1.00  0.00    -0.343 N 
ATOM     22  H72 UNL     1      82.500  12.610  15.738  1.00  0.00     0.176 HD
ATOM     23  H71 UNL     1      81.992  12.000  14.162  1.00  0.00     0.176 HD
ENDBRANCH  19  21
ENDBRANCH  13  17
ENDBRANCH  11  13
ENDBRANCH   7   9
BRANCH   8  24
HETATM   24  N8  UNL     1      75.779  15.320  13.031  1.00  0.00    -0.263 N 
ATOM     25  H8  UNL     1      76.726  15.448  12.672  1.00  0.00     0.194 HD
BRANCH  24  26
HETATM   26  O5  UNL     1      75.022  16.298  13.270  1.00  0.00    -0.289 OA
ATOM     27  H5  UNL     1      75.204  16.790  14.062  1.00  0.00     0.244 HD
ENDBRANCH  24  26
ENDBRANCH   8  24
BRANCH   4  28
HETATM   28  O1  UNL     1      73.686  10.338  13.971  1.00  0.00    -0.332 OA
ATOM     29  H1  UNL     1      72.837  10.261  14.390  1.00  0.00     0.220 HD
ENDBRANCH   4  28
BRANCH   1  30
HETATM   30  N1  UNL     1      74.058  14.135  11.301  1.00  0.00    -0.383 N 
ATOM     31  H12 UNL     1      74.355  15.103  11.170  1.00  0.00     0.157 HD
ATOM     32  H11 UNL     1      73.503  13.701  10.563  1.00  0.00     0.157 HD
ENDBRANCH   1  30
TORSDOF 9
ENDMDL
