MODEL 1
REMARK VINA RESULT: -7.259892686      0.000      0.000
REMARK  8 active torsions:
REMARK  status: ('A' for Active; 'I' for Inactive)
REMARK    1  A    between atoms: N1_1  and  C1_4 
REMARK    2  A    between atoms: C2_7  and  O1_8 
REMARK    3  A    between atoms: O1_8  and  C3_9 
REMARK    4  A    between atoms: C4_10  and  N3_11 
REMARK    5  A    between atoms: N5_18  and  C6_19 
REMARK    6  A    between atoms: C6_19  and  C7_20 
REMARK    7  A    between atoms: C7_20  and  N6_21 
REMARK    8  A    between atoms: C7_20  and  O5_25 
ROOT
HETATM    1  C3  UNL     1      78.962  13.451  16.882  1.00  0.00     0.207 A 
HETATM    2  C4  UNL     1      79.050  13.919  18.214  1.00  0.00     0.224 A 
HETATM    3  C5  UNL     1      80.325  14.411  18.313  1.00  0.00     0.297 A 
HETATM    4  O4  UNL     1      80.774  14.923  19.384  1.00  0.00    -0.264 OA
HETATM    5  N4  UNL     1      80.927  14.242  17.139  1.00  0.00    -0.260 N 
ATOM      6  H4  UNL     1      81.888  14.524  16.943  1.00  0.00     0.190 HD
HETATM    7  N5  UNL     1      80.118  13.658  16.244  1.00  0.00    -0.261 N 
ENDROOT
BRANCH   1   8
HETATM    8  O1  UNL     1      77.799  12.880  16.412  1.00  0.00    -0.257 OA
BRANCH   8   9
HETATM    9  C2  UNL     1      76.761  13.545  15.785  1.00  0.00     0.248 A 
HETATM   10  N2  UNL     1      77.080  14.630  14.994  1.00  0.00    -0.154 N 
HETATM   11  C1  UNL     1      76.095  15.292  14.375  1.00  0.00     0.683 A 
ATOM     12  H2  UNL     1      78.051  14.923  14.884  1.00  0.00     0.188 HD
HETATM   13  N8  UNL     1      74.801  14.960  14.479  1.00  0.00    -0.141 N 
HETATM   14  C8  UNL     1      74.514  13.899  15.255  1.00  0.00     0.341 A 
ATOM     15  H8  UNL     1      74.071  15.484  13.995  1.00  0.00     0.189 HD
HETATM   16  N7  UNL     1      75.489  13.206  15.897  1.00  0.00    -0.273 N 
HETATM   17  O6  UNL     1      73.339  13.503  15.422  1.00  0.00    -0.246 OA
ATOM     18  H7  UNL     1      75.234  12.407  16.477  1.00  0.00     0.174 HD
BRANCH  11  19
HETATM   19  N1  UNL     1      76.463  16.305  13.644  1.00  0.00    -0.234 N 
ATOM     20  H12 UNL     1      77.381  16.732  13.771  1.00  0.00     0.174 HD
ATOM     21  H11 UNL     1      75.783  16.628  12.956  1.00  0.00     0.174 HD
ENDBRANCH  11  19
ENDBRANCH   8   9
ENDBRANCH   1   8
BRANCH   2  22
HETATM   22  N3  UNL     1      78.013  13.866  19.191  1.00  0.00    -0.105 N 
HETATM   23  O2  UNL     1      77.197  14.809  19.339  1.00  0.00    -0.531 OA
HETATM   24  O3  UNL     1      77.838  12.782  20.028  1.00  0.00    -0.531 OA
ENDBRANCH   2  22
BRANCH   7  25
HETATM   25  C6  UNL     1      80.507  13.360  14.870  1.00  0.00     0.212 C 
BRANCH  25  26
HETATM   26  C7  UNL     1      81.967  13.765  14.662  1.00  0.00     0.336 C 
BRANCH  26  27
HETATM   27  N6  UNL     1      82.158  13.880  13.228  1.00  0.00    -0.051 N 
ATOM     28  H63 UNL     1      81.917  13.030  12.717  1.00  0.00     0.277 HD
ATOM     29  H62 UNL     1      81.480  14.495  12.777  1.00  0.00     0.277 HD
ATOM     30  H61 UNL     1      83.125  14.174  13.091  1.00  0.00     0.277 HD
ENDBRANCH  26  27
BRANCH  26  31
HETATM   31  O5  UNL     1      82.824  12.820  15.222  1.00  0.00    -0.369 OA
ATOM     32  H5  UNL     1      83.378  12.433  14.555  1.00  0.00     0.212 HD
ENDBRANCH  26  31
ENDBRANCH  25  26
ENDBRANCH   7  25
TORSDOF 8
ENDMDL
MODEL 2
REMARK VINA RESULT: -7.217408631      1.742      5.413
REMARK  8 active torsions:
REMARK  status: ('A' for Active; 'I' for Inactive)
REMARK    1  A    between atoms: N1_1  and  C1_4 
REMARK    2  A    between atoms: C2_7  and  O1_8 
REMARK    3  A    between atoms: O1_8  and  C3_9 
REMARK    4  A    between atoms: C4_10  and  N3_11 
REMARK    5  A    between atoms: N5_18  and  C6_19 
REMARK    6  A    between atoms: C6_19  and  C7_20 
REMARK    7  A    between atoms: C7_20  and  N6_21 
REMARK    8  A    between atoms: C7_20  and  O5_25 
ROOT
HETATM    1  C3  UNL     1      78.309  13.349  16.856  1.00  0.00     0.207 A 
HETATM    2  C4  UNL     1      78.457  13.645  18.231  1.00  0.00     0.224 A 
HETATM    3  C5  UNL     1      77.314  14.330  18.553  1.00  0.00     0.297 A 
HETATM    4  O4  UNL     1      77.090  14.765  19.723  1.00  0.00    -0.264 OA
HETATM    5  N4  UNL     1      76.565  14.424  17.457  1.00  0.00    -0.260 N 
ATOM      6  H4  UNL     1      75.658  14.889  17.423  1.00  0.00     0.190 HD
HETATM    7  N5  UNL     1      77.148  13.833  16.405  1.00  0.00    -0.261 N 
ENDROOT
BRANCH   1   8
HETATM    8  O1  UNL     1      79.284  12.653  16.177  1.00  0.00    -0.257 OA
BRANCH   8   9
HETATM    9  C2  UNL     1      80.411  13.197  15.585  1.00  0.00     0.248 A 
HETATM   10  N2  UNL     1      81.394  12.327  15.159  1.00  0.00    -0.154 N 
HETATM   11  C1  UNL     1      82.493  12.825  14.582  1.00  0.00     0.683 A 
ATOM     12  H2  UNL     1      81.283  11.320  15.281  1.00  0.00     0.188 HD
HETATM   13  N8  UNL     1      82.700  14.136  14.392  1.00  0.00    -0.141 N 
HETATM   14  C8  UNL     1      81.729  14.965  14.816  1.00  0.00     0.341 A 
ATOM     15  H8  UNL     1      83.550  14.487  13.949  1.00  0.00     0.189 HD
HETATM   16  N7  UNL     1      80.601  14.492  15.405  1.00  0.00    -0.273 N 
HETATM   17  O6  UNL     1      81.819  16.206  14.688  1.00  0.00    -0.246 OA
ATOM     18  H7  UNL     1      79.886  15.149  15.714  1.00  0.00     0.174 HD
BRANCH  11  19
HETATM   19  N1  UNL     1      83.382  11.952  14.201  1.00  0.00    -0.234 N 
ATOM     20  H12 UNL     1      84.153  11.694  14.817  1.00  0.00     0.174 HD
ATOM     21  H11 UNL     1      83.250  11.560  13.269  1.00  0.00     0.174 HD
ENDBRANCH  11  19
ENDBRANCH   8   9
ENDBRANCH   1   8
BRANCH   2  22
HETATM   22  N3  UNL     1      79.569  13.287  19.050  1.00  0.00    -0.105 N 
HETATM   23  O2  UNL     1      79.597  12.205  19.686  1.00  0.00    -0.531 OA
HETATM   24  O3  UNL     1      80.676  14.099  19.193  1.00  0.00    -0.531 OA
ENDBRANCH   2  22
BRANCH   7  25
HETATM   25  C6  UNL     1      76.550  13.771  15.075  1.00  0.00     0.212 C 
BRANCH  25  26
HETATM   26  C7  UNL     1      75.255  12.962  15.144  1.00  0.00     0.336 C 
BRANCH  26  27
HETATM   27  N6  UNL     1      74.169  13.922  15.063  1.00  0.00    -0.051 N 
ATOM     28  H63 UNL     1      74.117  14.400  14.163  1.00  0.00     0.277 HD
ATOM     29  H62 UNL     1      73.246  13.488  15.029  1.00  0.00     0.277 HD
ATOM     30  H61 UNL     1      74.288  14.557  15.852  1.00  0.00     0.277 HD
ENDBRANCH  26  27
BRANCH  26  31
HETATM   31  O5  UNL     1      75.199  12.220  16.322  1.00  0.00    -0.369 OA
ATOM     32  H5  UNL     1      74.341  11.830  16.433  1.00  0.00     0.212 HD
ENDBRANCH  26  31
ENDBRANCH  25  26
ENDBRANCH   7  25
TORSDOF 8
ENDMDL
MODEL 3
REMARK VINA RESULT: -7.102812826      2.082      5.545
REMARK  8 active torsions:
REMARK  status: ('A' for Active; 'I' for Inactive)
REMARK    1  A    between atoms: N1_1  and  C1_4 
REMARK    2  A    between atoms: C2_7  and  O1_8 
REMARK    3  A    between atoms: O1_8  and  C3_9 
REMARK    4  A    between atoms: C4_10  and  N3_11 
REMARK    5  A    between atoms: N5_18  and  C6_19 
REMARK    6  A    between atoms: C6_19  and  C7_20 
REMARK    7  A    between atoms: C7_20  and  N6_21 
REMARK    8  A    between atoms: C7_20  and  O5_25 
ROOT
HETATM    1  C3  UNL     1      78.473  13.276  16.634  1.00  0.00     0.207 A 
HETATM    2  C4  UNL     1      77.318  13.805  16.011  1.00  0.00     0.224 A 
HETATM    3  C5  UNL     1      76.602  14.355  17.043  1.00  0.00     0.297 A 
HETATM    4  O4  UNL     1      75.487  14.932  16.863  1.00  0.00    -0.264 OA
HETATM    5  N4  UNL     1      77.283  14.161  18.170  1.00  0.00    -0.260 N 
ATOM      6  H4  UNL     1      76.970  14.475  19.088  1.00  0.00     0.190 HD
HETATM    7  N5  UNL     1      78.431  13.505  17.950  1.00  0.00    -0.261 N 
ENDROOT
BRANCH   1   8
HETATM    8  O1  UNL     1      79.442  12.637  15.893  1.00  0.00    -0.257 OA
BRANCH   8   9
HETATM    9  C2  UNL     1      80.574  13.222  15.353  1.00  0.00     0.248 A 
HETATM   10  N2  UNL     1      81.648  12.402  15.073  1.00  0.00    -0.154 N 
HETATM   11  C1  UNL     1      82.754  12.941  14.549  1.00  0.00     0.683 A 
ATOM     12  H2  UNL     1      81.598  11.401  15.262  1.00  0.00     0.188 HD
HETATM   13  N8  UNL     1      82.884  14.248  14.278  1.00  0.00    -0.141 N 
HETATM   14  C8  UNL     1      81.825  15.027  14.559  1.00  0.00     0.341 A 
ATOM     15  H8  UNL     1      83.742  14.631  13.879  1.00  0.00     0.189 HD
HETATM   16  N7  UNL     1      80.687  14.512  15.091  1.00  0.00    -0.273 N 
HETATM   17  O6  UNL     1      81.839  16.260  14.346  1.00  0.00    -0.246 OA
ATOM     18  H7  UNL     1      79.904  15.133  15.292  1.00  0.00     0.174 HD
BRANCH  11  19
HETATM   19  N1  UNL     1      83.731  12.114  14.307  1.00  0.00    -0.234 N 
ATOM     20  H12 UNL     1      84.400  12.304  13.561  1.00  0.00     0.174 HD
ATOM     21  H11 UNL     1      83.774  11.288  14.904  1.00  0.00     0.174 HD
ENDBRANCH  11  19
ENDBRANCH   8   9
ENDBRANCH   1   8
BRANCH   2  22
HETATM   22  N3  UNL     1      77.018  13.750  14.619  1.00  0.00    -0.105 N 
HETATM   23  O2  UNL     1      77.650  14.438  13.780  1.00  0.00    -0.531 OA
HETATM   24  O3  UNL     1      76.022  12.942  14.107  1.00  0.00    -0.531 OA
ENDBRANCH   2  22
BRANCH   7  25
HETATM   25  C6  UNL     1      79.385  13.165  19.000  1.00  0.00     0.212 C 
BRANCH  25  26
HETATM   26  C7  UNL     1      80.615  14.065  18.873  1.00  0.00     0.336 C 
BRANCH  26  27
HETATM   27  N6  UNL     1      81.472  13.747  20.001  1.00  0.00    -0.051 N 
ATOM     28  H63 UNL     1      81.367  14.393  20.784  1.00  0.00     0.277 HD
ATOM     29  H62 UNL     1      81.191  12.901  20.496  1.00  0.00     0.277 HD
ATOM     30  H61 UNL     1      82.423  13.706  19.635  1.00  0.00     0.277 HD
ENDBRANCH  26  27
BRANCH  26  31
HETATM   31  O5  UNL     1      80.244  15.407  18.870  1.00  0.00    -0.369 OA
ATOM     32  H5  UNL     1      79.405  15.525  19.300  1.00  0.00     0.212 HD
ENDBRANCH  26  31
ENDBRANCH  25  26
ENDBRANCH   7  25
TORSDOF 8
ENDMDL
MODEL 4
REMARK VINA RESULT: -6.992452089      1.169      1.696
REMARK  8 active torsions:
REMARK  status: ('A' for Active; 'I' for Inactive)
REMARK    1  A    between atoms: N1_1  and  C1_4 
REMARK    2  A    between atoms: C2_7  and  O1_8 
REMARK    3  A    between atoms: O1_8  and  C3_9 
REMARK    4  A    between atoms: C4_10  and  N3_11 
REMARK    5  A    between atoms: N5_18  and  C6_19 
REMARK    6  A    between atoms: C6_19  and  C7_20 
REMARK    7  A    between atoms: C7_20  and  N6_21 
REMARK    8  A    between atoms: C7_20  and  O5_25 
ROOT
HETATM    1  C3  UNL     1      78.946  13.492  16.879  1.00  0.00     0.207 A 
HETATM    2  C4  UNL     1      79.037  13.941  18.217  1.00  0.00     0.224 A 
HETATM    3  C5  UNL     1      80.321  14.409  18.327  1.00  0.00     0.297 A 
HETATM    4  O4  UNL     1      80.775  14.900  19.405  1.00  0.00    -0.264 OA
HETATM    5  N4  UNL     1      80.924  14.245  17.152  1.00  0.00    -0.260 N 
ATOM      6  H4  UNL     1      81.890  14.512  16.963  1.00  0.00     0.190 HD
HETATM    7  N5  UNL     1      80.107  13.687  16.248  1.00  0.00    -0.261 N 
ENDROOT
BRANCH   1   8
HETATM    8  O1  UNL     1      77.775  12.947  16.399  1.00  0.00    -0.257 OA
BRANCH   8   9
HETATM    9  C2  UNL     1      76.893  13.556  15.523  1.00  0.00     0.248 A 
HETATM   10  N2  UNL     1      75.762  12.853  15.162  1.00  0.00    -0.154 N 
HETATM   11  C1  UNL     1      74.891  13.418  14.318  1.00  0.00     0.683 A 
ATOM     12  H2  UNL     1      75.592  11.919  15.533  1.00  0.00     0.188 HD
HETATM   13  N8  UNL     1      75.055  14.641  13.794  1.00  0.00    -0.141 N 
HETATM   14  C8  UNL     1      76.164  15.307  14.160  1.00  0.00     0.341 A 
ATOM     15  H8  UNL     1      74.373  15.046  13.151  1.00  0.00     0.189 HD
HETATM   16  N7  UNL     1      77.068  14.763  15.015  1.00  0.00    -0.273 N 
HETATM   17  O6  UNL     1      76.416  16.455  13.731  1.00  0.00    -0.246 OA
ATOM     18  H7  UNL     1      77.899  15.296  15.270  1.00  0.00     0.174 HD
BRANCH  11  19
HETATM   19  N1  UNL     1      73.843  12.704  14.018  1.00  0.00    -0.234 N 
ATOM     20  H12 UNL     1      73.623  11.859  14.545  1.00  0.00     0.174 HD
ATOM     21  H11 UNL     1      73.279  13.045  13.240  1.00  0.00     0.174 HD
ENDBRANCH  11  19
ENDBRANCH   8   9
ENDBRANCH   1   8
BRANCH   2  22
HETATM   22  N3  UNL     1      77.996  13.894  19.190  1.00  0.00    -0.105 N 
HETATM   23  O2  UNL     1      77.192  14.846  19.343  1.00  0.00    -0.531 OA
HETATM   24  O3  UNL     1      77.806  12.806  20.019  1.00  0.00    -0.531 OA
ENDBRANCH   2  22
BRANCH   7  25
HETATM   25  C6  UNL     1      80.495  13.400  14.871  1.00  0.00     0.212 C 
BRANCH  25  26
HETATM   26  C7  UNL     1      81.960  13.791  14.671  1.00  0.00     0.336 C 
BRANCH  26  27
HETATM   27  N6  UNL     1      82.162  13.894  13.237  1.00  0.00    -0.051 N 
ATOM     28  H63 UNL     1      82.377  13.001  12.793  1.00  0.00     0.277 HD
ATOM     29  H62 UNL     1      81.304  14.088  12.720  1.00  0.00     0.277 HD
ATOM     30  H61 UNL     1      82.886  14.599  13.099  1.00  0.00     0.277 HD
ENDBRANCH  26  27
BRANCH  26  31
HETATM   31  O5  UNL     1      82.805  12.843  15.243  1.00  0.00    -0.369 OA
ATOM     32  H5  UNL     1      82.655  12.781  16.179  1.00  0.00     0.212 HD
ENDBRANCH  26  31
ENDBRANCH  25  26
ENDBRANCH   7  25
TORSDOF 8
ENDMDL
MODEL 5
REMARK VINA RESULT: -6.988585903      1.593      5.311
REMARK  8 active torsions:
REMARK  status: ('A' for Active; 'I' for Inactive)
REMARK    1  A    between atoms: N1_1  and  C1_4 
REMARK    2  A    between atoms: C2_7  and  O1_8 
REMARK    3  A    between atoms: O1_8  and  C3_9 
REMARK    4  A    between atoms: C4_10  and  N3_11 
REMARK    5  A    between atoms: N5_18  and  C6_19 
REMARK    6  A    between atoms: C6_19  and  C7_20 
REMARK    7  A    between atoms: C7_20  and  N6_21 
REMARK    8  A    between atoms: C7_20  and  O5_25 
ROOT
HETATM    1  C3  UNL     1      78.313  13.325  16.841  1.00  0.00     0.207 A 
HETATM    2  C4  UNL     1      78.464  13.631  18.214  1.00  0.00     0.224 A 
HETATM    3  C5  UNL     1      77.322  14.320  18.532  1.00  0.00     0.297 A 
HETATM    4  O4  UNL     1      77.101  14.765  19.699  1.00  0.00    -0.264 OA
HETATM    5  N4  UNL     1      76.572  14.407  17.436  1.00  0.00    -0.260 N 
ATOM      6  H4  UNL     1      75.665  14.872  17.400  1.00  0.00     0.190 HD
HETATM    7  N5  UNL     1      77.152  13.806  16.388  1.00  0.00    -0.261 N 
ENDROOT
BRANCH   1   8
HETATM    8  O1  UNL     1      79.287  12.622  16.166  1.00  0.00    -0.257 OA
BRANCH   8   9
HETATM    9  C2  UNL     1      80.423  13.158  15.584  1.00  0.00     0.248 A 
HETATM   10  N2  UNL     1      80.490  14.530  15.456  1.00  0.00    -0.154 N 
HETATM   11  C1  UNL     1      81.577  15.076  14.899  1.00  0.00     0.683 A 
ATOM     12  H2  UNL     1      79.723  15.119  15.781  1.00  0.00     0.188 HD
HETATM   13  N8  UNL     1      82.618  14.359  14.451  1.00  0.00    -0.141 N 
HETATM   14  C8  UNL     1      82.530  13.024  14.587  1.00  0.00     0.341 A 
ATOM     15  H8  UNL     1      83.434  14.804  14.030  1.00  0.00     0.189 HD
HETATM   16  N7  UNL     1      81.441  12.439  15.148  1.00  0.00    -0.273 N 
HETATM   17  O6  UNL     1      83.444  12.261  14.203  1.00  0.00    -0.246 OA
ATOM     18  H7  UNL     1      81.409  11.423  15.234  1.00  0.00     0.174 HD
BRANCH  11  19
HETATM   19  N1  UNL     1      81.579  16.375  14.808  1.00  0.00    -0.234 N 
ATOM     20  H12 UNL     1      80.707  16.888  14.676  1.00  0.00     0.174 HD
ATOM     21  H11 UNL     1      82.492  16.825  14.878  1.00  0.00     0.174 HD
ENDBRANCH  11  19
ENDBRANCH   8   9
ENDBRANCH   1   8
BRANCH   2  22
HETATM   22  N3  UNL     1      79.576  13.279  19.034  1.00  0.00    -0.105 N 
HETATM   23  O2  UNL     1      79.606  12.200  19.676  1.00  0.00    -0.531 OA
HETATM   24  O3  UNL     1      80.683  14.092  19.172  1.00  0.00    -0.531 OA
ENDBRANCH   2  22
BRANCH   7  25
HETATM   25  C6  UNL     1      76.553  13.735  15.060  1.00  0.00     0.212 C 
BRANCH  25  26
HETATM   26  C7  UNL     1      75.254  12.932  15.138  1.00  0.00     0.336 C 
BRANCH  26  27
HETATM   27  N6  UNL     1      74.172  13.896  15.042  1.00  0.00    -0.051 N 
ATOM     28  H63 UNL     1      74.339  14.624  14.346  1.00  0.00     0.277 HD
ATOM     29  H62 UNL     1      73.325  13.513  14.622  1.00  0.00     0.277 HD
ATOM     30  H61 UNL     1      74.029  14.261  15.983  1.00  0.00     0.277 HD
ENDBRANCH  26  27
BRANCH  26  31
HETATM   31  O5  UNL     1      75.193  12.208  16.325  1.00  0.00    -0.369 OA
ATOM     32  H5  UNL     1      74.330  12.274  16.716  1.00  0.00     0.212 HD
ENDBRANCH  26  31
ENDBRANCH  25  26
ENDBRANCH   7  25
TORSDOF 8
ENDMDL
