MODEL 1
REMARK VINA RESULT: -8.549306952      0.000      0.000
REMARK  15 active torsions:
REMARK  status: ('A' for Active; 'I' for Inactive)
REMARK    1  A    between atoms: C2_7  and  C3_8 
REMARK    2  A    between atoms: C3_8  and  N3_9 
REMARK       I    between atoms: N3_9  and  C4_11 
REMARK    3  A    between atoms: C4_11  and  C5_13 
REMARK    4  A    between atoms: C5_13  and  S1_14 
REMARK    5  A    between atoms: S1_14  and  C6_15 
REMARK    6  A    between atoms: N6_19  and  N7_20 
REMARK    7  A    between atoms: C7_25  and  O2_26 
REMARK    8  A    between atoms: O2_26  and  C8_27 
REMARK    9  A    between atoms: C9_28  and  N9_29 
REMARK   10  A    between atoms: C11_34  and  N10_35 
REMARK   11  A    between atoms: C12_39  and  O3_40 
REMARK   12  A    between atoms: C13_42  and  O4_43 
REMARK   13  A    between atoms: C14_45  and  N11_46 
REMARK   14  A    between atoms: C15_50  and  O5_51 
REMARK   15  A    between atoms: C16_53  and  O6_54 
ROOT
HETATM    1  N1  UNL     1      18.643  13.984  35.993  1.00  0.00    -0.387 N 
ATOM      2  H11 UNL     1      19.475  13.520  36.358  1.00  0.00     0.157 HD
ATOM      3  H12 UNL     1      18.634  14.874  35.495  1.00  0.00     0.157 HD
HETATM    4  C1  UNL     1      17.545  13.359  36.216  1.00  0.00     0.107 C 
HETATM    5  N2  UNL     1      16.351  14.025  35.693  1.00  0.00    -0.344 N 
ATOM      6  H2  UNL     1      16.484  14.706  34.946  1.00  0.00     0.167 HD
HETATM    7  C2  UNL     1      15.033  13.801  36.137  1.00  0.00     0.057 C 
HETATM    8  C7  UNL     1      14.456  12.493  35.514  1.00  0.00     0.206 C 
HETATM    9  C14 UNL     1      15.730  11.658  35.259  1.00  0.00     0.249 C 
HETATM   10  C15 UNL     1      16.331  11.232  36.591  1.00  0.00     0.187 C 
HETATM   11  C16 UNL     1      17.558  12.066  36.940  1.00  0.00     0.215 C 
ENDROOT
BRANCH   8  12
HETATM   12  O2  UNL     1      13.718  11.768  36.422  1.00  0.00    -0.367 OA
BRANCH  12  13
HETATM   13  C8  UNL     1      12.403  11.492  36.057  1.00  0.00     0.184 C 
HETATM   14  C9  UNL     1      11.509  12.471  36.776  1.00  0.00     0.217 C 
HETATM   15  C10 UNL     1      10.073  12.139  36.340  1.00  0.00     0.071 C 
HETATM   16  C11 UNL     1       9.745  10.890  37.170  1.00  0.00     0.216 C 
HETATM   17  C12 UNL     1      10.642   9.786  36.758  1.00  0.00     0.179 C 
HETATM   18  C13 UNL     1      12.058  10.110  36.481  1.00  0.00     0.180 C 
BRANCH  14  19
HETATM   19  N9  UNL     1      11.642  12.259  38.194  1.00  0.00    -0.072 N 
ATOM     20  H93 UNL     1      10.838  11.774  38.594  1.00  0.00     0.274 HD
ATOM     21  H92 UNL     1      12.352  11.563  38.421  1.00  0.00     0.274 HD
ATOM     22  H91 UNL     1      11.818  13.158  38.643  1.00  0.00     0.274 HD
ENDBRANCH  14  19
BRANCH  16  23
HETATM   23  N10 UNL     1       8.360  10.557  36.835  1.00  0.00    -0.072 N 
ATOM     24 3H10 UNL     1       7.819  11.348  36.486  1.00  0.00     0.274 HD
ATOM     25 2H10 UNL     1       8.267   9.973  36.005  1.00  0.00     0.274 HD
ATOM     26 1H10 UNL     1       7.972  10.136  37.680  1.00  0.00     0.274 HD
ENDBRANCH  16  23
BRANCH  17  27
HETATM   27  O3  UNL     1      10.023   9.070  35.699  1.00  0.00    -0.391 OA
ATOM     28  H3  UNL     1      10.628   8.408  35.387  1.00  0.00     0.210 HD
ENDBRANCH  17  27
BRANCH  18  29
HETATM   29  O4  UNL     1      12.850   9.694  37.571  1.00  0.00    -0.390 OA
ATOM     30  H4  UNL     1      13.773   9.848  37.407  1.00  0.00     0.210 HD
ENDBRANCH  18  29
ENDBRANCH  12  13
ENDBRANCH   8  12
BRANCH   7  31
HETATM   31  C3  UNL     1      14.053  14.886  36.179  1.00  0.00     0.118 C 
BRANCH  31  32
HETATM   32  N3  UNL     1      13.603  15.595  35.069  1.00  0.00    -0.335 N 
HETATM   33  C4  UNL     1      12.346  15.992  34.629  1.00  0.00     0.231 C 
HETATM   34  O1  UNL     1      11.286  15.721  35.233  1.00  0.00    -0.272 OA
ATOM     35  H3  UNL     1      14.356  15.886  34.445  1.00  0.00     0.168 HD
BRANCH  33  36
HETATM   36  C5  UNL     1      12.162  16.799  33.358  1.00  0.00     0.185 C 
BRANCH  36  37
HETATM   37  S1  UNL     1      10.690  17.861  33.564  1.00  0.00    -0.082 SA
BRANCH  37  38
HETATM   38  C6  UNL     1      10.966  19.466  32.860  1.00  0.00     0.175 A 
HETATM   39  N4  UNL     1      11.400  20.562  33.503  1.00  0.00    -0.260 N 
HETATM   40  N5  UNL     1      11.461  21.551  32.598  1.00  0.00     0.019 NA
ATOM     41  H4  UNL     1      11.639  20.630  34.492  1.00  0.00     0.186 HD
HETATM   42  N6  UNL     1      11.075  21.092  31.408  1.00  0.00    -0.120 N 
HETATM   43  N8  UNL     1      10.779  19.823  31.594  1.00  0.00    -0.244 N 
ATOM     44  H8  UNL     1      10.449  19.195  30.862  1.00  0.00     0.192 HD
BRANCH  42  45
HETATM   45  N7  UNL     1      11.000  21.825  30.213  1.00  0.00    -0.310 N 
ATOM     46  H72 UNL     1      10.614  22.759  30.077  1.00  0.00     0.180 HD
ATOM     47  H71 UNL     1      11.329  21.526  29.295  1.00  0.00     0.180 HD
ENDBRANCH  42  45
ENDBRANCH  37  38
ENDBRANCH  36  37
ENDBRANCH  33  36
ENDBRANCH  31  32
ENDBRANCH   7  31
BRANCH   9  48
HETATM   48  N11 UNL     1      15.478  10.485  34.478  1.00  0.00    -0.070 N 
ATOM     49 3H11 UNL     1      15.635  10.667  33.486  1.00  0.00     0.275 HD
ATOM     50 2H11 UNL     1      16.201   9.782  34.634  1.00  0.00     0.275 HD
ATOM     51 1H11 UNL     1      14.549  10.096  34.636  1.00  0.00     0.275 HD
ENDBRANCH   9  48
BRANCH  10  52
HETATM   52  O5  UNL     1      16.651   9.887  36.625  1.00  0.00    -0.390 OA
ATOM     53  H5  UNL     1      15.898   9.327  36.473  1.00  0.00     0.210 HD
ENDBRANCH  10  52
BRANCH  11  54
HETATM   54  O6  UNL     1      17.651  12.293  38.314  1.00  0.00    -0.385 OA
ATOM     55  H6  UNL     1      16.878  12.753  38.619  1.00  0.00     0.210 HD
ENDBRANCH  11  54
TORSDOF 15
ENDMDL
MODEL 2
REMARK VINA RESULT: -8.502225623      1.394      1.587
REMARK  15 active torsions:
REMARK  status: ('A' for Active; 'I' for Inactive)
REMARK    1  A    between atoms: C2_7  and  C3_8 
REMARK    2  A    between atoms: C3_8  and  N3_9 
REMARK       I    between atoms: N3_9  and  C4_11 
REMARK    3  A    between atoms: C4_11  and  C5_13 
REMARK    4  A    between atoms: C5_13  and  S1_14 
REMARK    5  A    between atoms: S1_14  and  C6_15 
REMARK    6  A    between atoms: N6_19  and  N7_20 
REMARK    7  A    between atoms: C7_25  and  O2_26 
REMARK    8  A    between atoms: O2_26  and  C8_27 
REMARK    9  A    between atoms: C9_28  and  N9_29 
REMARK   10  A    between atoms: C11_34  and  N10_35 
REMARK   11  A    between atoms: C12_39  and  O3_40 
REMARK   12  A    between atoms: C13_42  and  O4_43 
REMARK   13  A    between atoms: C14_45  and  N11_46 
REMARK   14  A    between atoms: C15_50  and  O5_51 
REMARK   15  A    between atoms: C16_53  and  O6_54 
ROOT
HETATM    1  N1  UNL     1      17.154  13.564  35.318  1.00  0.00    -0.387 N 
ATOM      2  H11 UNL     1      17.972  12.965  35.205  1.00  0.00     0.157 HD
ATOM      3  H12 UNL     1      17.149  14.580  35.224  1.00  0.00     0.157 HD
HETATM    4  C1  UNL     1      16.073  12.938  35.609  1.00  0.00     0.107 C 
HETATM    5  N2  UNL     1      14.899  13.798  35.771  1.00  0.00    -0.344 N 
ATOM      6  H2  UNL     1      14.932  14.721  35.337  1.00  0.00     0.167 HD
HETATM    7  C2  UNL     1      13.729  13.455  36.475  1.00  0.00     0.057 C 
HETATM    8  C7  UNL     1      12.814  12.536  35.609  1.00  0.00     0.206 C 
HETATM    9  C14 UNL     1      13.830  11.838  34.681  1.00  0.00     0.249 C 
HETATM   10  C15 UNL     1      14.691  10.885  35.497  1.00  0.00     0.187 C 
HETATM   11  C16 UNL     1      16.080  11.463  35.745  1.00  0.00     0.215 C 
ENDROOT
BRANCH   8  12
HETATM   12  O2  UNL     1      12.242  11.527  36.352  1.00  0.00    -0.367 OA
BRANCH  12  13
HETATM   13  C8  UNL     1      10.874  11.337  36.171  1.00  0.00     0.184 C 
HETATM   14  C9  UNL     1      10.163  11.965  37.343  1.00  0.00     0.217 C 
HETATM   15  C10 UNL     1       8.661  11.742  37.100  1.00  0.00     0.071 C 
HETATM   16  C11 UNL     1       8.468  10.269  37.488  1.00  0.00     0.216 C 
HETATM   17  C12 UNL     1       9.239   9.418  36.554  1.00  0.00     0.179 C 
HETATM   18  C13 UNL     1      10.583   9.880  36.143  1.00  0.00     0.180 C 
BRANCH  14  19
HETATM   19  N9  UNL     1      10.562  11.279  38.545  1.00  0.00    -0.072 N 
ATOM     20  H93 UNL     1      11.547  11.011  38.533  1.00  0.00     0.274 HD
ATOM     21  H92 UNL     1      10.596  11.899  39.355  1.00  0.00     0.274 HD
ATOM     22  H91 UNL     1       9.942  10.482  38.687  1.00  0.00     0.274 HD
ENDBRANCH  14  19
BRANCH  16  23
HETATM   23  N10 UNL     1       7.036  10.013  37.329  1.00  0.00    -0.072 N 
ATOM     24 3H10 UNL     1       6.457  10.454  38.043  1.00  0.00     0.274 HD
ATOM     25 2H10 UNL     1       6.620  10.487  36.528  1.00  0.00     0.274 HD
ATOM     26 1H10 UNL     1       6.946   8.997  37.297  1.00  0.00     0.274 HD
ENDBRANCH  16  23
BRANCH  17  27
HETATM   27  O3  UNL     1       8.408   9.088  35.450  1.00  0.00    -0.391 OA
ATOM     28  H3  UNL     1       8.916   9.175  34.652  1.00  0.00     0.210 HD
ENDBRANCH  17  27
BRANCH  18  29
HETATM   29  O4  UNL     1      11.560   9.146  36.846  1.00  0.00    -0.390 OA
ATOM     30  H4  UNL     1      11.166   8.580  37.499  1.00  0.00     0.210 HD
ENDBRANCH  18  29
ENDBRANCH  12  13
ENDBRANCH   8  12
BRANCH   7  31
HETATM   31  C3  UNL     1      12.973  14.460  37.224  1.00  0.00     0.118 C 
BRANCH  31  32
HETATM   32  N3  UNL     1      12.182  15.451  36.651  1.00  0.00    -0.335 N 
HETATM   33  C4  UNL     1      12.325  16.268  35.537  1.00  0.00     0.231 C 
HETATM   34  O1  UNL     1      13.327  16.249  34.792  1.00  0.00    -0.272 OA
ATOM     35  H3  UNL     1      11.310  15.611  37.157  1.00  0.00     0.168 HD
BRANCH  33  36
HETATM   36  C5  UNL     1      11.255  17.265  35.135  1.00  0.00     0.185 C 
BRANCH  36  37
HETATM   37  S1  UNL     1      11.302  17.451  33.317  1.00  0.00    -0.082 SA
BRANCH  37  38
HETATM   38  C6  UNL     1      11.309  19.164  32.858  1.00  0.00     0.175 A 
HETATM   39  N4  UNL     1      11.690  20.200  33.624  1.00  0.00    -0.260 N 
HETATM   40  N5  UNL     1      11.531  21.312  32.889  1.00  0.00     0.019 NA
ATOM     41  H4  UNL     1      12.035  20.152  34.582  1.00  0.00     0.186 HD
HETATM   42  N6  UNL     1      11.061  20.988  31.684  1.00  0.00    -0.120 N 
HETATM   43  N8  UNL     1      10.935  19.678  31.692  1.00  0.00    -0.244 N 
ATOM     44  H8  UNL     1      10.594  19.127  30.904  1.00  0.00     0.192 HD
BRANCH  42  45
HETATM   45  N7  UNL     1      10.763  21.874  30.637  1.00  0.00    -0.310 N 
ATOM     46  H72 UNL     1      11.019  22.858  30.560  1.00  0.00     0.180 HD
ATOM     47  H71 UNL     1      10.242  21.657  29.787  1.00  0.00     0.180 HD
ENDBRANCH  42  45
ENDBRANCH  37  38
ENDBRANCH  36  37
ENDBRANCH  33  36
ENDBRANCH  31  32
ENDBRANCH   7  31
BRANCH   9  48
HETATM   48  N11 UNL     1      13.204  11.095  33.629  1.00  0.00    -0.070 N 
ATOM     49 3H11 UNL     1      13.555  10.137  33.600  1.00  0.00     0.275 HD
ATOM     50 2H11 UNL     1      12.226  10.906  33.849  1.00  0.00     0.275 HD
ATOM     51 1H11 UNL     1      13.294  11.545  32.719  1.00  0.00     0.275 HD
ENDBRANCH   9  48
BRANCH  10  52
HETATM   52  O5  UNL     1      14.799   9.633  34.917  1.00  0.00    -0.390 OA
ATOM     53  H5  UNL     1      15.188   8.992  35.500  1.00  0.00     0.210 HD
ENDBRANCH  10  52
BRANCH  11  54
HETATM   54  O6  UNL     1      16.569  11.105  37.003  1.00  0.00    -0.385 OA
ATOM     55  H6  UNL     1      17.129  10.341  36.926  1.00  0.00     0.210 HD
ENDBRANCH  11  54
TORSDOF 15
ENDMDL
MODEL 3
REMARK VINA RESULT: -8.236684743      3.565      6.653
REMARK  15 active torsions:
REMARK  status: ('A' for Active; 'I' for Inactive)
REMARK    1  A    between atoms: C2_7  and  C3_8 
REMARK    2  A    between atoms: C3_8  and  N3_9 
REMARK       I    between atoms: N3_9  and  C4_11 
REMARK    3  A    between atoms: C4_11  and  C5_13 
REMARK    4  A    between atoms: C5_13  and  S1_14 
REMARK    5  A    between atoms: S1_14  and  C6_15 
REMARK    6  A    between atoms: N6_19  and  N7_20 
REMARK    7  A    between atoms: C7_25  and  O2_26 
REMARK    8  A    between atoms: O2_26  and  C8_27 
REMARK    9  A    between atoms: C9_28  and  N9_29 
REMARK   10  A    between atoms: C11_34  and  N10_35 
REMARK   11  A    between atoms: C12_39  and  O3_40 
REMARK   12  A    between atoms: C13_42  and  O4_43 
REMARK   13  A    between atoms: C14_45  and  N11_46 
REMARK   14  A    between atoms: C15_50  and  O5_51 
REMARK   15  A    between atoms: C16_53  and  O6_54 
ROOT
HETATM    1  N1  UNL     1      15.332  10.488  36.475  1.00  0.00    -0.387 N 
ATOM      2  H11 UNL     1      15.764   9.568  36.389  1.00  0.00     0.157 HD
ATOM      3  H12 UNL     1      14.330  10.666  36.538  1.00  0.00     0.157 HD
HETATM    4  C1  UNL     1      16.163  11.465  36.493  1.00  0.00     0.107 C 
HETATM    5  N2  UNL     1      15.543  12.786  36.616  1.00  0.00    -0.344 N 
ATOM      6  H2  UNL     1      14.599  12.826  36.999  1.00  0.00     0.167 HD
HETATM    7  C2  UNL     1      16.145  14.006  36.249  1.00  0.00     0.057 C 
HETATM    8  C7  UNL     1      17.144  14.480  37.348  1.00  0.00     0.206 C 
HETATM    9  C14 UNL     1      17.574  13.149  38.001  1.00  0.00     0.249 C 
HETATM   10  C15 UNL     1      18.417  12.351  37.017  1.00  0.00     0.187 C 
HETATM   11  C16 UNL     1      17.619  11.206  36.401  1.00  0.00     0.215 C 
ENDROOT
BRANCH   8  12
HETATM   12  O2  UNL     1      18.294  15.012  36.808  1.00  0.00    -0.367 OA
BRANCH  12  13
HETATM   13  C8  UNL     1      18.912  16.012  37.555  1.00  0.00     0.184 C 
HETATM   14  C9  UNL     1      17.832  16.864  38.170  1.00  0.00     0.217 C 
HETATM   15  C10 UNL     1      18.554  17.945  38.990  1.00  0.00     0.071 C 
HETATM   16  C11 UNL     1      19.026  18.931  37.913  1.00  0.00     0.216 C 
HETATM   17  C12 UNL     1      20.007  18.255  37.034  1.00  0.00     0.179 C 
HETATM   18  C13 UNL     1      19.744  16.850  36.654  1.00  0.00     0.180 C 
BRANCH  14  19
HETATM   19  N9  UNL     1      17.078  17.486  37.112  1.00  0.00    -0.072 N 
ATOM     20  H93 UNL     1      17.223  18.496  37.071  1.00  0.00     0.274 HD
ATOM     21  H92 UNL     1      17.440  17.255  36.187  1.00  0.00     0.274 HD
ATOM     22  H91 UNL     1      16.096  17.237  37.222  1.00  0.00     0.274 HD
ENDBRANCH  14  19
BRANCH  16  23
HETATM   23  N10 UNL     1      19.678  20.018  38.643  1.00  0.00    -0.072 N 
ATOM     24 3H10 UNL     1      19.036  20.584  39.199  1.00  0.00     0.274 HD
ATOM     25 2H10 UNL     1      20.260  19.702  39.419  1.00  0.00     0.274 HD
ATOM     26 1H10 UNL     1      20.188  20.550  37.938  1.00  0.00     0.274 HD
ENDBRANCH  16  23
BRANCH  17  27
HETATM   27  O3  UNL     1      21.307  18.446  37.575  1.00  0.00    -0.391 OA
ATOM     28  H3  UNL     1      21.931  17.977  37.036  1.00  0.00     0.210 HD
ENDBRANCH  17  27
BRANCH  18  29
HETATM   29  O4  UNL     1      19.266  16.811  35.327  1.00  0.00    -0.390 OA
ATOM     30  H4  UNL     1      19.664  17.490  34.795  1.00  0.00     0.210 HD
ENDBRANCH  18  29
ENDBRANCH  12  13
ENDBRANCH   8  12
BRANCH   7  31
HETATM   31  C3  UNL     1      15.354  15.103  35.693  1.00  0.00     0.118 C 
BRANCH  31  32
HETATM   32  N3  UNL     1      14.038  15.393  36.043  1.00  0.00    -0.335 N 
HETATM   33  C4  UNL     1      13.454  16.332  36.883  1.00  0.00     0.231 C 
HETATM   34  O1  UNL     1      14.107  17.158  37.556  1.00  0.00    -0.272 OA
ATOM     35  H3  UNL     1      13.358  14.786  35.585  1.00  0.00     0.168 HD
BRANCH  33  36
HETATM   36  C5  UNL     1      11.949  16.428  37.050  1.00  0.00     0.185 C 
BRANCH  36  37
HETATM   37  S1  UNL     1      11.167  15.927  35.476  1.00  0.00    -0.082 SA
BRANCH  37  38
HETATM   38  C6  UNL     1      11.077  17.296  34.352  1.00  0.00     0.175 A 
HETATM   39  N4  UNL     1      11.274  18.592  34.645  1.00  0.00    -0.260 N 
HETATM   40  N5  UNL     1      11.103  19.283  33.508  1.00  0.00     0.019 NA
ATOM     41  H4  UNL     1      11.509  18.977  35.560  1.00  0.00     0.186 HD
HETATM   42  N6  UNL     1      10.806  18.445  32.515  1.00  0.00    -0.120 N 
HETATM   43  N8  UNL     1      10.796  17.244  33.054  1.00  0.00    -0.244 N 
ATOM     44  H8  UNL     1      10.597  16.384  32.543  1.00  0.00     0.192 HD
BRANCH  42  45
HETATM   45  N7  UNL     1      10.554  18.788  31.178  1.00  0.00    -0.310 N 
ATOM     46  H72 UNL     1       9.710  18.607  30.635  1.00  0.00     0.180 HD
ATOM     47  H71 UNL     1      11.187  19.281  30.547  1.00  0.00     0.180 HD
ENDBRANCH  42  45
ENDBRANCH  37  38
ENDBRANCH  36  37
ENDBRANCH  33  36
ENDBRANCH  31  32
ENDBRANCH   7  31
BRANCH   9  48
HETATM   48  N11 UNL     1      18.334  13.338  39.200  1.00  0.00    -0.070 N 
ATOM     49 3H11 UNL     1      19.332  13.385  38.995  1.00  0.00     0.275 HD
ATOM     50 2H11 UNL     1      18.197  14.276  39.574  1.00  0.00     0.275 HD
ATOM     51 1H11 UNL     1      18.140  12.630  39.907  1.00  0.00     0.275 HD
ENDBRANCH   9  48
BRANCH  10  52
HETATM   52  O5  UNL     1      19.580  11.861  37.584  1.00  0.00    -0.390 OA
ATOM     53  H5  UNL     1      20.228  11.613  36.935  1.00  0.00     0.210 HD
ENDBRANCH  10  52
BRANCH  11  54
HETATM   54  O6  UNL     1      17.979  10.986  35.070  1.00  0.00    -0.385 OA
ATOM     55  H6  UNL     1      18.913  11.123  34.962  1.00  0.00     0.210 HD
ENDBRANCH  11  54
TORSDOF 15
ENDMDL
MODEL 4
REMARK VINA RESULT: -8.218513549      3.832      8.135
REMARK  15 active torsions:
REMARK  status: ('A' for Active; 'I' for Inactive)
REMARK    1  A    between atoms: C2_7  and  C3_8 
REMARK    2  A    between atoms: C3_8  and  N3_9 
REMARK       I    between atoms: N3_9  and  C4_11 
REMARK    3  A    between atoms: C4_11  and  C5_13 
REMARK    4  A    between atoms: C5_13  and  S1_14 
REMARK    5  A    between atoms: S1_14  and  C6_15 
REMARK    6  A    between atoms: N6_19  and  N7_20 
REMARK    7  A    between atoms: C7_25  and  O2_26 
REMARK    8  A    between atoms: O2_26  and  C8_27 
REMARK    9  A    between atoms: C9_28  and  N9_29 
REMARK   10  A    between atoms: C11_34  and  N10_35 
REMARK   11  A    between atoms: C12_39  and  O3_40 
REMARK   12  A    between atoms: C13_42  and  O4_43 
REMARK   13  A    between atoms: C14_45  and  N11_46 
REMARK   14  A    between atoms: C15_50  and  O5_51 
REMARK   15  A    between atoms: C16_53  and  O6_54 
ROOT
HETATM    1  N1  UNL     1      15.376  10.476  36.488  1.00  0.00    -0.387 N 
ATOM      2  H11 UNL     1      15.812   9.558  36.403  1.00  0.00     0.157 HD
ATOM      3  H12 UNL     1      14.372  10.650  36.547  1.00  0.00     0.157 HD
HETATM    4  C1  UNL     1      16.202  11.457  36.508  1.00  0.00     0.107 C 
HETATM    5  N2  UNL     1      15.576  12.775  36.629  1.00  0.00    -0.344 N 
ATOM      6  H2  UNL     1      14.630  12.811  37.009  1.00  0.00     0.167 HD
HETATM    7  C2  UNL     1      16.174  13.997  36.264  1.00  0.00     0.057 C 
HETATM    8  C7  UNL     1      17.166  14.476  37.368  1.00  0.00     0.206 C 
HETATM    9  C14 UNL     1      17.600  13.147  38.023  1.00  0.00     0.249 C 
HETATM   10  C15 UNL     1      18.450  12.353  37.041  1.00  0.00     0.187 C 
HETATM   11  C16 UNL     1      17.660  11.205  36.422  1.00  0.00     0.215 C 
ENDROOT
BRANCH   8  12
HETATM   12  O2  UNL     1      18.315  15.014  36.832  1.00  0.00    -0.367 OA
BRANCH  12  13
HETATM   13  C8  UNL     1      18.925  16.017  37.581  1.00  0.00     0.184 C 
HETATM   14  C9  UNL     1      17.838  16.867  38.186  1.00  0.00     0.217 C 
HETATM   15  C10 UNL     1      18.551  17.953  39.008  1.00  0.00     0.071 C 
HETATM   16  C11 UNL     1      19.028  18.938  37.932  1.00  0.00     0.216 C 
HETATM   17  C12 UNL     1      20.017  18.263  37.062  1.00  0.00     0.179 C 
HETATM   18  C13 UNL     1      19.761  16.856  36.683  1.00  0.00     0.180 C 
BRANCH  14  19
HETATM   19  N9  UNL     1      17.090  17.485  37.121  1.00  0.00    -0.072 N 
ATOM     20  H93 UNL     1      17.050  16.903  36.284  1.00  0.00     0.274 HD
ATOM     21  H92 UNL     1      16.089  17.519  37.316  1.00  0.00     0.274 HD
ATOM     22  H91 UNL     1      17.484  18.407  36.938  1.00  0.00     0.274 HD
ENDBRANCH  14  19
BRANCH  16  23
HETATM   23  N10 UNL     1      19.671  20.029  38.664  1.00  0.00    -0.072 N 
ATOM     24 3H10 UNL     1      19.183  20.294  39.520  1.00  0.00     0.274 HD
ATOM     25 2H10 UNL     1      20.551  19.765  39.105  1.00  0.00     0.274 HD
ATOM     26 1H10 UNL     1      19.761  20.790  37.990  1.00  0.00     0.274 HD
ENDBRANCH  16  23
BRANCH  17  27
HETATM   27  O3  UNL     1      21.312  18.459  37.611  1.00  0.00    -0.391 OA
ATOM     28  H3  UNL     1      21.424  19.383  37.801  1.00  0.00     0.210 HD
ENDBRANCH  17  27
BRANCH  18  29
HETATM   29  O4  UNL     1      19.292  16.812  35.353  1.00  0.00    -0.390 OA
ATOM     30  H4  UNL     1      18.533  16.247  35.272  1.00  0.00     0.210 HD
ENDBRANCH  18  29
ENDBRANCH  12  13
ENDBRANCH   8  12
BRANCH   7  31
HETATM   31  C3  UNL     1      15.379  15.092  35.706  1.00  0.00     0.118 C 
BRANCH  31  32
HETATM   32  N3  UNL     1      13.988  15.134  35.681  1.00  0.00    -0.335 N 
HETATM   33  C4  UNL     1      13.013  14.306  35.141  1.00  0.00     0.231 C 
HETATM   34  O1  UNL     1      13.269  13.270  34.492  1.00  0.00    -0.272 OA
ATOM     35  H3  UNL     1      13.603  15.947  36.163  1.00  0.00     0.168 HD
BRANCH  33  36
HETATM   36  C5  UNL     1      11.534  14.605  35.300  1.00  0.00     0.185 C 
BRANCH  36  37
HETATM   37  S1  UNL     1      10.922  13.692  36.760  1.00  0.00    -0.082 SA
BRANCH  37  38
HETATM   38  C6  UNL     1      10.703  11.972  36.384  1.00  0.00     0.175 A 
HETATM   39  N4  UNL     1      11.101  11.336  35.270  1.00  0.00    -0.260 N 
HETATM   40  N5  UNL     1      10.731  10.053  35.396  1.00  0.00     0.019 NA
ATOM     41  H4  UNL     1      11.592  11.751  34.478  1.00  0.00     0.186 HD
HETATM   42  N6  UNL     1      10.113   9.878  36.565  1.00  0.00    -0.120 N 
HETATM   43  N8  UNL     1      10.110  11.060  37.145  1.00  0.00    -0.244 N 
ATOM     44  H8  UNL     1       9.703  11.251  38.061  1.00  0.00     0.192 HD
BRANCH  42  45
HETATM   45  N7  UNL     1       9.579   8.678  37.057  1.00  0.00    -0.310 N 
ATOM     46  H72 UNL     1       9.626   7.752  36.632  1.00  0.00     0.180 HD
ATOM     47  H71 UNL     1       9.062   8.555  37.928  1.00  0.00     0.180 HD
ENDBRANCH  42  45
ENDBRANCH  37  38
ENDBRANCH  36  37
ENDBRANCH  33  36
ENDBRANCH  31  32
ENDBRANCH   7  31
BRANCH   9  48
HETATM   48  N11 UNL     1      18.354  13.340  39.224  1.00  0.00    -0.070 N 
ATOM     49 3H11 UNL     1      18.071  14.197  39.699  1.00  0.00     0.275 HD
ATOM     50 2H11 UNL     1      18.085  12.660  39.936  1.00  0.00     0.275 HD
ATOM     51 1H11 UNL     1      19.361  13.325  39.066  1.00  0.00     0.275 HD
ENDBRANCH   9  48
BRANCH  10  52
HETATM   52  O5  UNL     1      19.613  11.869  37.613  1.00  0.00    -0.390 OA
ATOM     53  H5  UNL     1      19.502  11.006  37.995  1.00  0.00     0.210 HD
ENDBRANCH  10  52
BRANCH  11  54
HETATM   54  O6  UNL     1      18.026  10.986  35.094  1.00  0.00    -0.385 OA
ATOM     55  H6  UNL     1      18.674  11.628  34.827  1.00  0.00     0.210 HD
ENDBRANCH  11  54
TORSDOF 15
ENDMDL
MODEL 5
REMARK VINA RESULT: -8.193958855      2.646      3.684
REMARK  15 active torsions:
REMARK  status: ('A' for Active; 'I' for Inactive)
REMARK    1  A    between atoms: C2_7  and  C3_8 
REMARK    2  A    between atoms: C3_8  and  N3_9 
REMARK       I    between atoms: N3_9  and  C4_11 
REMARK    3  A    between atoms: C4_11  and  C5_13 
REMARK    4  A    between atoms: C5_13  and  S1_14 
REMARK    5  A    between atoms: S1_14  and  C6_15 
REMARK    6  A    between atoms: N6_19  and  N7_20 
REMARK    7  A    between atoms: C7_25  and  O2_26 
REMARK    8  A    between atoms: O2_26  and  C8_27 
REMARK    9  A    between atoms: C9_28  and  N9_29 
REMARK   10  A    between atoms: C11_34  and  N10_35 
REMARK   11  A    between atoms: C12_39  and  O3_40 
REMARK   12  A    between atoms: C13_42  and  O4_43 
REMARK   13  A    between atoms: C14_45  and  N11_46 
REMARK   14  A    between atoms: C15_50  and  O5_51 
REMARK   15  A    between atoms: C16_53  and  O6_54 
ROOT
HETATM    1  N1  UNL     1      14.605  10.280  33.574  1.00  0.00    -0.387 N 
ATOM      2  H11 UNL     1      15.124   9.431  33.798  1.00  0.00     0.157 HD
ATOM      3  H12 UNL     1      14.686  10.811  32.706  1.00  0.00     0.157 HD
HETATM    4  C1  UNL     1      13.806  10.673  34.497  1.00  0.00     0.107 C 
HETATM    5  N2  UNL     1      13.061  11.892  34.177  1.00  0.00    -0.344 N 
ATOM      6  H2  UNL     1      12.968  12.138  33.192  1.00  0.00     0.167 HD
HETATM    7  C2  UNL     1      12.463  12.752  35.118  1.00  0.00     0.057 C 
HETATM    8  C7  UNL     1      11.103  12.169  35.611  1.00  0.00     0.206 C 
HETATM    9  C14 UNL     1      11.307  10.650  35.425  1.00  0.00     0.249 C 
HETATM   10  C15 UNL     1      12.340  10.152  36.426  1.00  0.00     0.187 C 
HETATM   11  C16 UNL     1      13.688   9.903  35.758  1.00  0.00     0.215 C 
ENDROOT
BRANCH   8  12
HETATM   12  O2  UNL     1      10.922  12.351  36.964  1.00  0.00    -0.367 OA
BRANCH  12  13
HETATM   13  C8  UNL     1       9.672  12.826  37.353  1.00  0.00     0.184 C 
HETATM   14  C9  UNL     1       9.890  13.973  38.306  1.00  0.00     0.217 C 
HETATM   15  C10 UNL     1       8.491  14.472  38.702  1.00  0.00     0.071 C 
HETATM   16  C11 UNL     1       8.030  13.422  39.722  1.00  0.00     0.216 C 
HETATM   17  C12 UNL     1       7.901  12.112  39.044  1.00  0.00     0.179 C 
HETATM   18  C13 UNL     1       8.933  11.742  38.051  1.00  0.00     0.180 C 
BRANCH  14  19
HETATM   19  N9  UNL     1      10.571  13.478  39.474  1.00  0.00    -0.072 N 
ATOM     20  H93 UNL     1       9.963  12.921  40.075  1.00  0.00     0.274 HD
ATOM     21  H92 UNL     1      11.251  12.751  39.250  1.00  0.00     0.274 HD
ATOM     22  H91 UNL     1      10.990  14.266  39.966  1.00  0.00     0.274 HD
ENDBRANCH  14  19
BRANCH  16  23
HETATM   23  N10 UNL     1       6.717  13.877  40.179  1.00  0.00    -0.072 N 
ATOM     24 3H10 UNL     1       6.491  14.831  39.897  1.00  0.00     0.274 HD
ATOM     25 2H10 UNL     1       5.936  13.424  39.704  1.00  0.00     0.274 HD
ATOM     26 1H10 UNL     1       6.719  13.737  41.190  1.00  0.00     0.274 HD
ENDBRANCH  16  23
BRANCH  17  27
HETATM   27  O3  UNL     1       6.580  11.992  38.538  1.00  0.00    -0.391 OA
ATOM     28  H3  UNL     1       6.604  11.464  37.749  1.00  0.00     0.210 HD
ENDBRANCH  17  27
BRANCH  18  29
HETATM   29  O4  UNL     1       9.816  10.805  38.626  1.00  0.00    -0.390 OA
ATOM     30  H4  UNL     1       9.357  10.203  39.200  1.00  0.00     0.210 HD
ENDBRANCH  18  29
ENDBRANCH  12  13
ENDBRANCH   8  12
BRANCH   7  31
HETATM   31  C3  UNL     1      12.410  14.198  34.897  1.00  0.00     0.118 C 
BRANCH  31  32
HETATM   32  N3  UNL     1      11.615  15.085  35.617  1.00  0.00    -0.335 N 
HETATM   33  C4  UNL     1      11.625  16.464  35.783  1.00  0.00     0.231 C 
HETATM   34  O1  UNL     1      12.472  17.216  35.256  1.00  0.00    -0.272 OA
ATOM     35  H3  UNL     1      10.866  14.624  36.134  1.00  0.00     0.168 HD
BRANCH  33  36
HETATM   36  C5  UNL     1      10.589  17.174  36.633  1.00  0.00     0.185 C 
BRANCH  36  37
HETATM   37  S1  UNL     1       9.065  17.358  35.640  1.00  0.00    -0.082 SA
BRANCH  37  38
HETATM   38  C6  UNL     1       9.369  18.337  34.193  1.00  0.00     0.175 A 
HETATM   39  N4  UNL     1       8.786  19.504  33.875  1.00  0.00    -0.260 N 
HETATM   40  N5  UNL     1       9.301  19.894  32.699  1.00  0.00     0.019 NA
ATOM     41  H4  UNL     1       8.084  20.001  34.424  1.00  0.00     0.186 HD
HETATM   42  N6  UNL     1      10.192  18.994  32.281  1.00  0.00    -0.120 N 
HETATM   43  N8  UNL     1      10.213  18.058  33.206  1.00  0.00    -0.244 N 
ATOM     44  H8  UNL     1      10.803  17.227  33.171  1.00  0.00     0.192 HD
BRANCH  42  45
HETATM   45  N7  UNL     1      10.939  19.047  31.094  1.00  0.00    -0.310 N 
ATOM     46  H72 UNL     1      10.687  19.502  30.217  1.00  0.00     0.180 HD
ATOM     47  H71 UNL     1      11.858  18.634  30.936  1.00  0.00     0.180 HD
ENDBRANCH  42  45
ENDBRANCH  37  38
ENDBRANCH  36  37
ENDBRANCH  33  36
ENDBRANCH  31  32
ENDBRANCH   7  31
BRANCH   9  48
HETATM   48  N11 UNL     1      10.101   9.901  35.606  1.00  0.00    -0.070 N 
ATOM     49 3H11 UNL     1       9.281  10.478  35.416  1.00  0.00     0.275 HD
ATOM     50 2H11 UNL     1       9.990   9.206  34.867  1.00  0.00     0.275 HD
ATOM     51 1H11 UNL     1      10.038   9.468  36.527  1.00  0.00     0.275 HD
ENDBRANCH   9  48
BRANCH  10  52
HETATM   52  O5  UNL     1      11.929   9.012  37.093  1.00  0.00    -0.390 OA
ATOM     53  H5  UNL     1      12.483   8.802  37.836  1.00  0.00     0.210 HD
ENDBRANCH  10  52
BRANCH  11  54
HETATM   54  O6  UNL     1      14.749  10.218  36.608  1.00  0.00    -0.385 OA
ATOM     55  H6  UNL     1      14.602   9.835  37.465  1.00  0.00     0.210 HD
ENDBRANCH  11  54
TORSDOF 15
ENDMDL
