MODEL 1
REMARK VINA RESULT: -8.769602316      0.000      0.000
REMARK  14 active torsions:
REMARK  status: ('A' for Active; 'I' for Inactive)
REMARK       I    between atoms: C1_2  and  N2_4 
REMARK    1  A    between atoms: N2_4  and  C2_6 
REMARK    2  A    between atoms: C2_6  and  C3_7 
REMARK    3  A    between atoms: C4_11  and  C5_12 
REMARK    4  A    between atoms: C4_11  and  N5_32 
REMARK    5  A    between atoms: C5_12  and  C6_13 
REMARK    6  A    between atoms: C5_12  and  O3_16 
REMARK    7  A    between atoms: C6_13  and  O2_14 
REMARK    8  A    between atoms: O3_16  and  C7_17 
REMARK    9  A    between atoms: C8_21  and  O4_22 
REMARK   10  A    between atoms: C9_24  and  O5_25 
REMARK   11  A    between atoms: C10_27  and  C11_28 
REMARK   12  A    between atoms: C11_28  and  O6_29 
REMARK   13  A    between atoms: C15_41  and  N8_42 
REMARK   14  A    between atoms: N8_42  and  O9_44 
ROOT
HETATM    1  C3  UNL     1       8.391  13.473  41.993  1.00  0.00     0.348 C 
HETATM    2  N3  UNL     1       7.655  12.538  41.168  1.00  0.00     0.008 N 
ATOM      3  H31 UNL     1       6.812  12.083  41.517  1.00  0.00     0.286 HD
ATOM      4  H32 UNL     1       8.037  11.619  40.948  1.00  0.00     0.286 HD
HETATM    5  C4  UNL     1       7.579  13.568  40.163  1.00  0.00     0.347 C 
HETATM    6  O10 UNL     1       7.788  14.489  41.215  1.00  0.00    -0.300 OA
ENDROOT
BRANCH   5   7
HETATM    7  C5  UNL     1       8.726  13.552  39.193  1.00  0.00     0.236 C 
BRANCH   7   8
HETATM    8  C6  UNL     1       8.581  14.808  38.320  1.00  0.00     0.203 C 
BRANCH   8   9
HETATM    9  O2  UNL     1       8.912  14.506  36.978  1.00  0.00    -0.398 OA
ATOM     10  H2  UNL     1       9.846  14.351  36.901  1.00  0.00     0.209 HD
ENDBRANCH   8   9
ENDBRANCH   7   8
BRANCH   7  11
HETATM   11  O3  UNL     1       8.726  12.416  38.451  1.00  0.00    -0.324 OA
BRANCH  11  12
HETATM   12  C7  UNL     1       9.844  11.623  38.491  1.00  0.00     0.473 C 
HETATM   13  N4  UNL     1      10.856  12.243  37.652  1.00  0.00     0.004 N 
HETATM   14  C8  UNL     1      11.577  11.276  36.860  1.00  0.00     0.356 C 
ATOM     15  H42 UNL     1      10.451  12.972  37.065  1.00  0.00     0.286 HD
ATOM     16  H41 UNL     1      11.493  12.815  38.206  1.00  0.00     0.286 HD
HETATM   17  C9  UNL     1      10.652  10.492  35.975  1.00  0.00     0.205 C 
HETATM   18  C10 UNL     1       9.403  10.192  36.733  1.00  0.00     0.183 C 
HETATM   19  O7  UNL     1       9.547  10.346  38.108  1.00  0.00    -0.329 OA
BRANCH  14  20
HETATM   20  O4  UNL     1      12.360  10.476  37.683  1.00  0.00    -0.368 OA
ATOM     21  H4  UNL     1      11.941   9.633  37.810  1.00  0.00     0.212 HD
ENDBRANCH  14  20
BRANCH  17  22
HETATM   22  O5  UNL     1      11.261   9.351  35.455  1.00  0.00    -0.389 OA
ATOM     23  H5  UNL     1      12.043   9.557  34.956  1.00  0.00     0.210 HD
ENDBRANCH  17  22
BRANCH  18  24
HETATM   24  C11 UNL     1       8.801   8.849  36.407  1.00  0.00     0.199 C 
BRANCH  24  25
HETATM   25  O6  UNL     1       9.378   7.899  37.246  1.00  0.00    -0.398 OA
ATOM     26  H6  UNL     1       8.987   7.055  37.052  1.00  0.00     0.209 HD
ENDBRANCH  24  25
ENDBRANCH  18  24
ENDBRANCH  11  12
ENDBRANCH   7  11
ENDBRANCH   5   7
BRANCH   5  27
HETATM   27  N5  UNL     1       6.284  13.689  39.541  1.00  0.00    -0.268 N 
HETATM   28  C12 UNL     1       5.502  14.776  39.613  1.00  0.00     0.190 A 
HETATM   29  N6  UNL     1       4.368  14.574  38.926  1.00  0.00    -0.345 N 
HETATM   30  C13 UNL     1       4.439  13.326  38.407  1.00  0.00     0.147 A 
ATOM     31  H6  UNL     1       3.599  15.235  38.816  1.00  0.00     0.167 HD
HETATM   32  C14 UNL     1       3.570  12.587  37.622  1.00  0.00     0.290 A 
HETATM   33  C16 UNL     1       5.632  12.759  38.782  1.00  0.00     0.160 A 
HETATM   34  O8  UNL     1       2.482  13.105  37.279  1.00  0.00    -0.265 OA
HETATM   35  N7  UNL     1       3.929  11.350  37.261  1.00  0.00    -0.152 N 
HETATM   36  C15 UNL     1       5.085  10.819  37.632  1.00  0.00     0.706 A 
ATOM     37  H7  UNL     1       3.295  10.800  36.683  1.00  0.00     0.187 HD
HETATM   38  N9  UNL     1       5.931  11.521  38.389  1.00  0.00    -0.172 N 
ATOM     39  H9  UNL     1       6.818  11.104  38.671  1.00  0.00     0.186 HD
BRANCH  36  40
HETATM   40  N8  UNL     1       5.380   9.609  37.249  1.00  0.00    -0.098 N 
ATOM     41  H8  UNL     1       6.256   9.185  37.554  1.00  0.00     0.213 HD
BRANCH  40  42
HETATM   42  O9  UNL     1       4.535   8.899  36.445  1.00  0.00    -0.276 OA
ATOM     43  H9  UNL     1       4.729   8.766  35.525  1.00  0.00     0.245 HD
ENDBRANCH  40  42
ENDBRANCH  36  40
ENDBRANCH   5  27
BRANCH   1  44
HETATM   44  C2  UNL     1       7.896  13.424  43.405  1.00  0.00     0.185 C 
BRANCH  44  45
HETATM   45  N2  UNL     1       7.570  12.096  43.824  1.00  0.00    -0.341 N 
HETATM   46  C1  UNL     1       7.918  11.538  45.083  1.00  0.00     0.328 C 
HETATM   47  N1  UNL     1       7.550  10.189  45.419  1.00  0.00    -0.040 NA
HETATM   48  O1  UNL     1       8.552  12.241  45.896  1.00  0.00    -0.251 OA
ATOM     49  H2  UNL     1       7.052  11.507  43.171  1.00  0.00     0.163 HD
ENDBRANCH  44  45
ENDBRANCH   1  44
TORSDOF 14
ENDMDL
MODEL 2
REMARK VINA RESULT: -8.392611985      5.065      9.981
REMARK  14 active torsions:
REMARK  status: ('A' for Active; 'I' for Inactive)
REMARK       I    between atoms: C1_2  and  N2_4 
REMARK    1  A    between atoms: N2_4  and  C2_6 
REMARK    2  A    between atoms: C2_6  and  C3_7 
REMARK    3  A    between atoms: C4_11  and  C5_12 
REMARK    4  A    between atoms: C4_11  and  N5_32 
REMARK    5  A    between atoms: C5_12  and  C6_13 
REMARK    6  A    between atoms: C5_12  and  O3_16 
REMARK    7  A    between atoms: C6_13  and  O2_14 
REMARK    8  A    between atoms: O3_16  and  C7_17 
REMARK    9  A    between atoms: C8_21  and  O4_22 
REMARK   10  A    between atoms: C9_24  and  O5_25 
REMARK   11  A    between atoms: C10_27  and  C11_28 
REMARK   12  A    between atoms: C11_28  and  O6_29 
REMARK   13  A    between atoms: C15_41  and  N8_42 
REMARK   14  A    between atoms: N8_42  and  O9_44 
ROOT
HETATM    1  C3  UNL     1      13.207  13.322  35.043  1.00  0.00     0.348 C 
HETATM    2  N3  UNL     1      14.463  12.794  34.554  1.00  0.00     0.008 N 
ATOM      3  H31 UNL     1      15.233  13.416  34.308  1.00  0.00     0.286 HD
ATOM      4  H32 UNL     1      14.530  12.375  33.626  1.00  0.00     0.286 HD
HETATM    5  C4  UNL     1      14.520  11.978  35.740  1.00  0.00     0.347 C 
HETATM    6  O10 UNL     1      13.647  12.924  36.327  1.00  0.00    -0.300 OA
ENDROOT
BRANCH   5   7
HETATM    7  C5  UNL     1      13.868  10.633  35.581  1.00  0.00     0.236 C 
BRANCH   7   8
HETATM    8  C6  UNL     1      14.466  10.004  34.314  1.00  0.00     0.203 C 
BRANCH   8   9
HETATM    9  O2  UNL     1      13.620  10.250  33.207  1.00  0.00    -0.398 OA
ATOM     10  H2  UNL     1      13.377   9.429  32.795  1.00  0.00     0.209 HD
ENDBRANCH   8   9
ENDBRANCH   7   8
BRANCH   7  11
HETATM   11  O3  UNL     1      12.519  10.748  35.504  1.00  0.00    -0.324 OA
BRANCH  11  12
HETATM   12  C7  UNL     1      11.757   9.890  36.254  1.00  0.00     0.473 C 
HETATM   13  N4  UNL     1      10.492   9.702  35.563  1.00  0.00     0.004 N 
HETATM   14  C8  UNL     1       9.369   9.695  36.469  1.00  0.00     0.356 C 
ATOM     15  H42 UNL     1      10.368  10.398  34.827  1.00  0.00     0.286 HD
ATOM     16  H41 UNL     1      10.508   8.860  34.989  1.00  0.00     0.286 HD
HETATM   17  C9  UNL     1       9.289  10.973  37.253  1.00  0.00     0.205 C 
HETATM   18  C10 UNL     1      10.671  11.391  37.631  1.00  0.00     0.183 C 
HETATM   19  O7  UNL     1      11.601  10.364  37.525  1.00  0.00    -0.329 OA
BRANCH  14  20
HETATM   20  O4  UNL     1       9.412   8.561  37.269  1.00  0.00    -0.368 OA
ATOM     21  H4  UNL     1       8.677   7.993  37.069  1.00  0.00     0.212 HD
ENDBRANCH  14  20
BRANCH  17  22
HETATM   22  O5  UNL     1       8.433  10.866  38.348  1.00  0.00    -0.389 OA
ATOM     23  H5  UNL     1       7.750  11.525  38.336  1.00  0.00     0.210 HD
ENDBRANCH  17  22
BRANCH  18  24
HETATM   24  C11 UNL     1      10.757  12.053  38.982  1.00  0.00     0.199 C 
BRANCH  24  25
HETATM   25  O6  UNL     1      10.788  11.055  39.953  1.00  0.00    -0.398 OA
ATOM     26  H6  UNL     1      10.598  11.454  40.794  1.00  0.00     0.209 HD
ENDBRANCH  24  25
ENDBRANCH  18  24
ENDBRANCH  11  12
ENDBRANCH   7  11
ENDBRANCH   5   7
BRANCH   5  27
HETATM   27  N5  UNL     1      15.820  11.933  36.362  1.00  0.00    -0.268 N 
HETATM   28  C12 UNL     1      16.363  10.838  36.915  1.00  0.00     0.190 A 
HETATM   29  N6  UNL     1      17.579  11.123  37.401  1.00  0.00    -0.345 N 
HETATM   30  C13 UNL     1      17.808  12.432  37.148  1.00  0.00     0.147 A 
ATOM     31  H6  UNL     1      18.211  10.475  37.873  1.00  0.00     0.167 HD
HETATM   32  C14 UNL     1      18.880  13.266  37.418  1.00  0.00     0.290 A 
HETATM   33  C16 UNL     1      16.716  12.953  36.497  1.00  0.00     0.160 A 
HETATM   34  O8  UNL     1      19.877  12.790  38.010  1.00  0.00    -0.265 OA
HETATM   35  N7  UNL     1      18.809  14.545  37.034  1.00  0.00    -0.152 N 
HETATM   36  C15 UNL     1      17.747  15.031  36.407  1.00  0.00     0.706 A 
ATOM     37  H7  UNL     1      19.594  15.165  37.230  1.00  0.00     0.187 HD
HETATM   38  N9  UNL     1      16.707  14.238  36.141  1.00  0.00    -0.172 N 
ATOM     39  H9  UNL     1      15.894  14.620  35.659  1.00  0.00     0.186 HD
BRANCH  36  40
HETATM   40  N8  UNL     1      17.736  16.286  36.058  1.00  0.00    -0.098 N 
ATOM     41  H8  UNL     1      16.886  16.835  36.188  1.00  0.00     0.213 HD
BRANCH  40  42
HETATM   42  O9  UNL     1      18.842  16.878  35.521  1.00  0.00    -0.276 OA
ATOM     43  H9  UNL     1      18.880  17.103  34.598  1.00  0.00     0.245 HD
ENDBRANCH  40  42
ENDBRANCH  36  40
ENDBRANCH   5  27
BRANCH   1  44
HETATM   44  C2  UNL     1      13.159  14.807  34.858  1.00  0.00     0.185 C 
BRANCH  44  45
HETATM   45  N2  UNL     1      12.653  15.486  36.011  1.00  0.00    -0.341 N 
HETATM   46  C1  UNL     1      13.432  16.294  36.880  1.00  0.00     0.328 C 
HETATM   47  N1  UNL     1      12.837  16.938  38.020  1.00  0.00    -0.040 NA
HETATM   48  O1  UNL     1      14.649  16.436  36.638  1.00  0.00    -0.251 OA
ATOM     49  H2  UNL     1      11.660  15.381  36.223  1.00  0.00     0.163 HD
ENDBRANCH  44  45
ENDBRANCH   1  44
TORSDOF 14
ENDMDL
MODEL 3
REMARK VINA RESULT: -8.255529099      2.441      6.795
REMARK  14 active torsions:
REMARK  status: ('A' for Active; 'I' for Inactive)
REMARK       I    between atoms: C1_2  and  N2_4 
REMARK    1  A    between atoms: N2_4  and  C2_6 
REMARK    2  A    between atoms: C2_6  and  C3_7 
REMARK    3  A    between atoms: C4_11  and  C5_12 
REMARK    4  A    between atoms: C4_11  and  N5_32 
REMARK    5  A    between atoms: C5_12  and  C6_13 
REMARK    6  A    between atoms: C5_12  and  O3_16 
REMARK    7  A    between atoms: C6_13  and  O2_14 
REMARK    8  A    between atoms: O3_16  and  C7_17 
REMARK    9  A    between atoms: C8_21  and  O4_22 
REMARK   10  A    between atoms: C9_24  and  O5_25 
REMARK   11  A    between atoms: C10_27  and  C11_28 
REMARK   12  A    between atoms: C11_28  and  O6_29 
REMARK   13  A    between atoms: C15_41  and  N8_42 
REMARK   14  A    between atoms: N8_42  and  O9_44 
ROOT
HETATM    1  C3  UNL     1      10.501  14.707  37.132  1.00  0.00     0.348 C 
HETATM    2  N3  UNL     1       9.338  13.848  37.050  1.00  0.00     0.008 N 
ATOM      3  H31 UNL     1       8.901  13.643  36.151  1.00  0.00     0.286 HD
ATOM      4  H32 UNL     1       8.431  14.158  37.398  1.00  0.00     0.286 HD
HETATM    5  C4  UNL     1      10.097  12.844  37.751  1.00  0.00     0.347 C 
HETATM    6  O10 UNL     1      11.251  13.518  37.289  1.00  0.00    -0.300 OA
ENDROOT
BRANCH   5   7
HETATM    7  C5  UNL     1       9.962  12.918  39.246  1.00  0.00     0.236 C 
BRANCH   7   8
HETATM    8  C6  UNL     1      11.054  12.009  39.830  1.00  0.00     0.203 C 
BRANCH   8   9
HETATM    9  O2  UNL     1      10.464  10.973  40.593  1.00  0.00    -0.398 OA
ATOM     10  H2  UNL     1      10.768  10.129  40.284  1.00  0.00     0.209 HD
ENDBRANCH   8   9
ENDBRANCH   7   8
BRANCH   7  11
HETATM   11  O3  UNL     1       8.721  12.542  39.645  1.00  0.00    -0.324 OA
BRANCH  11  12
HETATM   12  C7  UNL     1       8.064  13.345  40.542  1.00  0.00     0.473 C 
HETATM   13  N4  UNL     1       7.784  12.549  41.725  1.00  0.00     0.004 N 
HETATM   14  C8  UNL     1       6.465  12.800  42.253  1.00  0.00     0.356 C 
ATOM     15  H42 UNL     1       7.925  11.556  41.542  1.00  0.00     0.286 HD
ATOM     16  H41 UNL     1       8.499  12.686  42.439  1.00  0.00     0.286 HD
HETATM   17  C9  UNL     1       5.401  12.513  41.233  1.00  0.00     0.205 C 
HETATM   18  C10 UNL     1       5.876  12.985  39.899  1.00  0.00     0.183 C 
HETATM   19  O7  UNL     1       6.939  13.879  39.982  1.00  0.00    -0.329 OA
BRANCH  14  20
HETATM   20  O4  UNL     1       6.397  14.088  42.770  1.00  0.00    -0.368 OA
ATOM     21  H4  UNL     1       6.568  14.723  42.085  1.00  0.00     0.212 HD
ENDBRANCH  14  20
BRANCH  17  22
HETATM   22  O5  UNL     1       4.167  13.051  41.593  1.00  0.00    -0.389 OA
ATOM     23  H5  UNL     1       3.533  12.999  40.888  1.00  0.00     0.210 HD
ENDBRANCH  17  22
BRANCH  18  24
HETATM   24  C11 UNL     1       4.781  13.539  39.025  1.00  0.00     0.199 C 
BRANCH  24  25
HETATM   25  O6  UNL     1       3.955  12.485  38.643  1.00  0.00    -0.398 OA
ATOM     26  H6  UNL     1       3.213  12.846  38.171  1.00  0.00     0.209 HD
ENDBRANCH  24  25
ENDBRANCH  18  24
ENDBRANCH  11  12
ENDBRANCH   7  11
ENDBRANCH   5   7
BRANCH   5  27
HETATM   27  N5  UNL     1       9.953  11.514  37.212  1.00  0.00    -0.268 N 
HETATM   28  C12 UNL     1      10.926  10.836  36.586  1.00  0.00     0.190 A 
HETATM   29  N6  UNL     1      10.478   9.630  36.210  1.00  0.00    -0.345 N 
HETATM   30  C13 UNL     1       9.188   9.546  36.610  1.00  0.00     0.147 A 
ATOM     31  H6  UNL     1      11.008   8.912  35.716  1.00  0.00     0.167 HD
HETATM   32  C14 UNL     1       8.233   8.549  36.497  1.00  0.00     0.290 A 
HETATM   33  C16 UNL     1       8.845  10.718  37.240  1.00  0.00     0.160 A 
HETATM   34  O8  UNL     1       8.547   7.480  35.923  1.00  0.00    -0.265 OA
HETATM   35  N7  UNL     1       7.015   8.769  37.004  1.00  0.00    -0.152 N 
HETATM   36  C15 UNL     1       6.701   9.906  37.609  1.00  0.00     0.706 A 
ATOM     37  H7  UNL     1       6.307   8.039  36.923  1.00  0.00     0.187 HD
HETATM   38  N9  UNL     1       7.613  10.874  37.725  1.00  0.00    -0.172 N 
ATOM     39  H9  UNL     1       7.363  11.746  38.191  1.00  0.00     0.186 HD
BRANCH  36  40
HETATM   40  N8  UNL     1       5.498  10.061  38.084  1.00  0.00    -0.098 N 
ATOM     41  H8  UNL     1       5.374  10.460  39.014  1.00  0.00     0.213 HD
BRANCH  40  42
HETATM   42  O9  UNL     1       4.402   9.699  37.356  1.00  0.00    -0.276 OA
ATOM     43  H9  UNL     1       3.541  10.043  37.562  1.00  0.00     0.245 HD
ENDBRANCH  40  42
ENDBRANCH  36  40
ENDBRANCH   5  27
BRANCH   1  44
HETATM   44  C2  UNL     1      10.734  15.395  35.823  1.00  0.00     0.185 C 
BRANCH  44  45
HETATM   45  N2  UNL     1      12.063  15.908  35.704  1.00  0.00    -0.341 N 
HETATM   46  C1  UNL     1      13.112  15.275  34.986  1.00  0.00     0.328 C 
HETATM   47  N1  UNL     1      14.423  15.864  34.921  1.00  0.00    -0.040 NA
HETATM   48  O1  UNL     1      12.878  14.192  34.411  1.00  0.00    -0.251 OA
ATOM     49  H2  UNL     1      12.272  16.793  36.167  1.00  0.00     0.163 HD
ENDBRANCH  44  45
ENDBRANCH   1  44
TORSDOF 14
ENDMDL
MODEL 4
REMARK VINA RESULT: -8.175487815      2.346      6.544
REMARK  14 active torsions:
REMARK  status: ('A' for Active; 'I' for Inactive)
REMARK       I    between atoms: C1_2  and  N2_4 
REMARK    1  A    between atoms: N2_4  and  C2_6 
REMARK    2  A    between atoms: C2_6  and  C3_7 
REMARK    3  A    between atoms: C4_11  and  C5_12 
REMARK    4  A    between atoms: C4_11  and  N5_32 
REMARK    5  A    between atoms: C5_12  and  C6_13 
REMARK    6  A    between atoms: C5_12  and  O3_16 
REMARK    7  A    between atoms: C6_13  and  O2_14 
REMARK    8  A    between atoms: O3_16  and  C7_17 
REMARK    9  A    between atoms: C8_21  and  O4_22 
REMARK   10  A    between atoms: C9_24  and  O5_25 
REMARK   11  A    between atoms: C10_27  and  C11_28 
REMARK   12  A    between atoms: C11_28  and  O6_29 
REMARK   13  A    between atoms: C15_41  and  N8_42 
REMARK   14  A    between atoms: N8_42  and  O9_44 
ROOT
HETATM    1  C3  UNL     1      10.138  14.869  37.284  1.00  0.00     0.348 C 
HETATM    2  N3  UNL     1       9.034  13.933  37.274  1.00  0.00     0.008 N 
ATOM      3  H31 UNL     1       8.529  13.728  36.411  1.00  0.00     0.286 HD
ATOM      4  H32 UNL     1       8.145  14.164  37.717  1.00  0.00     0.286 HD
HETATM    5  C4  UNL     1       9.922  12.962  37.860  1.00  0.00     0.347 C 
HETATM    6  O10 UNL     1      10.979  13.732  37.323  1.00  0.00    -0.300 OA
ENDROOT
BRANCH   5   7
HETATM    7  C5  UNL     1       9.924  12.974  39.363  1.00  0.00     0.236 C 
BRANCH   7   8
HETATM    8  C6  UNL     1      11.092  12.081  39.807  1.00  0.00     0.203 C 
BRANCH   8   9
HETATM    9  O2  UNL     1      10.602  10.960  40.518  1.00  0.00    -0.398 OA
ATOM     10  H2  UNL     1      10.772  11.064  41.446  1.00  0.00     0.209 HD
ENDBRANCH   8   9
ENDBRANCH   7   8
BRANCH   7  11
HETATM   11  O3  UNL     1       8.738  12.540  39.858  1.00  0.00    -0.324 OA
BRANCH  11  12
HETATM   12  C7  UNL     1       8.032  13.390  40.671  1.00  0.00     0.473 C 
HETATM   13  N4  UNL     1       7.668  12.653  41.870  1.00  0.00     0.004 N 
HETATM   14  C8  UNL     1       6.320  12.938  42.299  1.00  0.00     0.356 C 
ATOM     15  H42 UNL     1       7.811  11.651  41.744  1.00  0.00     0.286 HD
ATOM     16  H41 UNL     1       8.337  12.819  42.622  1.00  0.00     0.286 HD
HETATM   17  C9  UNL     1       5.322  12.610  41.227  1.00  0.00     0.205 C 
HETATM   18  C10 UNL     1       5.887  13.015  39.906  1.00  0.00     0.183 C 
HETATM   19  O7  UNL     1       6.951  13.904  40.015  1.00  0.00    -0.329 OA
BRANCH  14  20
HETATM   20  O4  UNL     1       6.232  14.249  42.749  1.00  0.00    -0.368 OA
ATOM     21  H4  UNL     1       5.321  14.499  42.847  1.00  0.00     0.212 HD
ENDBRANCH  14  20
BRANCH  17  22
HETATM   22  O5  UNL     1       4.072  13.172  41.481  1.00  0.00    -0.389 OA
ATOM     23  H5  UNL     1       3.520  12.600  41.999  1.00  0.00     0.210 HD
ENDBRANCH  17  22
BRANCH  18  24
HETATM   24  C11 UNL     1       4.856  13.534  38.938  1.00  0.00     0.199 C 
BRANCH  24  25
HETATM   25  O6  UNL     1       3.929  12.521  38.705  1.00  0.00    -0.398 OA
ATOM     26  H6  UNL     1       3.971  12.285  37.786  1.00  0.00     0.209 HD
ENDBRANCH  24  25
ENDBRANCH  18  24
ENDBRANCH  11  12
ENDBRANCH   7  11
ENDBRANCH   5   7
BRANCH   5  27
HETATM   27  N5  UNL     1       9.819  11.645  37.282  1.00  0.00    -0.268 N 
HETATM   28  C12 UNL     1      10.807  11.022  36.623  1.00  0.00     0.190 A 
HETATM   29  N6  UNL     1      10.398   9.812  36.215  1.00  0.00    -0.345 N 
HETATM   30  C13 UNL     1       9.118   9.669  36.629  1.00  0.00     0.147 A 
ATOM     31  H6  UNL     1      10.947   9.130  35.692  1.00  0.00     0.167 HD
HETATM   32  C14 UNL     1       8.198   8.642  36.496  1.00  0.00     0.290 A 
HETATM   33  C16 UNL     1       8.741  10.808  37.299  1.00  0.00     0.160 A 
HETATM   34  O8  UNL     1       8.543   7.604  35.886  1.00  0.00    -0.265 OA
HETATM   35  N7  UNL     1       6.980   8.801  37.026  1.00  0.00    -0.152 N 
HETATM   36  C15 UNL     1       6.634   9.907  37.669  1.00  0.00     0.706 A 
ATOM     37  H7  UNL     1       6.298   8.049  36.931  1.00  0.00     0.187 HD
HETATM   38  N9  UNL     1       7.510  10.904  37.804  1.00  0.00    -0.172 N 
ATOM     39  H9  UNL     1       7.236  11.752  38.300  1.00  0.00     0.186 HD
BRANCH  36  40
HETATM   40  N8  UNL     1       5.432  10.004  38.164  1.00  0.00    -0.098 N 
ATOM     41  H8  UNL     1       5.311  10.293  39.134  1.00  0.00     0.213 HD
BRANCH  40  42
HETATM   42  O9  UNL     1       4.333   9.724  37.403  1.00  0.00    -0.276 OA
ATOM     43  H9  UNL     1       3.632   9.178  37.737  1.00  0.00     0.245 HD
ENDBRANCH  40  42
ENDBRANCH  36  40
ENDBRANCH   5  27
BRANCH   1  44
HETATM   44  C2  UNL     1      10.198  15.618  35.990  1.00  0.00     0.185 C 
BRANCH  44  45
HETATM   45  N2  UNL     1       9.761  16.973  36.120  1.00  0.00    -0.341 N 
HETATM   46  C1  UNL     1       8.412  17.401  36.011  1.00  0.00     0.328 C 
HETATM   47  N1  UNL     1       8.064  18.789  36.155  1.00  0.00    -0.040 NA
HETATM   48  O1  UNL     1       7.528  16.549  35.786  1.00  0.00    -0.251 OA
ATOM     49  H2  UNL     1      10.470  17.683  36.305  1.00  0.00     0.163 HD
ENDBRANCH  44  45
ENDBRANCH   1  44
TORSDOF 14
ENDMDL
MODEL 5
REMARK VINA RESULT: -8.145233854      2.478      4.141
REMARK  14 active torsions:
REMARK  status: ('A' for Active; 'I' for Inactive)
REMARK       I    between atoms: C1_2  and  N2_4 
REMARK    1  A    between atoms: N2_4  and  C2_6 
REMARK    2  A    between atoms: C2_6  and  C3_7 
REMARK    3  A    between atoms: C4_11  and  C5_12 
REMARK    4  A    between atoms: C4_11  and  N5_32 
REMARK    5  A    between atoms: C5_12  and  C6_13 
REMARK    6  A    between atoms: C5_12  and  O3_16 
REMARK    7  A    between atoms: C6_13  and  O2_14 
REMARK    8  A    between atoms: O3_16  and  C7_17 
REMARK    9  A    between atoms: C8_21  and  O4_22 
REMARK   10  A    between atoms: C9_24  and  O5_25 
REMARK   11  A    between atoms: C10_27  and  C11_28 
REMARK   12  A    between atoms: C11_28  and  O6_29 
REMARK   13  A    between atoms: C15_41  and  N8_42 
REMARK   14  A    between atoms: N8_42  and  O9_44 
ROOT
HETATM    1  C3  UNL     1      10.299  12.500  40.174  1.00  0.00     0.348 C 
HETATM    2  N3  UNL     1      10.322  11.173  39.596  1.00  0.00     0.008 N 
ATOM      3  H31 UNL     1       9.858  10.392  40.059  1.00  0.00     0.286 HD
ATOM      4  H32 UNL     1      11.182  10.625  39.573  1.00  0.00     0.286 HD
HETATM    5  C4  UNL     1       9.779  11.748  38.391  1.00  0.00     0.347 C 
HETATM    6  O10 UNL     1       9.310  12.802  39.209  1.00  0.00    -0.300 OA
ENDROOT
BRANCH   5   7
HETATM    7  C5  UNL     1      10.825  12.213  37.418  1.00  0.00     0.236 C 
BRANCH   7   8
HETATM    8  C6  UNL     1      10.075  12.844  36.236  1.00  0.00     0.203 C 
BRANCH   8   9
HETATM    9  O2  UNL     1       9.511  14.082  36.625  1.00  0.00    -0.398 OA
ATOM     10  H2  UNL     1       8.673  13.938  37.048  1.00  0.00     0.209 HD
ENDBRANCH   8   9
ENDBRANCH   7   8
BRANCH   7  11
HETATM   11  O3  UNL     1      11.620  11.186  37.025  1.00  0.00    -0.324 OA
BRANCH  11  12
HETATM   12  C7  UNL     1      12.098  11.199  35.740  1.00  0.00     0.473 C 
HETATM   13  N4  UNL     1      12.531   9.850  35.416  1.00  0.00     0.004 N 
HETATM   14  C8  UNL     1      13.770   9.836  34.677  1.00  0.00     0.356 C 
ATOM     15  H42 UNL     1      12.595   9.272  36.254  1.00  0.00     0.286 HD
ATOM     16  H41 UNL     1      11.801   9.338  34.921  1.00  0.00     0.286 HD
HETATM   17  C9  UNL     1      14.872  10.510  35.441  1.00  0.00     0.205 C 
HETATM   18  C10 UNL     1      14.315  11.714  36.124  1.00  0.00     0.183 C 
HETATM   19  O7  UNL     1      13.094  12.123  35.601  1.00  0.00    -0.329 OA
BRANCH  14  20
HETATM   20  O4  UNL     1      13.574  10.370  33.409  1.00  0.00    -0.368 OA
ATOM     21  H4  UNL     1      14.279  10.103  32.832  1.00  0.00     0.212 HD
ENDBRANCH  14  20
BRANCH  17  22
HETATM   22  O5  UNL     1      15.971  10.801  34.635  1.00  0.00    -0.389 OA
ATOM     23  H5  UNL     1      15.716  11.040  33.752  1.00  0.00     0.210 HD
ENDBRANCH  17  22
BRANCH  18  24
HETATM   24  C11 UNL     1      15.278  12.871  36.198  1.00  0.00     0.199 C 
BRANCH  24  25
HETATM   25  O6  UNL     1      15.074  13.678  35.082  1.00  0.00    -0.398 OA
ATOM     26  H6  UNL     1      14.461  14.364  35.320  1.00  0.00     0.209 HD
ENDBRANCH  24  25
ENDBRANCH  18  24
ENDBRANCH  11  12
ENDBRANCH   7  11
ENDBRANCH   5   7
BRANCH   5  27
HETATM   27  N5  UNL     1       8.722  10.971  37.792  1.00  0.00    -0.268 N 
HETATM   28  C12 UNL     1       8.902  10.043  36.841  1.00  0.00     0.190 A 
HETATM   29  N6  UNL     1       7.726   9.499  36.499  1.00  0.00    -0.345 N 
HETATM   30  C13 UNL     1       6.779  10.099  37.256  1.00  0.00     0.147 A 
ATOM     31  H6  UNL     1       7.574   8.770  35.801  1.00  0.00     0.167 HD
HETATM   32  C14 UNL     1       5.405   9.946  37.335  1.00  0.00     0.290 A 
HETATM   33  C16 UNL     1       7.387  11.024  38.071  1.00  0.00     0.160 A 
HETATM   34  O8  UNL     1       4.852   9.102  36.593  1.00  0.00    -0.265 OA
HETATM   35  N7  UNL     1       4.725  10.705  38.202  1.00  0.00    -0.152 N 
HETATM   36  C15 UNL     1       5.328  11.592  38.981  1.00  0.00     0.706 A 
ATOM     37  H7  UNL     1       3.713  10.598  38.265  1.00  0.00     0.187 HD
HETATM   38  N9  UNL     1       6.651  11.749  38.914  1.00  0.00    -0.172 N 
ATOM     39  H9  UNL     1       7.107  12.434  39.517  1.00  0.00     0.186 HD
BRANCH  36  40
HETATM   40  N8  UNL     1       4.612  12.302  39.806  1.00  0.00    -0.098 N 
ATOM     41  H8  UNL     1       4.358  13.257  39.555  1.00  0.00     0.213 HD
BRANCH  40  42
HETATM   42  O9  UNL     1       4.197  11.788  41.001  1.00  0.00    -0.276 OA
ATOM     43  H9  UNL     1       3.456  12.160  41.464  1.00  0.00     0.245 HD
ENDBRANCH  40  42
ENDBRANCH  36  40
ENDBRANCH   5  27
BRANCH   1  44
HETATM   44  C2  UNL     1       9.774  12.448  41.575  1.00  0.00     0.185 C 
BRANCH  44  45
HETATM   45  N2  UNL     1       8.407  12.858  41.663  1.00  0.00    -0.341 N 
HETATM   46  C1  UNL     1       7.504  12.446  42.678  1.00  0.00     0.328 C 
HETATM   47  N1  UNL     1       6.141  12.907  42.686  1.00  0.00    -0.040 NA
HETATM   48  O1  UNL     1       7.913  11.672  43.568  1.00  0.00    -0.251 OA
ATOM     49  H2  UNL     1       8.055  13.491  40.944  1.00  0.00     0.163 HD
ENDBRANCH  44  45
ENDBRANCH   1  44
TORSDOF 14
ENDMDL
