MODEL 1
REMARK VINA RESULT: -8.260815004      0.000      0.000
REMARK  15 active torsions:
REMARK  status: ('A' for Active; 'I' for Inactive)
REMARK    1  A    between atoms: C2_2  and  O1_3 
REMARK    2  A    between atoms: C2_2  and  C3_5 
REMARK    3  A    between atoms: C3_5  and  O2_6 
REMARK    4  A    between atoms: C3_5  and  C4_8 
REMARK    5  A    between atoms: C4_8  and  O3_9 
REMARK    6  A    between atoms: C4_8  and  C5_11 
REMARK    7  A    between atoms: C5_11  and  O4_12 
REMARK    8  A    between atoms: C5_11  and  C6_14 
REMARK       I    between atoms: C6_14  and  N1_16 
REMARK    9  A    between atoms: N1_16  and  C7_18 
REMARK   10  A    between atoms: C8_20  and  C9_21 
REMARK   11  A    between atoms: C10_23  and  N2_24 
REMARK   12  A    between atoms: C15_33  and  O10_34 
REMARK   13  A    between atoms: C16_36  and  N4_37 
REMARK   14  A    between atoms: C17_41  and  O11_42 
REMARK   15  A    between atoms: C18_45  and  O13_46 
ROOT
HETATM    1  C7  UNL     1      14.416  10.770  35.869  1.00  0.00     0.279 C 
HETATM    2  O6  UNL     1      13.501  11.471  36.642  1.00  0.00    -0.349 OA
HETATM    3  C8  UNL     1      12.242  11.299  36.124  1.00  0.00     0.210 C 
HETATM    4  C17 UNL     1      12.242  11.971  34.782  1.00  0.00     0.291 C 
HETATM    5  O12 UNL     1      12.977  11.160  33.929  1.00  0.00    -0.325 OA
HETATM    6  C18 UNL     1      14.117  10.638  34.432  1.00  0.00     0.309 C 
ENDROOT
BRANCH   3   7
HETATM    7  C9  UNL     1      11.171  11.645  37.045  1.00  0.00     0.191 C 
HETATM    8  O7  UNL     1      10.049  12.208  36.469  1.00  0.00    -0.353 OA
HETATM    9  C10 UNL     1       9.236  12.650  37.506  1.00  0.00     0.263 C 
HETATM   10  C15 UNL     1      10.038  12.558  38.786  1.00  0.00     0.200 C 
HETATM   11  C16 UNL     1      11.456  12.566  38.173  1.00  0.00     0.247 C 
BRANCH   9  12
HETATM   12  N2  UNL     1       8.044  11.865  37.520  1.00  0.00    -0.280 N 
HETATM   13  C11 UNL     1       8.079  10.575  37.177  1.00  0.00     0.104 A 
HETATM   14  C12 UNL     1       6.900   9.862  37.208  1.00  0.00     0.092 A 
HETATM   15  C13 UNL     1       5.736  10.474  37.585  1.00  0.00     0.250 A 
HETATM   16  O8  UNL     1       4.672   9.813  37.609  1.00  0.00    -0.268 OA
HETATM   17  N3  UNL     1       5.726  11.775  37.927  1.00  0.00    -0.275 N 
HETATM   18  C14 UNL     1       6.894  12.446  37.886  1.00  0.00     0.331 A 
ATOM     19  H3  UNL     1       4.862  12.238  38.208  1.00  0.00     0.173 HD
HETATM   20  O9  UNL     1       6.824  13.670  38.219  1.00  0.00    -0.246 OA
ENDBRANCH   9  12
BRANCH  10  21
HETATM   21  O10 UNL     1       9.924  11.297  39.388  1.00  0.00    -0.389 OA
ATOM     22  H10 UNL     1      10.389  10.627  38.901  1.00  0.00     0.210 HD
ENDBRANCH  10  21
BRANCH  11  23
HETATM   23  N4  UNL     1      11.670  13.946  37.779  1.00  0.00    -0.070 N 
ATOM     24  H43 UNL     1      12.395  14.004  37.063  1.00  0.00     0.274 HD
ATOM     25  H42 UNL     1      10.871  14.292  37.247  1.00  0.00     0.274 HD
ATOM     26  H41 UNL     1      11.883  14.576  38.552  1.00  0.00     0.274 HD
ENDBRANCH  11  23
ENDBRANCH   3   7
BRANCH   4  27
HETATM   27  O11 UNL     1      12.957  13.195  34.816  1.00  0.00    -0.368 OA
ATOM     28  H11 UNL     1      12.371  13.937  34.916  1.00  0.00     0.212 HD
ENDBRANCH   4  27
BRANCH   1  29
HETATM   29  N1  UNL     1      15.782  11.277  36.097  1.00  0.00    -0.328 N 
HETATM   30  C6  UNL     1      16.680  10.699  36.986  1.00  0.00     0.251 C 
HETATM   31  O5  UNL     1      16.342   9.671  37.670  1.00  0.00    -0.270 OA
ATOM     32  H1  UNL     1      16.085  12.098  35.572  1.00  0.00     0.165 HD
BRANCH  30  33
HETATM   33  C5  UNL     1      18.042  11.229  37.187  1.00  0.00     0.241 C 
BRANCH  33  34
HETATM   34  C4  UNL     1      18.017  12.676  37.668  1.00  0.00     0.187 C 
BRANCH  34  35
HETATM   35  C3  UNL     1      18.579  13.620  36.664  1.00  0.00     0.178 C 
BRANCH  35  36
HETATM   36  C2  UNL     1      19.111  14.924  37.152  1.00  0.00     0.145 C 
HETATM   37  C1  UNL     1      18.971  15.969  36.045  1.00  0.00     0.042 C 
BRANCH  36  38
HETATM   38  O1  UNL     1      18.563  15.375  38.335  1.00  0.00    -0.393 OA
ATOM     39  H1  UNL     1      19.106  15.139  39.077  1.00  0.00     0.210 HD
ENDBRANCH  36  38
ENDBRANCH  35  36
BRANCH  35  40
HETATM   40  O2  UNL     1      17.877  13.697  35.482  1.00  0.00    -0.390 OA
ATOM     41  H2  UNL     1      17.587  12.859  35.141  1.00  0.00     0.210 HD
ENDBRANCH  35  40
ENDBRANCH  34  35
BRANCH  34  42
HETATM   42  O3  UNL     1      18.867  12.695  38.805  1.00  0.00    -0.390 OA
ATOM     43  H3  UNL     1      18.561  12.027  39.407  1.00  0.00     0.210 HD
ENDBRANCH  34  42
ENDBRANCH  33  34
BRANCH  33  44
HETATM   44  O4  UNL     1      18.702  11.163  35.940  1.00  0.00    -0.383 OA
ATOM     45  H4  UNL     1      19.041  10.285  35.811  1.00  0.00     0.210 HD
ENDBRANCH  33  44
ENDBRANCH  30  33
ENDBRANCH   1  29
BRANCH   6  46
HETATM   46  O13 UNL     1      14.174   9.285  34.006  1.00  0.00    -0.367 OA
ATOM     47  H13 UNL     1      14.792   9.165  33.295  1.00  0.00     0.212 HD
ENDBRANCH   6  46
TORSDOF 15
ENDMDL
MODEL 2
REMARK VINA RESULT: -8.217550215      3.597     10.092
REMARK  15 active torsions:
REMARK  status: ('A' for Active; 'I' for Inactive)
REMARK    1  A    between atoms: C2_2  and  O1_3 
REMARK    2  A    between atoms: C2_2  and  C3_5 
REMARK    3  A    between atoms: C3_5  and  O2_6 
REMARK    4  A    between atoms: C3_5  and  C4_8 
REMARK    5  A    between atoms: C4_8  and  O3_9 
REMARK    6  A    between atoms: C4_8  and  C5_11 
REMARK    7  A    between atoms: C5_11  and  O4_12 
REMARK    8  A    between atoms: C5_11  and  C6_14 
REMARK       I    between atoms: C6_14  and  N1_16 
REMARK    9  A    between atoms: N1_16  and  C7_18 
REMARK   10  A    between atoms: C8_20  and  C9_21 
REMARK   11  A    between atoms: C10_23  and  N2_24 
REMARK   12  A    between atoms: C15_33  and  O10_34 
REMARK   13  A    between atoms: C16_36  and  N4_37 
REMARK   14  A    between atoms: C17_41  and  O11_42 
REMARK   15  A    between atoms: C18_45  and  O13_46 
ROOT
HETATM    1  C7  UNL     1      17.035  12.641  36.462  1.00  0.00     0.279 C 
HETATM    2  O6  UNL     1      16.948  13.940  36.942  1.00  0.00    -0.349 OA
HETATM    3  C8  UNL     1      18.195  14.369  37.324  1.00  0.00     0.210 C 
HETATM    4  C17 UNL     1      18.590  13.524  38.500  1.00  0.00     0.291 C 
HETATM    5  O12 UNL     1      18.898  12.266  38.003  1.00  0.00    -0.325 OA
HETATM    6  C18 UNL     1      18.069  11.774  37.057  1.00  0.00     0.309 C 
ENDROOT
BRANCH   3   7
HETATM    7  C9  UNL     1      18.305  15.811  37.470  1.00  0.00     0.191 C 
HETATM    8  O7  UNL     1      18.419  16.271  38.767  1.00  0.00    -0.353 OA
HETATM    9  C10 UNL     1      18.309  17.657  38.720  1.00  0.00     0.263 C 
HETATM   10  C15 UNL     1      17.861  18.032  37.324  1.00  0.00     0.200 C 
HETATM   11  C16 UNL     1      17.241  16.678  36.907  1.00  0.00     0.247 C 
BRANCH   9  12
HETATM   12  N2  UNL     1      19.563  18.229  39.091  1.00  0.00    -0.280 N 
HETATM   13  C11 UNL     1      20.668  17.479  39.117  1.00  0.00     0.104 A 
HETATM   14  C12 UNL     1      21.853  18.081  39.482  1.00  0.00     0.092 A 
HETATM   15  C13 UNL     1      21.878  19.410  39.803  1.00  0.00     0.250 A 
HETATM   16  O8  UNL     1      22.963  19.943  40.132  1.00  0.00    -0.268 OA
HETATM   17  N3  UNL     1      20.753  20.144  39.768  1.00  0.00    -0.275 N 
HETATM   18  C14 UNL     1      19.609  19.529  39.409  1.00  0.00     0.331 A 
ATOM     19  H3  UNL     1      20.764  21.136  40.007  1.00  0.00     0.173 HD
HETATM   20  O9  UNL     1      18.578  20.272  39.394  1.00  0.00    -0.246 OA
ENDBRANCH   9  12
BRANCH  10  21
HETATM   21  O10 UNL     1      18.946  18.203  36.452  1.00  0.00    -0.389 OA
ATOM     22  H10 UNL     1      18.677  18.185  35.541  1.00  0.00     0.210 HD
ENDBRANCH  10  21
BRANCH  11  23
HETATM   23  N4  UNL     1      15.982  16.623  37.626  1.00  0.00    -0.070 N 
ATOM     24  H43 UNL     1      15.857  15.706  38.056  1.00  0.00     0.274 HD
ATOM     25  H42 UNL     1      16.024  17.205  38.463  1.00  0.00     0.274 HD
ATOM     26  H41 UNL     1      15.166  16.867  37.064  1.00  0.00     0.274 HD
ENDBRANCH  11  23
ENDBRANCH   3   7
BRANCH   4  27
HETATM   27  O11 UNL     1      17.493  13.305  39.372  1.00  0.00    -0.368 OA
ATOM     28  H11 UNL     1      17.501  13.916  40.100  1.00  0.00     0.212 HD
ENDBRANCH   4  27
BRANCH   1  29
HETATM   29  N1  UNL     1      15.710  11.994  36.473  1.00  0.00    -0.328 N 
HETATM   30  C6  UNL     1      15.301  11.061  35.528  1.00  0.00     0.251 C 
HETATM   31  O5  UNL     1      16.083  10.719  34.576  1.00  0.00    -0.270 OA
ATOM     32  H1  UNL     1      15.058  12.246  37.216  1.00  0.00     0.165 HD
BRANCH  30  33
HETATM   33  C5  UNL     1      13.967  10.429  35.571  1.00  0.00     0.241 C 
BRANCH  33  34
HETATM   34  C4  UNL     1      12.965  11.173  34.693  1.00  0.00     0.187 C 
BRANCH  34  35
HETATM   35  C3  UNL     1      11.556  10.820  35.016  1.00  0.00     0.178 C 
BRANCH  35  36
HETATM   36  C2  UNL     1      10.740  11.817  35.765  1.00  0.00     0.145 C 
HETATM   37  C1  UNL     1       9.588  11.098  36.468  1.00  0.00     0.042 C 
BRANCH  36  38
HETATM   38  O1  UNL     1      11.446  12.608  36.647  1.00  0.00    -0.393 OA
ATOM     39  H1  UNL     1      12.120  13.105  36.199  1.00  0.00     0.210 HD
ENDBRANCH  36  38
ENDBRANCH  35  36
BRANCH  35  40
HETATM   40  O2  UNL     1      11.358   9.514  35.406  1.00  0.00    -0.390 OA
ATOM     41  H2  UNL     1      11.881   9.243  36.151  1.00  0.00     0.210 HD
ENDBRANCH  35  40
ENDBRANCH  34  35
BRANCH  34  42
HETATM   42  O3  UNL     1      13.235  10.721  33.375  1.00  0.00    -0.390 OA
ATOM     43  H3  UNL     1      14.175  10.750  33.245  1.00  0.00     0.210 HD
ENDBRANCH  34  42
ENDBRANCH  33  34
BRANCH  33  44
HETATM   44  O4  UNL     1      13.532  10.469  36.914  1.00  0.00    -0.383 OA
ATOM     45  H4  UNL     1      13.075   9.662  37.120  1.00  0.00     0.210 HD
ENDBRANCH  33  44
ENDBRANCH  30  33
ENDBRANCH   1  29
BRANCH   6  46
HETATM   46  O13 UNL     1      18.886  11.173  36.064  1.00  0.00    -0.367 OA
ATOM     47  H13 UNL     1      19.418  10.473  36.422  1.00  0.00     0.212 HD
ENDBRANCH   6  46
TORSDOF 15
ENDMDL
MODEL 3
REMARK VINA RESULT: -8.197769759      5.064      7.123
REMARK  15 active torsions:
REMARK  status: ('A' for Active; 'I' for Inactive)
REMARK    1  A    between atoms: C2_2  and  O1_3 
REMARK    2  A    between atoms: C2_2  and  C3_5 
REMARK    3  A    between atoms: C3_5  and  O2_6 
REMARK    4  A    between atoms: C3_5  and  C4_8 
REMARK    5  A    between atoms: C4_8  and  O3_9 
REMARK    6  A    between atoms: C4_8  and  C5_11 
REMARK    7  A    between atoms: C5_11  and  O4_12 
REMARK    8  A    between atoms: C5_11  and  C6_14 
REMARK       I    between atoms: C6_14  and  N1_16 
REMARK    9  A    between atoms: N1_16  and  C7_18 
REMARK   10  A    between atoms: C8_20  and  C9_21 
REMARK   11  A    between atoms: C10_23  and  N2_24 
REMARK   12  A    between atoms: C15_33  and  O10_34 
REMARK   13  A    between atoms: C16_36  and  N4_37 
REMARK   14  A    between atoms: C17_41  and  O11_42 
REMARK   15  A    between atoms: C18_45  and  O13_46 
ROOT
HETATM    1  C7  UNL     1      11.530  16.307  36.117  1.00  0.00     0.279 C 
HETATM    2  O6  UNL     1      10.689  15.227  36.342  1.00  0.00    -0.349 OA
HETATM    3  C8  UNL     1      11.303  14.341  37.191  1.00  0.00     0.210 C 
HETATM    4  C17 UNL     1      12.484  13.791  36.444  1.00  0.00     0.291 C 
HETATM    5  O12 UNL     1      13.435  14.800  36.403  1.00  0.00    -0.325 OA
HETATM    6  C18 UNL     1      12.980  16.044  36.139  1.00  0.00     0.309 C 
ENDROOT
BRANCH   3   7
HETATM    7  C9  UNL     1      10.396  13.385  37.805  1.00  0.00     0.191 C 
HETATM    8  O7  UNL     1       9.296  13.035  37.046  1.00  0.00    -0.353 OA
HETATM    9  C10 UNL     1       8.457  12.287  37.864  1.00  0.00     0.263 C 
HETATM   10  C15 UNL     1       8.981  12.397  39.279  1.00  0.00     0.200 C 
HETATM   11  C16 UNL     1       9.796  13.701  39.124  1.00  0.00     0.247 C 
BRANCH   9  12
HETATM   12  N2  UNL     1       8.414  10.947  37.373  1.00  0.00    -0.280 N 
HETATM   13  C11 UNL     1       9.452  10.438  36.704  1.00  0.00     0.104 A 
HETATM   14  C12 UNL     1       9.360   9.139  36.253  1.00  0.00     0.092 A 
HETATM   15  C13 UNL     1       8.230   8.407  36.492  1.00  0.00     0.250 A 
HETATM   16  O8  UNL     1       8.161   7.227  36.075  1.00  0.00    -0.268 OA
HETATM   17  N3  UNL     1       7.198   8.941  37.168  1.00  0.00    -0.275 N 
HETATM   18  C14 UNL     1       7.317  10.213  37.597  1.00  0.00     0.331 A 
ATOM     19  H3  UNL     1       6.352   8.402  37.350  1.00  0.00     0.173 HD
HETATM   20  O9  UNL     1       6.311  10.665  38.229  1.00  0.00    -0.246 OA
ENDBRANCH   9  12
BRANCH  10  21
HETATM   21  O10 UNL     1       9.942  11.416  39.562  1.00  0.00    -0.389 OA
ATOM     22  H10 UNL     1       9.861  11.083  40.448  1.00  0.00     0.210 HD
ENDBRANCH  10  21
BRANCH  11  23
HETATM   23  N4  UNL     1       8.793  14.750  39.089  1.00  0.00    -0.070 N 
ATOM     24  H43 UNL     1       8.814  15.232  38.190  1.00  0.00     0.274 HD
ATOM     25  H42 UNL     1       7.857  14.345  39.049  1.00  0.00     0.274 HD
ATOM     26  H41 UNL     1       8.859  15.420  39.854  1.00  0.00     0.274 HD
ENDBRANCH  11  23
ENDBRANCH   3   7
BRANCH   4  27
HETATM   27  O11 UNL     1      12.167  13.542  35.085  1.00  0.00    -0.368 OA
ATOM     28  H11 UNL     1      12.323  14.309  34.546  1.00  0.00     0.212 HD
ENDBRANCH   4  27
BRANCH   1  29
HETATM   29  N1  UNL     1      11.127  17.033  34.898  1.00  0.00    -0.328 N 
HETATM   30  C6  UNL     1      10.114  17.983  34.867  1.00  0.00     0.251 C 
HETATM   31  O5  UNL     1       9.464  18.271  35.930  1.00  0.00    -0.270 OA
ATOM     32  H1  UNL     1      11.620  16.826  34.029  1.00  0.00     0.165 HD
BRANCH  30  33
HETATM   33  C5  UNL     1       9.738  18.694  33.629  1.00  0.00     0.241 C 
BRANCH  33  34
HETATM   34  C4  UNL     1      10.535  19.983  33.458  1.00  0.00     0.187 C 
BRANCH  34  35
HETATM   35  C3  UNL     1      11.038  20.161  32.069  1.00  0.00     0.178 C 
BRANCH  35  36
HETATM   36  C2  UNL     1      10.713  21.434  31.366  1.00  0.00     0.145 C 
HETATM   37  C1  UNL     1      10.885  22.603  32.339  1.00  0.00     0.042 C 
BRANCH  36  38
HETATM   38  O1  UNL     1      11.409  21.653  30.196  1.00  0.00    -0.393 OA
ATOM     39  H1  UNL     1      10.824  21.895  29.489  1.00  0.00     0.210 HD
ENDBRANCH  36  38
ENDBRANCH  35  36
BRANCH  35  40
HETATM   40  O2  UNL     1      10.965  19.037  31.276  1.00  0.00    -0.390 OA
ATOM     41  H2  UNL     1      10.127  18.590  31.305  1.00  0.00     0.210 HD
ENDBRANCH  35  40
ENDBRANCH  34  35
BRANCH  34  42
HETATM   42  O3  UNL     1      11.659  19.828  34.310  1.00  0.00    -0.390 OA
ATOM     43  H3  UNL     1      11.509  20.352  35.088  1.00  0.00     0.210 HD
ENDBRANCH  34  42
ENDBRANCH  33  34
BRANCH  33  44
HETATM   44  O4  UNL     1       8.364  19.004  33.730  1.00  0.00    -0.383 OA
ATOM     45  H4  UNL     1       7.859  18.199  33.720  1.00  0.00     0.210 HD
ENDBRANCH  33  44
ENDBRANCH  30  33
ENDBRANCH   1  29
BRANCH   6  46
HETATM   46  O13 UNL     1      13.661  16.927  37.019  1.00  0.00    -0.367 OA
ATOM     47  H13 UNL     1      14.596  16.763  37.028  1.00  0.00     0.212 HD
ENDBRANCH   6  46
TORSDOF 15
ENDMDL
MODEL 4
REMARK VINA RESULT: -8.051582897      5.005      7.301
REMARK  15 active torsions:
REMARK  status: ('A' for Active; 'I' for Inactive)
REMARK    1  A    between atoms: C2_2  and  O1_3 
REMARK    2  A    between atoms: C2_2  and  C3_5 
REMARK    3  A    between atoms: C3_5  and  O2_6 
REMARK    4  A    between atoms: C3_5  and  C4_8 
REMARK    5  A    between atoms: C4_8  and  O3_9 
REMARK    6  A    between atoms: C4_8  and  C5_11 
REMARK    7  A    between atoms: C5_11  and  O4_12 
REMARK    8  A    between atoms: C5_11  and  C6_14 
REMARK       I    between atoms: C6_14  and  N1_16 
REMARK    9  A    between atoms: N1_16  and  C7_18 
REMARK   10  A    between atoms: C8_20  and  C9_21 
REMARK   11  A    between atoms: C10_23  and  N2_24 
REMARK   12  A    between atoms: C15_33  and  O10_34 
REMARK   13  A    between atoms: C16_36  and  N4_37 
REMARK   14  A    between atoms: C17_41  and  O11_42 
REMARK   15  A    between atoms: C18_45  and  O13_46 
ROOT
HETATM    1  C7  UNL     1      11.688  16.439  36.062  1.00  0.00     0.279 C 
HETATM    2  O6  UNL     1      10.805  15.382  36.232  1.00  0.00    -0.349 OA
HETATM    3  C8  UNL     1      11.279  14.546  37.212  1.00  0.00     0.210 C 
HETATM    4  C17 UNL     1      12.543  13.941  36.676  1.00  0.00     0.291 C 
HETATM    5  O12 UNL     1      13.508  14.937  36.707  1.00  0.00    -0.325 OA
HETATM    6  C18 UNL     1      13.116  16.166  36.305  1.00  0.00     0.309 C 
ENDROOT
BRANCH   3   7
HETATM    7  C9  UNL     1      10.278  13.639  37.750  1.00  0.00     0.191 C 
HETATM    8  O7  UNL     1       9.285  13.258  36.869  1.00  0.00    -0.353 OA
HETATM    9  C10 UNL     1       8.328  12.569  37.605  1.00  0.00     0.263 C 
HETATM   10  C15 UNL     1       8.657  12.756  39.071  1.00  0.00     0.200 C 
HETATM   11  C16 UNL     1       9.511  14.040  38.955  1.00  0.00     0.247 C 
BRANCH   9  12
HETATM   12  N2  UNL     1       8.327  11.203  37.190  1.00  0.00    -0.280 N 
HETATM   13  C11 UNL     1       9.356  10.704  36.501  1.00  0.00     0.104 A 
HETATM   14  C12 UNL     1       9.304   9.379  36.125  1.00  0.00     0.092 A 
HETATM   15  C13 UNL     1       8.223   8.612  36.458  1.00  0.00     0.250 A 
HETATM   16  O8  UNL     1       8.190   7.408  36.110  1.00  0.00    -0.268 OA
HETATM   17  N3  UNL     1       7.199   9.137  37.153  1.00  0.00    -0.275 N 
HETATM   18  C14 UNL     1       7.276  10.435  37.507  1.00  0.00     0.331 A 
ATOM     19  H3  UNL     1       6.388   8.571  37.405  1.00  0.00     0.173 HD
HETATM   20  O9  UNL     1       6.281  10.876  38.161  1.00  0.00    -0.246 OA
ENDBRANCH   9  12
BRANCH  10  21
HETATM   21  O10 UNL     1       9.551  11.783  39.537  1.00  0.00    -0.389 OA
ATOM     22  H10 UNL     1      10.421  11.894  39.171  1.00  0.00     0.210 HD
ENDBRANCH  10  21
BRANCH  11  23
HETATM   23  N4  UNL     1       8.543  15.096  38.723  1.00  0.00    -0.070 N 
ATOM     24  H43 UNL     1       8.895  15.756  38.029  1.00  0.00     0.274 HD
ATOM     25  H42 UNL     1       7.732  14.731  38.222  1.00  0.00     0.274 HD
ATOM     26  H41 UNL     1       8.249  15.589  39.565  1.00  0.00     0.274 HD
ENDBRANCH  11  23
ENDBRANCH   3   7
BRANCH   4  27
HETATM   27  O11 UNL     1      12.416  13.609  35.304  1.00  0.00    -0.368 OA
ATOM     28  H11 UNL     1      13.234  13.280  34.949  1.00  0.00     0.212 HD
ENDBRANCH   4  27
BRANCH   1  29
HETATM   29  N1  UNL     1      11.473  17.089  34.755  1.00  0.00    -0.328 N 
HETATM   30  C6  UNL     1      11.414  18.466  34.581  1.00  0.00     0.251 C 
HETATM   31  O5  UNL     1      11.544  19.251  35.582  1.00  0.00    -0.270 OA
ATOM     32  H1  UNL     1      11.361  16.494  33.934  1.00  0.00     0.165 HD
BRANCH  30  33
HETATM   33  C5  UNL     1      11.202  19.084  33.257  1.00  0.00     0.241 C 
BRANCH  33  34
HETATM   34  C4  UNL     1       9.724  19.110  32.880  1.00  0.00     0.187 C 
BRANCH  34  35
HETATM   35  C3  UNL     1       9.168  20.490  32.853  1.00  0.00     0.178 C 
BRANCH  35  36
HETATM   36  C2  UNL     1       8.565  21.025  34.106  1.00  0.00     0.145 C 
HETATM   37  C1  UNL     1       9.489  22.095  34.692  1.00  0.00     0.042 C 
BRANCH  36  38
HETATM   38  O1  UNL     1       7.275  21.495  33.982  1.00  0.00    -0.393 OA
ATOM     39  H1  UNL     1       6.645  20.853  34.287  1.00  0.00     0.210 HD
ENDBRANCH  36  38
ENDBRANCH  35  36
BRANCH  35  40
HETATM   40  O2  UNL     1       8.481  20.817  31.705  1.00  0.00    -0.390 OA
ATOM     41  H2  UNL     1       8.034  21.655  31.740  1.00  0.00     0.210 HD
ENDBRANCH  35  40
ENDBRANCH  34  35
BRANCH  34  42
HETATM   42  O3  UNL     1       9.073  18.401  33.923  1.00  0.00    -0.390 OA
ATOM     43  H3  UNL     1       8.909  19.012  34.632  1.00  0.00     0.210 HD
ENDBRANCH  34  42
ENDBRANCH  33  34
BRANCH  33  44
HETATM   44  O4  UNL     1      11.911  18.305  32.317  1.00  0.00    -0.383 OA
ATOM     45  H4  UNL     1      11.293  17.839  31.766  1.00  0.00     0.210 HD
ENDBRANCH  33  44
ENDBRANCH  30  33
ENDBRANCH   1  29
BRANCH   6  46
HETATM   46  O13 UNL     1      13.681  17.098  37.216  1.00  0.00    -0.367 OA
ATOM     47  H13 UNL     1      14.277  16.677  37.824  1.00  0.00     0.212 HD
ENDBRANCH   6  46
TORSDOF 15
ENDMDL
MODEL 5
REMARK VINA RESULT: -7.997094157      2.577      9.015
REMARK  15 active torsions:
REMARK  status: ('A' for Active; 'I' for Inactive)
REMARK    1  A    between atoms: C2_2  and  O1_3 
REMARK    2  A    between atoms: C2_2  and  C3_5 
REMARK    3  A    between atoms: C3_5  and  O2_6 
REMARK    4  A    between atoms: C3_5  and  C4_8 
REMARK    5  A    between atoms: C4_8  and  O3_9 
REMARK    6  A    between atoms: C4_8  and  C5_11 
REMARK    7  A    between atoms: C5_11  and  O4_12 
REMARK    8  A    between atoms: C5_11  and  C6_14 
REMARK       I    between atoms: C6_14  and  N1_16 
REMARK    9  A    between atoms: N1_16  and  C7_18 
REMARK   10  A    between atoms: C8_20  and  C9_21 
REMARK   11  A    between atoms: C10_23  and  N2_24 
REMARK   12  A    between atoms: C15_33  and  O10_34 
REMARK   13  A    between atoms: C16_36  and  N4_37 
REMARK   14  A    between atoms: C17_41  and  O11_42 
REMARK   15  A    between atoms: C18_45  and  O13_46 
ROOT
HETATM    1  C7  UNL     1      12.724  10.944  34.430  1.00  0.00     0.279 C 
HETATM    2  O6  UNL     1      13.011  11.990  35.295  1.00  0.00    -0.349 OA
HETATM    3  C8  UNL     1      14.352  12.274  35.236  1.00  0.00     0.210 C 
HETATM    4  C17 UNL     1      15.063  11.076  35.794  1.00  0.00     0.291 C 
HETATM    5  O12 UNL     1      14.975  10.077  34.834  1.00  0.00    -0.325 OA
HETATM    6  C18 UNL     1      13.780   9.938  34.220  1.00  0.00     0.309 C 
ENDROOT
BRANCH   3   7
HETATM    7  C9  UNL     1      14.706  13.575  35.782  1.00  0.00     0.191 C 
HETATM    8  O7  UNL     1      15.519  13.551  36.898  1.00  0.00    -0.353 OA
HETATM    9  C10 UNL     1      15.580  14.851  37.386  1.00  0.00     0.263 C 
HETATM   10  C15 UNL     1      14.539  15.666  36.648  1.00  0.00     0.200 C 
HETATM   11  C16 UNL     1      13.626  14.509  36.183  1.00  0.00     0.247 C 
BRANCH   9  12
HETATM   12  N2  UNL     1      16.911  15.341  37.222  1.00  0.00    -0.280 N 
HETATM   13  C11 UNL     1      17.716  14.815  36.296  1.00  0.00     0.104 A 
HETATM   14  C12 UNL     1      18.991  15.325  36.178  1.00  0.00     0.092 A 
HETATM   15  C13 UNL     1      19.403  16.341  36.995  1.00  0.00     0.250 A 
HETATM   16  O8  UNL     1      20.565  16.795  36.876  1.00  0.00    -0.268 OA
HETATM   17  N3  UNL     1      18.574  16.855  37.920  1.00  0.00    -0.275 N 
HETATM   18  C14 UNL     1      17.333  16.336  38.013  1.00  0.00     0.331 A 
ATOM     19  H3  UNL     1      18.874  17.613  38.533  1.00  0.00     0.173 HD
HETATM   20  O9  UNL     1      16.595  16.860  38.904  1.00  0.00    -0.246 OA
ENDBRANCH   9  12
BRANCH  10  21
HETATM   21  O10 UNL     1      15.045  16.211  35.460  1.00  0.00    -0.389 OA
ATOM     22  H10 UNL     1      14.926  15.626  34.720  1.00  0.00     0.210 HD
ENDBRANCH  10  21
BRANCH  11  23
HETATM   23  N4  UNL     1      12.909  14.114  37.382  1.00  0.00    -0.070 N 
ATOM     24  H43 UNL     1      12.796  13.100  37.411  1.00  0.00     0.274 HD
ATOM     25  H42 UNL     1      13.493  14.249  38.207  1.00  0.00     0.274 HD
ATOM     26  H41 UNL     1      12.008  14.575  37.504  1.00  0.00     0.274 HD
ENDBRANCH  11  23
ENDBRANCH   3   7
BRANCH   4  27
HETATM   27  O11 UNL     1      14.384  10.549  36.921  1.00  0.00    -0.368 OA
ATOM     28  H11 UNL     1      14.943   9.969  37.424  1.00  0.00     0.212 HD
ENDBRANCH   4  27
BRANCH   1  29
HETATM   29  N1  UNL     1      11.437  10.316  34.785  1.00  0.00    -0.328 N 
HETATM   30  C6  UNL     1      11.004  10.135  36.093  1.00  0.00     0.251 C 
HETATM   31  O5  UNL     1      11.732  10.514  37.074  1.00  0.00    -0.270 OA
ATOM     32  H1  UNL     1      10.831   9.998  34.028  1.00  0.00     0.165 HD
BRANCH  30  33
HETATM   33  C5  UNL     1       9.707   9.507  36.414  1.00  0.00     0.241 C 
BRANCH  33  34
HETATM   34  C4  UNL     1       8.830  10.428  37.255  1.00  0.00     0.187 C 
BRANCH  34  35
HETATM   35  C3  UNL     1       7.382  10.110  37.123  1.00  0.00     0.178 C 
BRANCH  35  36
HETATM   36  C2  UNL     1       6.406  11.004  37.809  1.00  0.00     0.145 C 
HETATM   37  C1  UNL     1       5.117  10.226  38.079  1.00  0.00     0.042 C 
BRANCH  36  38
HETATM   38  O1  UNL     1       6.872  11.611  38.956  1.00  0.00    -0.393 OA
ATOM     39  H1  UNL     1       6.309  12.330  39.216  1.00  0.00     0.210 HD
ENDBRANCH  36  38
ENDBRANCH  35  36
BRANCH  35  40
HETATM   40  O2  UNL     1       7.072   8.770  37.191  1.00  0.00    -0.390 OA
ATOM     41  H2  UNL     1       7.590   8.217  36.617  1.00  0.00     0.210 HD
ENDBRANCH  35  40
ENDBRANCH  34  35
BRANCH  34  42
HETATM   42  O3  UNL     1       9.041  11.722  36.713  1.00  0.00    -0.390 OA
ATOM     43  H3  UNL     1       9.751  11.662  36.085  1.00  0.00     0.210 HD
ENDBRANCH  34  42
ENDBRANCH  33  34
BRANCH  33  44
HETATM   44  O4  UNL     1       9.986   8.331  37.144  1.00  0.00    -0.383 OA
ATOM     45  H4  UNL     1      10.754   7.908  36.777  1.00  0.00     0.210 HD
ENDBRANCH  33  44
ENDBRANCH  30  33
ENDBRANCH   1  29
BRANCH   6  46
HETATM   46  O13 UNL     1      14.047   9.736  32.840  1.00  0.00    -0.367 OA
ATOM     47  H13 UNL     1      14.451  10.499  32.445  1.00  0.00     0.212 HD
ENDBRANCH   6  46
TORSDOF 15
ENDMDL
