MODEL 1
REMARK VINA RESULT: -9.161200010      0.000      0.000
REMARK  13 active torsions:
REMARK  status: ('A' for Active; 'I' for Inactive)
REMARK    1  A    between atoms: N1_1  and  N2_4 
REMARK    2  A    between atoms: N3_6  and  C1_8 
REMARK    3  A    between atoms: C2_9  and  C3_10 
REMARK    4  A    between atoms: C3_10  and  O1_11 
REMARK    5  A    between atoms: O1_11  and  C4_12 
REMARK    6  A    between atoms: C4_12  and  C5_14 
REMARK    7  A    between atoms: C11_21  and  O4_22 
REMARK    8  A    between atoms: O4_22  and  C12_23 
REMARK    9  A    between atoms: C13_24  and  O5_25 
REMARK   10  A    between atoms: C14_27  and  O6_28 
REMARK   11  A    between atoms: C15_30  and  N4_31 
REMARK   12  A    between atoms: C19_38  and  O7_39 
REMARK   13  A    between atoms: C20_41  and  O8_42 
ROOT
HETATM    1  C1  UNL     1      40.904  42.526  10.706  1.00  0.00     0.163 C 
HETATM    2  C2  UNL     1      41.438  41.412   9.870  1.00  0.00     0.176 C 
HETATM    3  O3  UNL     1      41.732  41.898   8.614  1.00  0.00    -0.349 OA
HETATM    4  C11 UNL     1      42.946  42.615   8.762  1.00  0.00     0.292 C 
HETATM    5  C19 UNL     1      42.666  43.873   9.515  1.00  0.00     0.204 C 
HETATM    6  C20 UNL     1      41.773  43.737  10.687  1.00  0.00     0.178 C 
ENDROOT
BRANCH   4   7
HETATM    7  O4  UNL     1      43.486  42.956   7.543  1.00  0.00    -0.350 OA
BRANCH   7   8
HETATM    8  C12 UNL     1      44.875  42.868   7.503  1.00  0.00     0.160 C 
HETATM    9  C13 UNL     1      45.483  43.616   6.362  1.00  0.00     0.178 C 
HETATM   10  C14 UNL     1      45.709  42.747   5.136  1.00  0.00     0.180 C 
HETATM   11  C15 UNL     1      46.672  41.676   5.546  1.00  0.00     0.219 C 
HETATM   12  C16 UNL     1      46.039  40.821   6.585  1.00  0.00     0.026 A 
HETATM   13  C17 UNL     1      44.591  40.499   6.574  1.00  0.00     0.015 A 
HETATM   14  C18 UNL     1      45.248  41.444   7.606  1.00  0.00     0.024 A 
BRANCH   9  15
HETATM   15  O5  UNL     1      46.759  44.044   6.769  1.00  0.00    -0.390 OA
ATOM     16  H5  UNL     1      47.384  43.388   6.485  1.00  0.00     0.210 HD
ENDBRANCH   9  15
BRANCH  10  17
HETATM   17  O6  UNL     1      46.279  43.600   4.164  1.00  0.00    -0.391 OA
ATOM     18  H6  UNL     1      45.974  44.474   4.380  1.00  0.00     0.210 HD
ENDBRANCH  10  17
BRANCH  11  19
HETATM   19  N4  UNL     1      47.074  40.900   4.391  1.00  0.00    -0.072 N 
ATOM     20  H43 UNL     1      46.296  40.374   3.993  1.00  0.00     0.274 HD
ATOM     21  H42 UNL     1      47.281  41.492   3.587  1.00  0.00     0.274 HD
ATOM     22  H41 UNL     1      47.860  40.295   4.631  1.00  0.00     0.274 HD
ENDBRANCH  11  19
ENDBRANCH   7   8
ENDBRANCH   4   7
BRANCH   5  23
HETATM   23  O7  UNL     1      42.206  44.821   8.572  1.00  0.00    -0.388 OA
ATOM     24  H7  UNL     1      42.237  45.670   8.997  1.00  0.00     0.210 HD
ENDBRANCH   5  23
BRANCH   2  25
HETATM   25  C3  UNL     1      40.535  40.223   9.876  1.00  0.00     0.213 C 
BRANCH  25  26
HETATM   26  O1  UNL     1      39.598  40.205   8.842  1.00  0.00    -0.315 OA
BRANCH  26  27
HETATM   27  C4  UNL     1      39.258  38.938   8.329  1.00  0.00     0.293 C 
HETATM   28  O2  UNL     1      38.402  38.229   8.909  1.00  0.00    -0.259 OA
BRANCH  27  29
HETATM   29  C5  UNL     1      39.885  38.427   7.128  1.00  0.00     0.039 A 
HETATM   30  C6  UNL     1      41.076  38.991   6.667  1.00  0.00     0.017 A 
HETATM   31  C7  UNL     1      41.680  38.509   5.524  1.00  0.00     0.001 A 
HETATM   32  C8  UNL     1      41.065  37.462   4.867  1.00  0.00     0.000 A 
HETATM   33  C9  UNL     1      39.895  36.896   5.308  1.00  0.00     0.001 A 
HETATM   34  C10 UNL     1      39.302  37.386   6.451  1.00  0.00     0.017 A 
ENDBRANCH  27  29
ENDBRANCH  26  27
ENDBRANCH  25  26
ENDBRANCH   2  25
BRANCH   6  35
HETATM   35  O8  UNL     1      42.521  43.874  11.872  1.00  0.00    -0.391 OA
ATOM     36  H8  UNL     1      43.445  44.012  11.701  1.00  0.00     0.210 HD
ENDBRANCH   6  35
BRANCH   1  37
HETATM   37  N3  UNL     1      39.513  42.830  10.401  1.00  0.00    -0.313 N 
HETATM   38  N2  UNL     1      39.313  43.695   9.549  1.00  0.00    -0.253 N 
ATOM     39  H2  UNL     1      40.259  44.061   9.444  1.00  0.00     0.207 HD
ATOM     40  H3  UNL     1      38.744  42.351  10.869  1.00  0.00     0.182 HD
BRANCH  38  41
HETATM   41  N1  UNL     1      38.718  44.402   8.744  1.00  0.00    -0.331 N 
ATOM     42  H12 UNL     1      39.401  44.330   7.991  1.00  0.00     0.178 HD
ATOM     43  H11 UNL     1      37.997  45.004   8.349  1.00  0.00     0.178 HD
ENDBRANCH  38  41
ENDBRANCH   1  37
TORSDOF 13
ENDMDL
MODEL 2
REMARK VINA RESULT: -8.945354129      1.303      1.801
REMARK  13 active torsions:
REMARK  status: ('A' for Active; 'I' for Inactive)
REMARK    1  A    between atoms: N1_1  and  N2_4 
REMARK    2  A    between atoms: N3_6  and  C1_8 
REMARK    3  A    between atoms: C2_9  and  C3_10 
REMARK    4  A    between atoms: C3_10  and  O1_11 
REMARK    5  A    between atoms: O1_11  and  C4_12 
REMARK    6  A    between atoms: C4_12  and  C5_14 
REMARK    7  A    between atoms: C11_21  and  O4_22 
REMARK    8  A    between atoms: O4_22  and  C12_23 
REMARK    9  A    between atoms: C13_24  and  O5_25 
REMARK   10  A    between atoms: C14_27  and  O6_28 
REMARK   11  A    between atoms: C15_30  and  N4_31 
REMARK   12  A    between atoms: C19_38  and  O7_39 
REMARK   13  A    between atoms: C20_41  and  O8_42 
ROOT
HETATM    1  C1  UNL     1      41.632  42.306  10.649  1.00  0.00     0.163 C 
HETATM    2  C2  UNL     1      41.929  41.115   9.801  1.00  0.00     0.176 C 
HETATM    3  O3  UNL     1      42.196  41.537   8.516  1.00  0.00    -0.349 OA
HETATM    4  C11 UNL     1      43.511  42.065   8.559  1.00  0.00     0.292 C 
HETATM    5  C19 UNL     1      43.480  43.359   9.301  1.00  0.00     0.204 C 
HETATM    6  C20 UNL     1      42.668  43.372  10.538  1.00  0.00     0.178 C 
ENDROOT
BRANCH   4   7
HETATM    7  O4  UNL     1      44.001  42.307   7.295  1.00  0.00    -0.350 OA
BRANCH   7   8
HETATM    8  C12 UNL     1      44.433  41.160   6.635  1.00  0.00     0.160 C 
HETATM    9  C13 UNL     1      45.595  40.495   7.301  1.00  0.00     0.178 C 
HETATM   10  C14 UNL     1      46.935  40.942   6.740  1.00  0.00     0.180 C 
HETATM   11  C15 UNL     1      46.945  40.543   5.296  1.00  0.00     0.219 C 
HETATM   12  C16 UNL     1      45.889  41.299   4.573  1.00  0.00     0.026 A 
HETATM   13  C17 UNL     1      45.539  42.699   4.912  1.00  0.00     0.015 A 
HETATM   14  C18 UNL     1      44.619  41.494   5.210  1.00  0.00     0.024 A 
BRANCH   9  15
HETATM   15  O5  UNL     1      45.505  39.119   7.030  1.00  0.00    -0.390 OA
ATOM     16  H5  UNL     1      45.885  38.657   7.769  1.00  0.00     0.210 HD
ENDBRANCH   9  15
BRANCH  10  17
HETATM   17  O6  UNL     1      47.911  40.229   7.472  1.00  0.00    -0.391 OA
ATOM     18  H6  UNL     1      48.498  40.888   7.824  1.00  0.00     0.210 HD
ENDBRANCH  10  17
BRANCH  11  19
HETATM   19  N4  UNL     1      48.255  40.780   4.724  1.00  0.00    -0.072 N 
ATOM     20  H43 UNL     1      48.391  40.265   3.854  1.00  0.00     0.274 HD
ATOM     21  H42 UNL     1      48.345  41.726   4.354  1.00  0.00     0.274 HD
ATOM     22  H41 UNL     1      48.980  40.568   5.410  1.00  0.00     0.274 HD
ENDBRANCH  11  19
ENDBRANCH   7   8
ENDBRANCH   4   7
BRANCH   5  23
HETATM   23  O7  UNL     1      43.096  44.355   8.374  1.00  0.00    -0.388 OA
ATOM     24  H7  UNL     1      43.783  45.010   8.372  1.00  0.00     0.210 HD
ENDBRANCH   5  23
BRANCH   2  25
HETATM   25  C3  UNL     1      40.862  40.075   9.901  1.00  0.00     0.213 C 
BRANCH  25  26
HETATM   26  O1  UNL     1      39.842  40.204   8.956  1.00  0.00    -0.315 OA
BRANCH  26  27
HETATM   27  C4  UNL     1      39.364  39.007   8.388  1.00  0.00     0.293 C 
HETATM   28  O2  UNL     1      38.427  38.377   8.933  1.00  0.00    -0.259 OA
BRANCH  27  29
HETATM   29  C5  UNL     1      39.939  38.478   7.168  1.00  0.00     0.039 A 
HETATM   30  C6  UNL     1      41.109  39.035   6.650  1.00  0.00     0.017 A 
HETATM   31  C7  UNL     1      41.663  38.537   5.488  1.00  0.00     0.001 A 
HETATM   32  C8  UNL     1      41.020  37.482   4.872  1.00  0.00     0.000 A 
HETATM   33  C9  UNL     1      39.869  36.924   5.370  1.00  0.00     0.001 A 
HETATM   34  C10 UNL     1      39.326  37.430   6.530  1.00  0.00     0.017 A 
ENDBRANCH  27  29
ENDBRANCH  26  27
ENDBRANCH  25  26
ENDBRANCH   2  25
BRANCH   6  35
HETATM   35  O8  UNL     1      43.516  43.409  11.662  1.00  0.00    -0.391 OA
ATOM     36  H8  UNL     1      44.434  43.441  11.419  1.00  0.00     0.210 HD
ENDBRANCH   6  35
BRANCH   1  37
HETATM   37  N3  UNL     1      40.283  42.812  10.440  1.00  0.00    -0.313 N 
HETATM   38  N2  UNL     1      40.089  43.452   9.407  1.00  0.00    -0.253 N 
ATOM     39  H2  UNL     1      41.051  43.568   9.088  1.00  0.00     0.207 HD
ATOM     40  H3  UNL     1      39.537  42.645  11.115  1.00  0.00     0.182 HD
BRANCH  38  41
HETATM   41  N1  UNL     1      39.494  44.040   8.512  1.00  0.00    -0.331 N 
ATOM     42  H12 UNL     1      40.216  43.939   7.799  1.00  0.00     0.178 HD
ATOM     43  H11 UNL     1      38.758  44.555   8.029  1.00  0.00     0.178 HD
ENDBRANCH  38  41
ENDBRANCH   1  37
TORSDOF 13
ENDMDL
MODEL 3
REMARK VINA RESULT: -8.663133368      1.884      2.596
REMARK  13 active torsions:
REMARK  status: ('A' for Active; 'I' for Inactive)
REMARK    1  A    between atoms: N1_1  and  N2_4 
REMARK    2  A    between atoms: N3_6  and  C1_8 
REMARK    3  A    between atoms: C2_9  and  C3_10 
REMARK    4  A    between atoms: C3_10  and  O1_11 
REMARK    5  A    between atoms: O1_11  and  C4_12 
REMARK    6  A    between atoms: C4_12  and  C5_14 
REMARK    7  A    between atoms: C11_21  and  O4_22 
REMARK    8  A    between atoms: O4_22  and  C12_23 
REMARK    9  A    between atoms: C13_24  and  O5_25 
REMARK   10  A    between atoms: C14_27  and  O6_28 
REMARK   11  A    between atoms: C15_30  and  N4_31 
REMARK   12  A    between atoms: C19_38  and  O7_39 
REMARK   13  A    between atoms: C20_41  and  O8_42 
ROOT
HETATM    1  C1  UNL     1      41.147  43.055   9.678  1.00  0.00     0.163 C 
HETATM    2  C2  UNL     1      41.497  41.612   9.827  1.00  0.00     0.176 C 
HETATM    3  O3  UNL     1      42.396  41.268   8.840  1.00  0.00    -0.349 OA
HETATM    4  C11 UNL     1      43.640  41.803   9.260  1.00  0.00     0.292 C 
HETATM    5  C19 UNL     1      43.590  43.288   9.117  1.00  0.00     0.204 C 
HETATM    6  C20 UNL     1      42.344  43.938   9.580  1.00  0.00     0.178 C 
ENDROOT
BRANCH   4   7
HETATM    7  O4  UNL     1      44.680  41.334   8.490  1.00  0.00    -0.350 OA
BRANCH   7   8
HETATM    8  C12 UNL     1      44.369  40.180   7.775  1.00  0.00     0.160 C 
HETATM    9  C13 UNL     1      44.987  38.944   8.345  1.00  0.00     0.178 C 
HETATM   10  C14 UNL     1      46.322  38.601   7.707  1.00  0.00     0.180 C 
HETATM   11  C15 UNL     1      46.047  38.347   6.256  1.00  0.00     0.219 C 
HETATM   12  C16 UNL     1      45.564  39.602   5.624  1.00  0.00     0.026 A 
HETATM   13  C17 UNL     1      46.073  40.938   6.020  1.00  0.00     0.015 A 
HETATM   14  C18 UNL     1      44.649  40.435   6.349  1.00  0.00     0.024 A 
BRANCH   9  15
HETATM   15  O5  UNL     1      44.131  37.869   8.049  1.00  0.00    -0.390 OA
ATOM     16  H5  UNL     1      43.294  38.049   8.460  1.00  0.00     0.210 HD
ENDBRANCH   9  15
BRANCH  10  17
HETATM   17  O6  UNL     1      46.762  37.424   8.356  1.00  0.00    -0.391 OA
ATOM     18  H6  UNL     1      47.701  37.391   8.214  1.00  0.00     0.210 HD
ENDBRANCH  10  17
BRANCH  11  19
HETATM   19  N4  UNL     1      47.240  37.846   5.604  1.00  0.00    -0.072 N 
ATOM     20  H43 UNL     1      47.344  36.838   5.720  1.00  0.00     0.274 HD
ATOM     21  H42 UNL     1      47.159  37.873   4.588  1.00  0.00     0.274 HD
ATOM     22  H41 UNL     1      48.060  38.355   5.936  1.00  0.00     0.274 HD
ENDBRANCH  11  19
ENDBRANCH   7   8
ENDBRANCH   4   7
BRANCH   5  23
HETATM   23  O7  UNL     1      43.903  43.582   7.770  1.00  0.00    -0.388 OA
ATOM     24  H7  UNL     1      44.822  43.376   7.649  1.00  0.00     0.210 HD
ENDBRANCH   5  23
BRANCH   2  25
HETATM   25  C3  UNL     1      40.285  40.743   9.889  1.00  0.00     0.213 C 
BRANCH  25  26
HETATM   26  O1  UNL     1      39.679  40.510   8.653  1.00  0.00    -0.315 OA
BRANCH  26  27
HETATM   27  C4  UNL     1      39.400  39.166   8.340  1.00  0.00     0.293 C 
HETATM   28  O2  UNL     1      38.671  38.478   9.094  1.00  0.00    -0.259 OA
BRANCH  27  29
HETATM   29  C5  UNL     1      39.943  38.548   7.148  1.00  0.00     0.039 A 
HETATM   30  C6  UNL     1      41.135  39.022   6.598  1.00  0.00     0.017 A 
HETATM   31  C7  UNL     1      41.660  38.440   5.463  1.00  0.00     0.001 A 
HETATM   32  C8  UNL     1      40.965  37.385   4.904  1.00  0.00     0.000 A 
HETATM   33  C9  UNL     1      39.792  36.908   5.434  1.00  0.00     0.001 A 
HETATM   34  C10 UNL     1      39.279  37.498   6.568  1.00  0.00     0.017 A 
ENDBRANCH  27  29
ENDBRANCH  26  27
ENDBRANCH  25  26
ENDBRANCH   2  25
BRANCH   6  35
HETATM   35  O8  UNL     1      42.589  44.638  10.777  1.00  0.00    -0.391 OA
ATOM     36  H8  UNL     1      43.050  44.107  11.416  1.00  0.00     0.210 HD
ENDBRANCH   6  35
BRANCH   1  37
HETATM   37  N3  UNL     1      40.191  43.284   8.604  1.00  0.00    -0.313 N 
HETATM   38  N2  UNL     1      39.287  44.087   8.835  1.00  0.00    -0.253 N 
ATOM     39  H2  UNL     1      39.418  44.217   9.838  1.00  0.00     0.207 HD
ATOM     40  H3  UNL     1      40.266  42.806   7.707  1.00  0.00     0.182 HD
BRANCH  38  41
HETATM   41  N1  UNL     1      38.333  44.832   8.645  1.00  0.00    -0.331 N 
ATOM     42  H12 UNL     1      37.628  44.103   8.544  1.00  0.00     0.178 HD
ATOM     43  H11 UNL     1      37.799  45.692   8.524  1.00  0.00     0.178 HD
ENDBRANCH  38  41
ENDBRANCH   1  37
TORSDOF 13
ENDMDL
MODEL 4
REMARK VINA RESULT: -8.155597493      2.340      5.902
REMARK  13 active torsions:
REMARK  status: ('A' for Active; 'I' for Inactive)
REMARK    1  A    between atoms: N1_1  and  N2_4 
REMARK    2  A    between atoms: N3_6  and  C1_8 
REMARK    3  A    between atoms: C2_9  and  C3_10 
REMARK    4  A    between atoms: C3_10  and  O1_11 
REMARK    5  A    between atoms: O1_11  and  C4_12 
REMARK    6  A    between atoms: C4_12  and  C5_14 
REMARK    7  A    between atoms: C11_21  and  O4_22 
REMARK    8  A    between atoms: O4_22  and  C12_23 
REMARK    9  A    between atoms: C13_24  and  O5_25 
REMARK   10  A    between atoms: C14_27  and  O6_28 
REMARK   11  A    between atoms: C15_30  and  N4_31 
REMARK   12  A    between atoms: C19_38  and  O7_39 
REMARK   13  A    between atoms: C20_41  and  O8_42 
ROOT
HETATM    1  C1  UNL     1      45.516  39.801   4.837  1.00  0.00     0.163 C 
HETATM    2  C2  UNL     1      44.173  40.285   5.269  1.00  0.00     0.176 C 
HETATM    3  O3  UNL     1      44.175  40.442   6.639  1.00  0.00    -0.349 OA
HETATM    4  C11 UNL     1      44.889  41.642   6.880  1.00  0.00     0.292 C 
HETATM    5  C19 UNL     1      46.335  41.398   6.603  1.00  0.00     0.204 C 
HETATM    6  C20 UNL     1      46.634  40.627   5.376  1.00  0.00     0.178 C 
ENDROOT
BRANCH   4   7
HETATM    7  O4  UNL     1      44.767  42.051   8.189  1.00  0.00    -0.350 OA
BRANCH   7   8
HETATM    8  C12 UNL     1      43.470  41.953   8.685  1.00  0.00     0.160 C 
HETATM    9  C13 UNL     1      42.755  43.265   8.737  1.00  0.00     0.178 C 
HETATM   10  C14 UNL     1      42.881  43.955  10.085  1.00  0.00     0.180 C 
HETATM   11  C15 UNL     1      42.243  43.046  11.090  1.00  0.00     0.219 C 
HETATM   12  C16 UNL     1      43.020  41.782  11.166  1.00  0.00     0.026 A 
HETATM   13  C17 UNL     1      44.495  41.745  11.023  1.00  0.00     0.015 A 
HETATM   14  C18 UNL     1      43.519  41.202   9.954  1.00  0.00     0.024 A 
BRANCH   9  15
HETATM   15  O5  UNL     1      41.383  43.005   8.566  1.00  0.00    -0.390 OA
ATOM     16  H5  UNL     1      40.986  43.791   8.211  1.00  0.00     0.210 HD
ENDBRANCH   9  15
BRANCH  10  17
HETATM   17  O6  UNL     1      42.160  45.165   9.961  1.00  0.00    -0.391 OA
ATOM     18  H6  UNL     1      41.253  44.910   9.834  1.00  0.00     0.210 HD
ENDBRANCH  10  17
BRANCH  11  19
HETATM   19  N4  UNL     1      42.168  43.705  12.378  1.00  0.00    -0.072 N 
ATOM     20  H43 UNL     1      43.076  44.058  12.680  1.00  0.00     0.274 HD
ATOM     21  H42 UNL     1      41.671  44.594  12.324  1.00  0.00     0.274 HD
ATOM     22  H41 UNL     1      41.754  43.078  13.068  1.00  0.00     0.274 HD
ENDBRANCH  11  19
ENDBRANCH   7   8
ENDBRANCH   4   7
BRANCH   5  23
HETATM   23  O7  UNL     1      46.885  40.820   7.770  1.00  0.00    -0.388 OA
ATOM     24  H7  UNL     1      47.719  40.439   7.523  1.00  0.00     0.210 HD
ENDBRANCH   5  23
BRANCH   2  25
HETATM   25  C3  UNL     1      43.071  39.424   4.747  1.00  0.00     0.213 C 
BRANCH  25  26
HETATM   26  O1  UNL     1      43.135  38.092   5.160  1.00  0.00    -0.315 OA
BRANCH  26  27
HETATM   27  C4  UNL     1      42.755  37.834   6.491  1.00  0.00     0.293 C 
HETATM   28  O2  UNL     1      43.573  37.327   7.296  1.00  0.00    -0.259 OA
BRANCH  27  29
HETATM   29  C5  UNL     1      41.422  38.145   6.961  1.00  0.00     0.039 A 
HETATM   30  C6  UNL     1      41.227  39.187   7.870  1.00  0.00     0.017 A 
HETATM   31  C7  UNL     1      39.959  39.490   8.323  1.00  0.00     0.001 A 
HETATM   32  C8  UNL     1      38.909  38.731   7.845  1.00  0.00     0.000 A 
HETATM   33  C9  UNL     1      39.085  37.705   6.950  1.00  0.00     0.001 A 
HETATM   34  C10 UNL     1      40.356  37.412   6.506  1.00  0.00     0.017 A 
ENDBRANCH  27  29
ENDBRANCH  26  27
ENDBRANCH  25  26
ENDBRANCH   2  25
BRANCH   6  35
HETATM   35  O8  UNL     1      47.183  41.481   4.400  1.00  0.00    -0.391 OA
ATOM     36  H8  UNL     1      48.108  41.317   4.257  1.00  0.00     0.210 HD
ENDBRANCH   6  35
BRANCH   1  37
HETATM   37  N3  UNL     1      45.699  38.378   5.088  1.00  0.00    -0.313 N 
HETATM   38  N2  UNL     1      46.265  38.074   6.137  1.00  0.00    -0.253 N 
ATOM     39  H2  UNL     1      46.594  38.992   6.434  1.00  0.00     0.207 HD
ATOM     40  H3  UNL     1      45.375  37.671   4.429  1.00  0.00     0.182 HD
BRANCH  38  41
HETATM   41  N1  UNL     1      46.692  37.386   7.057  1.00  0.00    -0.331 N 
ATOM     42  H12 UNL     1      46.707  36.501   6.551  1.00  0.00     0.178 HD
ATOM     43  H11 UNL     1      47.034  37.130   7.983  1.00  0.00     0.178 HD
ENDBRANCH  38  41
ENDBRANCH   1  37
TORSDOF 13
ENDMDL
MODEL 5
REMARK VINA RESULT: -8.129458043      1.184      1.330
REMARK  13 active torsions:
REMARK  status: ('A' for Active; 'I' for Inactive)
REMARK    1  A    between atoms: N1_1  and  N2_4 
REMARK    2  A    between atoms: N3_6  and  C1_8 
REMARK    3  A    between atoms: C2_9  and  C3_10 
REMARK    4  A    between atoms: C3_10  and  O1_11 
REMARK    5  A    between atoms: O1_11  and  C4_12 
REMARK    6  A    between atoms: C4_12  and  C5_14 
REMARK    7  A    between atoms: C11_21  and  O4_22 
REMARK    8  A    between atoms: O4_22  and  C12_23 
REMARK    9  A    between atoms: C13_24  and  O5_25 
REMARK   10  A    between atoms: C14_27  and  O6_28 
REMARK   11  A    between atoms: C15_30  and  N4_31 
REMARK   12  A    between atoms: C19_38  and  O7_39 
REMARK   13  A    between atoms: C20_41  and  O8_42 
ROOT
HETATM    1  C1  UNL     1      41.405  42.385  10.686  1.00  0.00     0.163 C 
HETATM    2  C2  UNL     1      41.733  41.116   9.975  1.00  0.00     0.176 C 
HETATM    3  O3  UNL     1      42.196  41.420   8.712  1.00  0.00    -0.349 OA
HETATM    4  C11 UNL     1      43.525  41.876   8.897  1.00  0.00     0.292 C 
HETATM    5  C19 UNL     1      43.480  43.225   9.534  1.00  0.00     0.204 C 
HETATM    6  C20 UNL     1      42.513  43.380  10.644  1.00  0.00     0.178 C 
ENDROOT
BRANCH   4   7
HETATM    7  O4  UNL     1      44.194  41.990   7.700  1.00  0.00    -0.350 OA
BRANCH   7   8
HETATM    8  C12 UNL     1      45.507  41.531   7.748  1.00  0.00     0.160 C 
HETATM    9  C13 UNL     1      46.259  41.750   6.475  1.00  0.00     0.178 C 
HETATM   10  C14 UNL     1      46.207  40.553   5.542  1.00  0.00     0.180 C 
HETATM   11  C15 UNL     1      46.862  39.418   6.269  1.00  0.00     0.219 C 
HETATM   12  C16 UNL     1      46.054  39.079   7.470  1.00  0.00     0.026 A 
HETATM   13  C17 UNL     1      44.574  39.160   7.482  1.00  0.00     0.015 A 
HETATM   14  C18 UNL     1      45.489  40.142   8.248  1.00  0.00     0.024 A 
BRANCH   9  15
HETATM   15  O5  UNL     1      47.615  41.919   6.810  1.00  0.00    -0.390 OA
ATOM     16  H5  UNL     1      48.072  41.127   6.553  1.00  0.00     0.210 HD
ENDBRANCH   9  15
BRANCH  10  17
HETATM   17  O6  UNL     1      46.956  40.926   4.402  1.00  0.00    -0.391 OA
ATOM     18  H6  UNL     1      46.338  41.351   3.819  1.00  0.00     0.210 HD
ENDBRANCH  10  17
BRANCH  11  19
HETATM   19  N4  UNL     1      47.008  38.280   5.386  1.00  0.00    -0.072 N 
ATOM     20  H43 UNL     1      46.106  37.920   5.073  1.00  0.00     0.274 HD
ATOM     21  H42 UNL     1      47.386  38.547   4.477  1.00  0.00     0.274 HD
ATOM     22  H41 UNL     1      47.571  37.557   5.835  1.00  0.00     0.274 HD
ENDBRANCH  11  19
ENDBRANCH   7   8
ENDBRANCH   4   7
BRANCH   5  23
HETATM   23  O7  UNL     1      43.288  44.164   8.495  1.00  0.00    -0.388 OA
ATOM     24  H7  UNL     1      43.161  45.010   8.907  1.00  0.00     0.210 HD
ENDBRANCH   5  23
BRANCH   2  25
HETATM   25  C3  UNL     1      40.597  40.147  10.000  1.00  0.00     0.213 C 
BRANCH  25  26
HETATM   26  O1  UNL     1      39.735  40.242   8.906  1.00  0.00    -0.315 OA
BRANCH  26  27
HETATM   27  C4  UNL     1      39.272  39.024   8.370  1.00  0.00     0.293 C 
HETATM   28  O2  UNL     1      38.344  38.397   8.934  1.00  0.00    -0.259 OA
BRANCH  27  29
HETATM   29  C5  UNL     1      39.851  38.471   7.164  1.00  0.00     0.039 A 
HETATM   30  C6  UNL     1      41.012  39.030   6.626  1.00  0.00     0.017 A 
HETATM   31  C7  UNL     1      41.570  38.509   5.477  1.00  0.00     0.001 A 
HETATM   32  C8  UNL     1      40.941  37.428   4.892  1.00  0.00     0.000 A 
HETATM   33  C9  UNL     1      39.800  36.867   5.409  1.00  0.00     0.001 A 
HETATM   34  C10 UNL     1      39.253  37.396   6.557  1.00  0.00     0.017 A 
ENDBRANCH  27  29
ENDBRANCH  26  27
ENDBRANCH  25  26
ENDBRANCH   2  25
BRANCH   6  35
HETATM   35  O8  UNL     1      43.205  43.460  11.868  1.00  0.00    -0.391 OA
ATOM     36  H8  UNL     1      44.143  43.542  11.747  1.00  0.00     0.210 HD
ENDBRANCH   6  35
BRANCH   1  37
HETATM   37  N3  UNL     1      40.130  42.946  10.258  1.00  0.00    -0.313 N 
HETATM   38  N2  UNL     1      40.135  43.576   9.201  1.00  0.00    -0.253 N 
ATOM     39  H2  UNL     1      41.140  43.645   9.040  1.00  0.00     0.207 HD
ATOM     40  H3  UNL     1      39.279  42.824  10.806  1.00  0.00     0.182 HD
BRANCH  38  41
HETATM   41  N1  UNL     1      39.718  44.174   8.216  1.00  0.00    -0.331 N 
ATOM     42  H12 UNL     1      39.275  43.374   7.766  1.00  0.00     0.178 HD
ATOM     43  H11 UNL     1      39.532  44.939   7.568  1.00  0.00     0.178 HD
ENDBRANCH  38  41
ENDBRANCH   1  37
TORSDOF 13
ENDMDL
