MODEL 1
REMARK VINA RESULT: -7.652971403      0.000      0.000
REMARK  11 active torsions:
REMARK  status: ('A' for Active; 'I' for Inactive)
REMARK    1  A    between atoms: N1_2  and  C2_4 
REMARK    2  A    between atoms: C3_5  and  O1_6 
REMARK    3  A    between atoms: O1_6  and  C4_7 
REMARK    4  A    between atoms: C5_9  and  C6_10 
REMARK    5  A    between atoms: C6_10  and  N2_11 
REMARK    6  A    between atoms: C7_15  and  O3_16 
REMARK    7  A    between atoms: C8_19  and  O5_20 
REMARK    8  A    between atoms: C15_28  and  N3_29 
REMARK       I    between atoms: N3_29  and  C16_31 
REMARK    9  A    between atoms: C16_31  and  C17_33 
REMARK   10  A    between atoms: C17_33  and  C18_34 
REMARK   11  A    between atoms: C20_37  and  O8_38 
ROOT
HETATM    1  C2  UNL     1      42.253  40.812   9.063  1.00  0.00     0.069 C 
HETATM    2  C3  UNL     1      40.805  40.677   9.497  1.00  0.00     0.097 C 
HETATM    3  C9  UNL     1      40.262  39.299   9.664  1.00  0.00     0.039 C 
HETATM    4  C10 UNL     1      39.318  38.715   8.731  1.00  0.00    -0.001 C 
HETATM    5  C11 UNL     1      39.343  38.600   7.288  1.00  0.00    -0.027 C 
HETATM    6  C12 UNL     1      40.274  37.714   6.560  1.00  0.00     0.027 C 
HETATM    7  C13 UNL     1      41.324  38.442   5.662  1.00  0.00     0.006 C 
HETATM    8  C14 UNL     1      41.899  39.367   6.635  1.00  0.00     0.028 C 
HETATM    9  C15 UNL     1      42.866  40.418   6.563  1.00  0.00     0.119 C 
HETATM   10  C20 UNL     1      42.603  41.351   7.758  1.00  0.00     0.193 C 
ENDROOT
BRANCH   2  11
HETATM   11  O1  UNL     1      39.977  41.601   8.906  1.00  0.00    -0.313 OA
BRANCH  11  12
HETATM   12  C4  UNL     1      39.433  42.567   9.711  1.00  0.00     0.322 C 
HETATM   13  O2  UNL     1      39.671  42.208  11.035  1.00  0.00    -0.344 OA
HETATM   14  C5  UNL     1      39.385  43.202  11.945  1.00  0.00     0.205 C 
HETATM   15  C7  UNL     1      40.138  44.479  11.624  1.00  0.00     0.290 C 
HETATM   16  O4  UNL     1      39.783  44.879  10.358  1.00  0.00    -0.324 OA
HETATM   17  C8  UNL     1      40.075  43.895   9.395  1.00  0.00     0.316 C 
BRANCH  14  18
HETATM   18  C6  UNL     1      37.904  43.495  12.017  1.00  0.00     0.266 C 
BRANCH  18  19
HETATM   19  N2  UNL     1      37.682  44.885  12.305  1.00  0.00    -0.077 N 
ATOM     20  H23 UNL     1      38.112  45.163  13.188  1.00  0.00     0.274 HD
ATOM     21  H22 UNL     1      38.213  45.492  11.681  1.00  0.00     0.274 HD
ATOM     22  H21 UNL     1      36.685  45.098  12.284  1.00  0.00     0.274 HD
ENDBRANCH  18  19
ENDBRANCH  14  18
BRANCH  15  23
HETATM   23  O3  UNL     1      41.499  44.256  11.783  1.00  0.00    -0.368 OA
ATOM     24  H3  UNL     1      41.937  44.401  10.953  1.00  0.00     0.212 HD
ENDBRANCH  15  23
BRANCH  17  25
HETATM   25  O5  UNL     1      39.581  44.383   8.175  1.00  0.00    -0.367 OA
ATOM     26  H5  UNL     1      40.303  44.656   7.622  1.00  0.00     0.212 HD
ENDBRANCH  17  25
ENDBRANCH  11  12
ENDBRANCH   2  11
BRANCH   1  27
HETATM   27  N1  UNL     1      43.069  39.753   9.614  1.00  0.00    -0.393 N 
HETATM   28  C1  UNL     1      43.965  40.254  10.674  1.00  0.00     0.146 C 
ATOM     29  H1  UNL     1      43.030  38.781   9.309  1.00  0.00     0.159 HD
ENDBRANCH   1  27
BRANCH  10  30
HETATM   30  O8  UNL     1      43.685  42.249   7.723  1.00  0.00    -0.387 OA
ATOM     31  H8  UNL     1      44.297  42.143   7.004  1.00  0.00     0.210 HD
ENDBRANCH  10  30
BRANCH   9  32
HETATM   32  N3  UNL     1      44.249  40.033   6.454  1.00  0.00    -0.353 N 
HETATM   33  C16 UNL     1      44.979  40.023   5.240  1.00  0.00     0.225 C 
HETATM   34  O6  UNL     1      44.388  40.376   4.168  1.00  0.00    -0.273 OA
ATOM     35  H3  UNL     1      44.734  39.749   7.305  1.00  0.00     0.163 HD
BRANCH  33  36
HETATM   36  C17 UNL     1      46.392  39.629   5.138  1.00  0.00     0.180 C 
BRANCH  36  37
HETATM   37  C18 UNL     1      47.161  40.022   6.344  1.00  0.00     0.131 C 
HETATM   38  C19 UNL     1      47.705  41.413   6.471  1.00  0.00     0.091 C 
HETATM   39  O7  UNL     1      47.364  39.228   7.247  1.00  0.00    -0.298 OA
ENDBRANCH  36  37
ENDBRANCH  33  36
ENDBRANCH   9  32
TORSDOF 11
ENDMDL
MODEL 2
REMARK VINA RESULT: -7.395747460      1.034      1.178
REMARK  11 active torsions:
REMARK  status: ('A' for Active; 'I' for Inactive)
REMARK    1  A    between atoms: N1_2  and  C2_4 
REMARK    2  A    between atoms: C3_5  and  O1_6 
REMARK    3  A    between atoms: O1_6  and  C4_7 
REMARK    4  A    between atoms: C5_9  and  C6_10 
REMARK    5  A    between atoms: C6_10  and  N2_11 
REMARK    6  A    between atoms: C7_15  and  O3_16 
REMARK    7  A    between atoms: C8_19  and  O5_20 
REMARK    8  A    between atoms: C15_28  and  N3_29 
REMARK       I    between atoms: N3_29  and  C16_31 
REMARK    9  A    between atoms: C16_31  and  C17_33 
REMARK   10  A    between atoms: C17_33  and  C18_34 
REMARK   11  A    between atoms: C20_37  and  O8_38 
ROOT
HETATM    1  C2  UNL     1      42.510  40.753   9.130  1.00  0.00     0.069 C 
HETATM    2  C3  UNL     1      41.047  40.909   9.502  1.00  0.00     0.097 C 
HETATM    3  C9  UNL     1      40.278  39.668   9.802  1.00  0.00     0.039 C 
HETATM    4  C10 UNL     1      39.280  39.132   8.898  1.00  0.00    -0.001 C 
HETATM    5  C11 UNL     1      39.330  38.836   7.482  1.00  0.00    -0.027 C 
HETATM    6  C12 UNL     1      40.122  37.728   6.911  1.00  0.00     0.027 C 
HETATM    7  C13 UNL     1      41.306  38.160   5.988  1.00  0.00     0.006 C 
HETATM    8  C14 UNL     1      41.997  39.094   6.874  1.00  0.00     0.028 C 
HETATM    9  C15 UNL     1      43.127  39.958   6.728  1.00  0.00     0.119 C 
HETATM   10  C20 UNL     1      42.985  41.063   7.790  1.00  0.00     0.193 C 
ENDROOT
BRANCH   2  11
HETATM   11  O1  UNL     1      40.403  41.874   8.766  1.00  0.00    -0.313 OA
BRANCH  11  12
HETATM   12  C4  UNL     1      39.988  42.999   9.426  1.00  0.00     0.322 C 
HETATM   13  O2  UNL     1      39.329  42.600  10.586  1.00  0.00    -0.344 OA
HETATM   14  C5  UNL     1      39.064  43.629  11.462  1.00  0.00     0.205 C 
HETATM   15  C7  UNL     1      40.328  44.381  11.833  1.00  0.00     0.290 C 
HETATM   16  O4  UNL     1      40.887  44.874  10.678  1.00  0.00    -0.324 OA
HETATM   17  C8  UNL     1      41.188  43.849   9.761  1.00  0.00     0.316 C 
BRANCH  14  18
HETATM   18  C6  UNL     1      38.046  44.598  10.906  1.00  0.00     0.266 C 
BRANCH  18  19
HETATM   19  N2  UNL     1      36.879  44.634  11.744  1.00  0.00    -0.077 N 
ATOM     20  H23 UNL     1      36.070  45.015  11.252  1.00  0.00     0.274 HD
ATOM     21  H22 UNL     1      36.516  43.700  11.930  1.00  0.00     0.274 HD
ATOM     22  H21 UNL     1      37.075  45.144  12.605  1.00  0.00     0.274 HD
ENDBRANCH  18  19
ENDBRANCH  14  18
BRANCH  15  23
HETATM   23  O3  UNL     1      41.166  43.535  12.547  1.00  0.00    -0.368 OA
ATOM     24  H3  UNL     1      41.848  43.214  11.970  1.00  0.00     0.212 HD
ENDBRANCH  15  23
BRANCH  17  25
HETATM   25  O5  UNL     1      41.656  44.487   8.601  1.00  0.00    -0.367 OA
ATOM     26  H5  UNL     1      41.937  45.370   8.811  1.00  0.00     0.212 HD
ENDBRANCH  17  25
ENDBRANCH  11  12
ENDBRANCH   2  11
BRANCH   1  27
HETATM   27  N1  UNL     1      43.121  39.654   9.843  1.00  0.00    -0.393 N 
HETATM   28  C1  UNL     1      43.985  40.131  10.940  1.00  0.00     0.146 C 
ATOM     29  H1  UNL     1      42.974  38.671   9.616  1.00  0.00     0.159 HD
ENDBRANCH   1  27
BRANCH  10  30
HETATM   30  O8  UNL     1      44.202  41.762   7.705  1.00  0.00    -0.387 OA
ATOM     31  H8  UNL     1      44.946  41.275   7.369  1.00  0.00     0.210 HD
ENDBRANCH  10  30
BRANCH   9  32
HETATM   32  N3  UNL     1      44.429  39.344   6.736  1.00  0.00    -0.353 N 
HETATM   33  C16 UNL     1      45.220  39.141   5.578  1.00  0.00     0.225 C 
HETATM   34  O6  UNL     1      44.764  39.521   4.451  1.00  0.00    -0.273 OA
ATOM     35  H3  UNL     1      44.806  39.036   7.632  1.00  0.00     0.163 HD
BRANCH  33  36
HETATM   36  C17 UNL     1      46.549  38.514   5.596  1.00  0.00     0.180 C 
BRANCH  36  37
HETATM   37  C18 UNL     1      47.114  38.460   6.967  1.00  0.00     0.131 C 
HETATM   38  C19 UNL     1      47.141  37.164   7.720  1.00  0.00     0.091 C 
HETATM   39  O7  UNL     1      47.564  39.458   7.502  1.00  0.00    -0.298 OA
ENDBRANCH  36  37
ENDBRANCH  33  36
ENDBRANCH   9  32
TORSDOF 11
ENDMDL
MODEL 3
REMARK VINA RESULT: -7.266162450      2.496      7.410
REMARK  11 active torsions:
REMARK  status: ('A' for Active; 'I' for Inactive)
REMARK    1  A    between atoms: N1_2  and  C2_4 
REMARK    2  A    between atoms: C3_5  and  O1_6 
REMARK    3  A    between atoms: O1_6  and  C4_7 
REMARK    4  A    between atoms: C5_9  and  C6_10 
REMARK    5  A    between atoms: C6_10  and  N2_11 
REMARK    6  A    between atoms: C7_15  and  O3_16 
REMARK    7  A    between atoms: C8_19  and  O5_20 
REMARK    8  A    between atoms: C15_28  and  N3_29 
REMARK       I    between atoms: N3_29  and  C16_31 
REMARK    9  A    between atoms: C16_31  and  C17_33 
REMARK   10  A    between atoms: C17_33  and  C18_34 
REMARK   11  A    between atoms: C20_37  and  O8_38 
ROOT
HETATM    1  C2  UNL     1      43.276  40.157   8.152  1.00  0.00     0.069 C 
HETATM    2  C3  UNL     1      43.665  38.903   7.391  1.00  0.00     0.097 C 
HETATM    3  C9  UNL     1      43.024  38.675   6.066  1.00  0.00     0.039 C 
HETATM    4  C10 UNL     1      42.012  37.659   5.854  1.00  0.00    -0.001 C 
HETATM    5  C11 UNL     1      40.789  37.360   6.569  1.00  0.00    -0.027 C 
HETATM    6  C12 UNL     1      39.600  38.236   6.546  1.00  0.00     0.027 C 
HETATM    7  C13 UNL     1      39.227  38.892   7.913  1.00  0.00     0.006 C 
HETATM    8  C14 UNL     1      40.506  39.505   8.263  1.00  0.00     0.028 C 
HETATM    9  C15 UNL     1      40.992  40.219   9.403  1.00  0.00     0.119 C 
HETATM   10  C20 UNL     1      42.525  40.082   9.396  1.00  0.00     0.193 C 
ENDROOT
BRANCH   2  11
HETATM   11  O1  UNL     1      43.815  37.804   8.204  1.00  0.00    -0.313 OA
BRANCH  11  12
HETATM   12  C4  UNL     1      45.092  37.419   8.515  1.00  0.00     0.322 C 
HETATM   13  O2  UNL     1      45.918  37.763   7.448  1.00  0.00    -0.344 OA
HETATM   14  C5  UNL     1      47.263  37.646   7.721  1.00  0.00     0.205 C 
HETATM   15  C7  UNL     1      47.653  38.457   8.942  1.00  0.00     0.290 C 
HETATM   16  O4  UNL     1      46.912  38.007  10.009  1.00  0.00    -0.324 OA
HETATM   17  C8  UNL     1      45.529  38.124   9.775  1.00  0.00     0.316 C 
BRANCH  14  18
HETATM   18  C6  UNL     1      47.679  36.207   7.918  1.00  0.00     0.266 C 
BRANCH  18  19
HETATM   19  N2  UNL     1      48.534  35.781   6.845  1.00  0.00    -0.077 N 
ATOM     20  H23 UNL     1      48.056  35.143   6.208  1.00  0.00     0.274 HD
ATOM     21  H22 UNL     1      48.723  36.537   6.187  1.00  0.00     0.274 HD
ATOM     22  H21 UNL     1      49.394  35.376   7.214  1.00  0.00     0.274 HD
ENDBRANCH  18  19
ENDBRANCH  14  18
BRANCH  15  23
HETATM   23  O3  UNL     1      47.479  39.806   8.665  1.00  0.00    -0.368 OA
ATOM     24  H3  UNL     1      46.810  40.158   9.241  1.00  0.00     0.212 HD
ENDBRANCH  15  23
BRANCH  17  25
HETATM   25  O5  UNL     1      44.894  37.547  10.886  1.00  0.00    -0.367 OA
ATOM     26  H5  UNL     1      45.215  37.950  11.685  1.00  0.00     0.212 HD
ENDBRANCH  17  25
ENDBRANCH  11  12
ENDBRANCH   2  11
BRANCH   1  27
HETATM   27  N1  UNL     1      43.015  41.259   7.253  1.00  0.00    -0.393 N 
HETATM   28  C1  UNL     1      44.089  42.270   7.308  1.00  0.00     0.146 C 
ATOM     29  H1  UNL     1      42.192  41.329   6.655  1.00  0.00     0.159 HD
ENDBRANCH   1  27
BRANCH  10  30
HETATM   30  O8  UNL     1      42.939  40.944  10.428  1.00  0.00    -0.387 OA
ATOM     31  H8  UNL     1      43.190  41.823  10.168  1.00  0.00     0.210 HD
ENDBRANCH  10  30
BRANCH   9  32
HETATM   32  N3  UNL     1      40.557  41.583   9.558  1.00  0.00    -0.353 N 
HETATM   33  C16 UNL     1      39.272  41.961  10.020  1.00  0.00     0.225 C 
HETATM   34  O6  UNL     1      38.438  41.047  10.323  1.00  0.00    -0.273 OA
ATOM     35  H3  UNL     1      41.216  42.324   9.320  1.00  0.00     0.163 HD
BRANCH  33  36
HETATM   36  C17 UNL     1      38.837  43.356  10.177  1.00  0.00     0.180 C 
BRANCH  36  37
HETATM   37  C18 UNL     1      39.916  44.312   9.824  1.00  0.00     0.131 C 
HETATM   38  C19 UNL     1      40.671  45.027  10.903  1.00  0.00     0.091 C 
HETATM   39  O7  UNL     1      40.206  44.532   8.660  1.00  0.00    -0.298 OA
ENDBRANCH  36  37
ENDBRANCH  33  36
ENDBRANCH   9  32
TORSDOF 11
ENDMDL
MODEL 4
REMARK VINA RESULT: -7.178196741      1.089      1.285
REMARK  11 active torsions:
REMARK  status: ('A' for Active; 'I' for Inactive)
REMARK    1  A    between atoms: N1_2  and  C2_4 
REMARK    2  A    between atoms: C3_5  and  O1_6 
REMARK    3  A    between atoms: O1_6  and  C4_7 
REMARK    4  A    between atoms: C5_9  and  C6_10 
REMARK    5  A    between atoms: C6_10  and  N2_11 
REMARK    6  A    between atoms: C7_15  and  O3_16 
REMARK    7  A    between atoms: C8_19  and  O5_20 
REMARK    8  A    between atoms: C15_28  and  N3_29 
REMARK       I    between atoms: N3_29  and  C16_31 
REMARK    9  A    between atoms: C16_31  and  C17_33 
REMARK   10  A    between atoms: C17_33  and  C18_34 
REMARK   11  A    between atoms: C20_37  and  O8_38 
ROOT
HETATM    1  C2  UNL     1      42.149  41.518   9.709  1.00  0.00     0.069 C 
HETATM    2  C3  UNL     1      40.711  41.086   9.928  1.00  0.00     0.097 C 
HETATM    3  C9  UNL     1      40.420  39.624   9.898  1.00  0.00     0.039 C 
HETATM    4  C10 UNL     1      39.719  38.991   8.799  1.00  0.00    -0.001 C 
HETATM    5  C11 UNL     1      39.934  39.044   7.368  1.00  0.00    -0.027 C 
HETATM    6  C12 UNL     1      41.093  38.420   6.698  1.00  0.00     0.027 C 
HETATM    7  C13 UNL     1      42.086  39.416   6.018  1.00  0.00     0.006 C 
HETATM    8  C14 UNL     1      42.360  40.313   7.137  1.00  0.00     0.028 C 
HETATM    9  C15 UNL     1      43.114  41.518   7.290  1.00  0.00     0.119 C 
HETATM   10  C20 UNL     1      42.542  42.252   8.516  1.00  0.00     0.193 C 
ENDROOT
BRANCH   2  11
HETATM   11  O1  UNL     1      39.800  41.911   9.314  1.00  0.00    -0.313 OA
BRANCH  11  12
HETATM   12  C4  UNL     1      39.119  42.798  10.105  1.00  0.00     0.322 C 
HETATM   13  O2  UNL     1      39.412  42.505  11.433  1.00  0.00    -0.344 OA
HETATM   14  C5  UNL     1      38.983  43.462  12.327  1.00  0.00     0.205 C 
HETATM   15  C7  UNL     1      39.535  44.831  11.979  1.00  0.00     0.290 C 
HETATM   16  O4  UNL     1      39.120  45.149  10.708  1.00  0.00    -0.324 OA
HETATM   17  C8  UNL     1      39.553  44.202   9.761  1.00  0.00     0.316 C 
BRANCH  14  18
HETATM   18  C6  UNL     1      37.475  43.530  12.403  1.00  0.00     0.266 C 
BRANCH  18  19
HETATM   19  N2  UNL     1      37.044  44.887  12.592  1.00  0.00    -0.077 N 
ATOM     20  H23 UNL     1      36.573  45.014  13.488  1.00  0.00     0.274 HD
ATOM     21  H22 UNL     1      37.831  45.518  12.745  1.00  0.00     0.274 HD
ATOM     22  H21 UNL     1      36.463  45.189  11.811  1.00  0.00     0.274 HD
ENDBRANCH  18  19
ENDBRANCH  14  18
BRANCH  15  23
HETATM   23  O3  UNL     1      40.914  44.818  12.134  1.00  0.00    -0.368 OA
ATOM     24  H3  UNL     1      41.307  45.372  11.470  1.00  0.00     0.212 HD
ENDBRANCH  15  23
BRANCH  17  25
HETATM   25  O5  UNL     1      38.987  44.587   8.535  1.00  0.00    -0.367 OA
ATOM     26  H5  UNL     1      39.301  45.451   8.294  1.00  0.00     0.212 HD
ENDBRANCH  17  25
ENDBRANCH  11  12
ENDBRANCH   2  11
BRANCH   1  27
HETATM   27  N1  UNL     1      43.078  40.564  10.270  1.00  0.00    -0.393 N 
HETATM   28  C1  UNL     1      43.768  41.110  11.455  1.00  0.00     0.146 C 
ATOM     29  H1  UNL     1      43.237  39.629   9.895  1.00  0.00     0.159 HD
ENDBRANCH   1  27
BRANCH  10  30
HETATM   30  O8  UNL     1      43.434  43.323   8.706  1.00  0.00    -0.387 OA
ATOM     31  H8  UNL     1      43.895  43.631   7.934  1.00  0.00     0.210 HD
ENDBRANCH  10  30
BRANCH   9  32
HETATM   32  N3  UNL     1      44.548  41.395   7.336  1.00  0.00    -0.353 N 
HETATM   33  C16 UNL     1      45.401  41.602   6.224  1.00  0.00     0.225 C 
HETATM   34  O6  UNL     1      44.881  41.919   5.105  1.00  0.00    -0.273 OA
ATOM     35  H3  UNL     1      44.977  41.142   8.226  1.00  0.00     0.163 HD
BRANCH  33  36
HETATM   36  C17 UNL     1      46.864  41.475   6.281  1.00  0.00     0.180 C 
BRANCH  36  37
HETATM   37  C18 UNL     1      47.344  40.295   5.520  1.00  0.00     0.131 C 
HETATM   38  C19 UNL     1      46.672  38.966   5.687  1.00  0.00     0.091 C 
HETATM   39  O7  UNL     1      48.286  40.383   4.751  1.00  0.00    -0.298 OA
ENDBRANCH  36  37
ENDBRANCH  33  36
ENDBRANCH   9  32
TORSDOF 11
ENDMDL
MODEL 5
REMARK VINA RESULT: -7.097380885      1.368      1.864
REMARK  11 active torsions:
REMARK  status: ('A' for Active; 'I' for Inactive)
REMARK    1  A    between atoms: N1_2  and  C2_4 
REMARK    2  A    between atoms: C3_5  and  O1_6 
REMARK    3  A    between atoms: O1_6  and  C4_7 
REMARK    4  A    between atoms: C5_9  and  C6_10 
REMARK    5  A    between atoms: C6_10  and  N2_11 
REMARK    6  A    between atoms: C7_15  and  O3_16 
REMARK    7  A    between atoms: C8_19  and  O5_20 
REMARK    8  A    between atoms: C15_28  and  N3_29 
REMARK       I    between atoms: N3_29  and  C16_31 
REMARK    9  A    between atoms: C16_31  and  C17_33 
REMARK   10  A    between atoms: C17_33  and  C18_34 
REMARK   11  A    between atoms: C20_37  and  O8_38 
ROOT
HETATM    1  C2  UNL     1      42.421  40.128   8.671  1.00  0.00     0.069 C 
HETATM    2  C3  UNL     1      40.995  40.091   9.190  1.00  0.00     0.097 C 
HETATM    3  C9  UNL     1      40.326  38.762   9.272  1.00  0.00     0.039 C 
HETATM    4  C10 UNL     1      39.274  38.361   8.359  1.00  0.00    -0.001 C 
HETATM    5  C11 UNL     1      39.201  38.381   6.913  1.00  0.00    -0.027 C 
HETATM    6  C12 UNL     1      39.992  37.483   6.047  1.00  0.00     0.027 C 
HETATM    7  C13 UNL     1      41.055  38.190   5.146  1.00  0.00     0.006 C 
HETATM    8  C14 UNL     1      41.778  38.959   6.155  1.00  0.00     0.028 C 
HETATM    9  C15 UNL     1      42.840  39.916   6.110  1.00  0.00     0.119 C 
HETATM   10  C20 UNL     1      42.744  40.752   7.398  1.00  0.00     0.193 C 
ENDROOT
BRANCH   2  11
HETATM   11  O1  UNL     1      40.231  41.142   8.742  1.00  0.00    -0.313 OA
BRANCH  11  12
HETATM   12  C4  UNL     1      40.146  42.248   9.544  1.00  0.00     0.322 C 
HETATM   13  O2  UNL     1      40.685  43.327   8.850  1.00  0.00    -0.344 OA
HETATM   14  C5  UNL     1      40.453  44.548   9.444  1.00  0.00     0.205 C 
HETATM   15  C7  UNL     1      38.972  44.782   9.669  1.00  0.00     0.290 C 
HETATM   16  O4  UNL     1      38.495  43.769  10.467  1.00  0.00    -0.324 OA
HETATM   17  C8  UNL     1      38.699  42.503   9.885  1.00  0.00     0.316 C 
BRANCH  14  18
HETATM   18  C6  UNL     1      41.191  44.689  10.756  1.00  0.00     0.266 C 
BRANCH  18  19
HETATM   19  N2  UNL     1      40.476  45.567  11.641  1.00  0.00    -0.077 N 
ATOM     20  H23 UNL     1      40.126  45.074  12.463  1.00  0.00     0.274 HD
ATOM     21  H22 UNL     1      41.100  46.221  12.112  1.00  0.00     0.274 HD
ATOM     22  H21 UNL     1      39.730  46.047  11.138  1.00  0.00     0.274 HD
ENDBRANCH  18  19
ENDBRANCH  14  18
BRANCH  15  23
HETATM   23  O3  UNL     1      38.335  44.878   8.439  1.00  0.00    -0.368 OA
ATOM     24  H3  UNL     1      37.778  45.647   8.437  1.00  0.00     0.212 HD
ENDBRANCH  15  23
BRANCH  17  25
HETATM   25  O5  UNL     1      38.261  41.563  10.832  1.00  0.00    -0.367 OA
ATOM     26  H5  UNL     1      37.566  41.032  10.460  1.00  0.00     0.212 HD
ENDBRANCH  17  25
ENDBRANCH  11  12
ENDBRANCH   2  11
BRANCH   1  27
HETATM   27  N1  UNL     1      43.157  38.949   9.070  1.00  0.00    -0.393 N 
HETATM   28  C1  UNL     1      43.974  39.200  10.272  1.00  0.00     0.146 C 
ATOM     29  H1  UNL     1      43.116  38.055   8.580  1.00  0.00     0.159 HD
ENDBRANCH   1  27
BRANCH  10  30
HETATM   30  O8  UNL     1      43.908  41.542   7.367  1.00  0.00    -0.387 OA
ATOM     31  H8  UNL     1      44.635  41.242   7.900  1.00  0.00     0.210 HD
ENDBRANCH  10  30
BRANCH   9  32
HETATM   32  N3  UNL     1      44.168  39.412   5.873  1.00  0.00    -0.353 N 
HETATM   33  C16 UNL     1      45.152  40.090   5.111  1.00  0.00     0.225 C 
HETATM   34  O6  UNL     1      44.858  41.218   4.598  1.00  0.00    -0.273 OA
ATOM     35  H3  UNL     1      44.416  38.510   6.278  1.00  0.00     0.163 HD
BRANCH  33  36
HETATM   36  C17 UNL     1      46.506  39.569   4.875  1.00  0.00     0.180 C 
BRANCH  36  37
HETATM   37  C18 UNL     1      47.077  38.947   6.095  1.00  0.00     0.131 C 
HETATM   38  C19 UNL     1      47.276  39.765   7.335  1.00  0.00     0.091 C 
HETATM   39  O7  UNL     1      47.393  37.770   6.112  1.00  0.00    -0.298 OA
ENDBRANCH  36  37
ENDBRANCH  33  36
ENDBRANCH   9  32
TORSDOF 11
ENDMDL
