MODEL 1
REMARK VINA RESULT: -7.266039625      0.000      0.000
REMARK  13 active torsions:
REMARK  status: ('A' for Active; 'I' for Inactive)
REMARK    1  A    between atoms: C2_2  and  C3_3 
REMARK    2  A    between atoms: C3_3  and  N1_4 
REMARK    3  A    between atoms: C4_6  and  C5_7 
REMARK    4  A    between atoms: C6_11  and  O1_12 
REMARK    5  A    between atoms: O1_12  and  C7_13 
REMARK    6  A    between atoms: C9_15  and  C10_16 
REMARK    7  A    between atoms: C10_16  and  N3_17 
REMARK    8  A    between atoms: C11_21  and  C12_22 
REMARK    9  A    between atoms: C12_22  and  O2_23 
REMARK   10  A    between atoms: C13_26  and  N4_27 
REMARK   11  A    between atoms: C18_34  and  N5_35 
REMARK   12  A    between atoms: C19_39  and  O4_40 
REMARK   13  A    between atoms: C20_42  and  O5_43 
ROOT
HETATM    1  C5  UNL     1      40.639  43.026   9.976  1.00  0.00     0.258 C 
HETATM    2  N2  UNL     1      41.487  41.938  10.432  1.00  0.00    -0.035 N 
ATOM      3  H21 UNL     1      41.079  41.424  11.214  1.00  0.00     0.281 HD
ATOM      4  H22 UNL     1      42.328  42.268  10.906  1.00  0.00     0.281 HD
HETATM    5  C6  UNL     1      41.786  41.084   9.300  1.00  0.00     0.349 C 
HETATM    6  C13 UNL     1      42.647  41.773   8.283  1.00  0.00     0.169 C 
HETATM    7  C19 UNL     1      42.692  43.263   8.564  1.00  0.00     0.176 C 
HETATM    8  C20 UNL     1      41.333  43.835   8.904  1.00  0.00     0.184 C 
ENDROOT
BRANCH   5   9
HETATM    9  O1  UNL     1      40.648  40.517   8.749  1.00  0.00    -0.327 OA
BRANCH   9  10
HETATM   10  C7  UNL     1      40.779  39.224   8.351  1.00  0.00     0.263 C 
HETATM   11  C8  UNL     1      39.620  38.919   7.390  1.00  0.00     0.069 C 
HETATM   12  C9  UNL     1      40.109  37.546   6.901  1.00  0.00     0.047 C 
HETATM   13  C11 UNL     1      41.576  37.831   6.777  1.00  0.00     0.154 C 
HETATM   14  O3  UNL     1      41.871  38.920   7.592  1.00  0.00    -0.353 OA
BRANCH  12  15
HETATM   15  C10 UNL     1      39.405  37.215   5.635  1.00  0.00     0.236 C 
BRANCH  15  16
HETATM   16  N3  UNL     1      39.027  35.834   5.556  1.00  0.00    -0.079 N 
ATOM     17  H33 UNL     1      38.342  35.684   4.815  1.00  0.00     0.274 HD
ATOM     18  H32 UNL     1      39.792  35.266   5.192  1.00  0.00     0.274 HD
ATOM     19  H31 UNL     1      38.691  35.466   6.445  1.00  0.00     0.274 HD
ENDBRANCH  15  16
ENDBRANCH  12  15
BRANCH  13  20
HETATM   20  C12 UNL     1      42.025  38.170   5.375  1.00  0.00     0.196 C 
BRANCH  20  21
HETATM   21  O2  UNL     1      43.440  38.138   5.418  1.00  0.00    -0.398 OA
ATOM     22  H2  UNL     1      43.722  38.911   4.943  1.00  0.00     0.209 HD
ENDBRANCH  20  21
ENDBRANCH  13  20
ENDBRANCH   9  10
ENDBRANCH   5   9
BRANCH   6  23
HETATM   23  N4  UNL     1      43.994  41.300   8.411  1.00  0.00    -0.375 N 
HETATM   24  C14 UNL     1      44.757  41.121   7.388  1.00  0.00     0.076 C 
HETATM   25  S1  UNL     1      44.548  41.335   5.628  1.00  0.00    -0.103 SA
HETATM   26  C18 UNL     1      46.156  40.653   7.223  1.00  0.00     0.257 C 
HETATM   27  C15 UNL     1      46.330  41.450   5.948  1.00  0.00     0.041 C 
HETATM   28  C16 UNL     1      46.740  42.864   6.270  1.00  0.00     0.029 C 
HETATM   29  C17 UNL     1      47.187  40.752   4.920  1.00  0.00     0.029 C 
ATOM     30  H4  UNL     1      44.360  41.099   9.341  1.00  0.00     0.160 HD
BRANCH  26  31
HETATM   31  N5  UNL     1      46.228  39.214   7.034  1.00  0.00    -0.068 N 
ATOM     32  H53 UNL     1      46.060  38.717   7.908  1.00  0.00     0.275 HD
ATOM     33  H52 UNL     1      45.432  38.870   6.498  1.00  0.00     0.275 HD
ATOM     34  H51 UNL     1      47.111  38.930   6.610  1.00  0.00     0.275 HD
ENDBRANCH  26  31
ENDBRANCH   6  23
BRANCH   1  35
HETATM   35  C4  UNL     1      40.156  43.851  11.101  1.00  0.00     0.091 C 
HETATM   36  N1  UNL     1      38.928  44.213  11.142  1.00  0.00    -0.397 N 
ATOM     37  H1  UNL     1      38.320  43.910  10.382  1.00  0.00     0.159 HD
BRANCH  36  38
HETATM   38  C3  UNL     1      38.355  45.006  12.174  1.00  0.00     0.145 C 
BRANCH  38  39
HETATM   39  C2  UNL     1      36.938  44.533  12.342  1.00  0.00    -0.018 C 
HETATM   40  C1  UNL     1      36.499  44.159  13.526  1.00  0.00     0.008 C 
ENDBRANCH  38  39
ENDBRANCH  36  38
ENDBRANCH   1  35
BRANCH   7  41
HETATM   41  O4  UNL     1      43.659  43.621   9.468  1.00  0.00    -0.391 OA
ATOM     42  H4  UNL     1      44.499  43.208   9.309  1.00  0.00     0.210 HD
ENDBRANCH   7  41
BRANCH   8  43
HETATM   43  O5  UNL     1      41.552  45.113   9.427  1.00  0.00    -0.390 OA
ATOM     44  H5  UNL     1      42.476  45.175   9.640  1.00  0.00     0.210 HD
ENDBRANCH   8  43
TORSDOF 13
ENDMDL
MODEL 2
REMARK VINA RESULT: -6.961056993      1.470      2.031
REMARK  13 active torsions:
REMARK  status: ('A' for Active; 'I' for Inactive)
REMARK    1  A    between atoms: C2_2  and  C3_3 
REMARK    2  A    between atoms: C3_3  and  N1_4 
REMARK    3  A    between atoms: C4_6  and  C5_7 
REMARK    4  A    between atoms: C6_11  and  O1_12 
REMARK    5  A    between atoms: O1_12  and  C7_13 
REMARK    6  A    between atoms: C9_15  and  C10_16 
REMARK    7  A    between atoms: C10_16  and  N3_17 
REMARK    8  A    between atoms: C11_21  and  C12_22 
REMARK    9  A    between atoms: C12_22  and  O2_23 
REMARK   10  A    between atoms: C13_26  and  N4_27 
REMARK   11  A    between atoms: C18_34  and  N5_35 
REMARK   12  A    between atoms: C19_39  and  O4_40 
REMARK   13  A    between atoms: C20_42  and  O5_43 
ROOT
HETATM    1  C5  UNL     1      41.433  42.489  10.681  1.00  0.00     0.258 C 
HETATM    2  N2  UNL     1      42.831  42.108  10.795  1.00  0.00    -0.035 N 
ATOM      3  H21 UNL     1      43.031  41.606  11.661  1.00  0.00     0.281 HD
ATOM      4  H22 UNL     1      43.444  42.908  10.954  1.00  0.00     0.281 HD
HETATM    5  C6  UNL     1      43.198  41.351   9.615  1.00  0.00     0.349 C 
HETATM    6  C13 UNL     1      43.183  42.195   8.375  1.00  0.00     0.169 C 
HETATM    7  C19 UNL     1      42.478  43.510   8.649  1.00  0.00     0.176 C 
HETATM    8  C20 UNL     1      41.206  43.335   9.449  1.00  0.00     0.184 C 
ENDROOT
BRANCH   5   9
HETATM    9  O1  UNL     1      42.462  40.185   9.484  1.00  0.00    -0.327 OA
BRANCH   9  10
HETATM   10  C7  UNL     1      41.730  40.087   8.343  1.00  0.00     0.263 C 
HETATM   11  C8  UNL     1      41.976  38.688   7.757  1.00  0.00     0.069 C 
HETATM   12  C9  UNL     1      40.895  38.726   6.665  1.00  0.00     0.047 C 
HETATM   13  C11 UNL     1      39.795  39.407   7.423  1.00  0.00     0.154 C 
HETATM   14  O3  UNL     1      40.373  40.110   8.477  1.00  0.00    -0.353 OA
BRANCH  12  15
HETATM   15  C10 UNL     1      40.613  37.333   6.229  1.00  0.00     0.236 C 
BRANCH  15  16
HETATM   16  N3  UNL     1      40.244  37.250   4.846  1.00  0.00    -0.079 N 
ATOM     17  H33 UNL     1      39.543  36.522   4.697  1.00  0.00     0.274 HD
ATOM     18  H32 UNL     1      39.699  38.064   4.563  1.00  0.00     0.274 HD
ATOM     19  H31 UNL     1      41.046  37.116   4.231  1.00  0.00     0.274 HD
ENDBRANCH  15  16
ENDBRANCH  12  15
BRANCH  13  20
HETATM   20  C12 UNL     1      38.768  38.466   8.005  1.00  0.00     0.196 C 
BRANCH  20  21
HETATM   21  O2  UNL     1      37.779  39.300   8.581  1.00  0.00    -0.398 OA
ATOM     22  H2  UNL     1      37.125  39.419   7.901  1.00  0.00     0.209 HD
ENDBRANCH  20  21
ENDBRANCH  13  20
ENDBRANCH   9  10
ENDBRANCH   5   9
BRANCH   6  23
HETATM   23  N4  UNL     1      44.530  42.530   8.018  1.00  0.00    -0.375 N 
HETATM   24  C14 UNL     1      45.216  41.822   7.188  1.00  0.00     0.076 C 
HETATM   25  S1  UNL     1      44.883  40.343   6.244  1.00  0.00    -0.103 SA
HETATM   26  C18 UNL     1      46.594  41.926   6.648  1.00  0.00     0.257 C 
HETATM   27  C15 UNL     1      46.204  41.224   5.365  1.00  0.00     0.041 C 
HETATM   28  C16 UNL     1      45.641  42.216   4.381  1.00  0.00     0.029 C 
HETATM   29  C17 UNL     1      47.287  40.325   4.822  1.00  0.00     0.029 C 
ATOM     30  H4  UNL     1      44.960  43.355   8.436  1.00  0.00     0.160 HD
BRANCH  26  31
HETATM   31  N5  UNL     1      47.550  41.188   7.456  1.00  0.00    -0.068 N 
ATOM     32  H53 UNL     1      47.082  40.515   8.063  1.00  0.00     0.275 HD
ATOM     33  H52 UNL     1      48.095  40.540   6.888  1.00  0.00     0.275 HD
ATOM     34  H51 UNL     1      48.156  41.810   7.991  1.00  0.00     0.275 HD
ENDBRANCH  26  31
ENDBRANCH   6  23
BRANCH   1  35
HETATM   35  C4  UNL     1      40.937  43.124  11.918  1.00  0.00     0.091 C 
HETATM   36  N1  UNL     1      39.677  43.261  12.100  1.00  0.00    -0.397 N 
ATOM     37  H1  UNL     1      39.053  42.920  11.369  1.00  0.00     0.159 HD
BRANCH  36  38
HETATM   38  C3  UNL     1      39.087  43.857  13.249  1.00  0.00     0.145 C 
BRANCH  38  39
HETATM   39  C2  UNL     1      38.145  44.915  12.749  1.00  0.00    -0.018 C 
HETATM   40  C1  UNL     1      36.901  44.607  12.443  1.00  0.00     0.008 C 
ENDBRANCH  38  39
ENDBRANCH  36  38
ENDBRANCH   1  35
BRANCH   7  41
HETATM   41  O4  UNL     1      43.301  44.476   9.167  1.00  0.00    -0.391 OA
ATOM     42  H4  UNL     1      43.617  44.276  10.040  1.00  0.00     0.210 HD
ENDBRANCH   7  41
BRANCH   8  43
HETATM   43  O5  UNL     1      40.825  44.608   9.886  1.00  0.00    -0.390 OA
ATOM     44  H5  UNL     1      41.616  45.062  10.149  1.00  0.00     0.210 HD
ENDBRANCH   8  43
TORSDOF 13
ENDMDL
MODEL 3
REMARK VINA RESULT: -6.804743763      2.860      6.752
REMARK  13 active torsions:
REMARK  status: ('A' for Active; 'I' for Inactive)
REMARK    1  A    between atoms: C2_2  and  C3_3 
REMARK    2  A    between atoms: C3_3  and  N1_4 
REMARK    3  A    between atoms: C4_6  and  C5_7 
REMARK    4  A    between atoms: C6_11  and  O1_12 
REMARK    5  A    between atoms: O1_12  and  C7_13 
REMARK    6  A    between atoms: C9_15  and  C10_16 
REMARK    7  A    between atoms: C10_16  and  N3_17 
REMARK    8  A    between atoms: C11_21  and  C12_22 
REMARK    9  A    between atoms: C12_22  and  O2_23 
REMARK   10  A    between atoms: C13_26  and  N4_27 
REMARK   11  A    between atoms: C18_34  and  N5_35 
REMARK   12  A    between atoms: C19_39  and  O4_40 
REMARK   13  A    between atoms: C20_42  and  O5_43 
ROOT
HETATM    1  C5  UNL     1      40.437  40.510   8.727  1.00  0.00     0.258 C 
HETATM    2  N2  UNL     1      41.641  40.351   9.526  1.00  0.00    -0.035 N 
ATOM      3  H21 UNL     1      42.254  39.618   9.168  1.00  0.00     0.281 HD
ATOM      4  H22 UNL     1      41.453  39.941  10.440  1.00  0.00     0.281 HD
HETATM    5  C6  UNL     1      42.304  41.636   9.617  1.00  0.00     0.349 C 
HETATM    6  C13 UNL     1      41.507  42.629  10.410  1.00  0.00     0.169 C 
HETATM    7  C19 UNL     1      40.094  42.116  10.615  1.00  0.00     0.176 C 
HETATM    8  C20 UNL     1      39.502  41.516   9.358  1.00  0.00     0.184 C 
ENDROOT
BRANCH   5   9
HETATM    9  O1  UNL     1      42.692  42.121   8.379  1.00  0.00    -0.327 OA
BRANCH   9  10
HETATM   10  C7  UNL     1      43.927  41.731   7.965  1.00  0.00     0.263 C 
HETATM   11  C8  UNL     1      43.731  40.654   6.887  1.00  0.00     0.069 C 
HETATM   12  C9  UNL     1      45.192  40.561   6.417  1.00  0.00     0.047 C 
HETATM   13  C11 UNL     1      45.559  42.015   6.445  1.00  0.00     0.154 C 
HETATM   14  O3  UNL     1      44.680  42.660   7.311  1.00  0.00    -0.353 OA
BRANCH  12  15
HETATM   15  C10 UNL     1      45.219  39.913   5.080  1.00  0.00     0.236 C 
BRANCH  15  16
HETATM   16  N3  UNL     1      45.846  38.623   5.102  1.00  0.00    -0.079 N 
ATOM     17  H33 UNL     1      46.843  38.704   5.299  1.00  0.00     0.274 HD
ATOM     18  H32 UNL     1      45.558  38.091   5.923  1.00  0.00     0.274 HD
ATOM     19  H31 UNL     1      45.683  38.092   4.247  1.00  0.00     0.274 HD
ENDBRANCH  15  16
ENDBRANCH  12  15
BRANCH  13  20
HETATM   20  C12 UNL     1      45.471  42.702   5.103  1.00  0.00     0.196 C 
BRANCH  20  21
HETATM   21  O2  UNL     1      46.446  43.728   5.144  1.00  0.00    -0.398 OA
ATOM     22  H2  UNL     1      46.005  44.505   4.822  1.00  0.00     0.209 HD
ENDBRANCH  20  21
ENDBRANCH  13  20
ENDBRANCH   9  10
ENDBRANCH   5   9
BRANCH   6  23
HETATM   23  N4  UNL     1      42.081  42.754  11.718  1.00  0.00    -0.375 N 
HETATM   24  C14 UNL     1      42.202  43.894  12.306  1.00  0.00     0.076 C 
HETATM   25  S1  UNL     1      41.789  45.573  11.862  1.00  0.00    -0.103 SA
HETATM   26  C18 UNL     1      42.743  44.314  13.623  1.00  0.00     0.257 C 
HETATM   27  C15 UNL     1      41.830  45.520  13.676  1.00  0.00     0.041 C 
HETATM   28  C16 UNL     1      40.489  45.132  14.243  1.00  0.00     0.029 C 
HETATM   29  C17 UNL     1      42.471  46.728  14.313  1.00  0.00     0.029 C 
ATOM     30  H4  UNL     1      42.403  41.914  12.197  1.00  0.00     0.160 HD
BRANCH  26  31
HETATM   31  N5  UNL     1      44.156  44.647  13.548  1.00  0.00    -0.068 N 
ATOM     32  H53 UNL     1      44.504  44.990  14.443  1.00  0.00     0.275 HD
ATOM     33  H52 UNL     1      44.730  43.809  13.463  1.00  0.00     0.275 HD
ATOM     34  H51 UNL     1      44.352  45.307  12.796  1.00  0.00     0.275 HD
ENDBRANCH  26  31
ENDBRANCH   6  23
BRANCH   1  35
HETATM   35  C4  UNL     1      39.789  39.213   8.449  1.00  0.00     0.091 C 
HETATM   36  N1  UNL     1      40.033  38.604   7.350  1.00  0.00    -0.397 N 
ATOM     37  H1  UNL     1      40.679  39.046   6.696  1.00  0.00     0.159 HD
BRANCH  36  38
HETATM   38  C3  UNL     1      39.467  37.353   6.977  1.00  0.00     0.145 C 
BRANCH  38  39
HETATM   39  C2  UNL     1      39.955  37.058   5.586  1.00  0.00    -0.018 C 
HETATM   40  C1  UNL     1      40.971  37.728   5.083  1.00  0.00     0.008 C 
ENDBRANCH  38  39
ENDBRANCH  36  38
ENDBRANCH   1  35
BRANCH   7  41
HETATM   41  O4  UNL     1      39.960  41.297  11.707  1.00  0.00    -0.391 OA
ATOM     42  H4  UNL     1      39.057  41.127  11.945  1.00  0.00     0.210 HD
ENDBRANCH   7  41
BRANCH   8  43
HETATM   43  O5  UNL     1      38.350  40.824   9.744  1.00  0.00    -0.390 OA
ATOM     44  H5  UNL     1      37.618  41.220   9.288  1.00  0.00     0.210 HD
ENDBRANCH   8  43
TORSDOF 13
ENDMDL
MODEL 4
REMARK VINA RESULT: -6.703984744      2.717      6.717
REMARK  13 active torsions:
REMARK  status: ('A' for Active; 'I' for Inactive)
REMARK    1  A    between atoms: C2_2  and  C3_3 
REMARK    2  A    between atoms: C3_3  and  N1_4 
REMARK    3  A    between atoms: C4_6  and  C5_7 
REMARK    4  A    between atoms: C6_11  and  O1_12 
REMARK    5  A    between atoms: O1_12  and  C7_13 
REMARK    6  A    between atoms: C9_15  and  C10_16 
REMARK    7  A    between atoms: C10_16  and  N3_17 
REMARK    8  A    between atoms: C11_21  and  C12_22 
REMARK    9  A    between atoms: C12_22  and  O2_23 
REMARK   10  A    between atoms: C13_26  and  N4_27 
REMARK   11  A    between atoms: C18_34  and  N5_35 
REMARK   12  A    between atoms: C19_39  and  O4_40 
REMARK   13  A    between atoms: C20_42  and  O5_43 
ROOT
HETATM    1  C5  UNL     1      40.205  40.517   8.624  1.00  0.00     0.258 C 
HETATM    2  N2  UNL     1      41.511  40.395   9.251  1.00  0.00    -0.035 N 
ATOM      3  H21 UNL     1      42.121  39.740   8.761  1.00  0.00     0.281 HD
ATOM      4  H22 UNL     1      41.473  39.907  10.145  1.00  0.00     0.281 HD
HETATM    5  C6  UNL     1      42.091  41.719   9.363  1.00  0.00     0.349 C 
HETATM    6  C13 UNL     1      41.339  42.586  10.328  1.00  0.00     0.169 C 
HETATM    7  C19 UNL     1      40.003  41.951  10.666  1.00  0.00     0.176 C 
HETATM    8  C20 UNL     1      39.295  41.399   9.448  1.00  0.00     0.184 C 
ENDROOT
BRANCH   5   9
HETATM    9  O1  UNL     1      42.280  42.320   8.130  1.00  0.00    -0.327 OA
BRANCH   9  10
HETATM   10  C7  UNL     1      43.337  41.854   7.414  1.00  0.00     0.263 C 
HETATM   11  C8  UNL     1      44.511  41.677   8.389  1.00  0.00     0.069 C 
HETATM   12  C9  UNL     1      45.463  40.934   7.436  1.00  0.00     0.047 C 
HETATM   13  C11 UNL     1      44.479  40.036   6.747  1.00  0.00     0.154 C 
HETATM   14  O3  UNL     1      43.216  40.605   6.878  1.00  0.00    -0.353 OA
BRANCH  12  15
HETATM   15  C10 UNL     1      46.505  40.251   8.246  1.00  0.00     0.236 C 
BRANCH  15  16
HETATM   16  N3  UNL     1      47.836  40.632   7.872  1.00  0.00    -0.079 N 
ATOM     17  H33 UNL     1      47.905  41.642   7.744  1.00  0.00     0.274 HD
ATOM     18  H32 UNL     1      48.482  40.521   8.653  1.00  0.00     0.274 HD
ATOM     19  H31 UNL     1      48.171  40.135   7.048  1.00  0.00     0.274 HD
ENDBRANCH  15  16
ENDBRANCH  12  15
BRANCH  13  20
HETATM   20  C12 UNL     1      44.415  38.637   7.313  1.00  0.00     0.196 C 
BRANCH  20  21
HETATM   21  O2  UNL     1      43.048  38.418   7.613  1.00  0.00    -0.398 OA
ATOM     22  H2  UNL     1      43.034  37.646   8.166  1.00  0.00     0.209 HD
ENDBRANCH  20  21
ENDBRANCH  13  20
ENDBRANCH   9  10
ENDBRANCH   5   9
BRANCH   6  23
HETATM   23  N4  UNL     1      42.069  42.661  11.560  1.00  0.00    -0.375 N 
HETATM   24  C14 UNL     1      42.235  43.772  12.191  1.00  0.00     0.076 C 
HETATM   25  S1  UNL     1      41.729  45.458  11.895  1.00  0.00    -0.103 SA
HETATM   26  C18 UNL     1      42.927  44.140  13.451  1.00  0.00     0.257 C 
HETATM   27  C15 UNL     1      41.998  45.312  13.683  1.00  0.00     0.041 C 
HETATM   28  C16 UNL     1      40.749  44.854  14.390  1.00  0.00     0.029 C 
HETATM   29  C17 UNL     1      42.684  46.505  14.302  1.00  0.00     0.029 C 
ATOM     30  H4  UNL     1      42.469  41.807  11.948  1.00  0.00     0.160 HD
BRANCH  26  31
HETATM   31  N5  UNL     1      44.310  44.520  13.220  1.00  0.00    -0.068 N 
ATOM     32  H53 UNL     1      44.774  43.866  12.590  1.00  0.00     0.275 HD
ATOM     33  H52 UNL     1      44.373  45.363  12.651  1.00  0.00     0.275 HD
ATOM     34  H51 UNL     1      44.828  44.623  14.093  1.00  0.00     0.275 HD
ENDBRANCH  26  31
ENDBRANCH   6  23
BRANCH   1  35
HETATM   35  C4  UNL     1      39.617  39.196   8.325  1.00  0.00     0.091 C 
HETATM   36  N1  UNL     1      39.941  38.587   7.246  1.00  0.00    -0.397 N 
ATOM     37  H1  UNL     1      40.606  39.045   6.625  1.00  0.00     0.159 HD
BRANCH  36  38
HETATM   38  C3  UNL     1      39.438  37.315   6.856  1.00  0.00     0.145 C 
BRANCH  38  39
HETATM   39  C2  UNL     1      39.922  37.073   5.454  1.00  0.00    -0.018 C 
HETATM   40  C1  UNL     1      40.948  37.749   4.980  1.00  0.00     0.008 C 
ENDBRANCH  38  39
ENDBRANCH  36  38
ENDBRANCH   1  35
BRANCH   7  41
HETATM   41  O4  UNL     1      40.070  41.047  11.695  1.00  0.00    -0.391 OA
ATOM     42  H4  UNL     1      40.200  40.152  11.406  1.00  0.00     0.210 HD
ENDBRANCH   7  41
BRANCH   8  43
HETATM   43  O5  UNL     1      38.253  40.592   9.917  1.00  0.00    -0.390 OA
ATOM     44  H5  UNL     1      37.458  40.880   9.484  1.00  0.00     0.210 HD
ENDBRANCH   8  43
TORSDOF 13
ENDMDL
MODEL 5
REMARK VINA RESULT: -6.633614618      4.109      6.236
REMARK  13 active torsions:
REMARK  status: ('A' for Active; 'I' for Inactive)
REMARK    1  A    between atoms: C2_2  and  C3_3 
REMARK    2  A    between atoms: C3_3  and  N1_4 
REMARK    3  A    between atoms: C4_6  and  C5_7 
REMARK    4  A    between atoms: C6_11  and  O1_12 
REMARK    5  A    between atoms: O1_12  and  C7_13 
REMARK    6  A    between atoms: C9_15  and  C10_16 
REMARK    7  A    between atoms: C10_16  and  N3_17 
REMARK    8  A    between atoms: C11_21  and  C12_22 
REMARK    9  A    between atoms: C12_22  and  O2_23 
REMARK   10  A    between atoms: C13_26  and  N4_27 
REMARK   11  A    between atoms: C18_34  and  N5_35 
REMARK   12  A    between atoms: C19_39  and  O4_40 
REMARK   13  A    between atoms: C20_42  and  O5_43 
ROOT
HETATM    1  C5  UNL     1      45.048  36.970  10.083  1.00  0.00     0.258 C 
HETATM    2  N2  UNL     1      44.919  37.036   8.637  1.00  0.00    -0.035 N 
ATOM      3  H21 UNL     1      44.235  36.373   8.274  1.00  0.00     0.281 HD
ATOM      4  H22 UNL     1      45.739  36.670   8.153  1.00  0.00     0.281 HD
HETATM    5  C6  UNL     1      44.619  38.405   8.266  1.00  0.00     0.349 C 
HETATM    6  C13 UNL     1      45.767  39.331   8.541  1.00  0.00     0.169 C 
HETATM    7  C19 UNL     1      46.790  38.642   9.425  1.00  0.00     0.176 C 
HETATM    8  C20 UNL     1      46.156  37.878  10.567  1.00  0.00     0.184 C 
ENDROOT
BRANCH   5   9
HETATM    9  O1  UNL     1      43.424  38.851   8.807  1.00  0.00    -0.327 OA
BRANCH   9  10
HETATM   10  C7  UNL     1      42.461  39.167   7.902  1.00  0.00     0.263 C 
HETATM   11  C8  UNL     1      42.128  37.888   7.119  1.00  0.00     0.069 C 
HETATM   12  C9  UNL     1      40.893  38.417   6.371  1.00  0.00     0.047 C 
HETATM   13  C11 UNL     1      40.255  39.214   7.469  1.00  0.00     0.154 C 
HETATM   14  O3  UNL     1      41.243  39.527   8.399  1.00  0.00    -0.353 OA
BRANCH  12  15
HETATM   15  C10 UNL     1      40.108  37.258   5.873  1.00  0.00     0.236 C 
BRANCH  15  16
HETATM   16  N3  UNL     1      40.232  37.070   4.457  1.00  0.00    -0.079 N 
ATOM     17  H33 UNL     1      40.089  37.949   3.958  1.00  0.00     0.274 HD
ATOM     18  H32 UNL     1      41.201  36.889   4.196  1.00  0.00     0.274 HD
ATOM     19  H31 UNL     1      39.615  36.342   4.100  1.00  0.00     0.274 HD
ENDBRANCH  15  16
ENDBRANCH  12  15
BRANCH  13  20
HETATM   20  C12 UNL     1      39.148  38.491   8.197  1.00  0.00     0.196 C 
BRANCH  20  21
HETATM   21  O2  UNL     1      38.099  39.435   8.316  1.00  0.00    -0.398 OA
ATOM     22  H2  UNL     1      38.527  40.283   8.344  1.00  0.00     0.209 HD
ENDBRANCH  20  21
ENDBRANCH  13  20
ENDBRANCH   9  10
ENDBRANCH   5   9
BRANCH   6  23
HETATM   23  N4  UNL     1      46.437  39.627   7.310  1.00  0.00    -0.375 N 
HETATM   24  C14 UNL     1      46.080  40.607   6.554  1.00  0.00     0.076 C 
HETATM   25  S1  UNL     1      44.805  41.853   6.653  1.00  0.00    -0.103 SA
HETATM   26  C18 UNL     1      46.575  41.135   5.258  1.00  0.00     0.257 C 
HETATM   27  C15 UNL     1      46.104  42.535   5.585  1.00  0.00     0.041 C 
HETATM   28  C16 UNL     1      47.150  43.261   6.390  1.00  0.00     0.029 C 
HETATM   29  C17 UNL     1      45.583  43.286   4.384  1.00  0.00     0.029 C 
ATOM     30  H4  UNL     1      47.222  39.043   7.022  1.00  0.00     0.160 HD
BRANCH  26  31
HETATM   31  N5  UNL     1      45.890  40.530   4.128  1.00  0.00    -0.068 N 
ATOM     32  H53 UNL     1      46.545  40.281   3.387  1.00  0.00     0.275 HD
ATOM     33  H52 UNL     1      45.547  39.598   4.358  1.00  0.00     0.275 HD
ATOM     34  H51 UNL     1      45.140  41.124   3.775  1.00  0.00     0.275 HD
ENDBRANCH  26  31
ENDBRANCH   6  23
BRANCH   1  35
HETATM   35  C4  UNL     1      45.192  35.578  10.556  1.00  0.00     0.091 C 
HETATM   36  N1  UNL     1      44.659  35.226  11.665  1.00  0.00    -0.397 N 
ATOM     37  H1  UNL     1      44.144  35.933  12.189  1.00  0.00     0.159 HD
BRANCH  36  38
HETATM   38  C3  UNL     1      44.734  33.917  12.217  1.00  0.00     0.145 C 
BRANCH  38  39
HETATM   39  C2  UNL     1      43.371  33.304  12.056  1.00  0.00    -0.018 C 
HETATM   40  C1  UNL     1      42.653  32.996  13.116  1.00  0.00     0.008 C 
ENDBRANCH  38  39
ENDBRANCH  36  38
ENDBRANCH   1  35
BRANCH   7  41
HETATM   41  O4  UNL     1      47.701  37.892   8.727  1.00  0.00    -0.391 OA
ATOM     42  H4  UNL     1      47.958  37.094   9.174  1.00  0.00     0.210 HD
ENDBRANCH   7  41
BRANCH   8  43
HETATM   43  O5  UNL     1      47.152  37.061  11.109  1.00  0.00    -0.390 OA
ATOM     44  H5  UNL     1      46.719  36.307  11.493  1.00  0.00     0.210 HD
ENDBRANCH   8  43
TORSDOF 13
ENDMDL
