MODEL 1
REMARK VINA RESULT: -6.804030822      0.000      0.000
REMARK  7 active torsions:
REMARK  status: ('A' for Active; 'I' for Inactive)
REMARK       I    between atoms: C2_2  and  N1_4 
REMARK    1  A    between atoms: N1_4  and  N2_6 
REMARK    2  A    between atoms: N3_8  and  N4_10 
REMARK    3  A    between atoms: N4_10  and  C3_12 
REMARK    4  A    between atoms: C4_15  and  N6_16 
REMARK    5  A    between atoms: N6_16  and  N7_18 
REMARK    6  A    between atoms: C6_25  and  S1_26 
REMARK    7  A    between atoms: S1_26  and  N9_27 
ROOT
HETATM    1  C3  UNL     1       5.277  21.757   2.491  1.00  0.00     0.166 A 
HETATM    2  N5  UNL     1       5.321  22.976   3.116  1.00  0.00    -0.172 N 
ATOM      3  H5  UNL     1       5.730  23.772   2.627  1.00  0.00     0.186 HD
HETATM    4  C4  UNL     1       4.836  23.148   4.357  1.00  0.00     0.701 A 
HETATM    5  N8  UNL     1       4.304  22.119   4.997  1.00  0.00    -0.153 N 
ATOM      6  H8  UNL     1       3.935  22.247   5.939  1.00  0.00     0.187 HD
HETATM    7  C5  UNL     1       4.244  20.906   4.420  1.00  0.00     0.286 A 
HETATM    8  O2  UNL     1       3.741  19.907   5.009  1.00  0.00    -0.266 OA
HETATM    9  C6  UNL     1       4.733  20.675   3.133  1.00  0.00     0.193 A 
ENDROOT
BRANCH   1  10
HETATM   10  N4  UNL     1       5.793  21.605   1.175  1.00  0.00    -0.268 N 
ATOM     11  H4  UNL     1       5.114  21.572   0.414  1.00  0.00     0.190 HD
BRANCH  10  12
HETATM   12  N3  UNL     1       7.109  21.498   0.836  1.00  0.00    -0.227 N 
HETATM   13  N2  UNL     1       7.921  20.586   0.877  1.00  0.00    -0.226 N 
ATOM     14  H2  UNL     1       8.848  20.846   0.541  1.00  0.00     0.210 HD
ATOM     15  H3  UNL     1       7.499  22.365   0.468  1.00  0.00     0.210 HD
BRANCH  13  16
HETATM   16  N1  UNL     1       7.830  19.286   1.287  1.00  0.00    -0.255 N 
HETATM   17  C2  UNL     1       8.383  18.248   0.492  1.00  0.00     0.233 C 
HETATM   18  C1  UNL     1       8.264  16.834   0.978  1.00  0.00     0.119 C 
HETATM   19  O1  UNL     1       8.950  18.525  -0.576  1.00  0.00    -0.272 OA
ATOM     20  H1  UNL     1       7.364  19.060   2.165  1.00  0.00     0.191 HD
ENDBRANCH  13  16
ENDBRANCH  10  12
ENDBRANCH   1  10
BRANCH   9  21
HETATM   21  S1  UNL     1       4.635  19.101   2.458  1.00  0.00     0.266 S 
HETATM   22  O3  UNL     1       4.830  19.118   0.942  1.00  0.00    -0.200 OA
HETATM   23  O4  UNL     1       5.543  18.082   3.079  1.00  0.00    -0.200 OA
BRANCH  21  24
HETATM   24  N9  UNL     1       3.019  18.469   2.696  1.00  0.00    -0.324 N 
ATOM     25  H92 UNL     1       2.313  18.897   3.295  1.00  0.00     0.169 HD
ATOM     26  H91 UNL     1       2.906  17.618   2.145  1.00  0.00     0.169 HD
ENDBRANCH  21  24
ENDBRANCH   9  21
BRANCH   4  27
HETATM   27  N6  UNL     1       4.921  24.337   4.860  1.00  0.00    -0.138 N 
ATOM     28  H6  UNL     1       4.652  24.464   5.835  1.00  0.00     0.205 HD
BRANCH  27  29
HETATM   29  N7  UNL     1       5.356  25.452   4.153  1.00  0.00    -0.331 N 
ATOM     30  H72 UNL     1       6.186  25.334   3.571  1.00  0.00     0.177 HD
ATOM     31  H71 UNL     1       4.899  26.363   4.185  1.00  0.00     0.177 HD
ENDBRANCH  27  29
ENDBRANCH   4  27
TORSDOF 7
ENDMDL
MODEL 2
REMARK VINA RESULT: -6.786482347      2.148      2.668
REMARK  7 active torsions:
REMARK  status: ('A' for Active; 'I' for Inactive)
REMARK       I    between atoms: C2_2  and  N1_4 
REMARK    1  A    between atoms: N1_4  and  N2_6 
REMARK    2  A    between atoms: N3_8  and  N4_10 
REMARK    3  A    between atoms: N4_10  and  C3_12 
REMARK    4  A    between atoms: C4_15  and  N6_16 
REMARK    5  A    between atoms: N6_16  and  N7_18 
REMARK    6  A    between atoms: C6_25  and  S1_26 
REMARK    7  A    between atoms: S1_26  and  N9_27 
ROOT
HETATM    1  C3  UNL     1       4.109  22.441   3.265  1.00  0.00     0.166 A 
HETATM    2  N5  UNL     1       3.788  23.644   2.693  1.00  0.00    -0.172 N 
ATOM      3  H5  UNL     1       4.428  24.061   2.017  1.00  0.00     0.186 HD
HETATM    4  C4  UNL     1       2.650  24.288   3.002  1.00  0.00     0.701 A 
HETATM    5  N8  UNL     1       1.816  23.753   3.880  1.00  0.00    -0.153 N 
ATOM      6  H8  UNL     1       0.951  24.240   4.115  1.00  0.00     0.187 HD
HETATM    7  C5  UNL     1       2.095  22.575   4.464  1.00  0.00     0.286 A 
HETATM    8  O2  UNL     1       1.316  22.042   5.306  1.00  0.00    -0.266 OA
HETATM    9  C6  UNL     1       3.263  21.865   4.178  1.00  0.00     0.193 A 
ENDROOT
BRANCH   1  10
HETATM   10  N4  UNL     1       5.318  21.778   2.916  1.00  0.00    -0.268 N 
ATOM     11  H4  UNL     1       5.647  21.053   3.552  1.00  0.00     0.190 HD
BRANCH  10  12
HETATM   12  N3  UNL     1       6.077  22.023   1.810  1.00  0.00    -0.227 N 
HETATM   13  N2  UNL     1       6.975  21.414   1.250  1.00  0.00    -0.226 N 
ATOM     14  H2  UNL     1       7.340  21.888   0.424  1.00  0.00     0.210 HD
ATOM     15  H3  UNL     1       5.845  22.904   1.353  1.00  0.00     0.210 HD
BRANCH  13  16
HETATM   16  N1  UNL     1       7.586  20.220   1.513  1.00  0.00    -0.255 N 
HETATM   17  C2  UNL     1       6.850  19.009   1.429  1.00  0.00     0.233 C 
HETATM   18  C1  UNL     1       7.559  17.721   1.724  1.00  0.00     0.119 C 
HETATM   19  O1  UNL     1       5.650  19.038   1.116  1.00  0.00    -0.272 OA
ATOM     20  H1  UNL     1       8.573  20.200   1.770  1.00  0.00     0.191 HD
ENDBRANCH  13  16
ENDBRANCH  10  12
ENDBRANCH   1  10
BRANCH   9  21
HETATM   21  S1  UNL     1       3.564  20.372   4.967  1.00  0.00     0.266 S 
HETATM   22  O3  UNL     1       4.622  19.546   4.235  1.00  0.00    -0.200 OA
HETATM   23  O4  UNL     1       3.912  20.477   6.422  1.00  0.00    -0.200 OA
BRANCH  21  24
HETATM   24  N9  UNL     1       2.115  19.391   4.920  1.00  0.00    -0.324 N 
ATOM     25  H92 UNL     1       1.549  19.154   5.735  1.00  0.00     0.169 HD
ATOM     26  H91 UNL     1       1.936  19.102   3.959  1.00  0.00     0.169 HD
ENDBRANCH  21  24
ENDBRANCH   9  21
BRANCH   4  27
HETATM   27  N6  UNL     1       2.435  25.416   2.407  1.00  0.00    -0.138 N 
ATOM     28  H6  UNL     1       1.810  25.421   1.601  1.00  0.00     0.205 HD
BRANCH  27  29
HETATM   29  N7  UNL     1       3.003  26.623   2.798  1.00  0.00    -0.331 N 
ATOM     30  H72 UNL     1       2.444  27.221   3.407  1.00  0.00     0.177 HD
ATOM     31  H71 UNL     1       3.932  26.937   2.514  1.00  0.00     0.177 HD
ENDBRANCH  27  29
ENDBRANCH   4  27
TORSDOF 7
ENDMDL
MODEL 3
REMARK VINA RESULT: -6.743536098      3.304      4.800
REMARK  7 active torsions:
REMARK  status: ('A' for Active; 'I' for Inactive)
REMARK       I    between atoms: C2_2  and  N1_4 
REMARK    1  A    between atoms: N1_4  and  N2_6 
REMARK    2  A    between atoms: N3_8  and  N4_10 
REMARK    3  A    between atoms: N4_10  and  C3_12 
REMARK    4  A    between atoms: C4_15  and  N6_16 
REMARK    5  A    between atoms: N6_16  and  N7_18 
REMARK    6  A    between atoms: C6_25  and  S1_26 
REMARK    7  A    between atoms: S1_26  and  N9_27 
ROOT
HETATM    1  C3  UNL     1       5.069  18.663   1.883  1.00  0.00     0.166 A 
HETATM    2  N5  UNL     1       3.842  19.019   1.388  1.00  0.00    -0.172 N 
ATOM      3  H5  UNL     1       3.504  19.970   1.531  1.00  0.00     0.186 HD
HETATM    4  C4  UNL     1       3.074  18.143   0.717  1.00  0.00     0.701 A 
HETATM    5  N8  UNL     1       3.507  16.907   0.529  1.00  0.00    -0.153 N 
ATOM      6  H8  UNL     1       2.925  16.241   0.020  1.00  0.00     0.187 HD
HETATM    7  C5  UNL     1       4.705  16.518   1.000  1.00  0.00     0.286 A 
HETATM    8  O2  UNL     1       5.142  15.344   0.834  1.00  0.00    -0.266 OA
HETATM    9  C6  UNL     1       5.541  17.389   1.702  1.00  0.00     0.193 A 
ENDROOT
BRANCH   1  10
HETATM   10  N4  UNL     1       5.864  19.611   2.583  1.00  0.00    -0.268 N 
ATOM     11  H4  UNL     1       5.977  19.468   3.587  1.00  0.00     0.190 HD
BRANCH  10  12
HETATM   12  N3  UNL     1       6.490  20.693   2.039  1.00  0.00    -0.227 N 
HETATM   13  N2  UNL     1       7.374  20.828   1.206  1.00  0.00    -0.226 N 
ATOM     14  H2  UNL     1       7.618  21.800   1.021  1.00  0.00     0.210 HD
ATOM     15  H3  UNL     1       6.147  21.580   2.405  1.00  0.00     0.210 HD
BRANCH  13  16
HETATM   16  N1  UNL     1       8.099  19.930   0.475  1.00  0.00    -0.255 N 
HETATM   17  C2  UNL     1       8.941  20.381  -0.576  1.00  0.00     0.233 C 
HETATM   18  C1  UNL     1       9.722  19.363  -1.353  1.00  0.00     0.119 C 
HETATM   19  O1  UNL     1       9.015  21.593  -0.828  1.00  0.00    -0.272 OA
ATOM     20  H1  UNL     1       8.036  18.934   0.685  1.00  0.00     0.191 HD
ENDBRANCH  13  16
ENDBRANCH  10  12
ENDBRANCH   1  10
BRANCH   9  21
HETATM   21  S1  UNL     1       7.053  16.826   2.286  1.00  0.00     0.266 S 
HETATM   22  O3  UNL     1       8.001  17.980   2.613  1.00  0.00    -0.200 OA
HETATM   23  O4  UNL     1       6.978  15.881   3.447  1.00  0.00    -0.200 OA
BRANCH  21  24
HETATM   24  N9  UNL     1       7.861  15.924   1.022  1.00  0.00    -0.324 N 
ATOM     25  H92 UNL     1       8.019  16.268   0.074  1.00  0.00     0.169 HD
ATOM     26  H91 UNL     1       8.143  15.014   1.385  1.00  0.00     0.169 HD
ENDBRANCH  21  24
ENDBRANCH   9  21
BRANCH   4  27
HETATM   27  N6  UNL     1       1.933  18.575   0.287  1.00  0.00    -0.138 N 
ATOM     28  H6  UNL     1       1.263  18.920   0.975  1.00  0.00     0.205 HD
BRANCH  27  29
HETATM   29  N7  UNL     1       1.564  18.599  -1.052  1.00  0.00    -0.331 N 
ATOM     30  H72 UNL     1       0.599  18.349  -1.269  1.00  0.00     0.177 HD
ATOM     31  H71 UNL     1       2.194  18.849  -1.814  1.00  0.00     0.177 HD
ENDBRANCH  27  29
ENDBRANCH   4  27
TORSDOF 7
ENDMDL
MODEL 4
REMARK VINA RESULT: -6.654223474      1.337      1.559
REMARK  7 active torsions:
REMARK  status: ('A' for Active; 'I' for Inactive)
REMARK       I    between atoms: C2_2  and  N1_4 
REMARK    1  A    between atoms: N1_4  and  N2_6 
REMARK    2  A    between atoms: N3_8  and  N4_10 
REMARK    3  A    between atoms: N4_10  and  C3_12 
REMARK    4  A    between atoms: C4_15  and  N6_16 
REMARK    5  A    between atoms: N6_16  and  N7_18 
REMARK    6  A    between atoms: C6_25  and  S1_26 
REMARK    7  A    between atoms: S1_26  and  N9_27 
ROOT
HETATM    1  C3  UNL     1       4.932  21.431   2.779  1.00  0.00     0.166 A 
HETATM    2  N5  UNL     1       5.255  22.637   3.344  1.00  0.00    -0.172 N 
ATOM      3  H5  UNL     1       6.118  23.103   3.064  1.00  0.00     0.186 HD
HETATM    4  C4  UNL     1       4.463  23.219   4.260  1.00  0.00     0.701 A 
HETATM    5  N8  UNL     1       3.342  22.619   4.629  1.00  0.00    -0.153 N 
ATOM      6  H8  UNL     1       2.740  23.060   5.324  1.00  0.00     0.187 HD
HETATM    7  C5  UNL     1       2.990  21.434   4.099  1.00  0.00     0.286 A 
HETATM    8  O2  UNL     1       1.926  20.840   4.435  1.00  0.00    -0.266 OA
HETATM    9  C6  UNL     1       3.778  20.787   3.145  1.00  0.00     0.193 A 
ENDROOT
BRANCH   1  10
HETATM   10  N4  UNL     1       5.786  20.839   1.809  1.00  0.00    -0.268 N 
ATOM     11  H4  UNL     1       5.686  21.162   0.847  1.00  0.00     0.190 HD
BRANCH  10  12
HETATM   12  N3  UNL     1       6.725  19.880   2.045  1.00  0.00    -0.227 N 
HETATM   13  N2  UNL     1       7.744  19.534   1.465  1.00  0.00    -0.226 N 
ATOM     14  H2  UNL     1       8.230  18.760   1.918  1.00  0.00     0.210 HD
ATOM     15  H3  UNL     1       6.538  19.334   2.885  1.00  0.00     0.210 HD
BRANCH  13  16
HETATM   16  N1  UNL     1       8.358  19.981   0.330  1.00  0.00    -0.255 N 
HETATM   17  C2  UNL     1       9.095  19.080  -0.483  1.00  0.00     0.233 C 
HETATM   18  C1  UNL     1       9.753  19.610  -1.723  1.00  0.00     0.119 C 
HETATM   19  O1  UNL     1       9.179  17.886  -0.159  1.00  0.00    -0.272 OA
ATOM     20  H1  UNL     1       8.287  20.963   0.066  1.00  0.00     0.191 HD
ENDBRANCH  13  16
ENDBRANCH  10  12
ENDBRANCH   1  10
BRANCH   9  21
HETATM   21  S1  UNL     1       3.275  19.272   2.516  1.00  0.00     0.266 S 
HETATM   22  O3  UNL     1       3.995  18.931   1.211  1.00  0.00    -0.200 OA
HETATM   23  O4  UNL     1       3.374  18.120   3.471  1.00  0.00    -0.200 OA
BRANCH  21  24
HETATM   24  N9  UNL     1       1.580  19.358   2.086  1.00  0.00    -0.324 N 
ATOM     25  H92 UNL     1       1.083  18.647   1.549  1.00  0.00     0.169 HD
ATOM     26  H91 UNL     1       1.183  20.220   2.456  1.00  0.00     0.169 HD
ENDBRANCH  21  24
ENDBRANCH   9  21
BRANCH   4  27
HETATM   27  N6  UNL     1       4.854  24.358   4.733  1.00  0.00    -0.138 N 
ATOM     28  H6  UNL     1       4.571  24.604   5.682  1.00  0.00     0.205 HD
BRANCH  27  29
HETATM   29  N7  UNL     1       5.635  25.267   4.029  1.00  0.00    -0.331 N 
ATOM     30  H72 UNL     1       5.283  25.571   3.121  1.00  0.00     0.177 HD
ATOM     31  H71 UNL     1       6.523  25.638   4.365  1.00  0.00     0.177 HD
ENDBRANCH  27  29
ENDBRANCH   4  27
TORSDOF 7
ENDMDL
MODEL 5
REMARK VINA RESULT: -6.637561625      1.003      1.059
REMARK  7 active torsions:
REMARK  status: ('A' for Active; 'I' for Inactive)
REMARK       I    between atoms: C2_2  and  N1_4 
REMARK    1  A    between atoms: N1_4  and  N2_6 
REMARK    2  A    between atoms: N3_8  and  N4_10 
REMARK    3  A    between atoms: N4_10  and  C3_12 
REMARK    4  A    between atoms: C4_15  and  N6_16 
REMARK    5  A    between atoms: N6_16  and  N7_18 
REMARK    6  A    between atoms: C6_25  and  S1_26 
REMARK    7  A    between atoms: S1_26  and  N9_27 
ROOT
HETATM    1  C3  UNL     1       5.179  21.624   2.482  1.00  0.00     0.166 A 
HETATM    2  N5  UNL     1       5.379  22.812   3.135  1.00  0.00    -0.172 N 
ATOM      3  H5  UNL     1       6.065  23.472   2.769  1.00  0.00     0.186 HD
HETATM    4  C4  UNL     1       4.692  23.128   4.245  1.00  0.00     0.701 A 
HETATM    5  N8  UNL     1       3.801  22.276   4.726  1.00  0.00    -0.153 N 
ATOM      6  H8  UNL     1       3.278  22.514   5.568  1.00  0.00     0.187 HD
HETATM    7  C5  UNL     1       3.576  21.099   4.116  1.00  0.00     0.286 A 
HETATM    8  O2  UNL     1       2.731  20.267   4.553  1.00  0.00    -0.266 OA
HETATM    9  C6  UNL     1       4.262  20.723   2.959  1.00  0.00     0.193 A 
ENDROOT
BRANCH   1  10
HETATM   10  N4  UNL     1       5.915  21.317   1.305  1.00  0.00    -0.268 N 
ATOM     11  H4  UNL     1       5.437  21.444   0.414  1.00  0.00     0.190 HD
BRANCH  10  12
HETATM   12  N3  UNL     1       7.202  20.867   1.258  1.00  0.00    -0.227 N 
HETATM   13  N2  UNL     1       7.755  19.848   1.641  1.00  0.00    -0.226 N 
ATOM     14  H2  UNL     1       8.756  19.827   1.446  1.00  0.00     0.210 HD
ATOM     15  H3  UNL     1       7.838  21.522   0.806  1.00  0.00     0.210 HD
BRANCH  13  16
HETATM   16  N1  UNL     1       7.296  18.731   2.281  1.00  0.00    -0.255 N 
HETATM   17  C2  UNL     1       7.939  17.481   2.081  1.00  0.00     0.233 C 
HETATM   18  C1  UNL     1       7.404  16.280   2.803  1.00  0.00     0.119 C 
HETATM   19  O1  UNL     1       8.918  17.405   1.324  1.00  0.00    -0.272 OA
ATOM     20  H1  UNL     1       6.491  18.796   2.902  1.00  0.00     0.191 HD
ENDBRANCH  13  16
ENDBRANCH  10  12
ENDBRANCH   1  10
BRANCH   9  21
HETATM   21  S1  UNL     1       3.935  19.202   2.236  1.00  0.00     0.266 S 
HETATM   22  O3  UNL     1       4.578  19.079   0.854  1.00  0.00    -0.200 OA
HETATM   23  O4  UNL     1       4.287  18.008   3.072  1.00  0.00    -0.200 OA
BRANCH  21  24
HETATM   24  N9  UNL     1       2.215  19.058   1.945  1.00  0.00    -0.324 N 
ATOM     25  H92 UNL     1       1.497  19.140   2.665  1.00  0.00     0.169 HD
ATOM     26  H91 UNL     1       2.055  18.881   0.954  1.00  0.00     0.169 HD
ENDBRANCH  21  24
ENDBRANCH   9  21
BRANCH   4  27
HETATM   27  N6  UNL     1       4.951  24.274   4.787  1.00  0.00    -0.138 N 
ATOM     28  H6  UNL     1       4.783  24.379   5.788  1.00  0.00     0.205 HD
BRANCH  27  29
HETATM   29  N7  UNL     1       5.445  25.371   4.091  1.00  0.00    -0.331 N 
ATOM     30  H72 UNL     1       6.459  25.460   4.029  1.00  0.00     0.177 HD
ATOM     31  H71 UNL     1       4.858  26.078   3.648  1.00  0.00     0.177 HD
ENDBRANCH  27  29
ENDBRANCH   4  27
TORSDOF 7
ENDMDL
