MODEL 1
REMARK VINA RESULT: -6.428248068      0.000      0.000
REMARK  7 active torsions:
REMARK  status: ('A' for Active; 'I' for Inactive)
REMARK    1  A    between atoms: C2_2  and  N1_3 
REMARK    2  A    between atoms: C2_2  and  C3_7 
REMARK       I    between atoms: C3_7  and  N2_9 
REMARK    3  A    between atoms: N2_9  and  C4_11 
REMARK    4  A    between atoms: C4_11  and  N3_12 
REMARK       I    between atoms: N3_12  and  C5_14 
REMARK       I    between atoms: C5_14  and  N4_16 
REMARK    5  A    between atoms: N5_20  and  N6_21 
REMARK    6  A    between atoms: N6_21  and  O5_23 
REMARK    7  A    between atoms: C8_26  and  N7_28 
ROOT
HETATM    1  C4  UNL     1       4.284  21.825   3.267  1.00  0.00     0.163 C 
HETATM    2  C6  UNL     1       4.515  23.080   2.453  1.00  0.00     0.201 C 
HETATM    3  N5  UNL     1       4.638  24.167   3.398  1.00  0.00    -0.302 N 
HETATM    4  C7  UNL     1       5.077  23.598   4.642  1.00  0.00     0.187 C 
HETATM    5  C8  UNL     1       4.281  22.292   4.673  1.00  0.00     0.182 C 
HETATM    6  C9  UNL     1       2.918  22.636   5.209  1.00  0.00     0.053 C 
ENDROOT
BRANCH   1   7
HETATM    7  N2  UNL     1       3.083  21.144   2.843  1.00  0.00    -0.329 N 
HETATM    8  C3  UNL     1       2.664  19.869   3.261  1.00  0.00     0.249 C 
HETATM    9  O1  UNL     1       3.373  19.239   4.073  1.00  0.00    -0.271 OA
ATOM     10  H2  UNL     1       2.482  21.634   2.179  1.00  0.00     0.165 HD
BRANCH   8  11
HETATM   11  C2  UNL     1       1.422  19.221   2.795  1.00  0.00     0.270 C 
HETATM   12  C1  UNL     1       1.265  17.867   3.495  1.00  0.00     0.050 C 
BRANCH  11  13
HETATM   13  N1  UNL     1       1.466  18.934   1.374  1.00  0.00    -0.067 N 
ATOM     14  H13 UNL     1       2.020  18.109   1.142  1.00  0.00     0.275 HD
ATOM     15  H12 UNL     1       0.579  18.598   1.000  1.00  0.00     0.275 HD
ATOM     16  H11 UNL     1       1.800  19.787   0.925  1.00  0.00     0.275 HD
ENDBRANCH  11  13
ENDBRANCH   8  11
ENDBRANCH   1   7
BRANCH   1  17
HETATM   17  N3  UNL     1       5.388  20.903   3.085  1.00  0.00    -0.307 N 
HETATM   18  C5  UNL     1       5.828  20.490   1.796  1.00  0.00     0.383 C 
HETATM   19  O2  UNL     1       5.233  20.946   0.789  1.00  0.00    -0.241 OA
HETATM   20  N4  UNL     1       6.898  19.595   1.597  1.00  0.00    -0.055 N 
HETATM   21  O3  UNL     1       7.323  19.197   0.376  1.00  0.00    -0.528 OA
HETATM   22  O4  UNL     1       7.562  19.083   2.658  1.00  0.00    -0.528 OA
ATOM     23  H3  UNL     1       5.865  20.537   3.909  1.00  0.00     0.167 HD
ENDBRANCH   1  17
BRANCH   5  24
HETATM   24  N7  UNL     1       4.944  21.443   5.620  1.00  0.00    -0.065 N 
ATOM     25  H73 UNL     1       4.982  20.489   5.262  1.00  0.00     0.275 HD
ATOM     26  H72 UNL     1       5.938  21.669   5.648  1.00  0.00     0.275 HD
ATOM     27  H71 UNL     1       4.563  21.443   6.565  1.00  0.00     0.275 HD
ENDBRANCH   5  24
BRANCH   3  28
HETATM   28  N6  UNL     1       4.390  25.527   3.195  1.00  0.00    -0.212 N 
ATOM     29  H6  UNL     1       5.164  26.150   2.967  1.00  0.00     0.215 HD
BRANCH  28  30
HETATM   30  O5  UNL     1       3.226  25.993   3.290  1.00  0.00    -0.275 OA
ATOM     31  H5  UNL     1       3.034  26.883   3.021  1.00  0.00     0.246 HD
ENDBRANCH  28  30
ENDBRANCH   3  28
TORSDOF 7
ENDMDL
MODEL 2
REMARK VINA RESULT: -6.406369603      2.678      4.328
REMARK  7 active torsions:
REMARK  status: ('A' for Active; 'I' for Inactive)
REMARK    1  A    between atoms: C2_2  and  N1_3 
REMARK    2  A    between atoms: C2_2  and  C3_7 
REMARK       I    between atoms: C3_7  and  N2_9 
REMARK    3  A    between atoms: N2_9  and  C4_11 
REMARK    4  A    between atoms: C4_11  and  N3_12 
REMARK       I    between atoms: N3_12  and  C5_14 
REMARK       I    between atoms: C5_14  and  N4_16 
REMARK    5  A    between atoms: N5_20  and  N6_21 
REMARK    6  A    between atoms: N6_21  and  O5_23 
REMARK    7  A    between atoms: C8_26  and  N7_28 
ROOT
HETATM    1  C4  UNL     1       4.332  23.143   4.880  1.00  0.00     0.163 C 
HETATM    2  C6  UNL     1       4.726  24.412   4.156  1.00  0.00     0.201 C 
HETATM    3  N5  UNL     1       3.517  25.190   4.001  1.00  0.00    -0.302 N 
HETATM    4  C7  UNL     1       2.617  24.785   5.045  1.00  0.00     0.187 C 
HETATM    5  C8  UNL     1       2.871  23.277   5.093  1.00  0.00     0.182 C 
HETATM    6  C9  UNL     1       2.028  22.668   4.007  1.00  0.00     0.053 C 
ENDROOT
BRANCH   1   7
HETATM    7  N2  UNL     1       4.739  21.973   4.138  1.00  0.00    -0.329 N 
HETATM    8  C3  UNL     1       4.882  21.887   2.742  1.00  0.00     0.249 C 
HETATM    9  O1  UNL     1       4.644  22.898   2.050  1.00  0.00    -0.271 OA
ATOM     10  H2  UNL     1       4.940  21.130   4.676  1.00  0.00     0.165 HD
BRANCH   8  11
HETATM   11  C2  UNL     1       5.304  20.661   2.036  1.00  0.00     0.270 C 
HETATM   12  C1  UNL     1       5.150  19.459   2.975  1.00  0.00     0.050 C 
BRANCH  11  13
HETATM   13  N1  UNL     1       6.706  20.706   1.670  1.00  0.00    -0.067 N 
ATOM     14  H13 UNL     1       7.196  21.523   2.037  1.00  0.00     0.275 HD
ATOM     15  H12 UNL     1       7.272  20.001   2.141  1.00  0.00     0.275 HD
ATOM     16  H11 UNL     1       6.734  20.638   0.653  1.00  0.00     0.275 HD
ENDBRANCH  11  13
ENDBRANCH   8  11
ENDBRANCH   1   7
BRANCH   1  17
HETATM   17  N3  UNL     1       4.987  23.083   6.172  1.00  0.00    -0.307 N 
HETATM   18  C5  UNL     1       5.066  21.879   6.928  1.00  0.00     0.383 C 
HETATM   19  O2  UNL     1       4.548  20.841   6.450  1.00  0.00    -0.241 OA
HETATM   20  N4  UNL     1       5.697  21.799   8.185  1.00  0.00    -0.055 N 
HETATM   21  O3  UNL     1       5.777  20.660   8.910  1.00  0.00    -0.528 OA
HETATM   22  O4  UNL     1       6.267  22.897   8.731  1.00  0.00    -0.528 OA
ATOM     23  H3  UNL     1       5.406  23.932   6.552  1.00  0.00     0.167 HD
ENDBRANCH   1  17
BRANCH   5  24
HETATM   24  N7  UNL     1       2.377  22.830   6.362  1.00  0.00    -0.065 N 
ATOM     25  H73 UNL     1       1.424  23.167   6.500  1.00  0.00     0.275 HD
ATOM     26  H72 UNL     1       2.215  21.824   6.336  1.00  0.00     0.275 HD
ATOM     27  H71 UNL     1       2.947  23.067   7.174  1.00  0.00     0.275 HD
ENDBRANCH   5  24
BRANCH   3  28
HETATM   28  N6  UNL     1       3.226  26.162   3.040  1.00  0.00    -0.212 N 
ATOM     29  H6  UNL     1       3.692  27.068   3.085  1.00  0.00     0.215 HD
BRANCH  28  30
HETATM   30  O5  UNL     1       2.398  25.935   2.122  1.00  0.00    -0.275 OA
ATOM     31  H5  UNL     1       2.670  25.922   1.212  1.00  0.00     0.246 HD
ENDBRANCH  28  30
ENDBRANCH   3  28
TORSDOF 7
ENDMDL
MODEL 3
REMARK VINA RESULT: -6.307085406      2.582      4.600
REMARK  7 active torsions:
REMARK  status: ('A' for Active; 'I' for Inactive)
REMARK    1  A    between atoms: C2_2  and  N1_3 
REMARK    2  A    between atoms: C2_2  and  C3_7 
REMARK       I    between atoms: C3_7  and  N2_9 
REMARK    3  A    between atoms: N2_9  and  C4_11 
REMARK    4  A    between atoms: C4_11  and  N3_12 
REMARK       I    between atoms: N3_12  and  C5_14 
REMARK       I    between atoms: C5_14  and  N4_16 
REMARK    5  A    between atoms: N5_20  and  N6_21 
REMARK    6  A    between atoms: N6_21  and  O5_23 
REMARK    7  A    between atoms: C8_26  and  N7_28 
ROOT
HETATM    1  C4  UNL     1       3.357  22.761   4.202  1.00  0.00     0.163 C 
HETATM    2  C6  UNL     1       2.226  23.642   3.719  1.00  0.00     0.201 C 
HETATM    3  N5  UNL     1       2.793  24.541   2.740  1.00  0.00    -0.302 N 
HETATM    4  C7  UNL     1       3.958  23.898   2.200  1.00  0.00     0.187 C 
HETATM    5  C8  UNL     1       4.542  23.235   3.449  1.00  0.00     0.182 C 
HETATM    6  C9  UNL     1       5.345  24.292   4.156  1.00  0.00     0.053 C 
ENDROOT
BRANCH   1   7
HETATM    7  N2  UNL     1       3.483  22.816   5.640  1.00  0.00    -0.329 N 
HETATM    8  C3  UNL     1       4.314  22.003   6.430  1.00  0.00     0.249 C 
HETATM    9  O1  UNL     1       5.023  21.143   5.868  1.00  0.00    -0.271 OA
ATOM     10  H2  UNL     1       2.915  23.510   6.129  1.00  0.00     0.165 HD
BRANCH   8  11
HETATM   11  C2  UNL     1       4.403  22.105   7.900  1.00  0.00     0.270 C 
HETATM   12  C1  UNL     1       3.176  22.856   8.429  1.00  0.00     0.050 C 
BRANCH  11  13
HETATM   13  N1  UNL     1       5.556  22.878   8.317  1.00  0.00    -0.067 N 
ATOM     14  H13 UNL     1       6.191  23.107   7.551  1.00  0.00     0.275 HD
ATOM     15  H12 UNL     1       5.329  23.837   8.580  1.00  0.00     0.275 HD
ATOM     16  H11 UNL     1       5.998  22.344   9.064  1.00  0.00     0.275 HD
ENDBRANCH  11  13
ENDBRANCH   8  11
ENDBRANCH   1   7
BRANCH   1  17
HETATM   17  N3  UNL     1       3.101  21.380   3.846  1.00  0.00    -0.307 N 
HETATM   18  C5  UNL     1       1.949  20.679   4.301  1.00  0.00     0.383 C 
HETATM   19  O2  UNL     1       1.134  21.288   5.036  1.00  0.00    -0.241 OA
HETATM   20  N4  UNL     1       1.681  19.336   3.967  1.00  0.00    -0.055 N 
HETATM   21  O3  UNL     1       0.589  18.663   4.395  1.00  0.00    -0.528 OA
HETATM   22  O4  UNL     1       2.537  18.649   3.177  1.00  0.00    -0.528 OA
ATOM     23  H3  UNL     1       3.770  20.893   3.248  1.00  0.00     0.167 HD
ENDBRANCH   1  17
BRANCH   5  24
HETATM   24  N7  UNL     1       5.437  22.219   2.978  1.00  0.00    -0.065 N 
ATOM     25  H73 UNL     1       5.666  22.385   1.999  1.00  0.00     0.275 HD
ATOM     26  H72 UNL     1       6.356  22.342   3.405  1.00  0.00     0.275 HD
ATOM     27  H71 UNL     1       5.126  21.255   3.101  1.00  0.00     0.275 HD
ENDBRANCH   5  24
BRANCH   3  28
HETATM   28  N6  UNL     1       2.337  25.805   2.354  1.00  0.00    -0.212 N 
ATOM     29  H6  UNL     1       1.449  25.889   1.859  1.00  0.00     0.215 HD
BRANCH  28  30
HETATM   30  O5  UNL     1       3.007  26.838   2.608  1.00  0.00    -0.275 OA
ATOM     31  H5  UNL     1       3.002  27.580   2.015  1.00  0.00     0.246 HD
ENDBRANCH  28  30
ENDBRANCH   3  28
TORSDOF 7
ENDMDL
MODEL 4
REMARK VINA RESULT: -6.108699584      2.003      2.268
REMARK  7 active torsions:
REMARK  status: ('A' for Active; 'I' for Inactive)
REMARK    1  A    between atoms: C2_2  and  N1_3 
REMARK    2  A    between atoms: C2_2  and  C3_7 
REMARK       I    between atoms: C3_7  and  N2_9 
REMARK    3  A    between atoms: N2_9  and  C4_11 
REMARK    4  A    between atoms: C4_11  and  N3_12 
REMARK       I    between atoms: N3_12  and  C5_14 
REMARK       I    between atoms: C5_14  and  N4_16 
REMARK    5  A    between atoms: N5_20  and  N6_21 
REMARK    6  A    between atoms: N6_21  and  O5_23 
REMARK    7  A    between atoms: C8_26  and  N7_28 
ROOT
HETATM    1  C4  UNL     1       3.807  22.141   4.142  1.00  0.00     0.163 C 
HETATM    2  C6  UNL     1       3.547  23.033   2.946  1.00  0.00     0.201 C 
HETATM    3  N5  UNL     1       4.036  24.346   3.298  1.00  0.00    -0.302 N 
HETATM    4  C7  UNL     1       5.046  24.166   4.304  1.00  0.00     0.187 C 
HETATM    5  C8  UNL     1       4.442  23.035   5.139  1.00  0.00     0.182 C 
HETATM    6  C9  UNL     1       3.478  23.681   6.096  1.00  0.00     0.053 C 
ENDROOT
BRANCH   1   7
HETATM    7  N2  UNL     1       2.592  21.495   4.583  1.00  0.00    -0.329 N 
HETATM    8  C3  UNL     1       2.498  20.496   5.567  1.00  0.00     0.249 C 
HETATM    9  O1  UNL     1       3.541  20.108   6.132  1.00  0.00    -0.271 OA
ATOM     10  H2  UNL     1       1.723  21.791   4.139  1.00  0.00     0.165 HD
BRANCH   8  11
HETATM   11  C2  UNL     1       1.226  19.871   5.980  1.00  0.00     0.270 C 
HETATM   12  C1  UNL     1       0.057  20.730   5.486  1.00  0.00     0.050 C 
BRANCH  11  13
HETATM   13  N1  UNL     1       1.098  19.813   7.423  1.00  0.00    -0.067 N 
ATOM     14  H13 UNL     1       0.305  20.343   7.783  1.00  0.00     0.275 HD
ATOM     15  H12 UNL     1       0.805  18.900   7.769  1.00  0.00     0.275 HD
ATOM     16  H11 UNL     1       1.996  20.121   7.798  1.00  0.00     0.275 HD
ENDBRANCH  11  13
ENDBRANCH   8  11
ENDBRANCH   1   7
BRANCH   1  17
HETATM   17  N3  UNL     1       4.747  21.096   3.789  1.00  0.00    -0.307 N 
HETATM   18  C5  UNL     1       4.451  20.108   2.807  1.00  0.00     0.383 C 
HETATM   19  O2  UNL     1       3.336  20.154   2.234  1.00  0.00    -0.241 OA
HETATM   20  N4  UNL     1       5.350  19.083   2.450  1.00  0.00    -0.055 N 
HETATM   21  O3  UNL     1       5.078  18.141   1.519  1.00  0.00    -0.528 OA
HETATM   22  O4  UNL     1       6.561  19.002   3.047  1.00  0.00    -0.528 OA
ATOM     23  H3  UNL     1       5.651  21.066   4.261  1.00  0.00     0.167 HD
ENDBRANCH   1  17
BRANCH   5  24
HETATM   24  N7  UNL     1       5.525  22.472   5.890  1.00  0.00    -0.065 N 
ATOM     25  H73 UNL     1       5.490  21.455   5.838  1.00  0.00     0.275 HD
ATOM     26  H72 UNL     1       6.408  22.651   5.411  1.00  0.00     0.275 HD
ATOM     27  H71 UNL     1       5.596  22.766   6.864  1.00  0.00     0.275 HD
ENDBRANCH   5  24
BRANCH   3  28
HETATM   28  N6  UNL     1       3.639  25.586   2.790  1.00  0.00    -0.212 N 
ATOM     29  H6  UNL     1       4.308  26.355   2.763  1.00  0.00     0.215 HD
BRANCH  28  30
HETATM   30  O5  UNL     1       2.469  25.766   2.368  1.00  0.00    -0.275 OA
ATOM     31  H5  UNL     1       1.747  25.895   2.971  1.00  0.00     0.246 HD
ENDBRANCH  28  30
ENDBRANCH   3  28
TORSDOF 7
ENDMDL
MODEL 5
REMARK VINA RESULT: -5.885544188      2.759      4.527
REMARK  7 active torsions:
REMARK  status: ('A' for Active; 'I' for Inactive)
REMARK    1  A    between atoms: C2_2  and  N1_3 
REMARK    2  A    between atoms: C2_2  and  C3_7 
REMARK       I    between atoms: C3_7  and  N2_9 
REMARK    3  A    between atoms: N2_9  and  C4_11 
REMARK    4  A    between atoms: C4_11  and  N3_12 
REMARK       I    between atoms: N3_12  and  C5_14 
REMARK       I    between atoms: C5_14  and  N4_16 
REMARK    5  A    between atoms: N5_20  and  N6_21 
REMARK    6  A    between atoms: N6_21  and  O5_23 
REMARK    7  A    between atoms: C8_26  and  N7_28 
ROOT
HETATM    1  C4  UNL     1       3.108  23.187   4.607  1.00  0.00     0.163 C 
HETATM    2  C6  UNL     1       2.139  23.771   3.602  1.00  0.00     0.201 C 
HETATM    3  N5  UNL     1       2.883  24.739   2.828  1.00  0.00    -0.302 N 
HETATM    4  C7  UNL     1       4.266  24.355   2.888  1.00  0.00     0.187 C 
HETATM    5  C8  UNL     1       4.386  23.887   4.340  1.00  0.00     0.182 C 
HETATM    6  C9  UNL     1       4.601  25.123   5.169  1.00  0.00     0.053 C 
ENDROOT
BRANCH   1   7
HETATM    7  N2  UNL     1       2.605  23.321   5.955  1.00  0.00    -0.329 N 
HETATM    8  C3  UNL     1       3.168  22.750   7.109  1.00  0.00     0.249 C 
HETATM    9  O1  UNL     1       4.200  22.056   6.994  1.00  0.00    -0.271 OA
ATOM     10  H2  UNL     1       1.762  23.883   6.080  1.00  0.00     0.165 HD
BRANCH   8  11
HETATM   11  C2  UNL     1       2.610  22.923   8.465  1.00  0.00     0.270 C 
HETATM   12  C1  UNL     1       3.739  22.806   9.495  1.00  0.00     0.050 C 
BRANCH  11  13
HETATM   13  N1  UNL     1       1.659  21.878   8.792  1.00  0.00    -0.067 N 
ATOM     14  H13 UNL     1       0.951  21.732   8.072  1.00  0.00     0.275 HD
ATOM     15  H12 UNL     1       2.060  20.941   8.763  1.00  0.00     0.275 HD
ATOM     16  H11 UNL     1       1.270  22.126   9.701  1.00  0.00     0.275 HD
ENDBRANCH  11  13
ENDBRANCH   8  11
ENDBRANCH   1   7
BRANCH   1  17
HETATM   17  N3  UNL     1       3.292  21.771   4.357  1.00  0.00    -0.307 N 
HETATM   18  C5  UNL     1       2.209  20.847   4.384  1.00  0.00     0.383 C 
HETATM   19  O2  UNL     1       1.060  21.285   4.634  1.00  0.00    -0.241 OA
HETATM   20  N4  UNL     1       2.367  19.468   4.144  1.00  0.00    -0.055 N 
HETATM   21  O3  UNL     1       1.344  18.583   4.167  1.00  0.00    -0.528 OA
HETATM   22  O4  UNL     1       3.590  18.960   3.871  1.00  0.00    -0.528 OA
ATOM     23  H3  UNL     1       4.231  21.424   4.154  1.00  0.00     0.167 HD
ENDBRANCH   1  17
BRANCH   5  24
HETATM   24  N7  UNL     1       5.571  23.082   4.403  1.00  0.00    -0.065 N 
ATOM     25  H73 UNL     1       5.414  22.284   5.017  1.00  0.00     0.275 HD
ATOM     26  H72 UNL     1       5.712  22.605   3.513  1.00  0.00     0.275 HD
ATOM     27  H71 UNL     1       6.427  23.565   4.675  1.00  0.00     0.275 HD
ENDBRANCH   5  24
BRANCH   3  28
HETATM   28  N6  UNL     1       2.402  25.852   2.134  1.00  0.00    -0.212 N 
ATOM     29  H6  UNL     1       1.670  25.730   1.434  1.00  0.00     0.215 HD
BRANCH  28  30
HETATM   30  O5  UNL     1       2.858  27.001   2.361  1.00  0.00    -0.275 OA
ATOM     31  H5  UNL     1       2.732  27.707   1.738  1.00  0.00     0.246 HD
ENDBRANCH  28  30
ENDBRANCH   3  28
TORSDOF 7
ENDMDL
