MODEL 1
REMARK VINA RESULT: -6.624606143      0.000      0.000
REMARK  7 active torsions:
REMARK  status: ('A' for Active; 'I' for Inactive)
REMARK    1  A    between atoms: N1_1  and  N2_4 
REMARK       I    between atoms: N2_4  and  C1_6 
REMARK       I    between atoms: C1_6  and  N3_8 
REMARK    2  A    between atoms: C2_9  and  C3_10 
REMARK    3  A    between atoms: C3_10  and  C4_11 
REMARK    4  A    between atoms: C4_11  and  S1_12 
REMARK    5  A    between atoms: S1_12  and  N4_13 
REMARK    6  A    between atoms: N5_18  and  O4_20 
REMARK    7  A    between atoms: C5_24  and  C6_25 
ROOT
HETATM    1  N2  UNL     1       1.605  19.439   6.132  1.00  0.00    -0.258 N 
ATOM      2  H2  UNL     1       1.802  19.238   7.113  1.00  0.00     0.191 HD
HETATM    3  C1  UNL     1       2.384  20.393   5.459  1.00  0.00     0.347 C 
HETATM    4  O1  UNL     1       2.020  20.528   4.255  1.00  0.00    -0.245 OA
HETATM    5  N3  UNL     1       3.466  21.148   6.011  1.00  0.00    -0.231 N 
HETATM    6  C2  UNL     1       4.224  22.030   5.324  1.00  0.00     0.144 A 
HETATM    7  N6  UNL     1       5.109  22.548   6.253  1.00  0.00    -0.333 N 
ATOM      8  H6  UNL     1       5.823  23.248   6.053  1.00  0.00     0.168 HD
HETATM    9  C5  UNL     1       4.896  22.002   7.439  1.00  0.00     0.141 A 
HETATM   10  C7  UNL     1       3.841  21.094   7.314  1.00  0.00     0.160 A 
HETATM   11  N8  UNL     1       3.304  20.310   8.341  1.00  0.00    -0.079 NA
ENDROOT
BRANCH   6  12
HETATM   12  C3  UNL     1       4.283  22.427   3.926  1.00  0.00     0.092 C 
HETATM   13  N5  UNL     1       5.078  22.086   3.019  1.00  0.00    -0.269 N 
ATOM     14  H5  UNL     1       5.817  21.425   3.259  1.00  0.00     0.194 HD
BRANCH  12  15
HETATM   15  C4  UNL     1       3.194  23.383   3.463  1.00  0.00     0.225 C 
BRANCH  15  16
HETATM   16  S1  UNL     1       3.609  25.062   3.746  1.00  0.00     0.230 S 
HETATM   17  O2  UNL     1       5.094  25.252   3.617  1.00  0.00    -0.206 OA
HETATM   18  O3  UNL     1       3.226  25.498   5.110  1.00  0.00    -0.206 OA
BRANCH  16  19
HETATM   19  N4  UNL     1       2.875  26.066   2.541  1.00  0.00    -0.328 N 
ATOM     20  H42 UNL     1       1.882  26.049   2.310  1.00  0.00     0.168 HD
ATOM     21  H41 UNL     1       3.579  26.664   2.108  1.00  0.00     0.168 HD
ENDBRANCH  16  19
ENDBRANCH  15  16
ENDBRANCH  12  15
BRANCH  13  22
HETATM   22  O4  UNL     1       5.024  22.529   1.755  1.00  0.00    -0.290 OA
ATOM     23  H4  UNL     1       5.240  22.007   0.991  1.00  0.00     0.244 HD
ENDBRANCH  13  22
ENDBRANCH   6  12
BRANCH   9  24
HETATM   24  C6  UNL     1       5.590  22.251   8.691  1.00  0.00     0.284 C 
HETATM   25  N7  UNL     1       6.851  21.655   8.895  1.00  0.00    -0.056 NA
HETATM   26  O5  UNL     1       5.073  22.972   9.555  1.00  0.00    -0.269 OA
ENDBRANCH   9  24
BRANCH   1  27
HETATM   27  N1  UNL     1       0.558  18.752   5.486  1.00  0.00    -0.341 N 
ATOM     28  H12 UNL     1       0.772  18.242   4.629  1.00  0.00     0.177 HD
ATOM     29  H11 UNL     1      -0.393  18.758   5.856  1.00  0.00     0.177 HD
ENDBRANCH   1  27
TORSDOF 7
ENDMDL
MODEL 2
REMARK VINA RESULT: -6.624238848      2.225      3.842
REMARK  7 active torsions:
REMARK  status: ('A' for Active; 'I' for Inactive)
REMARK    1  A    between atoms: N1_1  and  N2_4 
REMARK       I    between atoms: N2_4  and  C1_6 
REMARK       I    between atoms: C1_6  and  N3_8 
REMARK    2  A    between atoms: C2_9  and  C3_10 
REMARK    3  A    between atoms: C3_10  and  C4_11 
REMARK    4  A    between atoms: C4_11  and  S1_12 
REMARK    5  A    between atoms: S1_12  and  N4_13 
REMARK    6  A    between atoms: N5_18  and  O4_20 
REMARK    7  A    between atoms: C5_24  and  C6_25 
ROOT
HETATM    1  N2  UNL     1       2.460  21.827   7.487  1.00  0.00    -0.258 N 
ATOM      2  H2  UNL     1       2.076  20.885   7.566  1.00  0.00     0.191 HD
HETATM    3  C1  UNL     1       3.247  22.155   6.373  1.00  0.00     0.347 C 
HETATM    4  O1  UNL     1       3.646  23.355   6.418  1.00  0.00    -0.245 OA
HETATM    5  N3  UNL     1       3.588  21.286   5.289  1.00  0.00    -0.231 N 
HETATM    6  C2  UNL     1       4.315  21.645   4.209  1.00  0.00     0.144 A 
HETATM    7  N6  UNL     1       4.432  20.493   3.451  1.00  0.00    -0.333 N 
ATOM      8  H6  UNL     1       4.929  20.426   2.563  1.00  0.00     0.168 HD
HETATM    9  C5  UNL     1       3.806  19.492   4.046  1.00  0.00     0.141 A 
HETATM   10  C7  UNL     1       3.251  19.974   5.235  1.00  0.00     0.160 A 
HETATM   11  N8  UNL     1       2.508  19.228   6.158  1.00  0.00    -0.079 NA
ENDROOT
BRANCH   6  12
HETATM   12  C3  UNL     1       4.873  22.907   3.749  1.00  0.00     0.092 C 
HETATM   13  N5  UNL     1       5.891  23.531   4.130  1.00  0.00    -0.269 N 
ATOM     14  H5  UNL     1       6.445  23.122   4.883  1.00  0.00     0.194 HD
BRANCH  12  15
HETATM   15  C4  UNL     1       4.136  23.576   2.598  1.00  0.00     0.225 C 
BRANCH  15  16
HETATM   16  S1  UNL     1       3.012  24.805   3.144  1.00  0.00     0.230 S 
HETATM   17  O2  UNL     1       2.491  25.582   1.969  1.00  0.00    -0.206 OA
HETATM   18  O3  UNL     1       3.662  25.773   4.059  1.00  0.00    -0.206 OA
BRANCH  16  19
HETATM   19  N4  UNL     1       1.640  24.062   3.895  1.00  0.00    -0.328 N 
ATOM     20  H42 UNL     1       0.672  24.274   3.656  1.00  0.00     0.168 HD
ATOM     21  H41 UNL     1       1.948  23.392   4.600  1.00  0.00     0.168 HD
ENDBRANCH  16  19
ENDBRANCH  15  16
ENDBRANCH  12  15
BRANCH  13  22
HETATM   22  O4  UNL     1       6.303  24.700   3.619  1.00  0.00    -0.290 OA
ATOM     23  H4  UNL     1       6.957  24.788   2.935  1.00  0.00     0.244 HD
ENDBRANCH  13  22
ENDBRANCH   6  12
BRANCH   9  24
HETATM   24  C6  UNL     1       3.674  18.113   3.606  1.00  0.00     0.284 C 
HETATM   25  N7  UNL     1       4.577  17.154   4.106  1.00  0.00    -0.056 NA
HETATM   26  O5  UNL     1       2.781  17.799   2.805  1.00  0.00    -0.269 OA
ENDBRANCH   9  24
BRANCH   1  27
HETATM   27  N1  UNL     1       2.187  22.768   8.501  1.00  0.00    -0.341 N 
ATOM     28  H12 UNL     1       1.743  22.439   9.358  1.00  0.00     0.177 HD
ATOM     29  H11 UNL     1       2.422  23.755   8.391  1.00  0.00     0.177 HD
ENDBRANCH   1  27
TORSDOF 7
ENDMDL
MODEL 3
REMARK VINA RESULT: -6.560552033      1.112      1.112
REMARK  7 active torsions:
REMARK  status: ('A' for Active; 'I' for Inactive)
REMARK    1  A    between atoms: N1_1  and  N2_4 
REMARK       I    between atoms: N2_4  and  C1_6 
REMARK       I    between atoms: C1_6  and  N3_8 
REMARK    2  A    between atoms: C2_9  and  C3_10 
REMARK    3  A    between atoms: C3_10  and  C4_11 
REMARK    4  A    between atoms: C4_11  and  S1_12 
REMARK    5  A    between atoms: S1_12  and  N4_13 
REMARK    6  A    between atoms: N5_18  and  O4_20 
REMARK    7  A    between atoms: C5_24  and  C6_25 
ROOT
HETATM    1  N2  UNL     1       2.594  18.570   5.668  1.00  0.00    -0.258 N 
ATOM      2  H2  UNL     1       2.511  18.439   6.677  1.00  0.00     0.191 HD
HETATM    3  C1  UNL     1       3.080  19.791   5.175  1.00  0.00     0.347 C 
HETATM    4  O1  UNL     1       3.126  19.799   3.911  1.00  0.00    -0.245 OA
HETATM    5  N3  UNL     1       3.488  20.919   5.953  1.00  0.00    -0.231 N 
HETATM    6  C2  UNL     1       3.990  22.067   5.448  1.00  0.00     0.144 A 
HETATM    7  N6  UNL     1       4.204  22.882   6.546  1.00  0.00    -0.333 N 
ATOM      8  H6  UNL     1       4.580  23.829   6.505  1.00  0.00     0.168 HD
HETATM    9  C5  UNL     1       3.849  22.256   7.655  1.00  0.00     0.141 A 
HETATM   10  C7  UNL     1       3.383  20.986   7.304  1.00  0.00     0.160 A 
HETATM   11  N8  UNL     1       2.910  20.009   8.189  1.00  0.00    -0.079 NA
ENDROOT
BRANCH   6  12
HETATM   12  C3  UNL     1       4.349  22.501   4.107  1.00  0.00     0.092 C 
HETATM   13  N5  UNL     1       5.358  22.236   3.412  1.00  0.00    -0.269 N 
ATOM     14  H5  UNL     1       6.065  21.621   3.815  1.00  0.00     0.194 HD
BRANCH  12  15
HETATM   15  C4  UNL     1       3.334  23.392   3.407  1.00  0.00     0.225 C 
BRANCH  15  16
HETATM   16  S1  UNL     1       3.604  25.095   3.723  1.00  0.00     0.230 S 
HETATM   17  O2  UNL     1       5.074  25.401   3.667  1.00  0.00    -0.206 OA
HETATM   18  O3  UNL     1       3.125  25.483   5.072  1.00  0.00    -0.206 OA
BRANCH  16  19
HETATM   19  N4  UNL     1       2.851  26.053   2.494  1.00  0.00    -0.328 N 
ATOM     20  H42 UNL     1       1.851  26.042   2.292  1.00  0.00     0.168 HD
ATOM     21  H41 UNL     1       3.551  26.619   2.015  1.00  0.00     0.168 HD
ENDBRANCH  16  19
ENDBRANCH  15  16
ENDBRANCH  12  15
BRANCH  13  22
HETATM   22  O4  UNL     1       5.572  22.706   2.175  1.00  0.00    -0.290 OA
ATOM     23  H4  UNL     1       6.345  22.519   1.654  1.00  0.00     0.244 HD
ENDBRANCH  13  22
ENDBRANCH   6  12
BRANCH   9  24
HETATM   24  C6  UNL     1       3.905  22.735   9.026  1.00  0.00     0.284 C 
HETATM   25  N7  UNL     1       5.148  22.743   9.690  1.00  0.00    -0.056 NA
HETATM   26  O5  UNL     1       2.872  23.124   9.590  1.00  0.00    -0.269 OA
ENDBRANCH   9  24
BRANCH   1  27
HETATM   27  N1  UNL     1       2.219  17.521   4.804  1.00  0.00    -0.341 N 
ATOM     28  H12 UNL     1       1.742  17.760   3.935  1.00  0.00     0.177 HD
ATOM     29  H11 UNL     1       2.414  16.546   5.032  1.00  0.00     0.177 HD
ENDBRANCH   1  27
TORSDOF 7
ENDMDL
MODEL 4
REMARK VINA RESULT: -6.558493908      3.059      5.148
REMARK  7 active torsions:
REMARK  status: ('A' for Active; 'I' for Inactive)
REMARK    1  A    between atoms: N1_1  and  N2_4 
REMARK       I    between atoms: N2_4  and  C1_6 
REMARK       I    between atoms: C1_6  and  N3_8 
REMARK    2  A    between atoms: C2_9  and  C3_10 
REMARK    3  A    between atoms: C3_10  and  C4_11 
REMARK    4  A    between atoms: C4_11  and  S1_12 
REMARK    5  A    between atoms: S1_12  and  N4_13 
REMARK    6  A    between atoms: N5_18  and  O4_20 
REMARK    7  A    between atoms: C5_24  and  C6_25 
ROOT
HETATM    1  N2  UNL     1       2.600  24.637   3.165  1.00  0.00    -0.258 N 
ATOM      2  H2  UNL     1       1.978  24.546   3.969  1.00  0.00     0.191 HD
HETATM    3  C1  UNL     1       3.507  23.605   2.881  1.00  0.00     0.347 C 
HETATM    4  O1  UNL     1       4.205  23.864   1.858  1.00  0.00    -0.245 OA
HETATM    5  N3  UNL     1       3.667  22.389   3.617  1.00  0.00    -0.231 N 
HETATM    6  C2  UNL     1       4.522  21.395   3.293  1.00  0.00     0.144 A 
HETATM    7  N6  UNL     1       4.372  20.448   4.291  1.00  0.00    -0.333 N 
ATOM      8  H6  UNL     1       4.882  19.567   4.341  1.00  0.00     0.168 HD
HETATM    9  C5  UNL     1       3.471  20.852   5.171  1.00  0.00     0.141 A 
HETATM   10  C7  UNL     1       2.998  22.102   4.761  1.00  0.00     0.160 A 
HETATM   11  N8  UNL     1       2.034  22.874   5.422  1.00  0.00    -0.079 NA
ENDROOT
BRANCH   6  12
HETATM   12  C3  UNL     1       5.418  21.168   2.170  1.00  0.00     0.092 C 
HETATM   13  N5  UNL     1       6.363  21.866   1.733  1.00  0.00    -0.269 N 
ATOM     14  H5  UNL     1       6.569  22.742   2.214  1.00  0.00     0.194 HD
BRANCH  12  15
HETATM   15  C4  UNL     1       5.213  19.865   1.412  1.00  0.00     0.225 C 
BRANCH  15  16
HETATM   16  S1  UNL     1       6.221  18.568   2.022  1.00  0.00     0.230 S 
HETATM   17  O2  UNL     1       5.619  17.994   3.272  1.00  0.00    -0.206 OA
HETATM   18  O3  UNL     1       7.581  19.048   2.368  1.00  0.00    -0.206 OA
BRANCH  16  19
HETATM   19  N4  UNL     1       6.291  17.279   0.868  1.00  0.00    -0.328 N 
ATOM     20  H42 UNL     1       6.243  16.289   1.111  1.00  0.00     0.168 HD
ATOM     21  H41 UNL     1       6.386  17.658  -0.074  1.00  0.00     0.168 HD
ENDBRANCH  16  19
ENDBRANCH  15  16
ENDBRANCH  12  15
BRANCH  13  22
HETATM   22  O4  UNL     1       7.122  21.542   0.676  1.00  0.00    -0.290 OA
ATOM     23  H4  UNL     1       8.068  21.627   0.646  1.00  0.00     0.244 HD
ENDBRANCH  13  22
ENDBRANCH   6  12
BRANCH   9  24
HETATM   24  C6  UNL     1       3.004  20.176   6.369  1.00  0.00     0.284 C 
HETATM   25  N7  UNL     1       3.830  20.176   7.511  1.00  0.00    -0.056 NA
HETATM   26  O5  UNL     1       1.900  19.613   6.374  1.00  0.00    -0.269 OA
ENDBRANCH   9  24
BRANCH   1  27
HETATM   27  N1  UNL     1       2.529  25.798   2.368  1.00  0.00    -0.341 N 
ATOM     28  H12 UNL     1       2.023  25.746   1.484  1.00  0.00     0.177 HD
ATOM     29  H11 UNL     1       2.968  26.672   2.657  1.00  0.00     0.177 HD
ENDBRANCH   1  27
TORSDOF 7
ENDMDL
MODEL 5
REMARK VINA RESULT: -6.440842059      2.474      5.717
REMARK  7 active torsions:
REMARK  status: ('A' for Active; 'I' for Inactive)
REMARK    1  A    between atoms: N1_1  and  N2_4 
REMARK       I    between atoms: N2_4  and  C1_6 
REMARK       I    between atoms: C1_6  and  N3_8 
REMARK    2  A    between atoms: C2_9  and  C3_10 
REMARK    3  A    between atoms: C3_10  and  C4_11 
REMARK    4  A    between atoms: C4_11  and  S1_12 
REMARK    5  A    between atoms: S1_12  and  N4_13 
REMARK    6  A    between atoms: N5_18  and  O4_20 
REMARK    7  A    between atoms: C5_24  and  C6_25 
ROOT
HETATM    1  N2  UNL     1       3.567  24.971   2.764  1.00  0.00    -0.258 N 
ATOM      2  H2  UNL     1       4.050  24.607   1.942  1.00  0.00     0.191 HD
HETATM    3  C1  UNL     1       3.363  24.129   3.867  1.00  0.00     0.347 C 
HETATM    4  O1  UNL     1       2.755  24.723   4.804  1.00  0.00    -0.245 OA
HETATM    5  N3  UNL     1       3.771  22.762   3.979  1.00  0.00    -0.231 N 
HETATM    6  C2  UNL     1       3.595  21.989   5.073  1.00  0.00     0.144 A 
HETATM    7  N6  UNL     1       4.096  20.747   4.723  1.00  0.00    -0.333 N 
ATOM      8  H6  UNL     1       4.112  19.931   5.334  1.00  0.00     0.168 HD
HETATM    9  C5  UNL     1       4.551  20.773   3.481  1.00  0.00     0.141 A 
HETATM   10  C7  UNL     1       4.355  22.061   2.975  1.00  0.00     0.160 A 
HETATM   11  N8  UNL     1       4.698  22.502   1.692  1.00  0.00    -0.079 NA
ENDROOT
BRANCH   6  12
HETATM   12  C3  UNL     1       3.080  22.243   6.409  1.00  0.00     0.092 C 
HETATM   13  N5  UNL     1       1.974  21.951   6.922  1.00  0.00    -0.269 N 
ATOM     14  H5  UNL     1       1.298  21.454   6.341  1.00  0.00     0.194 HD
BRANCH  12  15
HETATM   15  C4  UNL     1       4.035  22.947   7.362  1.00  0.00     0.225 C 
BRANCH  15  16
HETATM   16  S1  UNL     1       5.160  21.840   8.124  1.00  0.00     0.230 S 
HETATM   17  O2  UNL     1       4.707  20.423   7.917  1.00  0.00    -0.206 OA
HETATM   18  O3  UNL     1       5.244  22.067   9.587  1.00  0.00    -0.206 OA
BRANCH  16  19
HETATM   19  N4  UNL     1       6.719  21.976   7.382  1.00  0.00    -0.328 N 
ATOM     20  H42 UNL     1       6.993  22.735   6.759  1.00  0.00     0.168 HD
ATOM     21  H41 UNL     1       7.308  21.191   7.661  1.00  0.00     0.168 HD
ENDBRANCH  16  19
ENDBRANCH  15  16
ENDBRANCH  12  15
BRANCH  13  22
HETATM   22  O4  UNL     1       1.618  22.245   8.180  1.00  0.00    -0.290 OA
ATOM     23  H4  UNL     1       1.484  21.602   8.867  1.00  0.00     0.244 HD
ENDBRANCH  13  22
ENDBRANCH   6  12
BRANCH   9  24
HETATM   24  C6  UNL     1       5.158  19.698   2.714  1.00  0.00     0.284 C 
HETATM   25  N7  UNL     1       4.585  19.344   1.477  1.00  0.00    -0.056 NA
HETATM   26  O5  UNL     1       6.159  19.113   3.151  1.00  0.00    -0.269 OA
ENDBRANCH   9  24
BRANCH   1  27
HETATM   27  N1  UNL     1       3.121  26.308   2.763  1.00  0.00    -0.341 N 
ATOM     28  H12 UNL     1       2.126  26.485   2.624  1.00  0.00     0.177 HD
ATOM     29  H11 UNL     1       3.766  27.087   2.897  1.00  0.00     0.177 HD
ENDBRANCH   1  27
TORSDOF 7
ENDMDL
