MODEL 1
REMARK VINA RESULT: -6.792692697      0.000      0.000
REMARK  8 active torsions:
REMARK  status: ('A' for Active; 'I' for Inactive)
REMARK    1  A    between atoms: N1_1  and  C1_5 
REMARK    2  A    between atoms: C1_5  and  C2_6 
REMARK    3  A    between atoms: C1_5  and  C5_23 
REMARK       I    between atoms: C2_6  and  N2_8 
REMARK    4  A    between atoms: C4_15  and  S1_16 
REMARK    5  A    between atoms: S1_16  and  N5_17 
REMARK    6  A    between atoms: C5_23  and  O4_24 
REMARK    7  A    between atoms: C5_23  and  N6_26 
REMARK    8  A    between atoms: N6_26  and  O5_27 
ROOT
HETATM    1  C2  UNL     1       4.317  22.978   2.574  1.00  0.00     0.258 C 
HETATM    2  O1  UNL     1       3.306  22.345   3.005  1.00  0.00    -0.271 OA
HETATM    3  N2  UNL     1       5.185  22.337   1.666  1.00  0.00    -0.304 N 
ATOM      4  H2  UNL     1       5.429  22.818   0.800  1.00  0.00     0.171 HD
HETATM    5  C3  UNL     1       5.688  21.153   1.891  1.00  0.00     0.168 A 
HETATM    6  N3  UNL     1       5.532  20.326   2.926  1.00  0.00    -0.278 N 
ATOM      7  H3  UNL     1       4.936  20.588   3.711  1.00  0.00     0.189 HD
HETATM    8  N4  UNL     1       6.131  19.209   2.920  1.00  0.00    -0.281 N 
ATOM      9  H4  UNL     1       6.018  18.570   3.706  1.00  0.00     0.188 HD
HETATM   10  C4  UNL     1       6.904  18.866   1.903  1.00  0.00     0.208 A 
HETATM   11  S2  UNL     1       6.759  20.232   0.893  1.00  0.00    -0.020 SA
ENDROOT
BRANCH   1  12
HETATM   12  C1  UNL     1       4.613  24.358   2.989  1.00  0.00     0.321 C 
BRANCH  12  13
HETATM   13  N1  UNL     1       5.774  24.361   3.833  1.00  0.00    -0.062 N 
ATOM     14  H13 UNL     1       6.101  23.418   4.043  1.00  0.00     0.275 HD
ATOM     15  H12 UNL     1       6.604  24.698   3.346  1.00  0.00     0.275 HD
ATOM     16  H11 UNL     1       5.576  24.898   4.677  1.00  0.00     0.275 HD
ENDBRANCH  12  13
BRANCH  12  17
HETATM   17  C5  UNL     1       3.421  25.014   3.643  1.00  0.00     0.277 C 
BRANCH  17  18
HETATM   18  O4  UNL     1       3.217  26.230   3.025  1.00  0.00    -0.375 OA
ATOM     19  H4  UNL     1       2.962  26.856   3.693  1.00  0.00     0.211 HD
ENDBRANCH  17  18
BRANCH  17  20
HETATM   20  N6  UNL     1       3.620  25.113   5.054  1.00  0.00    -0.069 NA
BRANCH  20  21
HETATM   21  O5  UNL     1       3.289  23.970   5.695  1.00  0.00    -0.294 OA
ATOM     22  H5  UNL     1       3.888  23.773   6.404  1.00  0.00     0.238 HD
ENDBRANCH  20  21
ENDBRANCH  17  20
ENDBRANCH  12  17
ENDBRANCH   1  12
BRANCH  10  23
HETATM   23  S1  UNL     1       7.858  17.432   1.583  1.00  0.00     0.280 S 
HETATM   24  O2  UNL     1       8.508  16.940   2.869  1.00  0.00    -0.199 OA
HETATM   25  O3  UNL     1       6.961  16.315   1.126  1.00  0.00    -0.199 OA
BRANCH  23  26
HETATM   26  N5  UNL     1       9.071  17.738   0.410  1.00  0.00    -0.323 N 
ATOM     27  H52 UNL     1       9.339  18.675   0.109  1.00  0.00     0.169 HD
ATOM     28  H51 UNL     1       9.479  16.870   0.063  1.00  0.00     0.169 HD
ENDBRANCH  23  26
ENDBRANCH  10  23
TORSDOF 8
ENDMDL
MODEL 2
REMARK VINA RESULT: -6.726452857      1.317      1.716
REMARK  8 active torsions:
REMARK  status: ('A' for Active; 'I' for Inactive)
REMARK    1  A    between atoms: N1_1  and  C1_5 
REMARK    2  A    between atoms: C1_5  and  C2_6 
REMARK    3  A    between atoms: C1_5  and  C5_23 
REMARK       I    between atoms: C2_6  and  N2_8 
REMARK    4  A    between atoms: C4_15  and  S1_16 
REMARK    5  A    between atoms: S1_16  and  N5_17 
REMARK    6  A    between atoms: C5_23  and  O4_24 
REMARK    7  A    between atoms: C5_23  and  N6_26 
REMARK    8  A    between atoms: N6_26  and  O5_27 
ROOT
HETATM    1  C2  UNL     1       3.436  22.595   3.444  1.00  0.00     0.258 C 
HETATM    2  O1  UNL     1       2.530  21.765   3.758  1.00  0.00    -0.271 OA
HETATM    3  N2  UNL     1       4.358  22.248   2.436  1.00  0.00    -0.304 N 
ATOM      4  H2  UNL     1       4.514  22.901   1.668  1.00  0.00     0.171 HD
HETATM    5  C3  UNL     1       5.022  21.122   2.448  1.00  0.00     0.168 A 
HETATM    6  N3  UNL     1       5.003  20.113   3.320  1.00  0.00    -0.278 N 
ATOM      7  H3  UNL     1       4.398  20.150   4.140  1.00  0.00     0.189 HD
HETATM    8  N4  UNL     1       5.747  19.107   3.116  1.00  0.00    -0.281 N 
ATOM      9  H4  UNL     1       5.739  18.331   3.777  1.00  0.00     0.188 HD
HETATM   10  C4  UNL     1       6.532  19.056   2.054  1.00  0.00     0.208 A 
HETATM   11  S2  UNL     1       6.180  20.545   1.301  1.00  0.00    -0.020 SA
ENDROOT
BRANCH   1  12
HETATM   12  C1  UNL     1       3.555  23.909   4.095  1.00  0.00     0.321 C 
BRANCH  12  13
HETATM   13  N1  UNL     1       2.254  24.355   4.505  1.00  0.00    -0.062 N 
ATOM     14  H13 UNL     1       2.003  25.250   4.084  1.00  0.00     0.275 HD
ATOM     15  H12 UNL     1       1.507  23.790   4.101  1.00  0.00     0.275 HD
ATOM     16  H11 UNL     1       2.212  24.381   5.524  1.00  0.00     0.275 HD
ENDBRANCH  12  13
BRANCH  12  17
HETATM   17  C5  UNL     1       4.259  24.911   3.211  1.00  0.00     0.277 C 
BRANCH  17  18
HETATM   18  O4  UNL     1       5.488  25.182   3.776  1.00  0.00    -0.375 OA
ATOM     19  H4  UNL     1       5.335  25.565   4.633  1.00  0.00     0.211 HD
ENDBRANCH  17  18
BRANCH  17  20
HETATM   20  N6  UNL     1       3.443  26.069   3.026  1.00  0.00    -0.069 NA
BRANCH  20  21
HETATM   21  O5  UNL     1       2.447  25.851   2.140  1.00  0.00    -0.294 OA
ATOM     22  H5  UNL     1       2.634  26.234   1.291  1.00  0.00     0.238 HD
ENDBRANCH  20  21
ENDBRANCH  17  20
ENDBRANCH  12  17
ENDBRANCH   1  12
BRANCH  10  23
HETATM   23  S1  UNL     1       7.661  17.843   1.484  1.00  0.00     0.280 S 
HETATM   24  O2  UNL     1       8.497  17.321   2.644  1.00  0.00    -0.199 OA
HETATM   25  O3  UNL     1       6.907  16.653   0.956  1.00  0.00    -0.199 OA
BRANCH  23  26
HETATM   26  N5  UNL     1       8.697  18.475   0.272  1.00  0.00    -0.323 N 
ATOM     27  H52 UNL     1       8.474  19.299  -0.286  1.00  0.00     0.169 HD
ATOM     28  H51 UNL     1       9.551  17.923   0.189  1.00  0.00     0.169 HD
ENDBRANCH  23  26
ENDBRANCH  10  23
TORSDOF 8
ENDMDL
MODEL 3
REMARK VINA RESULT: -6.564245414      1.650      1.860
REMARK  8 active torsions:
REMARK  status: ('A' for Active; 'I' for Inactive)
REMARK    1  A    between atoms: N1_1  and  C1_5 
REMARK    2  A    between atoms: C1_5  and  C2_6 
REMARK    3  A    between atoms: C1_5  and  C5_23 
REMARK       I    between atoms: C2_6  and  N2_8 
REMARK    4  A    between atoms: C4_15  and  S1_16 
REMARK    5  A    between atoms: S1_16  and  N5_17 
REMARK    6  A    between atoms: C5_23  and  O4_24 
REMARK    7  A    between atoms: C5_23  and  N6_26 
REMARK    8  A    between atoms: N6_26  and  O5_27 
ROOT
HETATM    1  C2  UNL     1       2.992  23.650   3.327  1.00  0.00     0.258 C 
HETATM    2  O1  UNL     1       2.047  22.837   3.566  1.00  0.00    -0.271 OA
HETATM    3  N2  UNL     1       3.955  23.309   2.357  1.00  0.00    -0.304 N 
ATOM      4  H2  UNL     1       4.169  23.983   1.621  1.00  0.00     0.171 HD
HETATM    5  C3  UNL     1       4.585  22.164   2.362  1.00  0.00     0.168 A 
HETATM    6  N3  UNL     1       4.493  21.128   3.196  1.00  0.00    -0.278 N 
ATOM      7  H3  UNL     1       3.847  21.155   3.985  1.00  0.00     0.189 HD
HETATM    8  N4  UNL     1       5.217  20.108   2.996  1.00  0.00    -0.281 N 
ATOM      9  H4  UNL     1       5.154  19.310   3.628  1.00  0.00     0.188 HD
HETATM   10  C4  UNL     1       6.056  20.069   1.974  1.00  0.00     0.208 A 
HETATM   11  S2  UNL     1       5.785  21.592   1.257  1.00  0.00    -0.020 SA
ENDROOT
BRANCH   1  12
HETATM   12  C1  UNL     1       3.114  24.937   4.030  1.00  0.00     0.321 C 
BRANCH  12  13
HETATM   13  N1  UNL     1       3.086  26.005   3.072  1.00  0.00    -0.062 N 
ATOM     14  H13 UNL     1       4.021  26.269   2.761  1.00  0.00     0.275 HD
ATOM     15  H12 UNL     1       2.712  25.707   2.171  1.00  0.00     0.275 HD
ATOM     16  H11 UNL     1       2.571  26.795   3.462  1.00  0.00     0.275 HD
ENDBRANCH  12  13
BRANCH  12  17
HETATM   17  C5  UNL     1       4.340  24.980   4.910  1.00  0.00     0.277 C 
BRANCH  17  18
HETATM   18  O4  UNL     1       5.420  25.299   4.113  1.00  0.00    -0.375 OA
ATOM     19  H4  UNL     1       6.210  25.099   4.601  1.00  0.00     0.211 HD
ENDBRANCH  17  18
BRANCH  17  20
HETATM   20  N6  UNL     1       4.491  23.746   5.614  1.00  0.00    -0.069 NA
BRANCH  20  21
HETATM   21  O5  UNL     1       5.599  23.075   5.229  1.00  0.00    -0.294 OA
ATOM     22  H5  UNL     1       5.561  22.157   5.468  1.00  0.00     0.238 HD
ENDBRANCH  20  21
ENDBRANCH  17  20
ENDBRANCH  12  17
ENDBRANCH   1  12
BRANCH  10  23
HETATM   23  S1  UNL     1       7.178  18.842   1.420  1.00  0.00     0.280 S 
HETATM   24  O2  UNL     1       7.896  18.217   2.608  1.00  0.00    -0.199 OA
HETATM   25  O3  UNL     1       6.423  17.720   0.763  1.00  0.00    -0.199 OA
BRANCH  23  26
HETATM   26  N5  UNL     1       8.333  19.498   0.335  1.00  0.00    -0.323 N 
ATOM     27  H52 UNL     1       9.195  19.019   0.074  1.00  0.00     0.169 HD
ATOM     28  H51 UNL     1       8.044  20.414  -0.005  1.00  0.00     0.169 HD
ENDBRANCH  23  26
ENDBRANCH  10  23
TORSDOF 8
ENDMDL
MODEL 4
REMARK VINA RESULT: -6.523802736      1.845      2.106
REMARK  8 active torsions:
REMARK  status: ('A' for Active; 'I' for Inactive)
REMARK    1  A    between atoms: N1_1  and  C1_5 
REMARK    2  A    between atoms: C1_5  and  C2_6 
REMARK    3  A    between atoms: C1_5  and  C5_23 
REMARK       I    between atoms: C2_6  and  N2_8 
REMARK    4  A    between atoms: C4_15  and  S1_16 
REMARK    5  A    between atoms: S1_16  and  N5_17 
REMARK    6  A    between atoms: C5_23  and  O4_24 
REMARK    7  A    between atoms: C5_23  and  N6_26 
REMARK    8  A    between atoms: N6_26  and  O5_27 
ROOT
HETATM    1  C2  UNL     1       2.974  23.649   3.333  1.00  0.00     0.258 C 
HETATM    2  O1  UNL     1       2.025  22.842   3.574  1.00  0.00    -0.271 OA
HETATM    3  N2  UNL     1       3.943  23.293   2.373  1.00  0.00    -0.304 N 
ATOM      4  H2  UNL     1       4.165  23.958   1.631  1.00  0.00     0.171 HD
HETATM    5  C3  UNL     1       4.569  22.146   2.397  1.00  0.00     0.168 A 
HETATM    6  N3  UNL     1       4.467  21.120   3.242  1.00  0.00    -0.278 N 
ATOM      7  H3  UNL     1       3.816  21.159   4.026  1.00  0.00     0.189 HD
HETATM    8  N4  UNL     1       5.189  20.095   3.059  1.00  0.00    -0.281 N 
ATOM      9  H4  UNL     1       5.119  19.305   3.700  1.00  0.00     0.188 HD
HETATM   10  C4  UNL     1       6.035  20.041   2.044  1.00  0.00     0.208 A 
HETATM   11  S2  UNL     1       5.775  21.557   1.306  1.00  0.00    -0.020 SA
ENDROOT
BRANCH   1  12
HETATM   12  C1  UNL     1       3.096  24.944   4.021  1.00  0.00     0.321 C 
BRANCH  12  13
HETATM   13  N1  UNL     1       3.056  26.002   3.053  1.00  0.00    -0.062 N 
ATOM     14  H13 UNL     1       2.331  25.855   2.350  1.00  0.00     0.275 HD
ATOM     15  H12 UNL     1       2.702  26.873   3.447  1.00  0.00     0.275 HD
ATOM     16  H11 UNL     1       3.981  26.113   2.636  1.00  0.00     0.275 HD
ENDBRANCH  12  13
BRANCH  12  17
HETATM   17  C5  UNL     1       4.329  25.002   4.890  1.00  0.00     0.277 C 
BRANCH  17  18
HETATM   18  O4  UNL     1       5.404  25.298   4.079  1.00  0.00    -0.375 OA
ATOM     19  H4  UNL     1       5.998  25.851   4.573  1.00  0.00     0.211 HD
ENDBRANCH  17  18
BRANCH  17  20
HETATM   20  N6  UNL     1       4.481  23.782   5.620  1.00  0.00    -0.069 NA
BRANCH  20  21
HETATM   21  O5  UNL     1       5.580  23.096   5.238  1.00  0.00    -0.294 OA
ATOM     22  H5  UNL     1       6.169  22.932   5.966  1.00  0.00     0.238 HD
ENDBRANCH  20  21
ENDBRANCH  17  20
ENDBRANCH  12  17
ENDBRANCH   1  12
BRANCH  10  23
HETATM   23  S1  UNL     1       7.156  18.804   1.512  1.00  0.00     0.280 S 
HETATM   24  O2  UNL     1       8.227  19.419   0.621  1.00  0.00    -0.199 OA
HETATM   25  O3  UNL     1       7.887  18.235   2.696  1.00  0.00    -0.199 OA
BRANCH  23  26
HETATM   26  N5  UNL     1       6.349  17.557   0.656  1.00  0.00    -0.323 N 
ATOM     27  H52 UNL     1       6.624  17.243  -0.275  1.00  0.00     0.169 HD
ATOM     28  H51 UNL     1       5.571  17.179   1.196  1.00  0.00     0.169 HD
ENDBRANCH  23  26
ENDBRANCH  10  23
TORSDOF 8
ENDMDL
MODEL 5
REMARK VINA RESULT: -6.517319446      1.067      1.475
REMARK  8 active torsions:
REMARK  status: ('A' for Active; 'I' for Inactive)
REMARK    1  A    between atoms: N1_1  and  C1_5 
REMARK    2  A    between atoms: C1_5  and  C2_6 
REMARK    3  A    between atoms: C1_5  and  C5_23 
REMARK       I    between atoms: C2_6  and  N2_8 
REMARK    4  A    between atoms: C4_15  and  S1_16 
REMARK    5  A    between atoms: S1_16  and  N5_17 
REMARK    6  A    between atoms: C5_23  and  O4_24 
REMARK    7  A    between atoms: C5_23  and  N6_26 
REMARK    8  A    between atoms: N6_26  and  O5_27 
ROOT
HETATM    1  C2  UNL     1       4.231  23.100   3.247  1.00  0.00     0.258 C 
HETATM    2  O1  UNL     1       3.190  22.433   3.529  1.00  0.00    -0.271 OA
HETATM    3  N2  UNL     1       5.114  22.603   2.266  1.00  0.00    -0.304 N 
ATOM      4  H2  UNL     1       5.400  23.221   1.506  1.00  0.00     0.171 HD
HETATM    5  C3  UNL     1       5.579  21.382   2.293  1.00  0.00     0.168 A 
HETATM    6  N3  UNL     1       5.366  20.391   3.159  1.00  0.00    -0.278 N 
ATOM      7  H3  UNL     1       4.750  20.529   3.961  1.00  0.00     0.189 HD
HETATM    8  N4  UNL     1       5.937  19.275   2.974  1.00  0.00    -0.281 N 
ATOM      9  H4  UNL     1       5.780  18.511   3.631  1.00  0.00     0.188 HD
HETATM   10  C4  UNL     1       6.736  19.093   1.936  1.00  0.00     0.208 A 
HETATM   11  S2  UNL     1       6.660  20.619   1.179  1.00  0.00    -0.020 SA
ENDROOT
BRANCH   1  12
HETATM   12  C1  UNL     1       4.548  24.376   3.908  1.00  0.00     0.321 C 
BRANCH  12  13
HETATM   13  N1  UNL     1       4.765  24.144   5.307  1.00  0.00    -0.062 N 
ATOM     14  H13 UNL     1       3.953  24.397   5.871  1.00  0.00     0.275 HD
ATOM     15  H12 UNL     1       4.796  23.150   5.534  1.00  0.00     0.275 HD
ATOM     16  H11 UNL     1       5.609  24.634   5.603  1.00  0.00     0.275 HD
ENDBRANCH  12  13
BRANCH  12  17
HETATM   17  C5  UNL     1       3.485  25.417   3.652  1.00  0.00     0.277 C 
BRANCH  17  18
HETATM   18  O4  UNL     1       2.323  24.992   4.260  1.00  0.00    -0.375 OA
ATOM     19  H4  UNL     1       1.779  25.756   4.414  1.00  0.00     0.211 HD
ENDBRANCH  17  18
BRANCH  17  20
HETATM   20  N6  UNL     1       3.346  25.652   2.249  1.00  0.00    -0.069 NA
BRANCH  20  21
HETATM   21  O5  UNL     1       2.118  26.117   1.933  1.00  0.00    -0.294 OA
ATOM     22  H5  UNL     1       2.040  27.051   2.087  1.00  0.00     0.238 HD
ENDBRANCH  20  21
ENDBRANCH  17  20
ENDBRANCH  12  17
ENDBRANCH   1  12
BRANCH  10  23
HETATM   23  S1  UNL     1       7.663  17.708   1.395  1.00  0.00     0.280 S 
HETATM   24  O2  UNL     1       8.416  17.094   2.568  1.00  0.00    -0.199 OA
HETATM   25  O3  UNL     1       6.735  16.635   0.899  1.00  0.00    -0.199 OA
BRANCH  23  26
HETATM   26  N5  UNL     1       8.778  18.145   0.167  1.00  0.00    -0.323 N 
ATOM     27  H52 UNL     1       9.625  18.686   0.342  1.00  0.00     0.169 HD
ATOM     28  H51 UNL     1       8.482  17.796  -0.744  1.00  0.00     0.169 HD
ENDBRANCH  23  26
ENDBRANCH  10  23
TORSDOF 8
ENDMDL
