MODEL 1
REMARK VINA RESULT: -7.007768148      0.000      0.000
REMARK  12 active torsions:
REMARK  status: ('A' for Active; 'I' for Inactive)
REMARK    1  A    between atoms: N1_1  and  N2_4 
REMARK       I    between atoms: N2_4  and  C1_6 
REMARK    2  A    between atoms: C1_6  and  C2_8 
REMARK    3  A    between atoms: C3_9  and  C4_10 
REMARK       I    between atoms: C4_10  and  N3_12 
REMARK    4  A    between atoms: N3_12  and  C5_13 
REMARK    5  A    between atoms: C5_13  and  C6_14 
REMARK    6  A    between atoms: C6_14  and  C7_15 
REMARK    7  A    between atoms: C6_14  and  C8_18 
REMARK    8  A    between atoms: C8_18  and  O4_19 
REMARK    9  A    between atoms: C9_22  and  N5_23 
REMARK   10  A    between atoms: C14_32  and  O8_33 
REMARK   11  A    between atoms: C15_35  and  O9_36 
REMARK   12  A    between atoms: C17_39  and  O10_40 
ROOT
HETATM    1  C6  UNL     1       6.062 -30.293  -3.555  1.00  0.00     0.192 C 
ENDROOT
BRANCH   1   2
HETATM    2  C5  UNL     1       7.004 -30.498  -4.752  1.00  0.00     0.178 C 
BRANCH   2   3
HETATM    3  N3  UNL     1       6.508 -31.206  -5.723  1.00  0.00    -0.382 NA
HETATM    4  C4  UNL     1       5.956 -31.999  -6.805  1.00  0.00     0.326 C 
HETATM    5  O2  UNL     1       6.264 -33.181  -6.940  1.00  0.00    -0.251 OA
BRANCH   4   6
HETATM    6  C3  UNL     1       5.017 -31.379  -7.749  1.00  0.00     0.072 A 
HETATM    7  C2  UNL     1       3.758 -30.958  -7.414  1.00  0.00     0.118 A 
HETATM    8  C18 UNL     1       2.972 -30.334  -8.422  1.00  0.00     0.264 A 
HETATM    9  N7  UNL     1       3.449 -30.168  -9.652  1.00  0.00    -0.303 N 
HETATM   10  O11 UNL     1       1.832 -29.953  -8.099  1.00  0.00    -0.267 OA
HETATM   11  C17 UNL     1       4.661 -30.566 -10.004  1.00  0.00     0.143 A 
ATOM     12  H7  UNL     1       2.858 -29.717 -10.351  1.00  0.00     0.171 HD
HETATM   13  C16 UNL     1       5.443 -31.175  -9.043  1.00  0.00     0.075 A 
BRANCH   7  14
HETATM   14  C1  UNL     1       3.124 -31.118  -6.135  1.00  0.00     0.276 C 
HETATM   15  N2  UNL     1       2.895 -30.152  -5.194  1.00  0.00    -0.272 N 
ATOM     16  H2  UNL     1       3.199 -29.196  -5.379  1.00  0.00     0.189 HD
HETATM   17  O1  UNL     1       2.742 -32.317  -5.849  1.00  0.00    -0.266 OA
BRANCH  15  18
HETATM   18  N1  UNL     1       2.240 -30.447  -3.960  1.00  0.00    -0.342 N 
ATOM     19  H12 UNL     1       2.140 -31.425  -3.690  1.00  0.00     0.176 HD
ATOM     20  H11 UNL     1       1.878 -29.709  -3.355  1.00  0.00     0.176 HD
ENDBRANCH  15  18
ENDBRANCH   7  14
BRANCH  11  21
HETATM   21  O10 UNL     1       5.160 -30.385 -11.318  1.00  0.00    -0.346 OA
ATOM     22  H10 UNL     1       4.935 -31.005 -12.002  1.00  0.00     0.219 HD
ENDBRANCH  11  21
ENDBRANCH   4   6
ENDBRANCH   2   3
ENDBRANCH   1   2
BRANCH   1  23
HETATM   23  C7  UNL     1       5.705 -31.589  -2.983  1.00  0.00     0.246 C 
HETATM   24  N4  UNL     1       6.698 -32.506  -2.476  1.00  0.00    -0.061 NA
HETATM   25  O3  UNL     1       4.488 -31.929  -2.922  1.00  0.00    -0.276 OA
ENDBRANCH   1  23
BRANCH   1  26
HETATM   26  C8  UNL     1       6.437 -29.201  -2.610  1.00  0.00     0.210 C 
HETATM   27  O5  UNL     1       6.978 -29.886  -1.478  1.00  0.00    -0.324 OA
HETATM   28  C9  UNL     1       6.538 -29.176  -0.328  1.00  0.00     0.267 C 
HETATM   29  C14 UNL     1       5.185 -28.939  -0.691  1.00  0.00     0.201 C 
HETATM   30  C15 UNL     1       5.269 -28.403  -2.105  1.00  0.00     0.214 C 
BRANCH  26  31
HETATM   31  O4  UNL     1       7.383 -28.319  -3.099  1.00  0.00    -0.362 OA
ATOM     32  H4  UNL     1       7.942 -27.931  -2.435  1.00  0.00     0.213 HD
ENDBRANCH  26  31
BRANCH  28  33
HETATM   33  N5  UNL     1       7.545 -28.304   0.019  1.00  0.00    -0.280 N 
HETATM   34  C10 UNL     1       8.839 -28.738  -0.115  1.00  0.00     0.104 A 
HETATM   35  C11 UNL     1       9.930 -28.014   0.229  1.00  0.00     0.092 A 
HETATM   36  C12 UNL     1       9.728 -26.741   0.750  1.00  0.00     0.250 A 
HETATM   37  O6  UNL     1      10.677 -25.983   1.095  1.00  0.00    -0.268 OA
HETATM   38  N6  UNL     1       8.476 -26.323   0.877  1.00  0.00    -0.275 N 
HETATM   39  C13 UNL     1       7.414 -27.091   0.517  1.00  0.00     0.331 A 
ATOM     40  H6  UNL     1       8.304 -25.392   1.259  1.00  0.00     0.173 HD
HETATM   41  O7  UNL     1       6.298 -26.620   0.670  1.00  0.00    -0.246 OA
ENDBRANCH  28  33
BRANCH  29  42
HETATM   42  O8  UNL     1       4.237 -28.378   0.085  1.00  0.00    -0.388 OA
ATOM     43  H8  UNL     1       4.033 -27.452   0.145  1.00  0.00     0.210 HD
ENDBRANCH  29  42
BRANCH  30  44
HETATM   44  O9  UNL     1       4.048 -28.716  -2.698  1.00  0.00    -0.387 OA
ATOM     45  H9  UNL     1       3.290 -28.325  -2.279  1.00  0.00     0.210 HD
ENDBRANCH  30  44
ENDBRANCH   1  26
TORSDOF 12
ENDMDL
MODEL 2
REMARK VINA RESULT: -6.897880854      2.563      3.214
REMARK  12 active torsions:
REMARK  status: ('A' for Active; 'I' for Inactive)
REMARK    1  A    between atoms: N1_1  and  N2_4 
REMARK       I    between atoms: N2_4  and  C1_6 
REMARK    2  A    between atoms: C1_6  and  C2_8 
REMARK    3  A    between atoms: C3_9  and  C4_10 
REMARK       I    between atoms: C4_10  and  N3_12 
REMARK    4  A    between atoms: N3_12  and  C5_13 
REMARK    5  A    between atoms: C5_13  and  C6_14 
REMARK    6  A    between atoms: C6_14  and  C7_15 
REMARK    7  A    between atoms: C6_14  and  C8_18 
REMARK    8  A    between atoms: C8_18  and  O4_19 
REMARK    9  A    between atoms: C9_22  and  N5_23 
REMARK   10  A    between atoms: C14_32  and  O8_33 
REMARK   11  A    between atoms: C15_35  and  O9_36 
REMARK   12  A    between atoms: C17_39  and  O10_40 
ROOT
HETATM    1  C6  UNL     1       5.294 -32.129  -4.676  1.00  0.00     0.192 C 
ENDROOT
BRANCH   1   2
HETATM    2  C5  UNL     1       5.782 -32.958  -5.876  1.00  0.00     0.178 C 
BRANCH   2   3
HETATM    3  N3  UNL     1       5.839 -32.309  -7.001  1.00  0.00    -0.382 NA
HETATM    4  C4  UNL     1       5.907 -31.586  -8.256  1.00  0.00     0.326 C 
HETATM    5  O2  UNL     1       6.972 -31.467  -8.859  1.00  0.00    -0.251 OA
BRANCH   4   6
HETATM    6  C3  UNL     1       4.686 -30.990  -8.814  1.00  0.00     0.072 A 
HETATM    7  C2  UNL     1       3.966 -30.000  -8.201  1.00  0.00     0.118 A 
HETATM    8  C18 UNL     1       2.826 -29.485  -8.880  1.00  0.00     0.264 A 
HETATM    9  N7  UNL     1       2.474 -29.955 -10.073  1.00  0.00    -0.303 N 
HETATM   10  O11 UNL     1       2.186 -28.582  -8.310  1.00  0.00    -0.267 OA
HETATM   11  C17 UNL     1       3.150 -30.911 -10.688  1.00  0.00     0.143 A 
ATOM     12  H7  UNL     1       1.650 -29.563 -10.531  1.00  0.00     0.171 HD
HETATM   13  C16 UNL     1       4.260 -31.428 -10.049  1.00  0.00     0.075 A 
BRANCH   7  14
HETATM   14  C1  UNL     1       4.227 -29.444  -6.903  1.00  0.00     0.276 C 
HETATM   15  N2  UNL     1       3.408 -29.470  -5.807  1.00  0.00    -0.272 N 
ATOM     16  H2  UNL     1       2.496 -29.919  -5.880  1.00  0.00     0.189 HD
HETATM   17  O1  UNL     1       5.362 -28.845  -6.772  1.00  0.00    -0.266 OA
BRANCH  15  18
HETATM   18  N1  UNL     1       3.798 -28.884  -4.565  1.00  0.00    -0.342 N 
ATOM     19  H12 UNL     1       4.789 -28.701  -4.410  1.00  0.00     0.176 HD
ATOM     20  H11 UNL     1       3.115 -28.650  -3.845  1.00  0.00     0.176 HD
ENDBRANCH  15  18
ENDBRANCH   7  14
BRANCH  11  21
HETATM   21  O10 UNL     1       2.766 -31.406 -11.959  1.00  0.00    -0.346 OA
ATOM     22  H10 UNL     1       2.015 -31.034 -12.408  1.00  0.00     0.219 HD
ENDBRANCH  11  21
ENDBRANCH   4   6
ENDBRANCH   2   3
ENDBRANCH   1   2
BRANCH   1  23
HETATM   23  C7  UNL     1       4.006 -32.642  -4.216  1.00  0.00     0.246 C 
HETATM   24  N4  UNL     1       2.755 -32.019  -4.577  1.00  0.00    -0.061 NA
HETATM   25  O3  UNL     1       3.973 -33.669  -3.477  1.00  0.00    -0.276 OA
ENDBRANCH   1  23
BRANCH   1  26
HETATM   26  C8  UNL     1       6.321 -31.814  -3.641  1.00  0.00     0.210 C 
HETATM   27  O5  UNL     1       5.571 -31.267  -2.555  1.00  0.00    -0.324 OA
HETATM   28  C9  UNL     1       6.354 -30.211  -2.015  1.00  0.00     0.267 C 
HETATM   29  C14 UNL     1       6.802 -29.599  -3.217  1.00  0.00     0.201 C 
HETATM   30  C15 UNL     1       7.302 -30.756  -4.057  1.00  0.00     0.214 C 
BRANCH  26  31
HETATM   31  O4  UNL     1       7.036 -32.910  -3.190  1.00  0.00    -0.362 OA
ATOM     32  H4  UNL     1       7.920 -32.973  -3.533  1.00  0.00     0.213 HD
ENDBRANCH  26  31
BRANCH  28  33
HETATM   33  N5  UNL     1       7.058 -30.732  -0.953  1.00  0.00    -0.280 N 
HETATM   34  C10 UNL     1       8.387 -31.012  -1.143  1.00  0.00     0.104 A 
HETATM   35  C11 UNL     1       9.195 -31.570  -0.211  1.00  0.00     0.092 A 
HETATM   36  C12 UNL     1       8.642 -31.879   1.026  1.00  0.00     0.250 A 
HETATM   37  O6  UNL     1       9.311 -32.395   1.965  1.00  0.00    -0.268 OA
HETATM   38  N6  UNL     1       7.357 -31.607   1.209  1.00  0.00    -0.275 N 
HETATM   39  C13 UNL     1       6.589 -31.046   0.238  1.00  0.00     0.331 A 
ATOM     40  H6  UNL     1       6.931 -31.828   2.109  1.00  0.00     0.173 HD
HETATM   41  O7  UNL     1       5.416 -30.832   0.500  1.00  0.00    -0.246 OA
ENDBRANCH  28  33
BRANCH  29  42
HETATM   42  O8  UNL     1       7.515 -28.460  -3.315  1.00  0.00    -0.388 OA
ATOM     43  H8  UNL     1       8.392 -28.314  -2.979  1.00  0.00     0.210 HD
ENDBRANCH  29  42
BRANCH  30  44
HETATM   44  O9  UNL     1       7.182 -30.337  -5.380  1.00  0.00    -0.387 OA
ATOM     45  H9  UNL     1       8.008 -30.185  -5.826  1.00  0.00     0.210 HD
ENDBRANCH  30  44
ENDBRANCH   1  26
TORSDOF 12
ENDMDL
MODEL 3
REMARK VINA RESULT: -6.879808324      2.165      3.511
REMARK  12 active torsions:
REMARK  status: ('A' for Active; 'I' for Inactive)
REMARK    1  A    between atoms: N1_1  and  N2_4 
REMARK       I    between atoms: N2_4  and  C1_6 
REMARK    2  A    between atoms: C1_6  and  C2_8 
REMARK    3  A    between atoms: C3_9  and  C4_10 
REMARK       I    between atoms: C4_10  and  N3_12 
REMARK    4  A    between atoms: N3_12  and  C5_13 
REMARK    5  A    between atoms: C5_13  and  C6_14 
REMARK    6  A    between atoms: C6_14  and  C7_15 
REMARK    7  A    between atoms: C6_14  and  C8_18 
REMARK    8  A    between atoms: C8_18  and  O4_19 
REMARK    9  A    between atoms: C9_22  and  N5_23 
REMARK   10  A    between atoms: C14_32  and  O8_33 
REMARK   11  A    between atoms: C15_35  and  O9_36 
REMARK   12  A    between atoms: C17_39  and  O10_40 
ROOT
HETATM    1  C6  UNL     1       4.978 -32.468  -5.019  1.00  0.00     0.192 C 
ENDROOT
BRANCH   1   2
HETATM    2  C5  UNL     1       5.988 -32.982  -6.059  1.00  0.00     0.178 C 
BRANCH   2   3
HETATM    3  N3  UNL     1       5.988 -32.333  -7.185  1.00  0.00    -0.382 NA
HETATM    4  C4  UNL     1       5.994 -31.610  -8.443  1.00  0.00     0.326 C 
HETATM    5  O2  UNL     1       7.034 -31.465  -9.082  1.00  0.00    -0.251 OA
BRANCH   4   6
HETATM    6  C3  UNL     1       4.739 -31.047  -8.958  1.00  0.00     0.072 A 
HETATM    7  C2  UNL     1       3.979 -30.126  -8.288  1.00  0.00     0.118 A 
HETATM    8  C18 UNL     1       2.808 -29.633  -8.928  1.00  0.00     0.264 A 
HETATM    9  N7  UNL     1       2.465 -30.057 -10.141  1.00  0.00    -0.303 N 
HETATM   10  O11 UNL     1       2.132 -28.793  -8.306  1.00  0.00    -0.267 OA
HETATM   11  C17 UNL     1       3.179 -30.946 -10.811  1.00  0.00     0.143 A 
ATOM     12  H7  UNL     1       1.619 -29.683 -10.570  1.00  0.00     0.171 HD
HETATM   13  C16 UNL     1       4.321 -31.440 -10.210  1.00  0.00     0.075 A 
BRANCH   7  14
HETATM   14  C1  UNL     1       4.228 -29.625  -6.964  1.00  0.00     0.276 C 
HETATM   15  N2  UNL     1       3.414 -29.728  -5.870  1.00  0.00    -0.272 N 
ATOM     16  H2  UNL     1       2.515 -30.200  -5.963  1.00  0.00     0.189 HD
HETATM   17  O1  UNL     1       5.346 -29.001  -6.807  1.00  0.00    -0.266 OA
BRANCH  15  18
HETATM   18  N1  UNL     1       3.790 -29.192  -4.602  1.00  0.00    -0.342 N 
ATOM     19  H12 UNL     1       4.690 -29.469  -4.210  1.00  0.00     0.176 HD
ATOM     20  H11 UNL     1       3.186 -28.547  -4.091  1.00  0.00     0.176 HD
ENDBRANCH  15  18
ENDBRANCH   7  14
BRANCH  11  21
HETATM   21  O10 UNL     1       2.805 -31.393 -12.102  1.00  0.00    -0.346 OA
ATOM     22  H10 UNL     1       3.299 -31.114 -12.865  1.00  0.00     0.219 HD
ENDBRANCH  11  21
ENDBRANCH   4   6
ENDBRANCH   2   3
ENDBRANCH   1   2
BRANCH   1  23
HETATM   23  C7  UNL     1       3.757 -33.267  -5.083  1.00  0.00     0.246 C 
HETATM   24  N4  UNL     1       3.706 -34.634  -4.619  1.00  0.00    -0.061 NA
HETATM   25  O3  UNL     1       2.702 -32.755  -5.557  1.00  0.00    -0.276 OA
ENDBRANCH   1  23
BRANCH   1  26
HETATM   26  C8  UNL     1       5.533 -32.163  -3.668  1.00  0.00     0.210 C 
HETATM   27  O5  UNL     1       6.379 -31.031  -3.882  1.00  0.00    -0.324 OA
HETATM   28  C9  UNL     1       7.518 -31.216  -3.052  1.00  0.00     0.267 C 
HETATM   29  C14 UNL     1       7.764 -32.597  -3.280  1.00  0.00     0.201 C 
HETATM   30  C15 UNL     1       6.408 -33.248  -3.109  1.00  0.00     0.214 C 
BRANCH  26  31
HETATM   31  O4  UNL     1       4.582 -31.843  -2.716  1.00  0.00    -0.362 OA
ATOM     32  H4  UNL     1       4.822 -32.072  -1.825  1.00  0.00     0.213 HD
ENDBRANCH  26  31
BRANCH  28  33
HETATM   33  N5  UNL     1       7.286 -30.522  -1.887  1.00  0.00    -0.280 N 
HETATM   34  C10 UNL     1       7.067 -29.171  -1.980  1.00  0.00     0.104 A 
HETATM   35  C11 UNL     1       6.872 -28.350  -0.922  1.00  0.00     0.092 A 
HETATM   36  C12 UNL     1       6.891 -28.913   0.349  1.00  0.00     0.250 A 
HETATM   37  O6  UNL     1       6.714 -28.236   1.401  1.00  0.00    -0.268 OA
HETATM   38  N6  UNL     1       7.101 -30.219   0.438  1.00  0.00    -0.275 N 
HETATM   39  C13 UNL     1       7.292 -31.000  -0.658  1.00  0.00     0.331 A 
ATOM     40  H6  UNL     1       7.121 -30.653   1.362  1.00  0.00     0.173 HD
HETATM   41  O7  UNL     1       7.477 -32.193  -0.477  1.00  0.00    -0.246 OA
ENDBRANCH  28  33
BRANCH  29  42
HETATM   42  O8  UNL     1       8.811 -33.308  -2.817  1.00  0.00    -0.388 OA
ATOM     43  H8  UNL     1       9.388 -33.861  -3.331  1.00  0.00     0.210 HD
ENDBRANCH  29  42
BRANCH  30  44
HETATM   44  O9  UNL     1       6.453 -34.413  -3.871  1.00  0.00    -0.387 OA
ATOM     45  H9  UNL     1       6.858 -35.157  -3.440  1.00  0.00     0.210 HD
ENDBRANCH  30  44
ENDBRANCH   1  26
TORSDOF 12
ENDMDL
MODEL 4
REMARK VINA RESULT: -6.874107046      2.601      5.147
REMARK  12 active torsions:
REMARK  status: ('A' for Active; 'I' for Inactive)
REMARK    1  A    between atoms: N1_1  and  N2_4 
REMARK       I    between atoms: N2_4  and  C1_6 
REMARK    2  A    between atoms: C1_6  and  C2_8 
REMARK    3  A    between atoms: C3_9  and  C4_10 
REMARK       I    between atoms: C4_10  and  N3_12 
REMARK    4  A    between atoms: N3_12  and  C5_13 
REMARK    5  A    between atoms: C5_13  and  C6_14 
REMARK    6  A    between atoms: C6_14  and  C7_15 
REMARK    7  A    between atoms: C6_14  and  C8_18 
REMARK    8  A    between atoms: C8_18  and  O4_19 
REMARK    9  A    between atoms: C9_22  and  N5_23 
REMARK   10  A    between atoms: C14_32  and  O8_33 
REMARK   11  A    between atoms: C15_35  and  O9_36 
REMARK   12  A    between atoms: C17_39  and  O10_40 
ROOT
HETATM    1  C6  UNL     1       8.526 -31.580  -7.078  1.00  0.00     0.192 C 
ENDROOT
BRANCH   1   2
HETATM    2  C5  UNL     1       8.222 -30.970  -8.456  1.00  0.00     0.178 C 
BRANCH   2   3
HETATM    3  N3  UNL     1       7.119 -31.384  -9.006  1.00  0.00    -0.382 NA
HETATM    4  C4  UNL     1       5.890 -31.850  -9.620  1.00  0.00     0.326 C 
HETATM    5  O2  UNL     1       5.882 -32.852 -10.333  1.00  0.00    -0.251 OA
BRANCH   4   6
HETATM    6  C3  UNL     1       4.641 -31.114  -9.386  1.00  0.00     0.072 A 
HETATM    7  C2  UNL     1       3.852 -30.605 -10.383  1.00  0.00     0.118 A 
HETATM    8  C18 UNL     1       2.644 -29.952 -10.011  1.00  0.00     0.264 A 
HETATM    9  N7  UNL     1       2.296 -29.840  -8.732  1.00  0.00    -0.303 N 
HETATM   10  O11 UNL     1       1.937 -29.499 -10.930  1.00  0.00    -0.267 OA
HETATM   11  C17 UNL     1       3.039 -30.322  -7.749  1.00  0.00     0.143 A 
ATOM     12  H7  UNL     1       1.423 -29.366  -8.501  1.00  0.00     0.171 HD
HETATM   13  C16 UNL     1       4.217 -30.960  -8.084  1.00  0.00     0.075 A 
BRANCH   7  14
HETATM   14  C1  UNL     1       4.143 -30.631 -11.789  1.00  0.00     0.276 C 
HETATM   15  N2  UNL     1       3.533 -31.388 -12.750  1.00  0.00    -0.272 N 
ATOM     16  H2  UNL     1       2.786 -32.027 -12.479  1.00  0.00     0.189 HD
HETATM   17  O1  UNL     1       5.098 -29.853 -12.174  1.00  0.00    -0.266 OA
BRANCH  15  18
HETATM   18  N1  UNL     1       3.915 -31.308 -14.124  1.00  0.00    -0.342 N 
ATOM     19  H12 UNL     1       4.895 -31.128 -14.340  1.00  0.00     0.176 HD
ATOM     20  H11 UNL     1       3.237 -31.427 -14.877  1.00  0.00     0.176 HD
ENDBRANCH  15  18
ENDBRANCH   7  14
BRANCH  11  21
HETATM   21  O10 UNL     1       2.660 -30.197  -6.389  1.00  0.00    -0.346 OA
ATOM     22  H10 UNL     1       2.277 -29.387  -6.074  1.00  0.00     0.219 HD
ENDBRANCH  11  21
ENDBRANCH   4   6
ENDBRANCH   2   3
ENDBRANCH   1   2
BRANCH   1  23
HETATM   23  C7  UNL     1       9.924 -31.338  -6.733  1.00  0.00     0.246 C 
HETATM   24  N4  UNL     1      10.786 -32.384  -6.233  1.00  0.00    -0.061 NA
HETATM   25  O3  UNL     1      10.410 -30.178  -6.874  1.00  0.00    -0.276 OA
ENDBRANCH   1  23
BRANCH   1  26
HETATM   26  C8  UNL     1       7.502 -31.341  -6.020  1.00  0.00     0.210 C 
HETATM   27  O5  UNL     1       8.265 -31.185  -4.821  1.00  0.00    -0.324 OA
HETATM   28  C9  UNL     1       7.528 -31.824  -3.788  1.00  0.00     0.267 C 
HETATM   29  C14 UNL     1       7.126 -33.005  -4.468  1.00  0.00     0.201 C 
HETATM   30  C15 UNL     1       6.581 -32.504  -5.789  1.00  0.00     0.214 C 
BRANCH  26  31
HETATM   31  O4  UNL     1       6.729 -30.210  -6.214  1.00  0.00    -0.362 OA
ATOM     32  H4  UNL     1       6.191 -29.968  -5.469  1.00  0.00     0.213 HD
ENDBRANCH  26  31
BRANCH  28  33
HETATM   33  N5  UNL     1       6.786 -30.850  -3.159  1.00  0.00    -0.280 N 
HETATM   34  C10 UNL     1       7.403 -29.657  -2.881  1.00  0.00     0.104 A 
HETATM   35  C11 UNL     1       6.820 -28.625  -2.227  1.00  0.00     0.092 A 
HETATM   36  C12 UNL     1       5.503 -28.781  -1.811  1.00  0.00     0.250 A 
HETATM   37  O6  UNL     1       4.866 -27.878  -1.199  1.00  0.00    -0.268 OA
HETATM   38  N6  UNL     1       4.907 -29.934  -2.081  1.00  0.00    -0.275 N 
HETATM   39  C13 UNL     1       5.539 -30.940  -2.741  1.00  0.00     0.331 A 
ATOM     40  H6  UNL     1       3.941 -30.071  -1.783  1.00  0.00     0.173 HD
HETATM   41  O7  UNL     1       4.908 -31.965  -2.946  1.00  0.00    -0.246 OA
ENDBRANCH  28  33
BRANCH  29  42
HETATM   42  O8  UNL     1       6.471 -34.053  -3.931  1.00  0.00    -0.388 OA
ATOM     43  H8  UNL     1       6.403 -34.924  -4.302  1.00  0.00     0.210 HD
ENDBRANCH  29  42
BRANCH  30  44
HETATM   44  O9  UNL     1       6.738 -33.560  -6.684  1.00  0.00    -0.387 OA
ATOM     45  H9  UNL     1       6.304 -33.441  -7.521  1.00  0.00     0.210 HD
ENDBRANCH  30  44
ENDBRANCH   1  26
TORSDOF 12
ENDMDL
MODEL 5
REMARK VINA RESULT: -6.852315045      1.692      1.863
REMARK  12 active torsions:
REMARK  status: ('A' for Active; 'I' for Inactive)
REMARK    1  A    between atoms: N1_1  and  N2_4 
REMARK       I    between atoms: N2_4  and  C1_6 
REMARK    2  A    between atoms: C1_6  and  C2_8 
REMARK    3  A    between atoms: C3_9  and  C4_10 
REMARK       I    between atoms: C4_10  and  N3_12 
REMARK    4  A    between atoms: N3_12  and  C5_13 
REMARK    5  A    between atoms: C5_13  and  C6_14 
REMARK    6  A    between atoms: C6_14  and  C7_15 
REMARK    7  A    between atoms: C6_14  and  C8_18 
REMARK    8  A    between atoms: C8_18  and  O4_19 
REMARK    9  A    between atoms: C9_22  and  N5_23 
REMARK   10  A    between atoms: C14_32  and  O8_33 
REMARK   11  A    between atoms: C15_35  and  O9_36 
REMARK   12  A    between atoms: C17_39  and  O10_40 
ROOT
HETATM    1  C6  UNL     1       6.326 -30.596  -4.851  1.00  0.00     0.192 C 
ENDROOT
BRANCH   1   2
HETATM    2  C5  UNL     1       6.649 -30.000  -6.231  1.00  0.00     0.178 C 
BRANCH   2   3
HETATM    3  N3  UNL     1       6.099 -30.617  -7.234  1.00  0.00    -0.382 NA
HETATM    4  C4  UNL     1       5.489 -31.309  -8.353  1.00  0.00     0.326 C 
HETATM    5  O2  UNL     1       5.936 -32.384  -8.750  1.00  0.00    -0.251 OA
BRANCH   4   6
HETATM    6  C3  UNL     1       4.321 -30.718  -9.019  1.00  0.00     0.072 A 
HETATM    7  C2  UNL     1       3.421 -29.893  -8.400  1.00  0.00     0.118 A 
HETATM    8  C18 UNL     1       2.359 -29.356  -9.181  1.00  0.00     0.264 A 
HETATM    9  N7  UNL     1       2.248 -29.651 -10.473  1.00  0.00    -0.303 N 
HETATM   10  O11 UNL     1       1.553 -28.604  -8.603  1.00  0.00    -0.267 OA
HETATM   11  C17 UNL     1       3.102 -30.446 -11.096  1.00  0.00     0.143 A 
ATOM     12  H7  UNL     1       1.474 -29.249 -11.003  1.00  0.00     0.171 HD
HETATM   13  C16 UNL     1       4.141 -30.980 -10.360  1.00  0.00     0.075 A 
BRANCH   7  14
HETATM   14  C1  UNL     1       3.417 -29.536  -7.008  1.00  0.00     0.276 C 
HETATM   15  N2  UNL     1       3.812 -28.350  -6.453  1.00  0.00    -0.272 N 
ATOM     16  H2  UNL     1       4.163 -27.610  -7.061  1.00  0.00     0.189 HD
HETATM   17  O1  UNL     1       3.001 -30.452  -6.200  1.00  0.00    -0.266 OA
BRANCH  15  18
HETATM   18  N1  UNL     1       3.747 -28.122  -5.046  1.00  0.00    -0.342 N 
ATOM     19  H12 UNL     1       3.127 -28.712  -4.491  1.00  0.00     0.176 HD
ATOM     20  H11 UNL     1       4.299 -27.392  -4.594  1.00  0.00     0.176 HD
ENDBRANCH  15  18
ENDBRANCH   7  14
BRANCH  11  21
HETATM   21  O10 UNL     1       2.974 -30.755 -12.473  1.00  0.00    -0.346 OA
ATOM     22  H10 UNL     1       2.182 -30.519 -12.943  1.00  0.00     0.219 HD
ENDBRANCH  11  21
ENDBRANCH   4   6
ENDBRANCH   2   3
ENDBRANCH   1   2
BRANCH   1  23
HETATM   23  C7  UNL     1       6.974 -31.898  -4.715  1.00  0.00     0.246 C 
HETATM   24  N4  UNL     1       8.305 -32.152  -5.214  1.00  0.00    -0.061 NA
HETATM   25  O3  UNL     1       6.358 -32.843  -4.140  1.00  0.00    -0.276 OA
ENDBRANCH   1  23
BRANCH   1  26
HETATM   26  C8  UNL     1       6.420 -29.655  -3.697  1.00  0.00     0.210 C 
HETATM   27  O5  UNL     1       7.576 -30.092  -2.979  1.00  0.00    -0.324 OA
HETATM   28  C9  UNL     1       7.271 -29.953  -1.598  1.00  0.00     0.267 C 
HETATM   29  C14 UNL     1       5.944 -30.459  -1.589  1.00  0.00     0.201 C 
HETATM   30  C15 UNL     1       5.266 -29.746  -2.740  1.00  0.00     0.214 C 
BRANCH  26  31
HETATM   31  O4  UNL     1       6.583 -28.327  -4.051  1.00  0.00    -0.362 OA
ATOM     32  H4  UNL     1       6.688 -27.733  -3.316  1.00  0.00     0.213 HD
ENDBRANCH  26  31
BRANCH  28  33
HETATM   33  N5  UNL     1       7.774 -28.737  -1.194  1.00  0.00    -0.280 N 
HETATM   34  C10 UNL     1       8.915 -28.283  -1.806  1.00  0.00     0.104 A 
HETATM   35  C11 UNL     1       9.552 -27.133  -1.484  1.00  0.00     0.092 A 
HETATM   36  C12 UNL     1       9.013 -26.354  -0.466  1.00  0.00     0.250 A 
HETATM   37  O6  UNL     1       9.526 -25.261  -0.095  1.00  0.00    -0.268 OA
HETATM   38  N6  UNL     1       7.909 -26.793   0.123  1.00  0.00    -0.275 N 
HETATM   39  C13 UNL     1       7.308 -27.958  -0.238  1.00  0.00     0.331 A 
ATOM     40  H6  UNL     1       7.497 -26.238   0.874  1.00  0.00     0.173 HD
HETATM   41  O7  UNL     1       6.295 -28.280   0.361  1.00  0.00    -0.246 OA
ENDBRANCH  28  33
BRANCH  29  42
HETATM   42  O8  UNL     1       5.174 -30.665  -0.502  1.00  0.00    -0.388 OA
ATOM     43  H8  UNL     1       4.692 -31.457  -0.295  1.00  0.00     0.210 HD
ENDBRANCH  29  42
BRANCH  30  44
HETATM   44  O9  UNL     1       4.234 -30.588  -3.149  1.00  0.00    -0.387 OA
ATOM     45  H9  UNL     1       3.530 -30.689  -2.519  1.00  0.00     0.210 HD
ENDBRANCH  30  44
ENDBRANCH   1  26
TORSDOF 12
ENDMDL
