MODEL 1
REMARK VINA RESULT: -8.389999658      0.000      0.000
REMARK  13 active torsions:
REMARK  status: ('A' for Active; 'I' for Inactive)
REMARK       I    between atoms: N1_1  and  C1_4 
REMARK       I    between atoms: C1_4  and  N3_6 
REMARK       I    between atoms: N3_6  and  C2_8 
REMARK    1  A    between atoms: C2_8  and  C3_10 
REMARK    2  A    between atoms: C3_10  and  N4_11 
REMARK    3  A    between atoms: C3_10  and  C4_15 
REMARK    4  A    between atoms: C4_15  and  N5_16 
REMARK    5  A    between atoms: N5_16  and  N6_18 
REMARK    6  A    between atoms: N6_18  and  C5_20 
REMARK    7  A    between atoms: C8_27  and  N9_28 
REMARK    8  A    between atoms: N9_28  and  C9_30 
REMARK    9  A    between atoms: C11_32  and  O2_33 
REMARK   10  A    between atoms: C12_35  and  O3_36 
REMARK   11  A    between atoms: O3_36  and  S1_37 
REMARK   12  A    between atoms: S1_37  and  N10_38 
REMARK   13  A    between atoms: C13_46  and  N12_47 
ROOT
HETATM    1  C5  UNL     1       2.349 -30.213 -10.495  1.00  0.00     0.150 A 
HETATM    2  N7  UNL     1       1.344 -29.362 -10.363  1.00  0.00    -0.336 N 
ATOM      3  H7  UNL     1       0.617 -29.319 -11.077  1.00  0.00     0.168 HD
HETATM    4  C6  UNL     1       1.278 -28.552  -9.289  1.00  0.00     0.182 A 
HETATM    5  N8  UNL     1       2.215 -28.584  -8.333  1.00  0.00    -0.347 N 
ATOM      6  H8  UNL     1       2.125 -27.953  -7.536  1.00  0.00     0.167 HD
HETATM    7  C7  UNL     1       3.268 -29.415  -8.386  1.00  0.00     0.109 A 
HETATM    8  C8  UNL     1       4.213 -29.423  -7.390  1.00  0.00     0.148 A 
HETATM    9  N11 UNL     1       5.233 -30.339  -7.598  1.00  0.00    -0.175 N 
ATOM     10  H11 UNL     1       5.973 -30.402  -6.899  1.00  0.00     0.186 HD
HETATM   11  C13 UNL     1       5.299 -31.136  -8.654  1.00  0.00     0.678 A 
HETATM   12  N13 UNL     1       4.356 -31.101  -9.611  1.00  0.00    -0.186 N 
ATOM     13  H13 UNL     1       4.425 -31.721 -10.418  1.00  0.00     0.184 HD
HETATM   14  C14 UNL     1       3.324 -30.248  -9.505  1.00  0.00     0.125 A 
ENDROOT
BRANCH   1  15
HETATM   15  N6  UNL     1       2.500 -31.022 -11.482  1.00  0.00    -0.288 N 
ATOM     16  H6  UNL     1       2.086 -31.952 -11.421  1.00  0.00     0.188 HD
BRANCH  15  17
HETATM   17  N5  UNL     1       3.214 -30.674 -12.641  1.00  0.00    -0.332 N 
ATOM     18  H5  UNL     1       2.942 -29.824 -13.136  1.00  0.00     0.180 HD
BRANCH  17  19
HETATM   19  C4  UNL     1       4.292 -31.436 -13.165  1.00  0.00     0.182 C 
BRANCH  19  20
HETATM   20  C3  UNL     1       5.451 -30.608 -13.636  1.00  0.00     0.294 C 
BRANCH  20  21
HETATM   21  C2  UNL     1       5.334 -30.203 -15.044  1.00  0.00     0.256 C 
HETATM   22  N3  UNL     1       4.582 -30.962 -15.996  1.00  0.00    -0.300 N 
HETATM   23  C1  UNL     1       4.456 -30.592 -17.350  1.00  0.00     0.188 C 
ATOM     24  H3  UNL     1       4.114 -31.812 -15.680  1.00  0.00     0.171 HD
HETATM   25  N1  UNL     1       3.767 -31.319 -18.147  1.00  0.00    -0.373 N 
HETATM   26  N2  UNL     1       5.092 -29.420 -17.821  1.00  0.00    -0.064 NA
ATOM     27  H12 UNL     1       3.676 -31.051 -19.127  1.00  0.00     0.158 HD
ATOM     28  H11 UNL     1       3.309 -32.165 -17.807  1.00  0.00     0.158 HD
HETATM   29  O1  UNL     1       5.889 -29.168 -15.479  1.00  0.00    -0.271 OA
ENDBRANCH  20  21
BRANCH  20  30
HETATM   30  N4  UNL     1       5.528 -29.407 -12.803  1.00  0.00    -0.065 N 
ATOM     31  H43 UNL     1       4.778 -28.745 -13.003  1.00  0.00     0.275 HD
ATOM     32  H42 UNL     1       5.296 -29.593 -11.827  1.00  0.00     0.275 HD
ATOM     33  H41 UNL     1       6.453 -28.991 -12.910  1.00  0.00     0.275 HD
ENDBRANCH  20  30
ENDBRANCH  19  20
ENDBRANCH  17  19
ENDBRANCH  15  17
ENDBRANCH   1  15
BRANCH   8  34
HETATM   34  N9  UNL     1       4.227 -28.707  -6.363  1.00  0.00    -0.347 N 
ATOM     35  H9  UNL     1       4.195 -27.706  -6.562  1.00  0.00     0.163 HD
BRANCH  34  36
HETATM   36  C9  UNL     1       4.276 -29.003  -5.017  1.00  0.00     0.227 C 
HETATM   37  C10 UNL     1       5.580 -28.565  -4.327  1.00  0.00     0.090 C 
HETATM   38  C11 UNL     1       5.387 -29.261  -2.985  1.00  0.00     0.178 C 
HETATM   39  C12 UNL     1       4.605 -30.485  -3.419  1.00  0.00     0.311 C 
HETATM   40  O6  UNL     1       4.416 -30.406  -4.781  1.00  0.00    -0.333 OA
BRANCH  38  41
HETATM   41  O2  UNL     1       6.572 -29.579  -2.371  1.00  0.00    -0.390 OA
ATOM     42  H2  UNL     1       6.672 -30.512  -2.218  1.00  0.00     0.210 HD
ENDBRANCH  38  41
BRANCH  39  43
HETATM   43  O3  UNL     1       5.197 -31.657  -3.000  1.00  0.00    -0.224 OA
BRANCH  43  44
HETATM   44  S1  UNL     1       4.791 -33.001  -3.844  1.00  0.00     0.358 S 
HETATM   45  O4  UNL     1       5.361 -34.214  -3.141  1.00  0.00    -0.176 OA
HETATM   46  O5  UNL     1       3.330 -33.232  -4.002  1.00  0.00    -0.176 OA
BRANCH  44  47
HETATM   47  N10 UNL     1       5.502 -32.998  -5.439  1.00  0.00    -0.306 N 
ATOM     48 2H10 UNL     1       6.443 -33.340  -5.635  1.00  0.00     0.171 HD
ATOM     49 1H10 UNL     1       4.862 -32.616  -6.135  1.00  0.00     0.171 HD
ENDBRANCH  44  47
ENDBRANCH  43  44
ENDBRANCH  39  43
ENDBRANCH  34  36
ENDBRANCH   8  34
BRANCH  11  50
HETATM   50  N12 UNL     1       6.298 -31.969  -8.767  1.00  0.00    -0.234 N 
ATOM     51 2H12 UNL     1       7.024 -31.791  -9.462  1.00  0.00     0.174 HD
ATOM     52 1H12 UNL     1       6.340 -32.786  -8.158  1.00  0.00     0.174 HD
ENDBRANCH  11  50
TORSDOF 13
ENDMDL
MODEL 2
REMARK VINA RESULT: -8.323352299      1.908      3.415
REMARK  13 active torsions:
REMARK  status: ('A' for Active; 'I' for Inactive)
REMARK       I    between atoms: N1_1  and  C1_4 
REMARK       I    between atoms: C1_4  and  N3_6 
REMARK       I    between atoms: N3_6  and  C2_8 
REMARK    1  A    between atoms: C2_8  and  C3_10 
REMARK    2  A    between atoms: C3_10  and  N4_11 
REMARK    3  A    between atoms: C3_10  and  C4_15 
REMARK    4  A    between atoms: C4_15  and  N5_16 
REMARK    5  A    between atoms: N5_16  and  N6_18 
REMARK    6  A    between atoms: N6_18  and  C5_20 
REMARK    7  A    between atoms: C8_27  and  N9_28 
REMARK    8  A    between atoms: N9_28  and  C9_30 
REMARK    9  A    between atoms: C11_32  and  O2_33 
REMARK   10  A    between atoms: C12_35  and  O3_36 
REMARK   11  A    between atoms: O3_36  and  S1_37 
REMARK   12  A    between atoms: S1_37  and  N10_38 
REMARK   13  A    between atoms: C13_46  and  N12_47 
ROOT
HETATM    1  C5  UNL     1       3.974 -30.859 -11.654  1.00  0.00     0.150 A 
HETATM    2  N7  UNL     1       5.158 -31.446 -11.579  1.00  0.00    -0.336 N 
ATOM      3  H7  UNL     1       5.572 -31.863 -12.413  1.00  0.00     0.168 HD
HETATM    4  C6  UNL     1       5.817 -31.495 -10.406  1.00  0.00     0.182 A 
HETATM    5  N8  UNL     1       5.302 -30.957  -9.294  1.00  0.00    -0.347 N 
ATOM      6  H8  UNL     1       5.835 -31.016  -8.427  1.00  0.00     0.167 HD
HETATM    7  C7  UNL     1       4.108 -30.342  -9.279  1.00  0.00     0.109 A 
HETATM    8  C8  UNL     1       3.606 -29.801  -8.122  1.00  0.00     0.148 A 
HETATM    9  N11 UNL     1       2.364 -29.204  -8.279  1.00  0.00    -0.175 N 
ATOM     10  H11 UNL     1       1.927 -28.780  -7.461  1.00  0.00     0.186 HD
HETATM   11  C13 UNL     1       1.714 -29.155  -9.433  1.00  0.00     0.678 A 
HETATM   12  N13 UNL     1       2.237 -29.697 -10.547  1.00  0.00    -0.186 N 
ATOM     13  H13 UNL     1       1.721 -29.651 -11.426  1.00  0.00     0.184 HD
HETATM   14  C14 UNL     1       3.436 -30.299 -10.503  1.00  0.00     0.125 A 
ENDROOT
BRANCH   1  15
HETATM   15  N6  UNL     1       3.270 -30.763 -12.726  1.00  0.00    -0.288 N 
ATOM     16  H6  UNL     1       2.296 -30.473 -12.648  1.00  0.00     0.188 HD
BRANCH  15  17
HETATM   17  N5  UNL     1       3.793 -31.045 -14.000  1.00  0.00    -0.332 N 
ATOM     18  H5  UNL     1       3.996 -32.017 -14.232  1.00  0.00     0.180 HD
BRANCH  17  19
HETATM   19  C4  UNL     1       4.054 -30.055 -14.984  1.00  0.00     0.182 C 
BRANCH  19  20
HETATM   20  C3  UNL     1       5.480 -30.015 -15.447  1.00  0.00     0.294 C 
BRANCH  20  21
HETATM   21  C2  UNL     1       5.619 -29.576 -16.843  1.00  0.00     0.256 C 
HETATM   22  N3  UNL     1       6.874 -29.157 -17.390  1.00  0.00    -0.300 N 
HETATM   23  C1  UNL     1       7.029 -28.732 -18.724  1.00  0.00     0.188 C 
ATOM     24  H3  UNL     1       7.695 -29.168 -16.784  1.00  0.00     0.171 HD
HETATM   25  N1  UNL     1       8.182 -28.371 -19.146  1.00  0.00    -0.373 N 
HETATM   26  N2  UNL     1       5.911 -28.706 -19.589  1.00  0.00    -0.064 NA
ATOM     27  H12 UNL     1       8.295 -28.064 -20.112  1.00  0.00     0.158 HD
ATOM     28  H11 UNL     1       8.989 -28.389 -18.522  1.00  0.00     0.158 HD
HETATM   29  O1  UNL     1       4.640 -29.547 -17.624  1.00  0.00    -0.271 OA
ENDBRANCH  20  21
BRANCH  20  30
HETATM   30  N4  UNL     1       6.219 -29.092 -14.584  1.00  0.00    -0.065 N 
ATOM     31  H43 UNL     1       5.617 -28.379 -14.171  1.00  0.00     0.275 HD
ATOM     32  H42 UNL     1       6.531 -29.533 -13.719  1.00  0.00     0.275 HD
ATOM     33  H41 UNL     1       6.990 -28.690 -15.117  1.00  0.00     0.275 HD
ENDBRANCH  20  30
ENDBRANCH  19  20
ENDBRANCH  17  19
ENDBRANCH  15  17
ENDBRANCH   1  15
BRANCH   8  34
HETATM   34  N9  UNL     1       4.150 -29.803  -6.995  1.00  0.00    -0.347 N 
ATOM     35  H9  UNL     1       4.328 -28.869  -6.624  1.00  0.00     0.163 HD
BRANCH  34  36
HETATM   36  C9  UNL     1       4.557 -30.819  -6.156  1.00  0.00     0.227 C 
HETATM   37  C10 UNL     1       3.459 -31.854  -5.847  1.00  0.00     0.090 C 
HETATM   38  C11 UNL     1       4.164 -32.629  -4.740  1.00  0.00     0.178 C 
HETATM   39  C12 UNL     1       4.990 -31.524  -4.112  1.00  0.00     0.311 C 
HETATM   40  O6  UNL     1       4.750 -30.364  -4.815  1.00  0.00    -0.333 OA
BRANCH  38  41
HETATM   41  O2  UNL     1       3.292 -33.209  -3.853  1.00  0.00    -0.390 OA
ATOM     42  H2  UNL     1       3.579 -34.063  -3.555  1.00  0.00     0.210 HD
ENDBRANCH  38  41
BRANCH  39  43
HETATM   43  O3  UNL     1       4.772 -31.417  -2.756  1.00  0.00    -0.224 OA
BRANCH  43  44
HETATM   44  S1  UNL     1       5.485 -30.140  -2.019  1.00  0.00     0.358 S 
HETATM   45  O4  UNL     1       5.466 -30.362  -0.522  1.00  0.00    -0.176 OA
HETATM   46  O5  UNL     1       6.900 -29.894  -2.408  1.00  0.00    -0.176 OA
BRANCH  44  47
HETATM   47  N10 UNL     1       4.597 -28.661  -2.291  1.00  0.00    -0.306 N 
ATOM     48 2H10 UNL     1       3.960 -28.525  -3.076  1.00  0.00     0.171 HD
ATOM     49 1H10 UNL     1       4.798 -27.965  -1.573  1.00  0.00     0.171 HD
ENDBRANCH  44  47
ENDBRANCH  43  44
ENDBRANCH  39  43
ENDBRANCH  34  36
ENDBRANCH   8  34
BRANCH  11  50
HETATM   50  N12 UNL     1       0.548 -28.572  -9.488  1.00  0.00    -0.234 N 
ATOM     51 2H12 UNL     1      -0.083 -28.636  -8.690  1.00  0.00     0.174 HD
ATOM     52 1H12 UNL     1       0.284 -28.059 -10.329  1.00  0.00     0.174 HD
ENDBRANCH  11  50
TORSDOF 13
ENDMDL
MODEL 3
REMARK VINA RESULT: -8.219718001      1.900      3.876
REMARK  13 active torsions:
REMARK  status: ('A' for Active; 'I' for Inactive)
REMARK       I    between atoms: N1_1  and  C1_4 
REMARK       I    between atoms: C1_4  and  N3_6 
REMARK       I    between atoms: N3_6  and  C2_8 
REMARK    1  A    between atoms: C2_8  and  C3_10 
REMARK    2  A    between atoms: C3_10  and  N4_11 
REMARK    3  A    between atoms: C3_10  and  C4_15 
REMARK    4  A    between atoms: C4_15  and  N5_16 
REMARK    5  A    between atoms: N5_16  and  N6_18 
REMARK    6  A    between atoms: N6_18  and  C5_20 
REMARK    7  A    between atoms: C8_27  and  N9_28 
REMARK    8  A    between atoms: N9_28  and  C9_30 
REMARK    9  A    between atoms: C11_32  and  O2_33 
REMARK   10  A    between atoms: C12_35  and  O3_36 
REMARK   11  A    between atoms: O3_36  and  S1_37 
REMARK   12  A    between atoms: S1_37  and  N10_38 
REMARK   13  A    between atoms: C13_46  and  N12_47 
ROOT
HETATM    1  C5  UNL     1       3.908 -30.918 -11.352  1.00  0.00     0.150 A 
HETATM    2  N7  UNL     1       5.078 -31.529 -11.254  1.00  0.00    -0.336 N 
ATOM      3  H7  UNL     1       5.483 -31.985 -12.071  1.00  0.00     0.168 HD
HETATM    4  C6  UNL     1       5.735 -31.549 -10.079  1.00  0.00     0.182 A 
HETATM    5  N8  UNL     1       5.232 -30.959  -8.988  1.00  0.00    -0.347 N 
ATOM      6  H8  UNL     1       5.764 -30.999  -8.118  1.00  0.00     0.167 HD
HETATM    7  C7  UNL     1       4.052 -30.318  -8.997  1.00  0.00     0.109 A 
HETATM    8  C8  UNL     1       3.562 -29.723  -7.861  1.00  0.00     0.148 A 
HETATM    9  N11 UNL     1       2.334 -29.105  -8.041  1.00  0.00    -0.175 N 
ATOM     10  H11 UNL     1       1.906 -28.642  -7.240  1.00  0.00     0.186 HD
HETATM   11  C13 UNL     1       1.686 -29.084  -9.197  1.00  0.00     0.678 A 
HETATM   12  N13 UNL     1       2.196 -29.678 -10.290  1.00  0.00    -0.186 N 
ATOM     13  H13 UNL     1       1.682 -29.653 -11.170  1.00  0.00     0.184 HD
HETATM   14  C14 UNL     1       3.382 -30.305 -10.222  1.00  0.00     0.125 A 
ENDROOT
BRANCH   1  15
HETATM   15  N6  UNL     1       3.206 -30.846 -12.427  1.00  0.00    -0.288 N 
ATOM     16  H6  UNL     1       2.247 -30.506 -12.365  1.00  0.00     0.188 HD
BRANCH  15  17
HETATM   17  N5  UNL     1       3.712 -31.220 -13.684  1.00  0.00    -0.332 N 
ATOM     18  H5  UNL     1       3.834 -32.214 -13.877  1.00  0.00     0.180 HD
BRANCH  17  19
HETATM   19  C4  UNL     1       4.062 -30.294 -14.703  1.00  0.00     0.182 C 
BRANCH  19  20
HETATM   20  C3  UNL     1       5.458 -30.460 -15.224  1.00  0.00     0.294 C 
BRANCH  20  21
HETATM   21  C2  UNL     1       6.482 -30.328 -14.178  1.00  0.00     0.256 C 
HETATM   22  N3  UNL     1       7.018 -29.058 -13.791  1.00  0.00    -0.300 N 
HETATM   23  C1  UNL     1       7.999 -28.908 -12.791  1.00  0.00     0.188 C 
ATOM     24  H3  UNL     1       6.673 -28.221 -14.262  1.00  0.00     0.171 HD
HETATM   25  N1  UNL     1       8.434 -27.741 -12.496  1.00  0.00    -0.373 N 
HETATM   26  N2  UNL     1       8.499 -30.048 -12.120  1.00  0.00    -0.064 NA
ATOM     27  H12 UNL     1       9.145 -27.633 -11.772  1.00  0.00     0.158 HD
ATOM     28  H11 UNL     1       8.074 -26.919 -12.981  1.00  0.00     0.158 HD
HETATM   29  O1  UNL     1       6.936 -31.325 -13.572  1.00  0.00    -0.271 OA
ENDBRANCH  20  21
BRANCH  20  30
HETATM   30  N4  UNL     1       5.569 -31.789 -15.828  1.00  0.00    -0.065 N 
ATOM     31  H43 UNL     1       6.066 -31.772 -16.719  1.00  0.00     0.275 HD
ATOM     32  H42 UNL     1       6.213 -32.396 -15.320  1.00  0.00     0.275 HD
ATOM     33  H41 UNL     1       4.636 -32.193 -15.910  1.00  0.00     0.275 HD
ENDBRANCH  20  30
ENDBRANCH  19  20
ENDBRANCH  17  19
ENDBRANCH  15  17
ENDBRANCH   1  15
BRANCH   8  34
HETATM   34  N9  UNL     1       4.106 -29.697  -6.734  1.00  0.00    -0.347 N 
ATOM     35  H9  UNL     1       4.226 -28.755  -6.359  1.00  0.00     0.163 HD
BRANCH  34  36
HETATM   36  C9  UNL     1       4.574 -30.689  -5.899  1.00  0.00     0.227 C 
HETATM   37  C10 UNL     1       3.510 -31.729  -5.503  1.00  0.00     0.090 C 
HETATM   38  C11 UNL     1       4.289 -32.471  -4.424  1.00  0.00     0.178 C 
HETATM   39  C12 UNL     1       5.137 -31.343  -3.870  1.00  0.00     0.311 C 
HETATM   40  O6  UNL     1       4.841 -30.202  -4.582  1.00  0.00    -0.333 OA
BRANCH  38  41
HETATM   41  O2  UNL     1       3.478 -33.041  -3.474  1.00  0.00    -0.390 OA
ATOM     42  H2  UNL     1       3.932 -33.221  -2.659  1.00  0.00     0.210 HD
ENDBRANCH  38  41
BRANCH  39  43
HETATM   43  O3  UNL     1       4.998 -31.209  -2.506  1.00  0.00    -0.224 OA
BRANCH  43  44
HETATM   44  S1  UNL     1       5.455 -29.764  -1.883  1.00  0.00     0.358 S 
HETATM   45  O4  UNL     1       5.324 -29.814  -0.376  1.00  0.00    -0.176 OA
HETATM   46  O5  UNL     1       6.852 -29.357  -2.189  1.00  0.00    -0.176 OA
BRANCH  44  47
HETATM   47  N10 UNL     1       4.401 -28.474  -2.409  1.00  0.00    -0.306 N 
ATOM     48 2H10 UNL     1       3.594 -28.620  -3.015  1.00  0.00     0.171 HD
ATOM     49 1H10 UNL     1       4.696 -27.572  -2.035  1.00  0.00     0.171 HD
ENDBRANCH  44  47
ENDBRANCH  43  44
ENDBRANCH  39  43
ENDBRANCH  34  36
ENDBRANCH   8  34
BRANCH  11  50
HETATM   50  N12 UNL     1       0.533 -28.477  -9.275  1.00  0.00    -0.234 N 
ATOM     51 2H12 UNL     1       0.316 -27.726  -8.620  1.00  0.00     0.174 HD
ATOM     52 1H12 UNL     1      -0.136 -28.762  -9.989  1.00  0.00     0.174 HD
ENDBRANCH  11  50
TORSDOF 13
ENDMDL
MODEL 4
REMARK VINA RESULT: -8.182567664      1.555      2.780
REMARK  13 active torsions:
REMARK  status: ('A' for Active; 'I' for Inactive)
REMARK       I    between atoms: N1_1  and  C1_4 
REMARK       I    between atoms: C1_4  and  N3_6 
REMARK       I    between atoms: N3_6  and  C2_8 
REMARK    1  A    between atoms: C2_8  and  C3_10 
REMARK    2  A    between atoms: C3_10  and  N4_11 
REMARK    3  A    between atoms: C3_10  and  C4_15 
REMARK    4  A    between atoms: C4_15  and  N5_16 
REMARK    5  A    between atoms: N5_16  and  N6_18 
REMARK    6  A    between atoms: N6_18  and  C5_20 
REMARK    7  A    between atoms: C8_27  and  N9_28 
REMARK    8  A    between atoms: N9_28  and  C9_30 
REMARK    9  A    between atoms: C11_32  and  O2_33 
REMARK   10  A    between atoms: C12_35  and  O3_36 
REMARK   11  A    between atoms: O3_36  and  S1_37 
REMARK   12  A    between atoms: S1_37  and  N10_38 
REMARK   13  A    between atoms: C13_46  and  N12_47 
ROOT
HETATM    1  C5  UNL     1       4.002 -31.090 -11.791  1.00  0.00     0.150 A 
HETATM    2  N7  UNL     1       5.205 -31.628 -11.675  1.00  0.00    -0.336 N 
ATOM      3  H7  UNL     1       5.625 -32.109 -12.471  1.00  0.00     0.168 HD
HETATM    4  C6  UNL     1       5.878 -31.541 -10.512  1.00  0.00     0.182 A 
HETATM    5  N8  UNL     1       5.356 -30.916  -9.450  1.00  0.00    -0.347 N 
ATOM      6  H8  UNL     1       5.900 -30.874  -8.588  1.00  0.00     0.167 HD
HETATM    7  C7  UNL     1       4.142 -30.343  -9.478  1.00  0.00     0.109 A 
HETATM    8  C8  UNL     1       3.633 -29.709  -8.371  1.00  0.00     0.148 A 
HETATM    9  N11 UNL     1       2.371 -29.172  -8.568  1.00  0.00    -0.175 N 
ATOM     10  H11 UNL     1       1.928 -28.685  -7.789  1.00  0.00     0.186 HD
HETATM   11  C13 UNL     1       1.708 -29.256  -9.713  1.00  0.00     0.678 A 
HETATM   12  N13 UNL     1       2.236 -29.885 -10.776  1.00  0.00    -0.186 N 
ATOM     13  H13 UNL     1       1.711 -29.941 -11.649  1.00  0.00     0.184 HD
HETATM   14  C14 UNL     1       3.456 -30.440 -10.691  1.00  0.00     0.125 A 
ENDROOT
BRANCH   1  15
HETATM   15  N6  UNL     1       3.283 -31.122 -12.856  1.00  0.00    -0.288 N 
ATOM     16  H6  UNL     1       2.268 -31.083 -12.766  1.00  0.00     0.188 HD
BRANCH  15  17
HETATM   17  N5  UNL     1       3.845 -31.209 -14.142  1.00  0.00    -0.332 N 
ATOM     18  H5  UNL     1       4.064 -32.135 -14.509  1.00  0.00     0.180 HD
BRANCH  17  19
HETATM   19  C4  UNL     1       4.125 -30.082 -14.961  1.00  0.00     0.182 C 
BRANCH  19  20
HETATM   20  C3  UNL     1       5.540 -30.023 -15.454  1.00  0.00     0.294 C 
BRANCH  20  21
HETATM   21  C2  UNL     1       5.644 -29.576 -16.851  1.00  0.00     0.256 C 
HETATM   22  N3  UNL     1       6.884 -29.156 -17.427  1.00  0.00    -0.300 N 
HETATM   23  C1  UNL     1       7.006 -28.724 -18.763  1.00  0.00     0.188 C 
ATOM     24  H3  UNL     1       7.721 -29.171 -16.843  1.00  0.00     0.171 HD
HETATM   25  N1  UNL     1       8.148 -28.361 -19.213  1.00  0.00    -0.373 N 
HETATM   26  N2  UNL     1       5.866 -28.692 -19.598  1.00  0.00    -0.064 NA
ATOM     27  H12 UNL     1       8.236 -28.049 -20.180  1.00  0.00     0.158 HD
ATOM     28  H11 UNL     1       8.971 -28.384 -18.610  1.00  0.00     0.158 HD
HETATM   29  O1  UNL     1       4.645 -29.542 -17.606  1.00  0.00    -0.271 OA
ENDBRANCH  20  21
BRANCH  20  30
HETATM   30  N4  UNL     1       6.286 -29.094 -14.603  1.00  0.00    -0.065 N 
ATOM     31  H43 UNL     1       6.050 -28.119 -14.791  1.00  0.00     0.275 HD
ATOM     32  H42 UNL     1       5.983 -29.128 -13.630  1.00  0.00     0.275 HD
ATOM     33  H41 UNL     1       7.283 -29.281 -14.707  1.00  0.00     0.275 HD
ENDBRANCH  20  30
ENDBRANCH  19  20
ENDBRANCH  17  19
ENDBRANCH  15  17
ENDBRANCH   1  15
BRANCH   8  34
HETATM   34  N9  UNL     1       4.189 -29.585  -7.257  1.00  0.00    -0.347 N 
ATOM     35  H9  UNL     1       5.109 -29.145  -7.304  1.00  0.00     0.163 HD
BRANCH  34  36
HETATM   36  C9  UNL     1       3.803 -29.924  -5.977  1.00  0.00     0.227 C 
HETATM   37  C10 UNL     1       4.463 -29.072  -4.877  1.00  0.00     0.090 C 
HETATM   38  C11 UNL     1       4.022 -29.872  -3.657  1.00  0.00     0.178 C 
HETATM   39  C12 UNL     1       3.989 -31.270  -4.241  1.00  0.00     0.311 C 
HETATM   40  O6  UNL     1       4.343 -31.183  -5.569  1.00  0.00    -0.333 OA
BRANCH  38  41
HETATM   41  O2  UNL     1       4.891 -29.760  -2.600  1.00  0.00    -0.390 OA
ATOM     42  H2  UNL     1       5.799 -29.887  -2.851  1.00  0.00     0.210 HD
ENDBRANCH  38  41
BRANCH  39  43
HETATM   43  O3  UNL     1       4.749 -32.158  -3.512  1.00  0.00    -0.224 OA
BRANCH  43  44
HETATM   44  S1  UNL     1       4.893 -33.661  -4.146  1.00  0.00     0.358 S 
HETATM   45  O4  UNL     1       5.490 -34.581  -3.103  1.00  0.00    -0.176 OA
HETATM   46  O5  UNL     1       3.619 -34.281  -4.600  1.00  0.00    -0.176 OA
BRANCH  44  47
HETATM   47  N10 UNL     1       6.002 -33.688  -5.495  1.00  0.00    -0.306 N 
ATOM     48 2H10 UNL     1       6.952 -34.055  -5.433  1.00  0.00     0.171 HD
ATOM     49 1H10 UNL     1       5.581 -33.296  -6.337  1.00  0.00     0.171 HD
ENDBRANCH  44  47
ENDBRANCH  43  44
ENDBRANCH  39  43
ENDBRANCH  34  36
ENDBRANCH   8  34
BRANCH  11  50
HETATM   50  N12 UNL     1       0.522 -28.719  -9.808  1.00  0.00    -0.234 N 
ATOM     51 2H12 UNL     1       0.396 -27.735  -9.572  1.00  0.00     0.174 HD
ATOM     52 1H12 UNL     1      -0.264 -29.292 -10.116  1.00  0.00     0.174 HD
ENDBRANCH  11  50
TORSDOF 13
ENDMDL
MODEL 5
REMARK VINA RESULT: -8.155659312      1.510      3.269
REMARK  13 active torsions:
REMARK  status: ('A' for Active; 'I' for Inactive)
REMARK       I    between atoms: N1_1  and  C1_4 
REMARK       I    between atoms: C1_4  and  N3_6 
REMARK       I    between atoms: N3_6  and  C2_8 
REMARK    1  A    between atoms: C2_8  and  C3_10 
REMARK    2  A    between atoms: C3_10  and  N4_11 
REMARK    3  A    between atoms: C3_10  and  C4_15 
REMARK    4  A    between atoms: C4_15  and  N5_16 
REMARK    5  A    between atoms: N5_16  and  N6_18 
REMARK    6  A    between atoms: N6_18  and  C5_20 
REMARK    7  A    between atoms: C8_27  and  N9_28 
REMARK    8  A    between atoms: N9_28  and  C9_30 
REMARK    9  A    between atoms: C11_32  and  O2_33 
REMARK   10  A    between atoms: C12_35  and  O3_36 
REMARK   11  A    between atoms: O3_36  and  S1_37 
REMARK   12  A    between atoms: S1_37  and  N10_38 
REMARK   13  A    between atoms: C13_46  and  N12_47 
ROOT
HETATM    1  C5  UNL     1       3.929 -31.138 -11.486  1.00  0.00     0.150 A 
HETATM    2  N7  UNL     1       5.125 -31.692 -11.368  1.00  0.00    -0.336 N 
ATOM      3  H7  UNL     1       5.512 -32.235 -12.141  1.00  0.00     0.168 HD
HETATM    4  C6  UNL     1       5.833 -31.543 -10.233  1.00  0.00     0.182 A 
HETATM    5  N8  UNL     1       5.355 -30.836  -9.201  1.00  0.00    -0.347 N 
ATOM      6  H8  UNL     1       5.926 -30.748  -8.360  1.00  0.00     0.167 HD
HETATM    7  C7  UNL     1       4.153 -30.240  -9.234  1.00  0.00     0.109 A 
HETATM    8  C8  UNL     1       3.690 -29.522  -8.159  1.00  0.00     0.148 A 
HETATM    9  N11 UNL     1       2.433 -28.972  -8.356  1.00  0.00    -0.175 N 
ATOM     10  H11 UNL     1       2.023 -28.425  -7.600  1.00  0.00     0.186 HD
HETATM   11  C13 UNL     1       1.735 -29.118  -9.473  1.00  0.00     0.678 A 
HETATM   12  N13 UNL     1       2.219 -29.829 -10.506  1.00  0.00    -0.186 N 
ATOM     13  H13 UNL     1       1.667 -29.932 -11.358  1.00  0.00     0.184 HD
HETATM   14  C14 UNL     1       3.430 -30.403 -10.417  1.00  0.00     0.125 A 
ENDROOT
BRANCH   1  15
HETATM   15  N6  UNL     1       3.180 -31.225 -12.526  1.00  0.00    -0.288 N 
ATOM     16  H6  UNL     1       2.168 -31.168 -12.409  1.00  0.00     0.188 HD
BRANCH  15  17
HETATM   17  N5  UNL     1       3.702 -31.396 -13.820  1.00  0.00    -0.332 N 
ATOM     18  H5  UNL     1       3.822 -32.348 -14.168  1.00  0.00     0.180 HD
BRANCH  17  19
HETATM   19  C4  UNL     1       4.071 -30.322 -14.673  1.00  0.00     0.182 C 
BRANCH  19  20
HETATM   20  C3  UNL     1       5.458 -30.438 -15.233  1.00  0.00     0.294 C 
BRANCH  20  21
HETATM   21  C2  UNL     1       6.504 -30.318 -14.207  1.00  0.00     0.256 C 
HETATM   22  N3  UNL     1       7.019 -29.050 -13.787  1.00  0.00    -0.300 N 
HETATM   23  C1  UNL     1       8.021 -28.912 -12.807  1.00  0.00     0.188 C 
ATOM     24  H3  UNL     1       6.642 -28.206 -14.219  1.00  0.00     0.171 HD
HETATM   25  N1  UNL     1       8.435 -27.746 -12.479  1.00  0.00    -0.373 N 
HETATM   26  N2  UNL     1       8.564 -30.063 -12.189  1.00  0.00    -0.064 NA
ATOM     27  H12 UNL     1       9.160 -27.646 -11.769  1.00  0.00     0.158 HD
ATOM     28  H11 UNL     1       8.043 -26.916 -12.925  1.00  0.00     0.158 HD
HETATM   29  O1  UNL     1       6.996 -31.325 -13.649  1.00  0.00    -0.271 OA
ENDBRANCH  20  21
BRANCH  20  30
HETATM   30  N4  UNL     1       5.584 -31.742 -15.886  1.00  0.00    -0.065 N 
ATOM     31  H43 UNL     1       5.947 -32.459 -15.257  1.00  0.00     0.275 HD
ATOM     32  H42 UNL     1       4.678 -32.170 -16.080  1.00  0.00     0.275 HD
ATOM     33  H41 UNL     1       6.152 -31.636 -16.726  1.00  0.00     0.275 HD
ENDBRANCH  20  30
ENDBRANCH  19  20
ENDBRANCH  17  19
ENDBRANCH  15  17
ENDBRANCH   1  15
BRANCH   8  34
HETATM   34  N9  UNL     1       4.281 -29.336  -7.071  1.00  0.00    -0.347 N 
ATOM     35  H9  UNL     1       5.165 -28.834  -7.166  1.00  0.00     0.163 HD
BRANCH  34  36
HETATM   36  C9  UNL     1       3.973 -29.674  -5.770  1.00  0.00     0.227 C 
HETATM   37  C10 UNL     1       4.825 -28.944  -4.715  1.00  0.00     0.090 C 
HETATM   38  C11 UNL     1       4.402 -29.731  -3.480  1.00  0.00     0.178 C 
HETATM   39  C12 UNL     1       4.151 -31.095  -4.094  1.00  0.00     0.311 C 
HETATM   40  O6  UNL     1       4.394 -31.001  -5.446  1.00  0.00    -0.333 OA
BRANCH  38  41
HETATM   41  O2  UNL     1       5.369 -29.758  -2.506  1.00  0.00    -0.390 OA
ATOM     42  H2  UNL     1       6.048 -29.108  -2.639  1.00  0.00     0.210 HD
ENDBRANCH  38  41
BRANCH  39  43
HETATM   43  O3  UNL     1       4.864 -32.090  -3.461  1.00  0.00    -0.224 OA
BRANCH  43  44
HETATM   44  S1  UNL     1       4.860 -33.550  -4.203  1.00  0.00     0.358 S 
HETATM   45  O4  UNL     1       5.337 -34.601  -3.225  1.00  0.00    -0.176 OA
HETATM   46  O5  UNL     1       3.536 -33.996  -4.716  1.00  0.00    -0.176 OA
BRANCH  44  47
HETATM   47  N10 UNL     1       5.986 -33.597  -5.538  1.00  0.00    -0.306 N 
ATOM     48 2H10 UNL     1       6.483 -32.776  -5.882  1.00  0.00     0.171 HD
ATOM     49 1H10 UNL     1       6.078 -34.539  -5.918  1.00  0.00     0.171 HD
ENDBRANCH  44  47
ENDBRANCH  43  44
ENDBRANCH  39  43
ENDBRANCH  34  36
ENDBRANCH   8  34
BRANCH  11  50
HETATM   50  N12 UNL     1       0.557 -28.563  -9.571  1.00  0.00    -0.234 N 
ATOM     51 2H12 UNL     1       0.099 -28.208  -8.732  1.00  0.00     0.174 HD
ATOM     52 1H12 UNL     1       0.111 -28.493 -10.485  1.00  0.00     0.174 HD
ENDBRANCH  11  50
TORSDOF 13
ENDMDL
