MODEL 1
REMARK VINA RESULT: -6.821744379      0.000      0.000
REMARK  15 active torsions:
REMARK  status: ('A' for Active; 'I' for Inactive)
REMARK       I    between atoms: C1_4  and  N2_5 
REMARK       I    between atoms: C1_4  and  N5_21 
REMARK    1  A    between atoms: N2_5  and  N3_7 
REMARK       I    between atoms: N3_7  and  C2_9 
REMARK    2  A    between atoms: C2_9  and  C3_11 
REMARK    3  A    between atoms: C3_11  and  N4_12 
REMARK    4  A    between atoms: C3_11  and  C4_16 
REMARK    5  A    between atoms: C4_16  and  O2_17 
REMARK    6  A    between atoms: C4_16  and  O3_19 
REMARK    7  A    between atoms: N5_21  and  S1_23 
REMARK    8  A    between atoms: S1_23  and  O6_26 
REMARK    9  A    between atoms: O6_26  and  C5_27 
REMARK   10  A    between atoms: C7_29  and  O7_30 
REMARK   11  A    between atoms: O7_30  and  S2_31 
REMARK   12  A    between atoms: S2_31  and  N6_32 
REMARK   13  A    between atoms: C10_39  and  S3_40 
REMARK   14  A    between atoms: S3_40  and  N7_41 
REMARK   15  A    between atoms: S3_40  and  N8_44 
ROOT
HETATM    1  S1  UNL     1       2.639 -29.563  -8.418  1.00  0.00     0.381 S 
HETATM    2  O4  UNL     1       3.485 -28.644  -7.540  1.00  0.00    -0.175 OA
HETATM    3  O5  UNL     1       1.224 -29.278  -8.006  1.00  0.00    -0.175 OA
ENDROOT
BRANCH   1   4
HETATM    4  N5  UNL     1       2.842 -29.135 -10.068  1.00  0.00    -0.092 N 
HETATM    5  C1  UNL     1       2.363 -30.045 -11.041  1.00  0.00     0.701 C 
HETATM    6  N1  UNL     1       1.216 -29.852 -11.565  1.00  0.00    -0.233 N 
HETATM    7  N2  UNL     1       3.158 -31.152 -11.417  1.00  0.00    -0.129 N 
ATOM      8  H12 UNL     1       0.871 -30.508 -12.266  1.00  0.00     0.174 HD
ATOM      9  H11 UNL     1       0.642 -29.054 -11.294  1.00  0.00     0.174 HD
ATOM     10  H2  UNL     1       3.573 -31.755 -10.707  1.00  0.00     0.205 HD
ATOM     11  H5  UNL     1       3.290 -28.259 -10.336  1.00  0.00     0.199 HD
BRANCH   7  12
HETATM   12  N3  UNL     1       3.367 -31.408 -12.766  1.00  0.00    -0.254 N 
HETATM   13  C2  UNL     1       4.511 -30.891 -13.420  1.00  0.00     0.272 C 
HETATM   14  O1  UNL     1       5.316 -30.192 -12.715  1.00  0.00    -0.269 OA
ATOM     15  H3  UNL     1       2.694 -31.971 -13.287  1.00  0.00     0.190 HD
BRANCH  13  16
HETATM   16  C3  UNL     1       4.791 -31.130 -14.851  1.00  0.00     0.330 C 
BRANCH  16  17
HETATM   17  N4  UNL     1       6.090 -31.755 -14.967  1.00  0.00    -0.062 N 
ATOM     18  H43 UNL     1       6.383 -32.212 -14.103  1.00  0.00     0.275 HD
ATOM     19  H42 UNL     1       6.074 -32.582 -15.563  1.00  0.00     0.275 HD
ATOM     20  H41 UNL     1       6.759 -31.055 -15.287  1.00  0.00     0.275 HD
ENDBRANCH  16  17
BRANCH  16  21
HETATM   21  C4  UNL     1       4.725 -29.878 -15.687  1.00  0.00     0.293 C 
BRANCH  21  22
HETATM   22  O2  UNL     1       3.408 -29.466 -15.868  1.00  0.00    -0.369 OA
ATOM     23  H2  UNL     1       3.071 -29.756 -16.707  1.00  0.00     0.212 HD
ENDBRANCH  21  22
BRANCH  21  24
HETATM   24  O3  UNL     1       5.433 -28.853 -15.062  1.00  0.00    -0.369 OA
ATOM     25  H3  UNL     1       6.064 -28.482 -15.667  1.00  0.00     0.212 HD
ENDBRANCH  21  24
ENDBRANCH  16  21
ENDBRANCH  13  16
ENDBRANCH   7  12
ENDBRANCH   1   4
BRANCH   1  26
HETATM   26  O6  UNL     1       3.110 -31.171  -8.140  1.00  0.00    -0.214 OA
BRANCH  26  27
HETATM   27  C5  UNL     1       4.392 -31.409  -7.675  1.00  0.00     0.115 A 
HETATM   28  C6  UNL     1       5.453 -31.328  -8.602  1.00  0.00     0.078 A 
HETATM   29  C7  UNL     1       6.743 -31.559  -8.186  1.00  0.00     0.093 A 
HETATM   30  C8  UNL     1       7.017 -31.869  -6.871  1.00  0.00     0.040 A 
HETATM   31  C9  UNL     1       5.995 -31.951  -5.959  1.00  0.00     0.029 A 
HETATM   32  C10 UNL     1       4.672 -31.719  -6.369  1.00  0.00     0.092 A 
BRANCH  29  33
HETATM   33  O7  UNL     1       7.813 -31.489  -9.070  1.00  0.00    -0.217 OA
BRANCH  33  34
HETATM   34  S2  UNL     1       8.013 -32.831 -10.121  1.00  0.00     0.360 S 
HETATM   35  O8  UNL     1       7.355 -34.043  -9.508  1.00  0.00    -0.176 OA
HETATM   36  O9  UNL     1       9.465 -33.093 -10.412  1.00  0.00    -0.176 OA
BRANCH  34  37
HETATM   37  N6  UNL     1       7.154 -32.459 -11.591  1.00  0.00    -0.305 N 
ATOM     38  H62 UNL     1       6.189 -32.134 -11.651  1.00  0.00     0.171 HD
ATOM     39  H61 UNL     1       7.798 -32.628 -12.363  1.00  0.00     0.171 HD
ENDBRANCH  34  37
ENDBRANCH  33  34
ENDBRANCH  29  33
BRANCH  32  40
HETATM   40  S3  UNL     1       3.393 -31.858  -5.217  1.00  0.00     0.133 S 
HETATM   41  O10 UNL     1       2.236 -32.673  -5.620  1.00  0.00    -0.224 OA
BRANCH  40  42
HETATM   42  N7  UNL     1       2.850 -30.393  -4.927  1.00  0.00    -0.341 N 
ATOM     43  H72 UNL     1       3.428 -29.562  -4.800  1.00  0.00     0.167 HD
ATOM     44  H71 UNL     1       1.832 -30.444  -4.894  1.00  0.00     0.167 HD
ENDBRANCH  40  42
BRANCH  40  45
HETATM   45  N8  UNL     1       4.003 -32.378  -3.660  1.00  0.00    -0.341 N 
ATOM     46  H82 UNL     1       4.222 -33.348  -3.434  1.00  0.00     0.167 HD
ATOM     47  H81 UNL     1       4.105 -31.588  -3.023  1.00  0.00     0.167 HD
ENDBRANCH  40  45
ENDBRANCH  32  40
ENDBRANCH  26  27
ENDBRANCH   1  26
TORSDOF 15
ENDMDL
MODEL 2
REMARK VINA RESULT: -6.736791738      1.114      1.311
REMARK  15 active torsions:
REMARK  status: ('A' for Active; 'I' for Inactive)
REMARK       I    between atoms: C1_4  and  N2_5 
REMARK       I    between atoms: C1_4  and  N5_21 
REMARK    1  A    between atoms: N2_5  and  N3_7 
REMARK       I    between atoms: N3_7  and  C2_9 
REMARK    2  A    between atoms: C2_9  and  C3_11 
REMARK    3  A    between atoms: C3_11  and  N4_12 
REMARK    4  A    between atoms: C3_11  and  C4_16 
REMARK    5  A    between atoms: C4_16  and  O2_17 
REMARK    6  A    between atoms: C4_16  and  O3_19 
REMARK    7  A    between atoms: N5_21  and  S1_23 
REMARK    8  A    between atoms: S1_23  and  O6_26 
REMARK    9  A    between atoms: O6_26  and  C5_27 
REMARK   10  A    between atoms: C7_29  and  O7_30 
REMARK   11  A    between atoms: O7_30  and  S2_31 
REMARK   12  A    between atoms: S2_31  and  N6_32 
REMARK   13  A    between atoms: C10_39  and  S3_40 
REMARK   14  A    between atoms: S3_40  and  N7_41 
REMARK   15  A    between atoms: S3_40  and  N8_44 
ROOT
HETATM    1  S1  UNL     1       2.701 -29.819  -8.429  1.00  0.00     0.381 S 
HETATM    2  O4  UNL     1       1.429 -29.150  -7.914  1.00  0.00    -0.175 OA
HETATM    3  O5  UNL     1       2.394 -31.288  -8.390  1.00  0.00    -0.175 OA
ENDROOT
BRANCH   1   4
HETATM    4  N5  UNL     1       2.987 -29.346 -10.054  1.00  0.00    -0.092 N 
HETATM    5  C1  UNL     1       2.486 -30.188 -11.076  1.00  0.00     0.701 C 
HETATM    6  N1  UNL     1       1.372 -29.903 -11.629  1.00  0.00    -0.233 N 
HETATM    7  N2  UNL     1       3.222 -31.330 -11.468  1.00  0.00    -0.129 N 
ATOM      8  H12 UNL     1       1.010 -30.509 -12.366  1.00  0.00     0.174 HD
ATOM      9  H11 UNL     1       0.841 -29.080 -11.346  1.00  0.00     0.174 HD
ATOM     10  H2  UNL     1       3.573 -31.983 -10.769  1.00  0.00     0.205 HD
ATOM     11  H5  UNL     1       3.498 -28.492 -10.274  1.00  0.00     0.199 HD
BRANCH   7  12
HETATM   12  N3  UNL     1       3.461 -31.550 -12.819  1.00  0.00    -0.254 N 
HETATM   13  C2  UNL     1       4.561 -30.929 -13.457  1.00  0.00     0.272 C 
HETATM   14  O1  UNL     1       5.300 -30.174 -12.737  1.00  0.00    -0.269 OA
ATOM     15  H3  UNL     1       2.841 -32.161 -13.352  1.00  0.00     0.190 HD
BRANCH  13  16
HETATM   16  C3  UNL     1       4.870 -31.125 -14.889  1.00  0.00     0.330 C 
BRANCH  16  17
HETATM   17  N4  UNL     1       6.189 -31.708 -14.999  1.00  0.00    -0.062 N 
ATOM     18  H43 UNL     1       6.806 -31.167 -15.605  1.00  0.00     0.275 HD
ATOM     19  H42 UNL     1       6.728 -31.621 -14.138  1.00  0.00     0.275 HD
ATOM     20  H41 UNL     1       6.091 -32.676 -15.303  1.00  0.00     0.275 HD
ENDBRANCH  16  17
BRANCH  16  21
HETATM   21  C4  UNL     1       4.778 -29.856 -15.696  1.00  0.00     0.293 C 
BRANCH  21  22
HETATM   22  O2  UNL     1       3.458 -29.432 -15.814  1.00  0.00    -0.369 OA
ATOM     23  H2  UNL     1       3.264 -28.739 -15.193  1.00  0.00     0.212 HD
ENDBRANCH  21  22
BRANCH  21  24
HETATM   24  O3  UNL     1       5.519 -28.849 -15.080  1.00  0.00    -0.369 OA
ATOM     25  H3  UNL     1       6.410 -29.145 -14.937  1.00  0.00     0.212 HD
ENDBRANCH  21  24
ENDBRANCH  16  21
ENDBRANCH  13  16
ENDBRANCH   7  12
ENDBRANCH   1   4
BRANCH   1  26
HETATM   26  O6  UNL     1       3.997 -29.377  -7.424  1.00  0.00    -0.214 OA
BRANCH  26  27
HETATM   27  C5  UNL     1       4.881 -30.363  -7.020  1.00  0.00     0.115 A 
HETATM   28  C6  UNL     1       5.753 -30.902  -7.989  1.00  0.00     0.078 A 
HETATM   29  C7  UNL     1       6.647 -31.885  -7.633  1.00  0.00     0.093 A 
HETATM   30  C8  UNL     1       6.703 -32.354  -6.337  1.00  0.00     0.040 A 
HETATM   31  C9  UNL     1       5.860 -31.838  -5.385  1.00  0.00     0.029 A 
HETATM   32  C10 UNL     1       4.941 -30.835  -5.734  1.00  0.00     0.092 A 
BRANCH  29  33
HETATM   33  O7  UNL     1       7.521 -32.440  -8.559  1.00  0.00    -0.217 OA
BRANCH  33  34
HETATM   34  S2  UNL     1       7.008 -32.405 -10.196  1.00  0.00     0.360 S 
HETATM   35  O8  UNL     1       5.500 -32.431 -10.243  1.00  0.00    -0.176 OA
HETATM   36  O9  UNL     1       7.593 -33.547 -10.983  1.00  0.00    -0.176 OA
BRANCH  34  37
HETATM   37  N6  UNL     1       7.525 -30.880 -10.861  1.00  0.00    -0.305 N 
ATOM     38  H62 UNL     1       7.652 -30.674 -11.853  1.00  0.00     0.171 HD
ATOM     39  H61 UNL     1       7.672 -30.247 -10.076  1.00  0.00     0.171 HD
ENDBRANCH  34  37
ENDBRANCH  33  34
ENDBRANCH  29  33
BRANCH  32  40
HETATM   40  S3  UNL     1       3.865 -30.220  -4.532  1.00  0.00     0.133 S 
HETATM   41  O10 UNL     1       2.457 -30.630  -4.645  1.00  0.00    -0.224 OA
BRANCH  40  42
HETATM   42  N7  UNL     1       3.895 -28.634  -4.630  1.00  0.00    -0.341 N 
ATOM     43  H72 UNL     1       3.725 -27.990  -3.858  1.00  0.00     0.167 HD
ATOM     44  H71 UNL     1       4.114 -28.391  -5.596  1.00  0.00     0.167 HD
ENDBRANCH  40  42
BRANCH  40  45
HETATM   45  N8  UNL     1       4.473 -30.537  -2.921  1.00  0.00    -0.341 N 
ATOM     46  H82 UNL     1       4.647 -31.473  -2.556  1.00  0.00     0.167 HD
ATOM     47  H81 UNL     1       4.627 -29.668  -2.409  1.00  0.00     0.167 HD
ENDBRANCH  40  45
ENDBRANCH  32  40
ENDBRANCH  26  27
ENDBRANCH   1  26
TORSDOF 15
ENDMDL
MODEL 3
REMARK VINA RESULT: -6.703544213      2.179      4.321
REMARK  15 active torsions:
REMARK  status: ('A' for Active; 'I' for Inactive)
REMARK       I    between atoms: C1_4  and  N2_5 
REMARK       I    between atoms: C1_4  and  N5_21 
REMARK    1  A    between atoms: N2_5  and  N3_7 
REMARK       I    between atoms: N3_7  and  C2_9 
REMARK    2  A    between atoms: C2_9  and  C3_11 
REMARK    3  A    between atoms: C3_11  and  N4_12 
REMARK    4  A    between atoms: C3_11  and  C4_16 
REMARK    5  A    between atoms: C4_16  and  O2_17 
REMARK    6  A    between atoms: C4_16  and  O3_19 
REMARK    7  A    between atoms: N5_21  and  S1_23 
REMARK    8  A    between atoms: S1_23  and  O6_26 
REMARK    9  A    between atoms: O6_26  and  C5_27 
REMARK   10  A    between atoms: C7_29  and  O7_30 
REMARK   11  A    between atoms: O7_30  and  S2_31 
REMARK   12  A    between atoms: S2_31  and  N6_32 
REMARK   13  A    between atoms: C10_39  and  S3_40 
REMARK   14  A    between atoms: S3_40  and  N7_41 
REMARK   15  A    between atoms: S3_40  and  N8_44 
ROOT
HETATM    1  S1  UNL     1       3.388 -29.999  -8.491  1.00  0.00     0.381 S 
HETATM    2  O4  UNL     1       2.526 -29.112  -7.596  1.00  0.00    -0.175 OA
HETATM    3  O5  UNL     1       2.720 -31.342  -8.446  1.00  0.00    -0.175 OA
ENDROOT
BRANCH   1   4
HETATM    4  N5  UNL     1       3.351 -29.406 -10.101  1.00  0.00    -0.092 N 
HETATM    5  C1  UNL     1       2.749 -30.227 -11.085  1.00  0.00     0.701 C 
HETATM    6  N1  UNL     1       1.537 -30.012 -11.422  1.00  0.00    -0.233 N 
HETATM    7  N2  UNL     1       3.495 -31.272 -11.678  1.00  0.00    -0.129 N 
ATOM      8  H12 UNL     1       1.103 -30.603 -12.130  1.00  0.00     0.174 HD
ATOM      9  H11 UNL     1       1.000 -29.258 -10.994  1.00  0.00     0.174 HD
ATOM     10  H2  UNL     1       4.012 -31.932 -11.098  1.00  0.00     0.205 HD
ATOM     11  H5  UNL     1       3.748 -28.497 -10.340  1.00  0.00     0.199 HD
BRANCH   7  12
HETATM   12  N3  UNL     1       3.513 -31.389 -13.063  1.00  0.00    -0.254 N 
HETATM   13  C2  UNL     1       4.679 -31.051 -13.789  1.00  0.00     0.272 C 
HETATM   14  O1  UNL     1       5.685 -30.641 -13.115  1.00  0.00    -0.269 OA
ATOM     15  H3  UNL     1       2.683 -31.720 -13.556  1.00  0.00     0.190 HD
BRANCH  13  16
HETATM   16  C3  UNL     1       4.763 -31.155 -15.261  1.00  0.00     0.330 C 
BRANCH  16  17
HETATM   17  N4  UNL     1       5.965 -31.884 -15.602  1.00  0.00    -0.062 N 
ATOM     18  H43 UNL     1       6.809 -31.327 -15.476  1.00  0.00     0.275 HD
ATOM     19  H42 UNL     1       6.181 -32.619 -14.929  1.00  0.00     0.275 HD
ATOM     20  H41 UNL     1       5.869 -32.241 -16.553  1.00  0.00     0.275 HD
ENDBRANCH  16  17
BRANCH  16  21
HETATM   21  C4  UNL     1       4.735 -29.819 -15.955  1.00  0.00     0.293 C 
BRANCH  21  22
HETATM   22  O2  UNL     1       3.427 -29.380 -16.142  1.00  0.00    -0.369 OA
ATOM     23  H2  UNL     1       3.025 -29.139 -15.316  1.00  0.00     0.212 HD
ENDBRANCH  21  22
BRANCH  21  24
HETATM   24  O3  UNL     1       5.419 -28.875 -15.192  1.00  0.00    -0.369 OA
ATOM     25  H3  UNL     1       4.801 -28.272 -14.795  1.00  0.00     0.212 HD
ENDBRANCH  21  24
ENDBRANCH  16  21
ENDBRANCH  13  16
ENDBRANCH   7  12
ENDBRANCH   1   4
BRANCH   1  26
HETATM   26  O6  UNL     1       4.973 -30.016  -7.881  1.00  0.00    -0.214 OA
BRANCH  26  27
HETATM   27  C5  UNL     1       5.322 -31.015  -6.987  1.00  0.00     0.115 A 
HETATM   28  C6  UNL     1       4.880 -30.889  -5.654  1.00  0.00     0.078 A 
HETATM   29  C7  UNL     1       5.204 -31.856  -4.731  1.00  0.00     0.093 A 
HETATM   30  C8  UNL     1       5.959 -32.952  -5.092  1.00  0.00     0.040 A 
HETATM   31  C9  UNL     1       6.396 -33.087  -6.386  1.00  0.00     0.029 A 
HETATM   32  C10 UNL     1       6.073 -32.107  -7.339  1.00  0.00     0.092 A 
BRANCH  29  33
HETATM   33  O7  UNL     1       4.787 -31.766  -3.409  1.00  0.00    -0.217 OA
BRANCH  33  34
HETATM   34  S2  UNL     1       5.477 -30.494  -2.485  1.00  0.00     0.360 S 
HETATM   35  O8  UNL     1       6.844 -30.169  -3.033  1.00  0.00    -0.176 OA
HETATM   36  O9  UNL     1       5.548 -30.849  -1.025  1.00  0.00    -0.176 OA
BRANCH  34  37
HETATM   37  N6  UNL     1       4.472 -29.090  -2.722  1.00  0.00    -0.305 N 
ATOM     38  H62 UNL     1       4.313 -28.614  -3.610  1.00  0.00     0.171 HD
ATOM     39  H61 UNL     1       4.083 -28.845  -1.812  1.00  0.00     0.171 HD
ENDBRANCH  34  37
ENDBRANCH  33  34
ENDBRANCH  29  33
BRANCH  32  40
HETATM   40  S3  UNL     1       6.658 -32.275  -8.955  1.00  0.00     0.133 S 
HETATM   41  O10 UNL     1       5.642 -32.488  -9.998  1.00  0.00    -0.224 OA
BRANCH  40  42
HETATM   42  N7  UNL     1       7.625 -33.536  -8.985  1.00  0.00    -0.341 N 
ATOM     43  H72 UNL     1       8.635 -33.511  -8.847  1.00  0.00     0.167 HD
ATOM     44  H71 UNL     1       7.050 -34.359  -9.164  1.00  0.00     0.167 HD
ENDBRANCH  40  42
BRANCH  40  45
HETATM   45  N8  UNL     1       7.715 -30.946  -9.384  1.00  0.00    -0.341 N 
ATOM     46  H82 UNL     1       7.626 -30.408 -10.246  1.00  0.00     0.167 HD
ATOM     47  H81 UNL     1       8.417 -30.788  -8.662  1.00  0.00     0.167 HD
ENDBRANCH  40  45
ENDBRANCH  32  40
ENDBRANCH  26  27
ENDBRANCH   1  26
TORSDOF 15
ENDMDL
MODEL 4
REMARK VINA RESULT: -6.701821413      1.317      1.858
REMARK  15 active torsions:
REMARK  status: ('A' for Active; 'I' for Inactive)
REMARK       I    between atoms: C1_4  and  N2_5 
REMARK       I    between atoms: C1_4  and  N5_21 
REMARK    1  A    between atoms: N2_5  and  N3_7 
REMARK       I    between atoms: N3_7  and  C2_9 
REMARK    2  A    between atoms: C2_9  and  C3_11 
REMARK    3  A    between atoms: C3_11  and  N4_12 
REMARK    4  A    between atoms: C3_11  and  C4_16 
REMARK    5  A    between atoms: C4_16  and  O2_17 
REMARK    6  A    between atoms: C4_16  and  O3_19 
REMARK    7  A    between atoms: N5_21  and  S1_23 
REMARK    8  A    between atoms: S1_23  and  O6_26 
REMARK    9  A    between atoms: O6_26  and  C5_27 
REMARK   10  A    between atoms: C7_29  and  O7_30 
REMARK   11  A    between atoms: O7_30  and  S2_31 
REMARK   12  A    between atoms: S2_31  and  N6_32 
REMARK   13  A    between atoms: C10_39  and  S3_40 
REMARK   14  A    between atoms: S3_40  and  N7_41 
REMARK   15  A    between atoms: S3_40  and  N8_44 
ROOT
HETATM    1  S1  UNL     1       2.723 -29.867  -8.362  1.00  0.00     0.381 S 
HETATM    2  O4  UNL     1       1.359 -29.339  -7.924  1.00  0.00    -0.175 OA
HETATM    3  O5  UNL     1       2.574 -31.360  -8.335  1.00  0.00    -0.175 OA
ENDROOT
BRANCH   1   4
HETATM    4  N5  UNL     1       3.050 -29.363  -9.970  1.00  0.00    -0.092 N 
HETATM    5  C1  UNL     1       2.610 -30.205 -11.020  1.00  0.00     0.701 C 
HETATM    6  N1  UNL     1       1.508 -29.946 -11.607  1.00  0.00    -0.233 N 
HETATM    7  N2  UNL     1       3.395 -31.318 -11.401  1.00  0.00    -0.129 N 
ATOM      8  H12 UNL     1       1.191 -30.552 -12.364  1.00  0.00     0.174 HD
ATOM      9  H11 UNL     1       0.942 -29.144 -11.332  1.00  0.00     0.174 HD
ATOM     10  H2  UNL     1       3.742 -31.970 -10.698  1.00  0.00     0.205 HD
ATOM     11  H5  UNL     1       3.542 -28.490 -10.161  1.00  0.00     0.199 HD
BRANCH   7  12
HETATM   12  N3  UNL     1       3.686 -31.512 -12.745  1.00  0.00    -0.254 N 
HETATM   13  C2  UNL     1       4.959 -31.160 -13.254  1.00  0.00     0.272 C 
HETATM   14  O1  UNL     1       5.799 -30.666 -12.428  1.00  0.00    -0.269 OA
ATOM     15  H3  UNL     1       2.981 -31.909 -13.367  1.00  0.00     0.190 HD
BRANCH  13  16
HETATM   16  C3  UNL     1       5.332 -31.344 -14.673  1.00  0.00     0.330 C 
BRANCH  16  17
HETATM   17  N4  UNL     1       6.724 -31.729 -14.736  1.00  0.00    -0.062 N 
ATOM     18  H43 UNL     1       6.897 -32.644 -14.321  1.00  0.00     0.275 HD
ATOM     19  H42 UNL     1       7.027 -31.947 -15.685  1.00  0.00     0.275 HD
ATOM     20  H41 UNL     1       7.284 -30.992 -14.306  1.00  0.00     0.275 HD
ENDBRANCH  16  17
BRANCH  16  21
HETATM   21  C4  UNL     1       5.076 -30.124 -15.518  1.00  0.00     0.293 C 
BRANCH  21  22
HETATM   22  O2  UNL     1       3.720 -29.812 -15.550  1.00  0.00    -0.369 OA
ATOM     23  H2  UNL     1       3.297 -30.201 -16.306  1.00  0.00     0.212 HD
ENDBRANCH  21  22
BRANCH  21  24
HETATM   24  O3  UNL     1       5.774 -29.035 -15.000  1.00  0.00    -0.369 OA
ATOM     25  H3  UNL     1       5.415 -28.795 -14.153  1.00  0.00     0.212 HD
ENDBRANCH  21  24
ENDBRANCH  16  21
ENDBRANCH  13  16
ENDBRANCH   7  12
ENDBRANCH   1   4
BRANCH   1  26
HETATM   26  O6  UNL     1       3.904 -29.290  -7.286  1.00  0.00    -0.214 OA
BRANCH  26  27
HETATM   27  C5  UNL     1       4.857 -30.179  -6.818  1.00  0.00     0.115 A 
HETATM   28  C6  UNL     1       5.740 -30.751  -7.758  1.00  0.00     0.078 A 
HETATM   29  C7  UNL     1       6.701 -31.641  -7.339  1.00  0.00     0.093 A 
HETATM   30  C8  UNL     1       6.815 -31.984  -6.007  1.00  0.00     0.040 A 
HETATM   31  C9  UNL     1       5.962 -31.435  -5.083  1.00  0.00     0.029 A 
HETATM   32  C10 UNL     1       4.975 -30.525  -5.497  1.00  0.00     0.092 A 
BRANCH  29  33
HETATM   33  O7  UNL     1       7.588 -32.226  -8.234  1.00  0.00    -0.217 OA
BRANCH  33  34
HETATM   34  S2  UNL     1       8.822 -31.204  -8.849  1.00  0.00     0.360 S 
HETATM   35  O8  UNL     1      10.079 -32.013  -9.052  1.00  0.00    -0.176 OA
HETATM   36  O9  UNL     1       9.074 -30.033  -7.939  1.00  0.00    -0.176 OA
BRANCH  34  37
HETATM   37  N6  UNL     1       8.296 -30.655 -10.417  1.00  0.00    -0.305 N 
ATOM     38  H62 UNL     1       7.341 -30.700 -10.774  1.00  0.00     0.171 HD
ATOM     39  H61 UNL     1       9.117 -30.287 -10.895  1.00  0.00     0.171 HD
ENDBRANCH  34  37
ENDBRANCH  33  34
ENDBRANCH  29  33
BRANCH  32  40
HETATM   40  S3  UNL     1       3.888 -29.868  -4.327  1.00  0.00     0.133 S 
HETATM   41  O10 UNL     1       3.707 -28.408  -4.352  1.00  0.00    -0.224 OA
BRANCH  40  42
HETATM   42  N7  UNL     1       4.453 -30.240  -2.888  1.00  0.00    -0.341 N 
ATOM     43  H72 UNL     1       5.346 -30.696  -2.703  1.00  0.00     0.167 HD
ATOM     44  H71 UNL     1       3.763 -29.939  -2.201  1.00  0.00     0.167 HD
ENDBRANCH  40  42
BRANCH  40  45
HETATM   45  N8  UNL     1       2.340 -30.684  -4.376  1.00  0.00    -0.341 N 
ATOM     46  H82 UNL     1       1.455 -30.208  -4.550  1.00  0.00     0.167 HD
ATOM     47  H81 UNL     1       2.447 -31.684  -4.210  1.00  0.00     0.167 HD
ENDBRANCH  40  45
ENDBRANCH  32  40
ENDBRANCH  26  27
ENDBRANCH   1  26
TORSDOF 15
ENDMDL
MODEL 5
REMARK VINA RESULT: -6.673317005      2.912      6.966
REMARK  15 active torsions:
REMARK  status: ('A' for Active; 'I' for Inactive)
REMARK       I    between atoms: C1_4  and  N2_5 
REMARK       I    between atoms: C1_4  and  N5_21 
REMARK    1  A    between atoms: N2_5  and  N3_7 
REMARK       I    between atoms: N3_7  and  C2_9 
REMARK    2  A    between atoms: C2_9  and  C3_11 
REMARK    3  A    between atoms: C3_11  and  N4_12 
REMARK    4  A    between atoms: C3_11  and  C4_16 
REMARK    5  A    between atoms: C4_16  and  O2_17 
REMARK    6  A    between atoms: C4_16  and  O3_19 
REMARK    7  A    between atoms: N5_21  and  S1_23 
REMARK    8  A    between atoms: S1_23  and  O6_26 
REMARK    9  A    between atoms: O6_26  and  C5_27 
REMARK   10  A    between atoms: C7_29  and  O7_30 
REMARK   11  A    between atoms: O7_30  and  S2_31 
REMARK   12  A    between atoms: S2_31  and  N6_32 
REMARK   13  A    between atoms: C10_39  and  S3_40 
REMARK   14  A    between atoms: S3_40  and  N7_41 
REMARK   15  A    between atoms: S3_40  and  N8_44 
ROOT
HETATM    1  S1  UNL     1       3.852 -30.897 -11.287  1.00  0.00     0.381 S 
HETATM    2  O4  UNL     1       2.911 -31.013 -12.484  1.00  0.00    -0.175 OA
HETATM    3  O5  UNL     1       4.289 -29.462 -11.291  1.00  0.00    -0.175 OA
ENDROOT
BRANCH   1   4
HETATM    4  N5  UNL     1       2.990 -31.220  -9.839  1.00  0.00    -0.092 N 
HETATM    5  C1  UNL     1       2.830 -30.152  -8.923  1.00  0.00     0.701 C 
HETATM    6  N1  UNL     1       1.744 -29.482  -8.928  1.00  0.00    -0.233 N 
HETATM    7  N2  UNL     1       3.873 -29.841  -8.020  1.00  0.00    -0.129 N 
ATOM      8  H12 UNL     1       1.629 -28.713  -8.268  1.00  0.00     0.174 HD
ATOM      9  H11 UNL     1       0.992 -29.706  -9.579  1.00  0.00     0.174 HD
ATOM     10  H2  UNL     1       4.830 -29.731  -8.354  1.00  0.00     0.205 HD
ATOM     11  H5  UNL     1       2.607 -32.145  -9.646  1.00  0.00     0.199 HD
BRANCH   7  12
HETATM   12  N3  UNL     1       3.577 -29.688  -6.672  1.00  0.00    -0.254 N 
HETATM   13  C2  UNL     1       3.705 -30.784  -5.786  1.00  0.00     0.272 C 
HETATM   14  O1  UNL     1       4.096 -31.893  -6.287  1.00  0.00    -0.269 OA
ATOM     15  H3  UNL     1       3.267 -28.782  -6.319  1.00  0.00     0.190 HD
BRANCH  13  16
HETATM   16  C3  UNL     1       3.408 -30.685  -4.342  1.00  0.00     0.330 C 
BRANCH  16  17
HETATM   17  N4  UNL     1       1.974 -30.628  -4.170  1.00  0.00    -0.062 N 
ATOM     18  H43 UNL     1       1.682 -29.855  -3.572  1.00  0.00     0.275 HD
ATOM     19  H42 UNL     1       1.489 -30.339  -5.019  1.00  0.00     0.275 HD
ATOM     20  H41 UNL     1       1.653 -31.533  -3.825  1.00  0.00     0.275 HD
ENDBRANCH  16  17
BRANCH  16  21
HETATM   21  C4  UNL     1       4.073 -29.507  -3.678  1.00  0.00     0.293 C 
BRANCH  21  22
HETATM   22  O2  UNL     1       5.247 -29.157  -4.337  1.00  0.00    -0.369 OA
ATOM     23  H2  UNL     1       5.229 -28.246  -4.608  1.00  0.00     0.212 HD
ENDBRANCH  21  22
BRANCH  21  24
HETATM   24  O3  UNL     1       3.211 -28.411  -3.686  1.00  0.00    -0.369 OA
ATOM     25  H3  UNL     1       2.381 -28.651  -3.290  1.00  0.00     0.212 HD
ENDBRANCH  21  24
ENDBRANCH  16  21
ENDBRANCH  13  16
ENDBRANCH   7  12
ENDBRANCH   1   4
BRANCH   1  26
HETATM   26  O6  UNL     1       5.136 -31.991 -11.493  1.00  0.00    -0.214 OA
BRANCH  26  27
HETATM   27  C5  UNL     1       6.304 -31.774 -10.782  1.00  0.00     0.115 A 
HETATM   28  C6  UNL     1       6.337 -32.183  -9.432  1.00  0.00     0.078 A 
HETATM   29  C7  UNL     1       7.476 -31.986  -8.686  1.00  0.00     0.093 A 
HETATM   30  C8  UNL     1       8.590 -31.392  -9.241  1.00  0.00     0.040 A 
HETATM   31  C9  UNL     1       8.571 -30.989 -10.552  1.00  0.00     0.029 A 
HETATM   32  C10 UNL     1       7.415 -31.183 -11.326  1.00  0.00     0.092 A 
BRANCH  29  33
HETATM   33  O7  UNL     1       7.547 -32.374  -7.354  1.00  0.00    -0.217 OA
BRANCH  33  34
HETATM   34  S2  UNL     1       7.647 -31.107  -6.202  1.00  0.00     0.360 S 
HETATM   35  O8  UNL     1       6.831 -29.933  -6.685  1.00  0.00    -0.176 OA
HETATM   36  O9  UNL     1       9.074 -30.705  -5.946  1.00  0.00    -0.176 OA
BRANCH  34  37
HETATM   37  N6  UNL     1       6.906 -31.690  -4.736  1.00  0.00    -0.305 N 
ATOM     38  H62 UNL     1       6.364 -32.549  -4.644  1.00  0.00     0.171 HD
ATOM     39  H61 UNL     1       7.119 -31.012  -4.005  1.00  0.00     0.171 HD
ENDBRANCH  34  37
ENDBRANCH  33  34
ENDBRANCH  29  33
BRANCH  32  40
HETATM   40  S3  UNL     1       7.395 -30.641 -12.966  1.00  0.00     0.133 S 
HETATM   41  O10 UNL     1       8.705 -30.372 -13.580  1.00  0.00    -0.224 OA
BRANCH  40  42
HETATM   42  N7  UNL     1       6.574 -29.281 -13.009  1.00  0.00    -0.341 N 
ATOM     43  H72 UNL     1       6.638 -28.529 -12.323  1.00  0.00     0.167 HD
ATOM     44  H71 UNL     1       5.983 -29.306 -13.840  1.00  0.00     0.167 HD
ENDBRANCH  40  42
BRANCH  40  45
HETATM   45  N8  UNL     1       6.449 -31.717 -13.973  1.00  0.00    -0.341 N 
ATOM     46  H82 UNL     1       5.544 -32.099 -13.698  1.00  0.00     0.167 HD
ATOM     47  H81 UNL     1       6.923 -31.904 -14.856  1.00  0.00     0.167 HD
ENDBRANCH  40  45
ENDBRANCH  32  40
ENDBRANCH  26  27
ENDBRANCH   1  26
TORSDOF 15
ENDMDL
