MODEL 1
REMARK VINA RESULT: -9.049714007      0.000      0.000
REMARK  8 active torsions:
REMARK  status: ('A' for Active; 'I' for Inactive)
REMARK    1  A    between atoms: N2_9  and  C6_10 
REMARK    2  A    between atoms: C7_16  and  C8_17 
REMARK       I    between atoms: C8_17  and  N5_19 
REMARK    3  A    between atoms: N5_19  and  C9_21 
REMARK    4  A    between atoms: C10_22  and  C11_23 
REMARK       I    between atoms: C11_23  and  N6_25 
REMARK       I    between atoms: N6_25  and  C12_27 
REMARK    5  A    between atoms: C14_30  and  O5_31 
REMARK    6  A    between atoms: N7_33  and  N8_34 
REMARK    7  A    between atoms: N8_34  and  C15_35 
REMARK    8  A    between atoms: C16_37  and  O7_38 
ROOT
HETATM    1  C8  UNL     1      39.000  22.378  17.648  1.00  0.00     0.278 C 
HETATM    2  O2  UNL     1      39.458  21.253  17.435  1.00  0.00    -0.265 OA
HETATM    3  N5  UNL     1      37.837  22.847  17.000  1.00  0.00    -0.317 N 
ATOM      4  H5  UNL     1      37.566  23.795  17.264  1.00  0.00     0.169 HD
ENDROOT
BRANCH   3   5
HETATM    5  C9  UNL     1      36.991  22.255  16.067  1.00  0.00     0.109 A 
HETATM    6  C10 UNL     1      36.188  22.962  15.157  1.00  0.00     0.117 A 
HETATM    7  C14 UNL     1      35.462  22.050  14.477  1.00  0.00     0.194 A 
HETATM    8  N7  UNL     1      35.764  20.744  14.914  1.00  0.00    -0.139 N 
HETATM    9  C16 UNL     1      36.675  20.929  15.855  1.00  0.00     0.204 A 
BRANCH   6  10
HETATM   10  C11 UNL     1      36.143  24.432  14.959  1.00  0.00     0.265 C 
HETATM   11  O3  UNL     1      36.462  25.194  15.876  1.00  0.00    -0.267 OA
HETATM   12  N6  UNL     1      35.745  25.020  13.745  1.00  0.00    -0.294 N 
HETATM   13  C12 UNL     1      35.748  26.406  13.548  1.00  0.00     0.220 C 
ATOM     14  H6  UNL     1      35.443  24.415  12.980  1.00  0.00     0.172 HD
HETATM   15  C13 UNL     1      36.170  27.374  14.565  1.00  0.00     0.117 C 
HETATM   16  O4  UNL     1      35.354  26.841  12.400  1.00  0.00    -0.274 OA
ENDBRANCH   6  10
BRANCH   7  17
HETATM   17  O5  UNL     1      34.525  22.234  13.475  1.00  0.00    -0.343 OA
ATOM     18  H5  UNL     1      34.279  21.658  12.761  1.00  0.00     0.219 HD
ENDBRANCH   7  17
BRANCH   8  19
HETATM   19  N8  UNL     1      35.093  19.693  14.326  1.00  0.00    -0.286 NA
BRANCH  19  20
HETATM   20  C15 UNL     1      34.466  18.708  13.774  1.00  0.00     0.467 C 
HETATM   21  O6  UNL     1      34.824  17.815  12.939  1.00  0.00    -0.266 OA
ENDBRANCH  19  20
ENDBRANCH   8  19
BRANCH   9  22
HETATM   22  O7  UNL     1      37.273  19.877  16.584  1.00  0.00    -0.342 OA
ATOM     23  H7  UNL     1      38.175  19.610  16.453  1.00  0.00     0.219 HD
ENDBRANCH   9  22
ENDBRANCH   3   5
BRANCH   1  24
HETATM   24  C7  UNL     1      39.693  23.252  18.619  1.00  0.00     0.170 A 
HETATM   25  C6  UNL     1      40.545  24.264  18.344  1.00  0.00     0.164 A 
HETATM   26  N3  UNL     1      40.865  24.801  19.592  1.00  0.00    -0.223 N 
HETATM   27  O1  UNL     1      40.224  24.115  20.483  1.00  0.00    -0.155 OA
ATOM     28  H3  UNL     1      41.488  25.589  19.768  1.00  0.00     0.198 HD
HETATM   29  N4  UNL     1      39.511  23.182  19.976  1.00  0.00    -0.232 N 
ATOM     30  H4  UNL     1      38.924  22.518  20.481  1.00  0.00     0.197 HD
BRANCH  25  31
HETATM   31  N2  UNL     1      41.089  24.750  17.134  1.00  0.00    -0.331 N 
HETATM   32  C2  UNL     1      40.571  25.975  16.539  1.00  0.00     0.029 C 
HETATM   33  C1  UNL     1      39.403  26.419  16.867  1.00  0.00     0.040 C 
HETATM   34  C3  UNL     1      41.437  26.701  15.568  1.00  0.00     0.288 C 
HETATM   35  N1  UNL     1      42.041  25.812  14.592  1.00  0.00    -0.068 N 
HETATM   36  C4  UNL     1      41.852  24.411  14.925  1.00  0.00     0.253 C 
ATOM     37  H12 UNL     1      41.701  26.015  13.651  1.00  0.00     0.277 HD
ATOM     38  H11 UNL     1      43.029  26.029  14.460  1.00  0.00     0.277 HD
HETATM   39  C5  UNL     1      42.200  24.195  16.403  1.00  0.00     0.158 C 
ENDBRANCH  25  31
ENDBRANCH   1  24
TORSDOF 8
ENDMDL
MODEL 2
REMARK VINA RESULT: -8.943964548      0.290      1.188
REMARK  8 active torsions:
REMARK  status: ('A' for Active; 'I' for Inactive)
REMARK    1  A    between atoms: N2_9  and  C6_10 
REMARK    2  A    between atoms: C7_16  and  C8_17 
REMARK       I    between atoms: C8_17  and  N5_19 
REMARK    3  A    between atoms: N5_19  and  C9_21 
REMARK    4  A    between atoms: C10_22  and  C11_23 
REMARK       I    between atoms: C11_23  and  N6_25 
REMARK       I    between atoms: N6_25  and  C12_27 
REMARK    5  A    between atoms: C14_30  and  O5_31 
REMARK    6  A    between atoms: N7_33  and  N8_34 
REMARK    7  A    between atoms: N8_34  and  C15_35 
REMARK    8  A    between atoms: C16_37  and  O7_38 
ROOT
HETATM    1  C8  UNL     1      39.041  22.336  17.678  1.00  0.00     0.278 C 
HETATM    2  O2  UNL     1      39.455  21.186  17.510  1.00  0.00    -0.265 OA
HETATM    3  N5  UNL     1      37.910  22.832  16.994  1.00  0.00    -0.317 N 
ATOM      4  H5  UNL     1      37.676  23.799  17.223  1.00  0.00     0.169 HD
ENDROOT
BRANCH   3   5
HETATM    5  C9  UNL     1      37.056  22.247  16.065  1.00  0.00     0.109 A 
HETATM    6  C10 UNL     1      36.282  22.958  15.134  1.00  0.00     0.117 A 
HETATM    7  C14 UNL     1      35.536  22.054  14.466  1.00  0.00     0.194 A 
HETATM    8  N7  UNL     1      35.796  20.749  14.930  1.00  0.00    -0.139 N 
HETATM    9  C16 UNL     1      36.704  20.926  15.876  1.00  0.00     0.204 A 
BRANCH   6  10
HETATM   10  C11 UNL     1      36.281  24.425  14.906  1.00  0.00     0.265 C 
HETATM   11  O3  UNL     1      36.747  25.187  15.758  1.00  0.00    -0.267 OA
HETATM   12  N6  UNL     1      35.763  25.008  13.737  1.00  0.00    -0.294 N 
HETATM   13  C12 UNL     1      35.806  26.388  13.507  1.00  0.00     0.220 C 
ATOM     14  H6  UNL     1      35.341  24.404  13.031  1.00  0.00     0.172 HD
HETATM   15  C13 UNL     1      36.396  27.353  14.440  1.00  0.00     0.117 C 
HETATM   16  O4  UNL     1      35.293  26.821  12.406  1.00  0.00    -0.274 OA
ENDBRANCH   6  10
BRANCH   7  17
HETATM   17  O5  UNL     1      34.613  22.244  13.452  1.00  0.00    -0.343 OA
ATOM     18  H5  UNL     1      34.007  21.628  13.058  1.00  0.00     0.219 HD
ENDBRANCH   7  17
BRANCH   8  19
HETATM   19  N8  UNL     1      35.101  19.706  14.357  1.00  0.00    -0.286 NA
BRANCH  19  20
HETATM   20  C15 UNL     1      34.449  18.729  13.819  1.00  0.00     0.467 C 
HETATM   21  O6  UNL     1      34.791  17.803  13.013  1.00  0.00    -0.266 OA
ENDBRANCH  19  20
ENDBRANCH   8  19
BRANCH   9  22
HETATM   22  O7  UNL     1      37.265  19.872  16.631  1.00  0.00    -0.342 OA
ATOM     23  H7  UNL     1      37.238  19.850  17.580  1.00  0.00     0.219 HD
ENDBRANCH   9  22
ENDBRANCH   3   5
BRANCH   1  24
HETATM   24  C7  UNL     1      39.755  23.212  18.632  1.00  0.00     0.170 A 
HETATM   25  C6  UNL     1      40.510  24.293  18.342  1.00  0.00     0.164 A 
HETATM   26  N3  UNL     1      40.899  24.793  19.585  1.00  0.00    -0.223 N 
HETATM   27  O1  UNL     1      40.385  24.022  20.489  1.00  0.00    -0.155 OA
ATOM     28  H3  UNL     1      41.481  25.614  19.752  1.00  0.00     0.198 HD
HETATM   29  N4  UNL     1      39.695  23.065  19.995  1.00  0.00    -0.232 N 
ATOM     30  H4  UNL     1      39.200  22.338  20.510  1.00  0.00     0.197 HD
BRANCH  25  31
HETATM   31  N2  UNL     1      40.913  24.874  17.118  1.00  0.00    -0.331 N 
HETATM   32  C2  UNL     1      42.156  24.453  16.484  1.00  0.00     0.029 C 
HETATM   33  C1  UNL     1      43.073  23.859  17.172  1.00  0.00     0.040 C 
HETATM   34  C3  UNL     1      42.317  24.710  15.025  1.00  0.00     0.288 C 
HETATM   35  N1  UNL     1      41.921  26.056  14.652  1.00  0.00    -0.068 N 
HETATM   36  C4  UNL     1      41.246  26.756  15.731  1.00  0.00     0.253 C 
ATOM     37  H12 UNL     1      42.719  26.591  14.309  1.00  0.00     0.277 HD
ATOM     38  H11 UNL     1      41.352  26.050  13.806  1.00  0.00     0.277 HD
HETATM   39  C5  UNL     1      40.179  25.836  16.336  1.00  0.00     0.158 C 
ENDBRANCH  25  31
ENDBRANCH   1  24
TORSDOF 8
ENDMDL
MODEL 3
REMARK VINA RESULT: -8.939948282      3.668      6.880
REMARK  8 active torsions:
REMARK  status: ('A' for Active; 'I' for Inactive)
REMARK    1  A    between atoms: N2_9  and  C6_10 
REMARK    2  A    between atoms: C7_16  and  C8_17 
REMARK       I    between atoms: C8_17  and  N5_19 
REMARK    3  A    between atoms: N5_19  and  C9_21 
REMARK    4  A    between atoms: C10_22  and  C11_23 
REMARK       I    between atoms: C11_23  and  N6_25 
REMARK       I    between atoms: N6_25  and  C12_27 
REMARK    5  A    between atoms: C14_30  and  O5_31 
REMARK    6  A    between atoms: N7_33  and  N8_34 
REMARK    7  A    between atoms: N8_34  and  C15_35 
REMARK    8  A    between atoms: C16_37  and  O7_38 
ROOT
HETATM    1  C8  UNL     1      41.642  22.743  18.961  1.00  0.00     0.278 C 
HETATM    2  O2  UNL     1      41.358  21.554  18.794  1.00  0.00    -0.265 OA
HETATM    3  N5  UNL     1      42.771  23.335  18.355  1.00  0.00    -0.317 N 
ATOM      4  H5  UNL     1      42.892  24.324  18.576  1.00  0.00     0.169 HD
ENDROOT
BRANCH   3   5
HETATM    5  C9  UNL     1      43.750  22.819  17.512  1.00  0.00     0.109 A 
HETATM    6  C10 UNL     1      43.630  22.718  16.117  1.00  0.00     0.117 A 
HETATM    7  C14 UNL     1      44.743  22.103  15.666  1.00  0.00     0.194 A 
HETATM    8  N7  UNL     1      45.609  21.790  16.734  1.00  0.00    -0.139 N 
HETATM    9  C16 UNL     1      44.969  22.238  17.801  1.00  0.00     0.204 A 
BRANCH   6  10
HETATM   10  C11 UNL     1      42.504  23.202  15.280  1.00  0.00     0.265 C 
HETATM   11  O3  UNL     1      42.606  24.258  14.650  1.00  0.00    -0.267 OA
HETATM   12  N6  UNL     1      41.292  22.498  15.162  1.00  0.00    -0.294 N 
HETATM   13  C12 UNL     1      40.251  22.935  14.335  1.00  0.00     0.220 C 
ATOM     14  H6  UNL     1      41.168  21.639  15.699  1.00  0.00     0.172 HD
HETATM   15  C13 UNL     1      40.317  24.145  13.509  1.00  0.00     0.117 C 
HETATM   16  O4  UNL     1      39.178  22.221  14.308  1.00  0.00    -0.274 OA
ENDBRANCH   6  10
BRANCH   7  17
HETATM   17  O5  UNL     1      45.108  21.769  14.373  1.00  0.00    -0.343 OA
ATOM     18  H5  UNL     1      45.972  21.659  13.995  1.00  0.00     0.219 HD
ENDBRANCH   7  17
BRANCH   8  19
HETATM   19  N8  UNL     1      46.791  21.143  16.441  1.00  0.00    -0.286 NA
BRANCH  19  20
HETATM   20  C15 UNL     1      47.898  20.537  16.168  1.00  0.00     0.467 C 
HETATM   21  O6  UNL     1      48.166  19.335  15.838  1.00  0.00    -0.266 OA
ENDBRANCH  19  20
ENDBRANCH   8  19
BRANCH   9  22
HETATM   22  O7  UNL     1      45.471  22.133  19.117  1.00  0.00    -0.342 OA
ATOM     23  H7  UNL     1      45.851  22.870  19.581  1.00  0.00     0.219 HD
ENDBRANCH   9  22
ENDBRANCH   3   5
BRANCH   1  24
HETATM   24  C7  UNL     1      40.761  23.566  19.818  1.00  0.00     0.170 A 
HETATM   25  C6  UNL     1      39.539  24.050  19.507  1.00  0.00     0.164 A 
HETATM   26  N3  UNL     1      39.114  24.698  20.667  1.00  0.00    -0.223 N 
HETATM   27  O1  UNL     1      40.054  24.571  21.548  1.00  0.00    -0.155 OA
ATOM     28  H3  UNL     1      38.225  25.182  20.798  1.00  0.00     0.198 HD
HETATM   29  N4  UNL     1      41.060  23.911  21.111  1.00  0.00    -0.232 N 
ATOM     30  H4  UNL     1      41.913  23.687  21.622  1.00  0.00     0.197 HD
BRANCH  25  31
HETATM   31  N2  UNL     1      38.771  24.010  18.322  1.00  0.00    -0.331 N 
HETATM   32  C2  UNL     1      38.520  25.233  17.571  1.00  0.00     0.029 C 
HETATM   33  C1  UNL     1      38.649  26.387  18.137  1.00  0.00     0.040 C 
HETATM   34  C3  UNL     1      38.138  25.106  16.136  1.00  0.00     0.288 C 
HETATM   35  N1  UNL     1      37.119  24.094  15.921  1.00  0.00    -0.068 N 
HETATM   36  C4  UNL     1      36.880  23.286  17.105  1.00  0.00     0.253 C 
ATOM     37  H12 UNL     1      36.253  24.512  15.581  1.00  0.00     0.277 HD
ATOM     38  H11 UNL     1      37.346  23.509  15.117  1.00  0.00     0.277 HD
HETATM   39  C5  UNL     1      38.227  22.837  17.686  1.00  0.00     0.158 C 
ENDBRANCH  25  31
ENDBRANCH   1  24
TORSDOF 8
ENDMDL
MODEL 4
REMARK VINA RESULT: -8.909483537      3.895      6.888
REMARK  8 active torsions:
REMARK  status: ('A' for Active; 'I' for Inactive)
REMARK    1  A    between atoms: N2_9  and  C6_10 
REMARK    2  A    between atoms: C7_16  and  C8_17 
REMARK       I    between atoms: C8_17  and  N5_19 
REMARK    3  A    between atoms: N5_19  and  C9_21 
REMARK    4  A    between atoms: C10_22  and  C11_23 
REMARK       I    between atoms: C11_23  and  N6_25 
REMARK       I    between atoms: N6_25  and  C12_27 
REMARK    5  A    between atoms: C14_30  and  O5_31 
REMARK    6  A    between atoms: N7_33  and  N8_34 
REMARK    7  A    between atoms: N8_34  and  C15_35 
REMARK    8  A    between atoms: C16_37  and  O7_38 
ROOT
HETATM    1  C8  UNL     1      41.657  23.069  19.406  1.00  0.00     0.278 C 
HETATM    2  O2  UNL     1      41.204  21.947  19.166  1.00  0.00    -0.265 OA
HETATM    3  N5  UNL     1      42.809  23.565  18.758  1.00  0.00    -0.317 N 
ATOM      4  H5  UNL     1      43.078  24.506  19.049  1.00  0.00     0.169 HD
ENDROOT
BRANCH   3   5
HETATM    5  C9  UNL     1      43.645  23.009  17.795  1.00  0.00     0.109 A 
HETATM    6  C10 UNL     1      43.389  23.017  16.415  1.00  0.00     0.117 A 
HETATM    7  C14 UNL     1      44.382  22.322  15.823  1.00  0.00     0.194 A 
HETATM    8  N7  UNL     1      45.301  21.848  16.781  1.00  0.00    -0.139 N 
HETATM    9  C16 UNL     1      44.813  22.286  17.930  1.00  0.00     0.204 A 
BRANCH   6  10
HETATM   10  C11 UNL     1      42.252  23.672  15.721  1.00  0.00     0.265 C 
HETATM   11  O3  UNL     1      41.600  24.552  16.288  1.00  0.00    -0.267 OA
HETATM   12  N6  UNL     1      41.869  23.332  14.411  1.00  0.00    -0.294 N 
HETATM   13  C12 UNL     1      40.825  23.984  13.744  1.00  0.00     0.220 C 
ATOM     14  H6  UNL     1      42.369  22.584  13.930  1.00  0.00     0.172 HD
HETATM   15  C13 UNL     1      40.043  25.080  14.325  1.00  0.00     0.117 C 
HETATM   16  O4  UNL     1      40.549  23.588  12.549  1.00  0.00    -0.274 OA
ENDBRANCH   6  10
BRANCH   7  17
HETATM   17  O5  UNL     1      44.589  22.041  14.484  1.00  0.00    -0.343 OA
ATOM     18  H5  UNL     1      45.400  21.985  13.993  1.00  0.00     0.219 HD
ENDBRANCH   7  17
BRANCH   8  19
HETATM   19  N8  UNL     1      46.373  21.103  16.338  1.00  0.00    -0.286 NA
BRANCH  19  20
HETATM   20  C15 UNL     1      47.378  20.406  15.923  1.00  0.00     0.467 C 
HETATM   21  O6  UNL     1      47.848  19.275  16.274  1.00  0.00    -0.266 OA
ENDBRANCH  19  20
ENDBRANCH   8  19
BRANCH   9  22
HETATM   22  O7  UNL     1      45.418  22.040  19.183  1.00  0.00    -0.342 OA
ATOM     23  H7  UNL     1      46.247  21.584  19.271  1.00  0.00     0.219 HD
ENDBRANCH   9  22
ENDBRANCH   3   5
BRANCH   1  24
HETATM   24  C7  UNL     1      40.961  23.915  20.400  1.00  0.00     0.170 A 
HETATM   25  C6  UNL     1      39.707  24.408  20.318  1.00  0.00     0.164 A 
HETATM   26  N3  UNL     1      39.513  25.077  21.526  1.00  0.00    -0.223 N 
HETATM   27  O1  UNL     1      40.602  24.953  22.215  1.00  0.00    -0.155 OA
ATOM     28  H3  UNL     1      38.669  25.573  21.814  1.00  0.00     0.198 HD
HETATM   29  N4  UNL     1      41.501  24.276  21.608  1.00  0.00    -0.232 N 
ATOM     30  H4  UNL     1      42.434  24.049  21.953  1.00  0.00     0.197 HD
BRANCH  25  31
HETATM   31  N2  UNL     1      38.728  24.359  19.299  1.00  0.00    -0.331 N 
HETATM   32  C2  UNL     1      37.671  23.357  19.348  1.00  0.00     0.029 C 
HETATM   33  C1  UNL     1      37.811  22.293  20.067  1.00  0.00     0.040 C 
HETATM   34  C3  UNL     1      36.429  23.613  18.566  1.00  0.00     0.288 C 
HETATM   35  N1  UNL     1      36.708  24.073  17.217  1.00  0.00    -0.068 N 
HETATM   36  C4  UNL     1      38.110  24.399  17.020  1.00  0.00     0.253 C 
ATOM     37  H12 UNL     1      36.387  23.396  16.525  1.00  0.00     0.277 HD
ATOM     38  H11 UNL     1      36.109  24.860  16.967  1.00  0.00     0.277 HD
HETATM   39  C5  UNL     1      38.592  25.267  18.188  1.00  0.00     0.158 C 
ENDBRANCH  25  31
ENDBRANCH   1  24
TORSDOF 8
ENDMDL
MODEL 5
REMARK VINA RESULT: -8.875866154      1.056      1.095
REMARK  8 active torsions:
REMARK  status: ('A' for Active; 'I' for Inactive)
REMARK    1  A    between atoms: N2_9  and  C6_10 
REMARK    2  A    between atoms: C7_16  and  C8_17 
REMARK       I    between atoms: C8_17  and  N5_19 
REMARK    3  A    between atoms: N5_19  and  C9_21 
REMARK    4  A    between atoms: C10_22  and  C11_23 
REMARK       I    between atoms: C11_23  and  N6_25 
REMARK       I    between atoms: N6_25  and  C12_27 
REMARK    5  A    between atoms: C14_30  and  O5_31 
REMARK    6  A    between atoms: N7_33  and  N8_34 
REMARK    7  A    between atoms: N8_34  and  C15_35 
REMARK    8  A    between atoms: C16_37  and  O7_38 
ROOT
HETATM    1  C8  UNL     1      38.434  21.752  17.244  1.00  0.00     0.278 C 
HETATM    2  O2  UNL     1      38.898  20.755  16.684  1.00  0.00    -0.265 OA
HETATM    3  N5  UNL     1      37.262  22.391  16.784  1.00  0.00    -0.317 N 
ATOM      4  H5  UNL     1      36.987  23.204  17.336  1.00  0.00     0.169 HD
ENDROOT
BRANCH   3   5
HETATM    5  C9  UNL     1      36.411  22.116  15.718  1.00  0.00     0.109 A 
HETATM    6  C10 UNL     1      35.745  23.091  14.957  1.00  0.00     0.117 A 
HETATM    7  C14 UNL     1      34.963  22.437  14.073  1.00  0.00     0.194 A 
HETATM    8  N7  UNL     1      35.094  21.042  14.225  1.00  0.00    -0.139 N 
HETATM    9  C16 UNL     1      35.963  20.912  15.213  1.00  0.00     0.204 A 
BRANCH   6  10
HETATM   10  C11 UNL     1      35.874  24.564  15.081  1.00  0.00     0.265 C 
HETATM   11  O3  UNL     1      35.794  25.104  16.188  1.00  0.00    -0.267 OA
HETATM   12  N6  UNL     1      36.090  25.400  13.971  1.00  0.00    -0.294 N 
HETATM   13  C12 UNL     1      36.257  26.784  14.099  1.00  0.00     0.220 C 
ATOM     14  H6  UNL     1      36.127  24.983  13.041  1.00  0.00     0.172 HD
HETATM   15  C13 UNL     1      36.236  27.494  15.382  1.00  0.00     0.117 C 
HETATM   16  O4  UNL     1      36.439  27.460  13.017  1.00  0.00    -0.274 OA
ENDBRANCH   6  10
BRANCH   7  17
HETATM   17  O5  UNL     1      34.112  22.940  13.104  1.00  0.00    -0.343 OA
ATOM     18  H5  UNL     1      33.715  22.504  12.360  1.00  0.00     0.219 HD
ENDBRANCH   7  17
BRANCH   8  19
HETATM   19  N8  UNL     1      34.346  20.227  13.402  1.00  0.00    -0.286 NA
BRANCH  19  20
HETATM   20  C15 UNL     1      33.647  19.464  12.630  1.00  0.00     0.467 C 
HETATM   21  O6  UNL     1      33.888  18.921  11.502  1.00  0.00    -0.266 OA
ENDBRANCH  19  20
ENDBRANCH   8  19
BRANCH   9  22
HETATM   22  O7  UNL     1      36.398  19.666  15.716  1.00  0.00    -0.342 OA
ATOM     23  H7  UNL     1      37.267  19.533  16.076  1.00  0.00     0.219 HD
ENDBRANCH   9  22
ENDBRANCH   3   5
BRANCH   1  24
HETATM   24  C7  UNL     1      39.131  22.282  18.436  1.00  0.00     0.170 A 
HETATM   25  C6  UNL     1      40.149  23.168  18.460  1.00  0.00     0.164 A 
HETATM   26  N3  UNL     1      40.397  23.380  19.817  1.00  0.00    -0.223 N 
HETATM   27  O1  UNL     1      39.562  22.647  20.481  1.00  0.00    -0.155 OA
ATOM     28  H3  UNL     1      41.105  23.999  20.212  1.00  0.00     0.198 HD
HETATM   29  N4  UNL     1      38.782  21.971  19.725  1.00  0.00    -0.232 N 
ATOM     30  H4  UNL     1      38.048  21.328  20.022  1.00  0.00     0.197 HD
BRANCH  25  31
HETATM   31  N2  UNL     1      40.897  23.790  17.434  1.00  0.00    -0.331 N 
HETATM   32  C2  UNL     1      40.471  25.073  16.893  1.00  0.00     0.029 C 
HETATM   33  C1  UNL     1      39.253  25.475  17.044  1.00  0.00     0.040 C 
HETATM   34  C3  UNL     1      41.486  25.906  16.188  1.00  0.00     0.288 C 
HETATM   35  N1  UNL     1      42.280  25.134  15.249  1.00  0.00    -0.068 N 
HETATM   36  C4  UNL     1      42.065  23.704  15.383  1.00  0.00     0.253 C 
ATOM     37  H12 UNL     1      42.116  25.442  14.290  1.00  0.00     0.277 HD
ATOM     38  H11 UNL     1      43.270  25.366  15.329  1.00  0.00     0.277 HD
HETATM   39  C5  UNL     1      42.137  23.323  16.867  1.00  0.00     0.158 C 
ENDBRANCH  25  31
ENDBRANCH   1  24
TORSDOF 8
ENDMDL
