MODEL 1
REMARK VINA RESULT: -9.355850765      0.000      0.000
REMARK  11 active torsions:
REMARK  status: ('A' for Active; 'I' for Inactive)
REMARK    1  A    between atoms: C1_2  and  O2_4 
REMARK    2  A    between atoms: O2_4  and  N2_5 
REMARK    3  A    between atoms: C2_7  and  C3_8 
REMARK    4  A    between atoms: C5_10  and  C6_11 
REMARK    5  A    between atoms: C6_11  and  O3_12 
REMARK    6  A    between atoms: C6_11  and  N3_14 
REMARK    7  A    between atoms: N3_14  and  C7_16 
REMARK    8  A    between atoms: C11_21  and  S1_22 
REMARK    9  A    between atoms: C12_24  and  N4_25 
REMARK   10  A    between atoms: N6_31  and  O5_32 
REMARK   11  A    between atoms: C14_35  and  O7_36 
ROOT
HETATM    1  N3  UNL     1      40.422  23.561  17.732  1.00  0.00    -0.342 N 
ATOM      2  H3  UNL     1      40.263  24.521  18.039  1.00  0.00     0.164 HD
ENDROOT
BRANCH   1   3
HETATM    3  C6  UNL     1      39.609  22.464  18.264  1.00  0.00     0.278 C 
BRANCH   3   4
HETATM    4  C5  UNL     1      38.723  21.915  17.205  1.00  0.00     0.105 A 
HETATM    5  C4  UNL     1      37.612  22.501  16.634  1.00  0.00     0.055 A 
HETATM    6  C3  UNL     1      37.107  21.615  15.689  1.00  0.00     0.042 A 
HETATM    7  C14 UNL     1      37.955  20.531  15.746  1.00  0.00     0.195 A 
HETATM    8  O6  UNL     1      38.888  20.740  16.643  1.00  0.00    -0.287 OA
BRANCH   6   9
HETATM    9  C2  UNL     1      35.936  21.796  14.827  1.00  0.00     0.131 C 
HETATM   10  N2  UNL     1      35.244  20.767  14.515  1.00  0.00    -0.267 N 
ATOM     11  H2  UNL     1      35.512  19.847  14.864  1.00  0.00     0.194 HD
BRANCH  10  12
HETATM   12  O2  UNL     1      34.143  20.899  13.711  1.00  0.00    -0.184 OA
BRANCH  12  13
HETATM   13  C1  UNL     1      33.345  19.849  13.312  1.00  0.00     0.394 C 
HETATM   14  N1  UNL     1      31.997  19.808  13.723  1.00  0.00    -0.031 NA
HETATM   15  O1  UNL     1      33.828  18.959  12.597  1.00  0.00    -0.240 OA
ENDBRANCH  12  13
ENDBRANCH  10  12
ENDBRANCH   6   9
BRANCH   7  16
HETATM   16  O7  UNL     1      37.849  19.395  14.982  1.00  0.00    -0.340 OA
ATOM     17  H7  UNL     1      37.187  18.721  15.084  1.00  0.00     0.220 HD
ENDBRANCH   7  16
ENDBRANCH   3   4
BRANCH   3  18
HETATM   18  O3  UNL     1      40.536  21.471  18.654  1.00  0.00    -0.370 OA
ATOM     19  H3  UNL     1      41.384  21.875  18.796  1.00  0.00     0.212 HD
ENDBRANCH   3  18
ENDBRANCH   1   3
BRANCH   1  20
HETATM   20  C7  UNL     1      41.436  23.264  16.782  1.00  0.00     0.151 A 
HETATM   21  C8  UNL     1      42.723  22.927  16.857  1.00  0.00     0.106 A 
HETATM   22  C9  UNL     1      43.674  22.707  17.831  1.00  0.00     0.191 A 
HETATM   23  C13 UNL     1      42.843  22.853  15.495  1.00  0.00     0.154 A 
HETATM   24  O4  UNL     1      43.362  22.872  19.036  1.00  0.00    -0.287 OA
HETATM   25  C10 UNL     1      45.002  22.310  17.668  1.00  0.00     0.079 A 
HETATM   26  C11 UNL     1      45.648  22.088  16.479  1.00  0.00     0.059 A 
HETATM   27  C12 UNL     1      45.179  22.145  15.187  1.00  0.00     0.118 A 
HETATM   28  N5  UNL     1      43.962  22.536  14.792  1.00  0.00    -0.325 N 
ATOM     29  H5  UNL     1      43.856  22.609  13.779  1.00  0.00     0.169 HD
HETATM   30  N6  UNL     1      41.600  23.176  15.381  1.00  0.00    -0.189 N 
BRANCH  26  31
HETATM   31  S1  UNL     1      47.370  21.660  16.630  1.00  0.00    -0.042 SA
HETATM   32  S2  UNL     1      47.579  19.562  16.956  1.00  0.00    -0.007 SA
ENDBRANCH  26  31
BRANCH  27  33
HETATM   33  N4  UNL     1      46.024  21.778  14.298  1.00  0.00    -0.384 N 
ATOM     34  H42 UNL     1      46.883  21.317  14.601  1.00  0.00     0.157 HD
ATOM     35  H41 UNL     1      45.748  21.988  13.339  1.00  0.00     0.157 HD
ENDBRANCH  27  33
BRANCH  30  36
HETATM   36  O5  UNL     1      40.763  23.362  14.311  1.00  0.00    -0.279 OA
ATOM     37  H5  UNL     1      40.875  23.733  13.443  1.00  0.00     0.245 HD
ENDBRANCH  30  36
ENDBRANCH   1  20
TORSDOF 11
ENDMDL
MODEL 2
REMARK VINA RESULT: -9.236397044      0.943      1.002
REMARK  11 active torsions:
REMARK  status: ('A' for Active; 'I' for Inactive)
REMARK    1  A    between atoms: C1_2  and  O2_4 
REMARK    2  A    between atoms: O2_4  and  N2_5 
REMARK    3  A    between atoms: C2_7  and  C3_8 
REMARK    4  A    between atoms: C5_10  and  C6_11 
REMARK    5  A    between atoms: C6_11  and  O3_12 
REMARK    6  A    between atoms: C6_11  and  N3_14 
REMARK    7  A    between atoms: N3_14  and  C7_16 
REMARK    8  A    between atoms: C11_21  and  S1_22 
REMARK    9  A    between atoms: C12_24  and  N4_25 
REMARK   10  A    between atoms: N6_31  and  O5_32 
REMARK   11  A    between atoms: C14_35  and  O7_36 
ROOT
HETATM    1  N3  UNL     1      40.495  23.647  17.552  1.00  0.00    -0.342 N 
ATOM      2  H3  UNL     1      40.350  24.613  17.845  1.00  0.00     0.164 HD
ENDROOT
BRANCH   1   3
HETATM    3  C6  UNL     1      39.640  22.575  18.069  1.00  0.00     0.278 C 
BRANCH   3   4
HETATM    4  C5  UNL     1      38.709  22.100  17.013  1.00  0.00     0.105 A 
HETATM    5  C4  UNL     1      37.897  20.984  17.030  1.00  0.00     0.055 A 
HETATM    6  C3  UNL     1      37.206  20.948  15.825  1.00  0.00     0.042 A 
HETATM    7  C14 UNL     1      37.647  22.059  15.140  1.00  0.00     0.195 A 
HETATM    8  O6  UNL     1      38.525  22.711  15.865  1.00  0.00    -0.287 OA
BRANCH   6   9
HETATM    9  C2  UNL     1      36.228  19.950  15.382  1.00  0.00     0.131 C 
HETATM   10  N2  UNL     1      35.257  20.333  14.644  1.00  0.00    -0.267 N 
ATOM     11  H2  UNL     1      35.176  21.314  14.378  1.00  0.00     0.194 HD
BRANCH  10  12
HETATM   12  O2  UNL     1      34.325  19.428  14.212  1.00  0.00    -0.184 OA
BRANCH  12  13
HETATM   13  C1  UNL     1      33.376  19.692  13.248  1.00  0.00     0.394 C 
HETATM   14  N1  UNL     1      32.215  20.411  13.600  1.00  0.00    -0.031 NA
HETATM   15  O1  UNL     1      33.562  19.293  12.089  1.00  0.00    -0.240 OA
ENDBRANCH  12  13
ENDBRANCH  10  12
ENDBRANCH   6   9
BRANCH   7  16
HETATM   16  O7  UNL     1      37.235  22.439  13.888  1.00  0.00    -0.340 OA
ATOM     17  H7  UNL     1      37.518  23.220  13.426  1.00  0.00     0.220 HD
ENDBRANCH   7  16
ENDBRANCH   3   4
BRANCH   3  18
HETATM   18  O3  UNL     1      40.525  21.528  18.412  1.00  0.00    -0.370 OA
ATOM     19  H3  UNL     1      41.416  21.799  18.225  1.00  0.00     0.212 HD
ENDBRANCH   3  18
ENDBRANCH   1   3
BRANCH   1  20
HETATM   20  C7  UNL     1      41.530  23.316  16.636  1.00  0.00     0.151 A 
HETATM   21  C8  UNL     1      42.809  22.961  16.754  1.00  0.00     0.106 A 
HETATM   22  C9  UNL     1      43.728  22.744  17.758  1.00  0.00     0.191 A 
HETATM   23  C13 UNL     1      42.966  22.859  15.397  1.00  0.00     0.154 A 
HETATM   24  O4  UNL     1      43.385  22.935  18.951  1.00  0.00    -0.287 OA
HETATM   25  C10 UNL     1      45.054  22.323  17.640  1.00  0.00     0.079 A 
HETATM   26  C11 UNL     1      45.729  22.069  16.474  1.00  0.00     0.059 A 
HETATM   27  C12 UNL     1      45.297  22.109  15.169  1.00  0.00     0.118 A 
HETATM   28  N5  UNL     1      44.099  22.512  14.732  1.00  0.00    -0.325 N 
ATOM     29  H5  UNL     1      44.022  22.568  13.716  1.00  0.00     0.169 HD
HETATM   30  N6  UNL     1      41.732  23.200  15.242  1.00  0.00    -0.189 N 
BRANCH  26  31
HETATM   31  S1  UNL     1      47.439  21.616  16.681  1.00  0.00    -0.042 SA
HETATM   32  S2  UNL     1      47.611  19.510  16.976  1.00  0.00    -0.007 SA
ENDBRANCH  26  31
BRANCH  27  33
HETATM   33  N4  UNL     1      46.161  21.712  14.311  1.00  0.00    -0.384 N 
ATOM     34  H42 UNL     1      47.062  21.370  14.646  1.00  0.00     0.157 HD
ATOM     35  H41 UNL     1      45.855  21.779  13.340  1.00  0.00     0.157 HD
ENDBRANCH  27  33
BRANCH  30  36
HETATM   36  O5  UNL     1      40.928  23.380  14.146  1.00  0.00    -0.279 OA
ATOM     37  H5  UNL     1      40.304  24.048  13.888  1.00  0.00     0.245 HD
ENDBRANCH  30  36
ENDBRANCH   1  20
TORSDOF 11
ENDMDL
MODEL 3
REMARK VINA RESULT: -9.046203436      4.847      9.473
REMARK  11 active torsions:
REMARK  status: ('A' for Active; 'I' for Inactive)
REMARK    1  A    between atoms: C1_2  and  O2_4 
REMARK    2  A    between atoms: O2_4  and  N2_5 
REMARK    3  A    between atoms: C2_7  and  C3_8 
REMARK    4  A    between atoms: C5_10  and  C6_11 
REMARK    5  A    between atoms: C6_11  and  O3_12 
REMARK    6  A    between atoms: C6_11  and  N3_14 
REMARK    7  A    between atoms: N3_14  and  C7_16 
REMARK    8  A    between atoms: C11_21  and  S1_22 
REMARK    9  A    between atoms: C12_24  and  N4_25 
REMARK   10  A    between atoms: N6_31  and  O5_32 
REMARK   11  A    between atoms: C14_35  and  O7_36 
ROOT
HETATM    1  N3  UNL     1      42.562  23.499  15.653  1.00  0.00    -0.342 N 
ATOM      2  H3  UNL     1      43.311  23.421  14.965  1.00  0.00     0.164 HD
ENDROOT
BRANCH   1   3
HETATM    3  C6  UNL     1      42.868  23.549  17.085  1.00  0.00     0.278 C 
BRANCH   3   4
HETATM    4  C5  UNL     1      44.160  22.869  17.363  1.00  0.00     0.105 A 
HETATM    5  C4  UNL     1      45.058  22.341  16.459  1.00  0.00     0.055 A 
HETATM    6  C3  UNL     1      46.119  21.809  17.181  1.00  0.00     0.042 A 
HETATM    7  C14 UNL     1      45.796  22.050  18.499  1.00  0.00     0.195 A 
HETATM    8  O6  UNL     1      44.643  22.672  18.569  1.00  0.00    -0.287 OA
BRANCH   6   9
HETATM    9  C2  UNL     1      47.314  21.141  16.658  1.00  0.00     0.131 C 
HETATM   10  N2  UNL     1      47.219  19.920  16.292  1.00  0.00    -0.267 N 
ATOM     11  H2  UNL     1      46.326  19.433  16.367  1.00  0.00     0.194 HD
BRANCH  10  12
HETATM   12  O2  UNL     1      48.316  19.265  15.797  1.00  0.00    -0.184 OA
BRANCH  12  13
HETATM   13  C1  UNL     1      49.399  18.884  16.559  1.00  0.00     0.394 C 
HETATM   14  N1  UNL     1      50.692  18.935  15.998  1.00  0.00    -0.031 NA
HETATM   15  O1  UNL     1      49.216  18.503  17.724  1.00  0.00    -0.240 OA
ENDBRANCH  12  13
ENDBRANCH  10  12
ENDBRANCH   6   9
BRANCH   7  16
HETATM   16  O7  UNL     1      46.558  21.698  19.584  1.00  0.00    -0.340 OA
ATOM     17  H7  UNL     1      47.345  22.145  19.875  1.00  0.00     0.220 HD
ENDBRANCH   7  16
ENDBRANCH   3   4
BRANCH   3  18
HETATM   18  O3  UNL     1      42.993  24.924  17.389  1.00  0.00    -0.370 OA
ATOM     19  H3  UNL     1      42.132  25.326  17.374  1.00  0.00     0.212 HD
ENDBRANCH   3  18
ENDBRANCH   1   3
BRANCH   1  20
HETATM   20  C7  UNL     1      41.204  23.560  15.240  1.00  0.00     0.151 A 
HETATM   21  C8  UNL     1      40.275  24.515  15.208  1.00  0.00     0.106 A 
HETATM   22  C9  UNL     1      40.158  25.848  15.537  1.00  0.00     0.191 A 
HETATM   23  C13 UNL     1      39.338  23.667  14.678  1.00  0.00     0.154 A 
HETATM   24  O4  UNL     1      41.139  26.436  16.056  1.00  0.00    -0.287 OA
HETATM   25  C10 UNL     1      39.053  26.686  15.374  1.00  0.00     0.079 A 
HETATM   26  C11 UNL     1      37.827  26.331  14.873  1.00  0.00     0.059 A 
HETATM   27  C12 UNL     1      37.383  25.128  14.375  1.00  0.00     0.118 A 
HETATM   28  N5  UNL     1      38.054  23.971  14.356  1.00  0.00    -0.325 N 
ATOM     29  H5  UNL     1      37.501  23.173  14.042  1.00  0.00     0.169 HD
HETATM   30  N6  UNL     1      40.210  22.717  14.693  1.00  0.00    -0.189 N 
BRANCH  26  31
HETATM   31  S1  UNL     1      36.614  27.634  14.869  1.00  0.00    -0.042 SA
HETATM   32  S2  UNL     1      37.242  29.227  16.142  1.00  0.00    -0.007 SA
ENDBRANCH  26  31
BRANCH  27  33
HETATM   33  N4  UNL     1      36.200  25.159  13.887  1.00  0.00    -0.384 N 
ATOM     34  H42 UNL     1      35.619  25.978  14.066  1.00  0.00     0.157 HD
ATOM     35  H41 UNL     1      35.943  24.333  13.347  1.00  0.00     0.157 HD
ENDBRANCH  27  33
BRANCH  30  36
HETATM   36  O5  UNL     1      40.181  21.397  14.320  1.00  0.00    -0.279 OA
ATOM     37  H5  UNL     1      39.753  20.623  14.668  1.00  0.00     0.245 HD
ENDBRANCH  30  36
ENDBRANCH   1  20
TORSDOF 11
ENDMDL
MODEL 4
REMARK VINA RESULT: -8.995766801      5.500      9.660
REMARK  11 active torsions:
REMARK  status: ('A' for Active; 'I' for Inactive)
REMARK    1  A    between atoms: C1_2  and  O2_4 
REMARK    2  A    between atoms: O2_4  and  N2_5 
REMARK    3  A    between atoms: C2_7  and  C3_8 
REMARK    4  A    between atoms: C5_10  and  C6_11 
REMARK    5  A    between atoms: C6_11  and  O3_12 
REMARK    6  A    between atoms: C6_11  and  N3_14 
REMARK    7  A    between atoms: N3_14  and  C7_16 
REMARK    8  A    between atoms: C11_21  and  S1_22 
REMARK    9  A    between atoms: C12_24  and  N4_25 
REMARK   10  A    between atoms: N6_31  and  O5_32 
REMARK   11  A    between atoms: C14_35  and  O7_36 
ROOT
HETATM    1  N3  UNL     1      42.038  22.846  18.175  1.00  0.00    -0.342 N 
ATOM      2  H3  UNL     1      42.191  22.027  18.762  1.00  0.00     0.164 HD
ENDROOT
BRANCH   1   3
HETATM    3  C6  UNL     1      43.033  23.243  17.174  1.00  0.00     0.278 C 
BRANCH   3   4
HETATM    4  C5  UNL     1      44.348  22.621  17.476  1.00  0.00     0.105 A 
HETATM    5  C4  UNL     1      45.261  22.085  16.591  1.00  0.00     0.055 A 
HETATM    6  C3  UNL     1      46.342  21.621  17.332  1.00  0.00     0.042 A 
HETATM    7  C14 UNL     1      46.014  21.909  18.639  1.00  0.00     0.195 A 
HETATM    8  O6  UNL     1      44.841  22.494  18.687  1.00  0.00    -0.287 OA
BRANCH   6   9
HETATM    9  C2  UNL     1      47.558  20.972  16.833  1.00  0.00     0.131 C 
HETATM   10  N2  UNL     1      47.444  19.867  16.201  1.00  0.00    -0.267 N 
ATOM     11  H2  UNL     1      46.522  19.457  16.054  1.00  0.00     0.194 HD
BRANCH  10  12
HETATM   12  O2  UNL     1      48.559  19.234  15.720  1.00  0.00    -0.184 OA
BRANCH  12  13
HETATM   13  C1  UNL     1      49.584  18.763  16.511  1.00  0.00     0.394 C 
HETATM   14  N1  UNL     1      50.852  19.376  16.439  1.00  0.00    -0.031 NA
HETATM   15  O1  UNL     1      49.372  17.808  17.273  1.00  0.00    -0.240 OA
ENDBRANCH  12  13
ENDBRANCH  10  12
ENDBRANCH   6   9
BRANCH   7  16
HETATM   16  O7  UNL     1      46.792  21.631  19.735  1.00  0.00    -0.340 OA
ATOM     17  H7  UNL     1      46.513  21.700  20.641  1.00  0.00     0.220 HD
ENDBRANCH   7  16
ENDBRANCH   3   4
BRANCH   3  18
HETATM   18  O3  UNL     1      42.548  22.732  15.948  1.00  0.00    -0.370 OA
ATOM     19  H3  UNL     1      41.685  23.090  15.781  1.00  0.00     0.212 HD
ENDBRANCH   3  18
ENDBRANCH   1   3
BRANCH   1  20
HETATM   20  C7  UNL     1      40.857  23.625  18.313  1.00  0.00     0.151 A 
HETATM   21  C8  UNL     1      40.228  24.201  19.337  1.00  0.00     0.106 A 
HETATM   22  C9  UNL     1      40.386  24.334  20.699  1.00  0.00     0.191 A 
HETATM   23  C13 UNL     1      39.239  24.694  18.526  1.00  0.00     0.154 A 
HETATM   24  O4  UNL     1      41.353  23.761  21.259  1.00  0.00    -0.287 OA
HETATM   25  C10 UNL     1      39.589  25.046  21.598  1.00  0.00     0.079 A 
HETATM   26  C11 UNL     1      38.445  25.742  21.299  1.00  0.00     0.059 A 
HETATM   27  C12 UNL     1      37.826  25.961  20.091  1.00  0.00     0.118 A 
HETATM   28  N5  UNL     1      38.171  25.442  18.907  1.00  0.00    -0.325 N 
ATOM     29  H5  UNL     1      37.512  25.644  18.155  1.00  0.00     0.169 HD
HETATM   30  N6  UNL     1      39.819  24.151  17.511  1.00  0.00    -0.189 N 
BRANCH  26  31
HETATM   31  S1  UNL     1      37.630  26.478  22.701  1.00  0.00    -0.042 SA
HETATM   32  S2  UNL     1      39.064  27.397  23.986  1.00  0.00    -0.007 SA
ENDBRANCH  26  31
BRANCH  27  33
HETATM   33  N4  UNL     1      36.818  26.748  20.145  1.00  0.00    -0.384 N 
ATOM     34  H42 UNL     1      36.864  27.635  19.642  1.00  0.00     0.157 HD
ATOM     35  H41 UNL     1      36.040  26.402  20.706  1.00  0.00     0.157 HD
ENDBRANCH  27  33
BRANCH  30  36
HETATM   36  O5  UNL     1      39.536  24.103  16.170  1.00  0.00    -0.279 OA
ATOM     37  H5  UNL     1      39.258  23.413  15.579  1.00  0.00     0.245 HD
ENDBRANCH  30  36
ENDBRANCH   1  20
TORSDOF 11
ENDMDL
MODEL 5
REMARK VINA RESULT: -8.922985138      4.535      9.628
REMARK  11 active torsions:
REMARK  status: ('A' for Active; 'I' for Inactive)
REMARK    1  A    between atoms: C1_2  and  O2_4 
REMARK    2  A    between atoms: O2_4  and  N2_5 
REMARK    3  A    between atoms: C2_7  and  C3_8 
REMARK    4  A    between atoms: C5_10  and  C6_11 
REMARK    5  A    between atoms: C6_11  and  O3_12 
REMARK    6  A    between atoms: C6_11  and  N3_14 
REMARK    7  A    between atoms: N3_14  and  C7_16 
REMARK    8  A    between atoms: C11_21  and  S1_22 
REMARK    9  A    between atoms: C12_24  and  N4_25 
REMARK   10  A    between atoms: N6_31  and  O5_32 
REMARK   11  A    between atoms: C14_35  and  O7_36 
ROOT
HETATM    1  N3  UNL     1      41.763  22.692  17.664  1.00  0.00    -0.342 N 
ATOM      2  H3  UNL     1      41.923  21.878  18.257  1.00  0.00     0.164 HD
ENDROOT
BRANCH   1   3
HETATM    3  C6  UNL     1      42.816  23.179  16.768  1.00  0.00     0.278 C 
BRANCH   3   4
HETATM    4  C5  UNL     1      44.132  22.614  17.159  1.00  0.00     0.105 A 
HETATM    5  C4  UNL     1      45.098  22.058  16.345  1.00  0.00     0.055 A 
HETATM    6  C3  UNL     1      46.158  21.668  17.156  1.00  0.00     0.042 A 
HETATM    7  C14 UNL     1      45.764  22.015  18.429  1.00  0.00     0.195 A 
HETATM    8  O6  UNL     1      44.575  22.566  18.395  1.00  0.00    -0.287 OA
BRANCH   6   9
HETATM    9  C2  UNL     1      47.412  21.029  16.746  1.00  0.00     0.131 C 
HETATM   10  N2  UNL     1      47.355  19.897  16.155  1.00  0.00    -0.267 N 
ATOM     11  H2  UNL     1      46.452  19.459  15.978  1.00  0.00     0.194 HD
BRANCH  10  12
HETATM   12  O2  UNL     1      48.507  19.273  15.757  1.00  0.00    -0.184 OA
BRANCH  12  13
HETATM   13  C1  UNL     1      49.549  18.957  16.603  1.00  0.00     0.394 C 
HETATM   14  N1  UNL     1      50.863  19.331  16.252  1.00  0.00    -0.031 NA
HETATM   15  O1  UNL     1      49.311  18.350  17.657  1.00  0.00    -0.240 OA
ENDBRANCH  12  13
ENDBRANCH  10  12
ENDBRANCH   6   9
BRANCH   7  16
HETATM   16  O7  UNL     1      46.500  21.819  19.572  1.00  0.00    -0.340 OA
ATOM     17  H7  UNL     1      47.257  22.329  19.835  1.00  0.00     0.220 HD
ENDBRANCH   7  16
ENDBRANCH   3   4
BRANCH   3  18
HETATM   18  O3  UNL     1      42.465  22.695  15.486  1.00  0.00    -0.370 OA
ATOM     19  H3  UNL     1      41.524  22.570  15.447  1.00  0.00     0.212 HD
ENDBRANCH   3  18
ENDBRANCH   1   3
BRANCH   1  20
HETATM   20  C7  UNL     1      40.516  23.373  17.691  1.00  0.00     0.151 A 
HETATM   21  C8  UNL     1      39.395  23.308  16.973  1.00  0.00     0.106 A 
HETATM   22  C9  UNL     1      38.898  22.593  15.905  1.00  0.00     0.191 A 
HETATM   23  C13 UNL     1      38.798  24.296  17.711  1.00  0.00     0.154 A 
HETATM   24  O4  UNL     1      39.636  21.749  15.339  1.00  0.00    -0.287 OA
HETATM   25  C10 UNL     1      37.630  22.673  15.326  1.00  0.00     0.079 A 
HETATM   26  C11 UNL     1      36.617  23.522  15.694  1.00  0.00     0.059 A 
HETATM   27  C12 UNL     1      36.555  24.447  16.710  1.00  0.00     0.118 A 
HETATM   28  N5  UNL     1      37.546  24.797  17.538  1.00  0.00    -0.325 N 
ATOM     29  H5  UNL     1      37.322  25.583  18.149  1.00  0.00     0.169 HD
HETATM   30  N6  UNL     1      39.865  24.388  18.428  1.00  0.00    -0.189 N 
BRANCH  26  31
HETATM   31  S1  UNL     1      35.148  23.412  14.695  1.00  0.00    -0.042 SA
HETATM   32  S2  UNL     1      34.898  21.420  13.972  1.00  0.00    -0.007 SA
ENDBRANCH  26  31
BRANCH  27  33
HETATM   33  N4  UNL     1      35.414  25.010  16.848  1.00  0.00    -0.384 N 
ATOM     34  H42 UNL     1      34.876  24.824  17.695  1.00  0.00     0.157 HD
ATOM     35  H41 UNL     1      35.142  25.612  16.071  1.00  0.00     0.157 HD
ENDBRANCH  27  33
BRANCH  30  36
HETATM   36  O5  UNL     1      40.226  25.172  19.494  1.00  0.00    -0.279 OA
ATOM     37  H5  UNL     1      40.682  25.004  20.310  1.00  0.00     0.245 HD
ENDBRANCH  30  36
ENDBRANCH   1  20
TORSDOF 11
ENDMDL
