MODEL 1
REMARK VINA RESULT: -6.954381271      0.000      0.000
REMARK  4 active torsions:
REMARK  status: ('A' for Active; 'I' for Inactive)
REMARK    1  A    between atoms: N1_1  and  C1_4 
REMARK    2  A    between atoms: C2_7  and  C3_8 
REMARK    3  A    between atoms: C5_12  and  S1_13 
REMARK    4  A    between atoms: S1_13  and  N3_14 
ROOT
HETATM    1  C1  UNL     1     -13.055   4.509  38.298  1.00  0.00     0.124 C 
HETATM    2  N2  UNL     1     -13.729   5.243  37.369  1.00  0.00    -0.336 N 
ATOM      3  H2  UNL     1     -13.184   5.983  36.926  1.00  0.00     0.168 HD
HETATM    4  C2  UNL     1     -14.998   5.143  36.945  1.00  0.00     0.112 C 
HETATM    5  C4  UNL     1     -15.946   4.247  37.430  1.00  0.00     0.062 C 
HETATM    6  C5  UNL     1     -15.765   3.081  38.151  1.00  0.00     0.083 C 
HETATM    7  C6  UNL     1     -14.609   2.655  38.784  1.00  0.00     0.055 C 
HETATM    8  C7  UNL     1     -13.346   3.241  38.757  1.00  0.00     0.091 C 
HETATM    9  N4  UNL     1     -12.251   2.478  39.239  1.00  0.00    -0.098 NA
ENDROOT
BRANCH   6  10
HETATM   10  S1  UNL     1     -17.150   2.039  38.269  1.00  0.00     0.256 S 
HETATM   11  O3  UNL     1     -17.508   1.812  39.721  1.00  0.00    -0.201 OA
HETATM   12  O4  UNL     1     -16.796   0.717  37.691  1.00  0.00    -0.201 OA
BRANCH  10  13
HETATM   13  N3  UNL     1     -18.541   2.707  37.506  1.00  0.00    -0.324 N 
ATOM     14  H32 UNL     1     -18.504   3.538  36.917  1.00  0.00     0.169 HD
ATOM     15  H31 UNL     1     -19.390   2.179  37.712  1.00  0.00     0.169 HD
ENDBRANCH  10  13
ENDBRANCH   6  10
BRANCH   4  16
HETATM   16  C3  UNL     1     -15.445   6.045  35.879  1.00  0.00     0.226 C 
HETATM   17  O1  UNL     1     -14.758   6.237  34.841  1.00  0.00    -0.643 OA
HETATM   18  O2  UNL     1     -16.666   6.676  36.077  1.00  0.00    -0.643 OA
ENDBRANCH   4  16
BRANCH   1  19
HETATM   19  N1  UNL     1     -12.019   5.053  38.823  1.00  0.00    -0.384 N 
ATOM     20  H12 UNL     1     -12.211   5.696  39.591  1.00  0.00     0.157 HD
ATOM     21  H11 UNL     1     -11.115   4.795  38.428  1.00  0.00     0.157 HD
ENDBRANCH   1  19
TORSDOF 4
ENDMDL
MODEL 2
REMARK VINA RESULT: -6.738438358      2.009      4.306
REMARK  4 active torsions:
REMARK  status: ('A' for Active; 'I' for Inactive)
REMARK    1  A    between atoms: N1_1  and  C1_4 
REMARK    2  A    between atoms: C2_7  and  C3_8 
REMARK    3  A    between atoms: C5_12  and  S1_13 
REMARK    4  A    between atoms: S1_13  and  N3_14 
ROOT
HETATM    1  C1  UNL     1     -13.514   3.644  38.960  1.00  0.00     0.124 C 
HETATM    2  N2  UNL     1     -14.767   3.123  39.079  1.00  0.00    -0.336 N 
ATOM      3  H2  UNL     1     -14.869   2.404  39.796  1.00  0.00     0.168 HD
HETATM    4  C2  UNL     1     -15.890   3.409  38.401  1.00  0.00     0.112 C 
HETATM    5  C4  UNL     1     -15.992   4.315  37.350  1.00  0.00     0.062 C 
HETATM    6  C5  UNL     1     -15.137   5.341  36.987  1.00  0.00     0.083 C 
HETATM    7  C6  UNL     1     -13.843   5.553  37.432  1.00  0.00     0.055 C 
HETATM    8  C7  UNL     1     -13.144   4.855  38.412  1.00  0.00     0.091 C 
HETATM    9  N4  UNL     1     -11.941   5.428  38.904  1.00  0.00    -0.098 NA
ENDROOT
BRANCH   6  10
HETATM   10  S1  UNL     1     -15.770   6.487  35.846  1.00  0.00     0.256 S 
HETATM   11  O3  UNL     1     -14.847   7.681  35.742  1.00  0.00    -0.201 OA
HETATM   12  O4  UNL     1     -17.076   6.983  36.351  1.00  0.00    -0.201 OA
BRANCH  10  13
HETATM   13  N3  UNL     1     -15.919   5.826  34.263  1.00  0.00    -0.324 N 
ATOM     14  H32 UNL     1     -16.451   6.280  33.522  1.00  0.00     0.169 HD
ATOM     15  H31 UNL     1     -15.419   4.943  34.161  1.00  0.00     0.169 HD
ENDBRANCH  10  13
ENDBRANCH   6  10
BRANCH   4  16
HETATM   16  C3  UNL     1     -17.125   2.719  38.784  1.00  0.00     0.226 C 
HETATM   17  O1  UNL     1     -18.135   2.702  38.031  1.00  0.00    -0.643 OA
HETATM   18  O2  UNL     1     -17.121   2.087  40.020  1.00  0.00    -0.643 OA
ENDBRANCH   4  16
BRANCH   1  19
HETATM   19  N1  UNL     1     -12.547   2.930  39.404  1.00  0.00    -0.384 N 
ATOM     20  H12 UNL     1     -12.447   2.015  38.964  1.00  0.00     0.157 HD
ATOM     21  H11 UNL     1     -11.978   3.337  40.147  1.00  0.00     0.157 HD
ENDBRANCH   1  19
TORSDOF 4
ENDMDL
MODEL 3
REMARK VINA RESULT: -6.650545427      2.060      4.294
REMARK  4 active torsions:
REMARK  status: ('A' for Active; 'I' for Inactive)
REMARK    1  A    between atoms: N1_1  and  C1_4 
REMARK    2  A    between atoms: C2_7  and  C3_8 
REMARK    3  A    between atoms: C5_12  and  S1_13 
REMARK    4  A    between atoms: S1_13  and  N3_14 
ROOT
HETATM    1  C1  UNL     1     -13.555   3.655  39.041  1.00  0.00     0.124 C 
HETATM    2  N2  UNL     1     -14.815   3.141  39.107  1.00  0.00    -0.336 N 
ATOM      3  H2  UNL     1     -14.955   2.435  39.830  1.00  0.00     0.168 HD
HETATM    4  C2  UNL     1     -15.901   3.420  38.370  1.00  0.00     0.112 C 
HETATM    5  C4  UNL     1     -15.948   4.309  37.300  1.00  0.00     0.062 C 
HETATM    6  C5  UNL     1     -15.071   5.325  36.963  1.00  0.00     0.083 C 
HETATM    7  C6  UNL     1     -13.799   5.540  37.468  1.00  0.00     0.055 C 
HETATM    8  C7  UNL     1     -13.152   4.856  38.493  1.00  0.00     0.091 C 
HETATM    9  N4  UNL     1     -11.973   5.431  39.034  1.00  0.00    -0.098 NA
ENDROOT
BRANCH   6  10
HETATM   10  S1  UNL     1     -15.642   6.455  35.774  1.00  0.00     0.256 S 
HETATM   11  O3  UNL     1     -15.642   5.812  34.404  1.00  0.00    -0.201 OA
HETATM   12  O4  UNL     1     -14.699   7.602  35.721  1.00  0.00    -0.201 OA
BRANCH  10  13
HETATM   13  N3  UNL     1     -17.252   6.978  36.083  1.00  0.00    -0.324 N 
ATOM     14  H32 UNL     1     -18.057   6.632  35.562  1.00  0.00     0.169 HD
ATOM     15  H31 UNL     1     -17.301   7.664  36.837  1.00  0.00     0.169 HD
ENDBRANCH  10  13
ENDBRANCH   6  10
BRANCH   4  16
HETATM   16  C3  UNL     1     -17.157   2.742  38.703  1.00  0.00     0.226 C 
HETATM   17  O1  UNL     1     -18.149   2.764  37.926  1.00  0.00    -0.643 OA
HETATM   18  O2  UNL     1     -17.194   2.074  39.920  1.00  0.00    -0.643 OA
ENDBRANCH   4  16
BRANCH   1  19
HETATM   19  N1  UNL     1     -12.615   2.945  39.545  1.00  0.00    -0.384 N 
ATOM     20  H12 UNL     1     -12.914   2.262  40.241  1.00  0.00     0.157 HD
ATOM     21  H11 UNL     1     -11.669   3.128  39.208  1.00  0.00     0.157 HD
ENDBRANCH   1  19
TORSDOF 4
ENDMDL
MODEL 4
REMARK VINA RESULT: -6.569189534      2.434      3.646
REMARK  4 active torsions:
REMARK  status: ('A' for Active; 'I' for Inactive)
REMARK    1  A    between atoms: N1_1  and  C1_4 
REMARK    2  A    between atoms: C2_7  and  C3_8 
REMARK    3  A    between atoms: C5_12  and  S1_13 
REMARK    4  A    between atoms: S1_13  and  N3_14 
ROOT
HETATM    1  C1  UNL     1     -14.330   5.843  36.918  1.00  0.00     0.124 C 
HETATM    2  N2  UNL     1     -13.454   5.308  37.814  1.00  0.00    -0.336 N 
ATOM      3  H2  UNL     1     -12.607   5.855  37.967  1.00  0.00     0.168 HD
HETATM    4  C2  UNL     1     -13.532   4.173  38.526  1.00  0.00     0.112 C 
HETATM    5  C4  UNL     1     -14.563   3.240  38.453  1.00  0.00     0.062 C 
HETATM    6  C5  UNL     1     -15.844   3.384  37.952  1.00  0.00     0.083 C 
HETATM    7  C6  UNL     1     -16.329   4.419  37.170  1.00  0.00     0.055 C 
HETATM    8  C7  UNL     1     -15.682   5.593  36.795  1.00  0.00     0.091 C 
HETATM    9  N4  UNL     1     -16.467   6.634  36.237  1.00  0.00    -0.098 NA
ENDROOT
BRANCH   6  10
HETATM   10  S1  UNL     1     -16.963   2.119  38.358  1.00  0.00     0.256 S 
HETATM   11  O3  UNL     1     -16.970   1.892  39.854  1.00  0.00    -0.201 OA
HETATM   12  O4  UNL     1     -16.500   0.858  37.723  1.00  0.00    -0.201 OA
BRANCH  10  13
HETATM   13  N3  UNL     1     -18.579   2.498  37.900  1.00  0.00    -0.324 N 
ATOM     14  H32 UNL     1     -18.903   3.453  37.752  1.00  0.00     0.169 HD
ATOM     15  H31 UNL     1     -19.160   1.665  37.796  1.00  0.00     0.169 HD
ENDBRANCH  10  13
ENDBRANCH   6  10
BRANCH   4  16
HETATM   16  C3  UNL     1     -12.450   3.869  39.466  1.00  0.00     0.226 C 
HETATM   17  O1  UNL     1     -11.913   4.766  40.171  1.00  0.00    -0.643 OA
HETATM   18  O2  UNL     1     -12.049   2.542  39.539  1.00  0.00    -0.643 OA
ENDBRANCH   4  16
BRANCH   1  19
HETATM   19  N1  UNL     1     -13.854   6.684  36.076  1.00  0.00    -0.384 N 
ATOM     20  H12 UNL     1     -14.463   7.475  35.864  1.00  0.00     0.157 HD
ATOM     21  H11 UNL     1     -12.926   6.485  35.702  1.00  0.00     0.157 HD
ENDBRANCH   1  19
TORSDOF 4
ENDMDL
MODEL 5
REMARK VINA RESULT: -6.370422569      0.986      1.133
REMARK  4 active torsions:
REMARK  status: ('A' for Active; 'I' for Inactive)
REMARK    1  A    between atoms: N1_1  and  C1_4 
REMARK    2  A    between atoms: C2_7  and  C3_8 
REMARK    3  A    between atoms: C5_12  and  S1_13 
REMARK    4  A    between atoms: S1_13  and  N3_14 
ROOT
HETATM    1  C1  UNL     1     -13.160   4.448  38.147  1.00  0.00     0.124 C 
HETATM    2  N2  UNL     1     -13.900   5.146  37.242  1.00  0.00    -0.336 N 
ATOM      3  H2  UNL     1     -13.379   5.834  36.697  1.00  0.00     0.168 HD
HETATM    4  C2  UNL     1     -15.209   5.072  36.955  1.00  0.00     0.112 C 
HETATM    5  C4  UNL     1     -16.132   4.249  37.593  1.00  0.00     0.062 C 
HETATM    6  C5  UNL     1     -15.917   3.125  38.372  1.00  0.00     0.083 C 
HETATM    7  C6  UNL     1     -14.718   2.695  38.913  1.00  0.00     0.055 C 
HETATM    8  C7  UNL     1     -13.445   3.225  38.719  1.00  0.00     0.091 C 
HETATM    9  N4  UNL     1     -12.333   2.451  39.140  1.00  0.00    -0.098 NA
ENDROOT
BRANCH   6  10
HETATM   10  S1  UNL     1     -17.318   2.151  38.699  1.00  0.00     0.256 S 
HETATM   11  O3  UNL     1     -18.558   2.823  38.152  1.00  0.00    -0.201 OA
HETATM   12  O4  UNL     1     -17.487   2.047  40.171  1.00  0.00    -0.201 OA
BRANCH  10  13
HETATM   13  N3  UNL     1     -17.223   0.597  37.965  1.00  0.00    -0.324 N 
ATOM     14  H32 UNL     1     -17.280   0.456  36.957  1.00  0.00     0.169 HD
ATOM     15  H31 UNL     1     -17.107  -0.151  38.650  1.00  0.00     0.169 HD
ENDBRANCH  10  13
ENDBRANCH   6  10
BRANCH   4  16
HETATM   16  C3  UNL     1     -15.732   5.920  35.880  1.00  0.00     0.226 C 
HETATM   17  O1  UNL     1     -15.238   5.902  34.721  1.00  0.00    -0.643 OA
HETATM   18  O2  UNL     1     -16.800   6.743  36.209  1.00  0.00    -0.643 OA
ENDBRANCH   4  16
BRANCH   1  19
HETATM   19  N1  UNL     1     -12.058   4.982  38.527  1.00  0.00    -0.384 N 
ATOM     20  H12 UNL     1     -12.078   5.998  38.616  1.00  0.00     0.157 HD
ATOM     21  H11 UNL     1     -11.276   4.349  38.700  1.00  0.00     0.157 HD
ENDBRANCH   1  19
TORSDOF 4
ENDMDL
