MODEL 1
REMARK VINA RESULT: -8.058312344      0.000      0.000
REMARK  2 active torsions:
REMARK  status: ('A' for Active; 'I' for Inactive)
REMARK    1  A    between atoms: C1_2  and  C2_4 
REMARK    2  A    between atoms: N5_12  and  C5_14 
ROOT
HETATM    1  C2  UNL     1     -14.391   3.423  38.698  1.00  0.00     0.189 A 
HETATM    2  N2  UNL     1     -15.290   2.569  39.218  1.00  0.00    -0.311 N 
ATOM      3  H2  UNL     1     -14.999   1.885  39.917  1.00  0.00     0.170 HD
HETATM    4  C3  UNL     1     -16.586   2.615  38.814  1.00  0.00     0.208 A 
HETATM    5  N3  UNL     1     -17.503   1.706  39.379  1.00  0.00    -0.063 NA
HETATM    6  N4  UNL     1     -16.942   3.534  37.884  1.00  0.00    -0.163 N 
ATOM      7  H4  UNL     1     -17.914   3.572  37.577  1.00  0.00     0.187 HD
HETATM    8  C4  UNL     1     -16.060   4.397  37.351  1.00  0.00     0.686 A 
HETATM    9  N5  UNL     1     -16.464   5.242  36.473  1.00  0.00    -0.190 N 
ATOM     10  H5  UNL     1     -17.452   5.210  36.223  1.00  0.00     0.184 HD
HETATM   11  N7  UNL     1     -14.783   4.309  37.787  1.00  0.00    -0.171 N 
ATOM     12  H7  UNL     1     -14.090   4.950  37.401  1.00  0.00     0.186 HD
ENDROOT
BRANCH   9  13
HETATM   13  C5  UNL     1     -15.683   6.197  35.829  1.00  0.00     0.064 A 
HETATM   14  C6  UNL     1     -14.441   5.870  35.350  1.00  0.00     0.037 A 
HETATM   15  C7  UNL     1     -13.649   6.819  34.703  1.00  0.00     0.076 A 
HETATM   16  C8  UNL     1     -14.177   8.084  34.572  1.00  0.00     0.245 A 
HETATM   17  O2  UNL     1     -13.473   8.963  33.987  1.00  0.00    -0.268 OA
HETATM   18  N6  UNL     1     -15.407   8.397  35.050  1.00  0.00    -0.332 N 
HETATM   19  C9  UNL     1     -16.171   7.468  35.678  1.00  0.00     0.121 A 
ATOM     20  H6  UNL     1     -15.763   9.345  34.936  1.00  0.00     0.168 HD
ENDBRANCH   9  13
BRANCH   1  21
HETATM   21  C1  UNL     1     -13.002   3.331  39.171  1.00  0.00     0.299 C 
HETATM   22  N1  UNL     1     -12.323   4.435  39.728  1.00  0.00    -0.054 NA
HETATM   23  O1  UNL     1     -12.394   2.240  39.081  1.00  0.00    -0.268 OA
ENDBRANCH   1  21
TORSDOF 2
ENDMDL
MODEL 2
REMARK VINA RESULT: -8.040780824      2.256      3.370
REMARK  2 active torsions:
REMARK  status: ('A' for Active; 'I' for Inactive)
REMARK    1  A    between atoms: C1_2  and  C2_4 
REMARK    2  A    between atoms: N5_12  and  C5_14 
ROOT
HETATM    1  C2  UNL     1     -15.866   3.218  38.554  1.00  0.00     0.189 A 
HETATM    2  N2  UNL     1     -14.776   2.569  39.001  1.00  0.00    -0.311 N 
ATOM      3  H2  UNL     1     -14.881   1.749  39.600  1.00  0.00     0.170 HD
HETATM    4  C3  UNL     1     -13.537   3.003  38.658  1.00  0.00     0.208 A 
HETATM    5  N3  UNL     1     -12.415   2.300  39.143  1.00  0.00    -0.063 NA
HETATM    6  N4  UNL     1     -13.430   4.095  37.862  1.00  0.00    -0.163 N 
ATOM      7  H4  UNL     1     -12.500   4.424  37.601  1.00  0.00     0.187 HD
HETATM    8  C4  UNL     1     -14.505   4.759  37.404  1.00  0.00     0.686 A 
HETATM    9  N5  UNL     1     -14.333   5.786  36.655  1.00  0.00    -0.190 N 
ATOM     10  H5  UNL     1     -13.369   6.048  36.445  1.00  0.00     0.184 HD
HETATM   11  N7  UNL     1     -15.716   4.286  37.776  1.00  0.00    -0.171 N 
ATOM     12  H7  UNL     1     -16.551   4.769  37.445  1.00  0.00     0.186 HD
ENDROOT
BRANCH   9  13
HETATM   13  C5  UNL     1     -15.334   6.579  36.101  1.00  0.00     0.064 A 
HETATM   14  C6  UNL     1     -15.876   7.614  36.819  1.00  0.00     0.037 A 
HETATM   15  C7  UNL     1     -16.881   8.415  36.275  1.00  0.00     0.076 A 
HETATM   16  C8  UNL     1     -17.291   8.115  34.995  1.00  0.00     0.245 A 
HETATM   17  O2  UNL     1     -18.203   8.832  34.481  1.00  0.00    -0.268 OA
HETATM   18  N6  UNL     1     -16.747   7.089  34.294  1.00  0.00    -0.332 N 
HETATM   19  C9  UNL     1     -15.771   6.315  34.830  1.00  0.00     0.121 A 
ATOM     20  H6  UNL     1     -17.077   6.897  33.349  1.00  0.00     0.168 HD
ENDBRANCH   9  13
BRANCH   1  21
HETATM   21  C1  UNL     1     -17.184   2.706  38.955  1.00  0.00     0.299 C 
HETATM   22  N1  UNL     1     -17.433   2.201  40.249  1.00  0.00    -0.054 NA
HETATM   23  O1  UNL     1     -18.125   2.715  38.128  1.00  0.00    -0.268 OA
ENDBRANCH   1  21
TORSDOF 2
ENDMDL
MODEL 3
REMARK VINA RESULT: -8.017042855      0.644      1.120
REMARK  2 active torsions:
REMARK  status: ('A' for Active; 'I' for Inactive)
REMARK    1  A    between atoms: C1_2  and  C2_4 
REMARK    2  A    between atoms: N5_12  and  C5_14 
ROOT
HETATM    1  C2  UNL     1     -14.420   3.455  38.685  1.00  0.00     0.189 A 
HETATM    2  N2  UNL     1     -15.285   2.574  39.217  1.00  0.00    -0.311 N 
ATOM      3  H2  UNL     1     -14.962   1.895  39.907  1.00  0.00     0.170 HD
HETATM    4  C3  UNL     1     -16.589   2.587  38.839  1.00  0.00     0.208 A 
HETATM    5  N3  UNL     1     -17.471   1.651  39.416  1.00  0.00    -0.063 NA
HETATM    6  N4  UNL     1     -16.989   3.501  37.920  1.00  0.00    -0.163 N 
ATOM      7  H4  UNL     1     -17.967   3.514  37.633  1.00  0.00     0.187 HD
HETATM    8  C4  UNL     1     -16.141   4.390  37.375  1.00  0.00     0.686 A 
HETATM    9  N5  UNL     1     -16.585   5.227  36.510  1.00  0.00    -0.190 N 
ATOM     10  H5  UNL     1     -17.576   5.170  36.279  1.00  0.00     0.184 HD
HETATM   11  N7  UNL     1     -14.854   4.335  37.786  1.00  0.00    -0.171 N 
ATOM     12  H7  UNL     1     -14.186   4.996  37.390  1.00  0.00     0.186 HD
ENDROOT
BRANCH   9  13
HETATM   13  C5  UNL     1     -15.843   6.207  35.856  1.00  0.00     0.064 A 
HETATM   14  C6  UNL     1     -16.168   7.531  35.995  1.00  0.00     0.037 A 
HETATM   15  C7  UNL     1     -15.433   8.523  35.343  1.00  0.00     0.076 A 
HETATM   16  C8  UNL     1     -14.376   8.103  34.566  1.00  0.00     0.245 A 
HETATM   17  O2  UNL     1     -13.693   8.988  33.965  1.00  0.00    -0.268 OA
HETATM   18  N6  UNL     1     -14.063   6.790  34.437  1.00  0.00    -0.332 N 
HETATM   19  C9  UNL     1     -14.783   5.832  35.073  1.00  0.00     0.121 A 
ATOM     20  H6  UNL     1     -13.274   6.517  33.851  1.00  0.00     0.168 HD
ENDBRANCH   9  13
BRANCH   1  21
HETATM   21  C1  UNL     1     -13.020   3.399  39.130  1.00  0.00     0.299 C 
HETATM   22  N1  UNL     1     -12.334   4.539  39.601  1.00  0.00    -0.054 NA
HETATM   23  O1  UNL     1     -12.408   2.307  39.094  1.00  0.00    -0.268 OA
ENDBRANCH   1  21
TORSDOF 2
ENDMDL
MODEL 4
REMARK VINA RESULT: -7.997667548      2.270      3.272
REMARK  2 active torsions:
REMARK  status: ('A' for Active; 'I' for Inactive)
REMARK    1  A    between atoms: C1_2  and  C2_4 
REMARK    2  A    between atoms: N5_12  and  C5_14 
ROOT
HETATM    1  C2  UNL     1     -15.797   3.106  38.424  1.00  0.00     0.189 A 
HETATM    2  N2  UNL     1     -14.708   2.547  38.981  1.00  0.00    -0.311 N 
ATOM      3  H2  UNL     1     -14.814   1.844  39.713  1.00  0.00     0.170 HD
HETATM    4  C3  UNL     1     -13.468   2.915  38.569  1.00  0.00     0.208 A 
HETATM    5  N3  UNL     1     -12.347   2.309  39.172  1.00  0.00    -0.063 NA
HETATM    6  N4  UNL     1     -13.360   3.850  37.594  1.00  0.00    -0.163 N 
ATOM      7  H4  UNL     1     -12.430   4.130  37.282  1.00  0.00     0.187 HD
HETATM    8  C4  UNL     1     -14.434   4.423  37.024  1.00  0.00     0.686 A 
HETATM    9  N5  UNL     1     -14.261   5.303  36.107  1.00  0.00    -0.190 N 
ATOM     10  H5  UNL     1     -13.297   5.524  35.857  1.00  0.00     0.184 HD
HETATM   11  N7  UNL     1     -15.646   4.021  37.471  1.00  0.00    -0.171 N 
ATOM     12  H7  UNL     1     -16.481   4.438  37.058  1.00  0.00     0.186 HD
ENDROOT
BRANCH   9  13
HETATM   13  C5  UNL     1     -15.261   5.985  35.421  1.00  0.00     0.064 A 
HETATM   14  C6  UNL     1     -15.284   5.988  34.050  1.00  0.00     0.037 A 
HETATM   15  C7  UNL     1     -16.281   6.669  33.350  1.00  0.00     0.076 A 
HETATM   16  C8  UNL     1     -17.229   7.327  34.103  1.00  0.00     0.245 A 
HETATM   17  O2  UNL     1     -18.146   7.953  33.486  1.00  0.00    -0.268 OA
HETATM   18  N6  UNL     1     -17.197   7.317  35.458  1.00  0.00    -0.332 N 
HETATM   19  C9  UNL     1     -16.224   6.653  36.131  1.00  0.00     0.121 A 
ATOM     20  H6  UNL     1     -17.915   7.817  35.981  1.00  0.00     0.168 HD
ENDBRANCH   9  13
BRANCH   1  21
HETATM   21  C1  UNL     1     -17.116   2.671  38.906  1.00  0.00     0.299 C 
HETATM   22  N1  UNL     1     -17.315   2.183  40.215  1.00  0.00    -0.054 NA
HETATM   23  O1  UNL     1     -18.102   2.732  38.137  1.00  0.00    -0.268 OA
ENDBRANCH   1  21
TORSDOF 2
ENDMDL
MODEL 5
REMARK VINA RESULT: -7.972514842      2.598      6.410
REMARK  2 active torsions:
REMARK  status: ('A' for Active; 'I' for Inactive)
REMARK    1  A    between atoms: C1_2  and  C2_4 
REMARK    2  A    between atoms: N5_12  and  C5_14 
ROOT
HETATM    1  C2  UNL     1     -15.255   5.730  35.872  1.00  0.00     0.189 A 
HETATM    2  N2  UNL     1     -13.997   5.957  35.455  1.00  0.00    -0.311 N 
ATOM      3  H2  UNL     1     -13.797   6.751  34.846  1.00  0.00     0.170 HD
HETATM    4  C3  UNL     1     -12.991   5.131  35.842  1.00  0.00     0.208 A 
HETATM    5  N3  UNL     1     -11.684   5.398  35.387  1.00  0.00    -0.063 NA
HETATM    6  N4  UNL     1     -13.288   4.084  36.651  1.00  0.00    -0.163 N 
ATOM      7  H4  UNL     1     -12.535   3.462  36.944  1.00  0.00     0.187 HD
HETATM    8  C4  UNL     1     -14.538   3.838  37.080  1.00  0.00     0.686 A 
HETATM    9  N5  UNL     1     -14.749   2.829  37.843  1.00  0.00    -0.190 N 
ATOM     10  H5  UNL     1     -13.940   2.258  38.086  1.00  0.00     0.184 HD
HETATM   11  N7  UNL     1     -15.502   4.691  36.665  1.00  0.00    -0.171 N 
ATOM     12  H7  UNL     1     -16.461   4.530  36.973  1.00  0.00     0.186 HD
ENDROOT
BRANCH   9  13
HETATM   13  C5  UNL     1     -15.977   2.439  38.371  1.00  0.00     0.064 A 
HETATM   14  C6  UNL     1     -16.507   3.095  39.451  1.00  0.00     0.037 A 
HETATM   15  C7  UNL     1     -17.737   2.713  39.990  1.00  0.00     0.076 A 
HETATM   16  C8  UNL     1     -18.379   1.656  39.384  1.00  0.00     0.245 A 
HETATM   17  O2  UNL     1     -19.498   1.292  39.858  1.00  0.00    -0.268 OA
HETATM   18  N6  UNL     1     -17.845   1.014  38.316  1.00  0.00    -0.332 N 
HETATM   19  C9  UNL     1     -16.649   1.392  37.798  1.00  0.00     0.121 A 
ATOM     20  H6  UNL     1     -18.349   0.235  37.895  1.00  0.00     0.168 HD
ENDBRANCH   9  13
BRANCH   1  21
HETATM   21  C1  UNL     1     -16.306   6.655  35.424  1.00  0.00     0.299 C 
HETATM   22  N1  UNL     1     -17.105   7.383  36.332  1.00  0.00    -0.054 NA
HETATM   23  O1  UNL     1     -16.506   6.810  34.198  1.00  0.00    -0.268 OA
ENDBRANCH   1  21
TORSDOF 2
ENDMDL
