MODEL 1
REMARK VINA RESULT: -7.836826247      0.000      0.000
REMARK  9 active torsions:
REMARK  status: ('A' for Active; 'I' for Inactive)
REMARK    1  A    between atoms: N1_1  and  N2_4 
REMARK    2  A    between atoms: C1_6  and  N3_7 
REMARK    3  A    between atoms: C1_6  and  C4_13 
REMARK    4  A    between atoms: N3_7  and  C2_9 
REMARK    5  A    between atoms: C2_9  and  C3_10 
REMARK    6  A    between atoms: C4_13  and  C5_14 
REMARK    7  A    between atoms: C4_13  and  N5_21 
REMARK    8  A    between atoms: C5_14  and  C6_15 
REMARK    9  A    between atoms: C6_15  and  C7_16 
REMARK       I    between atoms: N5_21  and  C9_23 
REMARK       I    between atoms: C9_23  and  N6_25 
ROOT
HETATM    1  C4  UNL     1     -15.111   7.325  34.563  1.00  0.00     0.155 C 
ENDROOT
BRANCH   1   2
HETATM    2  C1  UNL     1     -14.651   8.665  34.994  1.00  0.00     0.115 C 
HETATM    3  N2  UNL     1     -15.531   9.546  35.310  1.00  0.00    -0.294 N 
ATOM      4  H2  UNL     1     -15.240  10.475  35.612  1.00  0.00     0.187 HD
BRANCH   3   5
HETATM    5  N1  UNL     1     -16.874   9.226  35.239  1.00  0.00    -0.344 N 
ATOM      6  H12 UNL     1     -17.149   8.305  34.897  1.00  0.00     0.176 HD
ATOM      7  H11 UNL     1     -17.571   9.912  35.527  1.00  0.00     0.176 HD
ENDBRANCH   3   5
BRANCH   2   8
HETATM    8  N3  UNL     1     -13.297   9.026  35.080  1.00  0.00    -0.369 N 
ATOM      9  H3  UNL     1     -12.713   8.593  35.795  1.00  0.00     0.161 HD
BRANCH   8  10
HETATM   10  C2  UNL     1     -12.709   9.992  34.182  1.00  0.00     0.220 C 
BRANCH  10  11
HETATM   11  C3  UNL     1     -11.778   9.332  33.221  1.00  0.00     0.248 C 
HETATM   12  N4  UNL     1     -10.526   8.820  33.630  1.00  0.00    -0.061 NA
HETATM   13  O1  UNL     1     -12.070   9.203  32.000  1.00  0.00    -0.275 OA
ENDBRANCH  10  11
ENDBRANCH   8  10
ENDBRANCH   2   8
ENDBRANCH   1   2
BRANCH   1  14
HETATM   14  C5  UNL     1     -14.608   6.984  33.160  1.00  0.00     0.040 C 
BRANCH  14  15
HETATM   15  C6  UNL     1     -15.795   6.633  32.313  1.00  0.00     0.078 C 
BRANCH  15  16
HETATM   16  C7  UNL     1     -15.598   6.864  30.884  1.00  0.00     0.161 C 
HETATM   17  F1  UNL     1     -15.469   8.223  30.547  1.00  0.00    -0.205 F 
HETATM   18  C8  UNL     1     -15.527   6.024  29.913  1.00  0.00     0.301 C 
HETATM   19  F2  UNL     1     -15.628   4.701  30.065  1.00  0.00    -0.170 F 
HETATM   20  F3  UNL     1     -15.333   6.471  28.624  1.00  0.00    -0.170 F 
ENDBRANCH  15  16
ENDBRANCH  14  15
ENDBRANCH   1  14
BRANCH   1  21
HETATM   21  N5  UNL     1     -14.680   6.367  35.547  1.00  0.00    -0.331 N 
HETATM   22  C9  UNL     1     -15.538   5.945  36.608  1.00  0.00     0.319 C 
HETATM   23  O2  UNL     1     -16.720   6.407  36.710  1.00  0.00    -0.247 OA
HETATM   24  N6  UNL     1     -15.126   5.005  37.584  1.00  0.00    -0.332 N 
HETATM   25  C10 UNL     1     -13.773   4.482  37.464  1.00  0.00     0.147 C 
HETATM   26  C14 UNL     1     -16.137   4.697  38.576  1.00  0.00     0.136 C 
HETATM   27  C11 UNL     1     -13.300   3.891  38.781  1.00  0.00     0.142 C 
HETATM   28  N7  UNL     1     -14.069   2.740  39.154  1.00  0.00    -0.359 N 
HETATM   29  C12 UNL     1     -15.415   2.411  38.875  1.00  0.00     0.219 C 
ATOM     30  H7  UNL     1     -13.565   2.049  39.709  1.00  0.00     0.162 HD
HETATM   31  O3  UNL     1     -15.728   1.219  39.115  1.00  0.00    -0.274 OA
HETATM   32  C13 UNL     1     -16.524   3.246  38.341  1.00  0.00     0.122 C 
ATOM     33  H5  UNL     1     -13.738   5.981  35.486  1.00  0.00     0.165 HD
ENDBRANCH   1  21
TORSDOF 9
ENDMDL
MODEL 2
REMARK VINA RESULT: -7.787136962      3.984      8.043
REMARK  9 active torsions:
REMARK  status: ('A' for Active; 'I' for Inactive)
REMARK    1  A    between atoms: N1_1  and  N2_4 
REMARK    2  A    between atoms: C1_6  and  N3_7 
REMARK    3  A    between atoms: C1_6  and  C4_13 
REMARK    4  A    between atoms: N3_7  and  C2_9 
REMARK    5  A    between atoms: C2_9  and  C3_10 
REMARK    6  A    between atoms: C4_13  and  C5_14 
REMARK    7  A    between atoms: C4_13  and  N5_21 
REMARK    8  A    between atoms: C5_14  and  C6_15 
REMARK    9  A    between atoms: C6_15  and  C7_16 
REMARK       I    between atoms: N5_21  and  C9_23 
REMARK       I    between atoms: C9_23  and  N6_25 
ROOT
HETATM    1  C4  UNL     1     -14.868   5.832  36.263  1.00  0.00     0.155 C 
ENDROOT
BRANCH   1   2
HETATM    2  C1  UNL     1     -15.923   5.070  36.968  1.00  0.00     0.115 C 
HETATM    3  N2  UNL     1     -16.909   5.715  37.482  1.00  0.00    -0.294 N 
ATOM      4  H2  UNL     1     -17.650   5.214  37.971  1.00  0.00     0.187 HD
BRANCH   3   5
HETATM    5  N1  UNL     1     -16.959   7.092  37.366  1.00  0.00    -0.344 N 
ATOM      6  H12 UNL     1     -16.653   7.668  38.150  1.00  0.00     0.176 HD
ATOM      7  H11 UNL     1     -17.299   7.513  36.502  1.00  0.00     0.176 HD
ENDBRANCH   3   5
BRANCH   2   8
HETATM    8  N3  UNL     1     -15.907   3.673  37.104  1.00  0.00    -0.369 N 
ATOM      9  H3  UNL     1     -15.089   3.154  36.788  1.00  0.00     0.161 HD
BRANCH   8  10
HETATM   10  C2  UNL     1     -17.018   2.953  37.680  1.00  0.00     0.220 C 
BRANCH  10  11
HETATM   11  C3  UNL     1     -16.616   2.273  38.946  1.00  0.00     0.248 C 
HETATM   12  N4  UNL     1     -15.523   1.378  38.996  1.00  0.00    -0.061 NA
HETATM   13  O1  UNL     1     -17.237   2.467  40.027  1.00  0.00    -0.275 OA
ENDBRANCH  10  11
ENDBRANCH   8  10
ENDBRANCH   2   8
ENDBRANCH   1   2
BRANCH   1  14
HETATM   14  C5  UNL     1     -13.513   5.130  36.355  1.00  0.00     0.040 C 
BRANCH  14  15
HETATM   15  C6  UNL     1     -12.653   5.901  37.311  1.00  0.00     0.078 C 
BRANCH  15  16
HETATM   16  C7  UNL     1     -12.808   5.502  38.709  1.00  0.00     0.161 C 
HETATM   17  F1  UNL     1     -12.792   6.583  39.607  1.00  0.00    -0.205 F 
HETATM   18  C8  UNL     1     -12.953   4.332  39.223  1.00  0.00     0.301 C 
HETATM   19  F2  UNL     1     -12.990   3.205  38.508  1.00  0.00    -0.170 F 
HETATM   20  F3  UNL     1     -13.084   4.188  40.587  1.00  0.00    -0.170 F 
ENDBRANCH  15  16
ENDBRANCH  14  15
ENDBRANCH   1  14
BRANCH   1  21
HETATM   21  N5  UNL     1     -15.292   6.027  34.901  1.00  0.00    -0.331 N 
HETATM   22  C9  UNL     1     -15.496   7.332  34.359  1.00  0.00     0.319 C 
HETATM   23  O2  UNL     1     -15.305   8.369  35.073  1.00  0.00    -0.247 OA
HETATM   24  N6  UNL     1     -15.916   7.538  33.022  1.00  0.00    -0.332 N 
HETATM   25  C10 UNL     1     -16.137   6.349  32.212  1.00  0.00     0.147 C 
HETATM   26  C14 UNL     1     -16.064   8.932  32.654  1.00  0.00     0.136 C 
HETATM   27  C11 UNL     1     -17.015   6.664  31.013  1.00  0.00     0.142 C 
HETATM   28  N7  UNL     1     -16.372   7.570  30.106  1.00  0.00    -0.359 N 
HETATM   29  C12 UNL     1     -15.420   8.585  30.351  1.00  0.00     0.219 C 
ATOM     30  H7  UNL     1     -16.646   7.465  29.129  1.00  0.00     0.162 HD
HETATM   31  O3  UNL     1     -14.853   9.035  29.325  1.00  0.00    -0.274 OA
HETATM   32  C13 UNL     1     -14.978   9.209  31.627  1.00  0.00     0.122 C 
ATOM     33  H5  UNL     1     -15.450   5.211  34.308  1.00  0.00     0.165 HD
ENDBRANCH   1  21
TORSDOF 9
ENDMDL
MODEL 3
REMARK VINA RESULT: -7.746670378      1.204      1.497
REMARK  9 active torsions:
REMARK  status: ('A' for Active; 'I' for Inactive)
REMARK    1  A    between atoms: N1_1  and  N2_4 
REMARK    2  A    between atoms: C1_6  and  N3_7 
REMARK    3  A    between atoms: C1_6  and  C4_13 
REMARK    4  A    between atoms: N3_7  and  C2_9 
REMARK    5  A    between atoms: C2_9  and  C3_10 
REMARK    6  A    between atoms: C4_13  and  C5_14 
REMARK    7  A    between atoms: C4_13  and  N5_21 
REMARK    8  A    between atoms: C5_14  and  C6_15 
REMARK    9  A    between atoms: C6_15  and  C7_16 
REMARK       I    between atoms: N5_21  and  C9_23 
REMARK       I    between atoms: C9_23  and  N6_25 
ROOT
HETATM    1  C4  UNL     1     -15.006   7.328  34.634  1.00  0.00     0.155 C 
ENDROOT
BRANCH   1   2
HETATM    2  C1  UNL     1     -14.503   8.653  35.064  1.00  0.00     0.115 C 
HETATM    3  N2  UNL     1     -15.354   9.572  35.347  1.00  0.00    -0.294 N 
ATOM      4  H2  UNL     1     -15.033  10.492  35.647  1.00  0.00     0.187 HD
BRANCH   3   5
HETATM    5  N1  UNL     1     -16.707   9.307  35.244  1.00  0.00    -0.344 N 
ATOM      6  H12 UNL     1     -17.257   9.795  34.538  1.00  0.00     0.176 HD
ATOM      7  H11 UNL     1     -17.136   8.628  35.873  1.00  0.00     0.176 HD
ENDBRANCH   3   5
BRANCH   2   8
HETATM    8  N3  UNL     1     -13.138   8.959  35.181  1.00  0.00    -0.369 N 
ATOM      9  H3  UNL     1     -12.579   8.471  35.880  1.00  0.00     0.161 HD
BRANCH   8  10
HETATM   10  C2  UNL     1     -12.504   9.946  34.339  1.00  0.00     0.220 C 
BRANCH  10  11
HETATM   11  C3  UNL     1     -11.651   9.295  33.302  1.00  0.00     0.248 C 
HETATM   12  N4  UNL     1     -12.057   9.208  31.951  1.00  0.00    -0.061 NA
HETATM   13  O1  UNL     1     -10.528   8.795  33.589  1.00  0.00    -0.275 OA
ENDBRANCH  10  11
ENDBRANCH   8  10
ENDBRANCH   2   8
ENDBRANCH   1   2
BRANCH   1  14
HETATM   14  C5  UNL     1     -14.517   6.970  33.231  1.00  0.00     0.040 C 
BRANCH  14  15
HETATM   15  C6  UNL     1     -15.467   7.570  32.239  1.00  0.00     0.078 C 
BRANCH  15  16
HETATM   16  C7  UNL     1     -16.329   6.596  31.573  1.00  0.00     0.161 C 
HETATM   17  F1  UNL     1     -15.640   5.754  30.681  1.00  0.00    -0.205 F 
HETATM   18  C8  UNL     1     -17.595   6.401  31.682  1.00  0.00     0.301 C 
HETATM   19  F2  UNL     1     -18.391   7.113  32.484  1.00  0.00    -0.170 F 
HETATM   20  F3  UNL     1     -18.208   5.410  30.947  1.00  0.00    -0.170 F 
ENDBRANCH  15  16
ENDBRANCH  14  15
ENDBRANCH   1  14
BRANCH   1  21
HETATM   21  N5  UNL     1     -14.605   6.358  35.619  1.00  0.00    -0.331 N 
HETATM   22  C9  UNL     1     -15.494   5.924  36.649  1.00  0.00     0.319 C 
HETATM   23  O2  UNL     1     -16.677   6.388  36.724  1.00  0.00    -0.247 OA
HETATM   24  N6  UNL     1     -15.111   4.971  37.625  1.00  0.00    -0.332 N 
HETATM   25  C10 UNL     1     -13.756   4.447  37.537  1.00  0.00     0.147 C 
HETATM   26  C14 UNL     1     -16.151   4.654  38.584  1.00  0.00     0.136 C 
HETATM   27  C11 UNL     1     -13.322   3.839  38.860  1.00  0.00     0.142 C 
HETATM   28  N7  UNL     1     -14.104   2.686  39.197  1.00  0.00    -0.359 N 
HETATM   29  C12 UNL     1     -15.442   2.363  38.875  1.00  0.00     0.219 C 
ATOM     30  H7  UNL     1     -13.617   1.987  39.758  1.00  0.00     0.162 HD
HETATM   31  O3  UNL     1     -15.763   1.169  39.092  1.00  0.00    -0.274 OA
HETATM   32  C13 UNL     1     -16.533   3.206  38.320  1.00  0.00     0.122 C 
ATOM     33  H5  UNL     1     -13.662   5.970  35.579  1.00  0.00     0.165 HD
ENDBRANCH   1  21
TORSDOF 9
ENDMDL
MODEL 4
REMARK VINA RESULT: -7.732404751      3.106      7.220
REMARK  9 active torsions:
REMARK  status: ('A' for Active; 'I' for Inactive)
REMARK    1  A    between atoms: N1_1  and  N2_4 
REMARK    2  A    between atoms: C1_6  and  N3_7 
REMARK    3  A    between atoms: C1_6  and  C4_13 
REMARK    4  A    between atoms: N3_7  and  C2_9 
REMARK    5  A    between atoms: C2_9  and  C3_10 
REMARK    6  A    between atoms: C4_13  and  C5_14 
REMARK    7  A    between atoms: C4_13  and  N5_21 
REMARK    8  A    between atoms: C5_14  and  C6_15 
REMARK    9  A    between atoms: C6_15  and  C7_16 
REMARK       I    between atoms: N5_21  and  C9_23 
REMARK       I    between atoms: C9_23  and  N6_25 
ROOT
HETATM    1  C4  UNL     1     -14.905   7.087  35.910  1.00  0.00     0.155 C 
ENDROOT
BRANCH   1   2
HETATM    2  C1  UNL     1     -15.551   5.984  36.656  1.00  0.00     0.115 C 
HETATM    3  N2  UNL     1     -16.756   6.145  37.073  1.00  0.00    -0.294 N 
ATOM      4  H2  UNL     1     -17.224   5.399  37.588  1.00  0.00     0.187 HD
BRANCH   3   5
HETATM    5  N1  UNL     1     -17.414   7.334  36.819  1.00  0.00    -0.344 N 
ATOM      6  H12 UNL     1     -16.962   8.214  37.064  1.00  0.00     0.176 HD
ATOM      7  H11 UNL     1     -18.339   7.316  36.391  1.00  0.00     0.176 HD
ENDBRANCH   3   5
BRANCH   2   8
HETATM    8  N3  UNL     1     -14.916   4.763  36.932  1.00  0.00    -0.369 N 
ATOM      9  H3  UNL     1     -14.739   4.112  36.167  1.00  0.00     0.161 HD
BRANCH   8  10
HETATM   10  C2  UNL     1     -14.506   4.403  38.269  1.00  0.00     0.220 C 
BRANCH  10  11
HETATM   11  C3  UNL     1     -15.407   3.362  38.843  1.00  0.00     0.248 C 
HETATM   12  N4  UNL     1     -16.697   3.677  39.325  1.00  0.00    -0.061 NA
HETATM   13  O1  UNL     1     -15.053   2.153  38.925  1.00  0.00    -0.275 OA
ENDBRANCH  10  11
ENDBRANCH   8  10
ENDBRANCH   2   8
ENDBRANCH   1   2
BRANCH   1  14
HETATM   14  C5  UNL     1     -13.428   7.224  36.278  1.00  0.00     0.040 C 
BRANCH  14  15
HETATM   15  C6  UNL     1     -12.659   7.502  35.021  1.00  0.00     0.078 C 
BRANCH  15  16
HETATM   16  C7  UNL     1     -12.343   8.914  34.815  1.00  0.00     0.161 C 
HETATM   17  F1  UNL     1     -13.363   9.786  35.236  1.00  0.00    -0.205 F 
HETATM   18  C8  UNL     1     -11.292   9.461  34.316  1.00  0.00     0.301 C 
HETATM   19  F2  UNL     1     -10.236   8.776  33.872  1.00  0.00    -0.170 F 
HETATM   20  F3  UNL     1     -11.208  10.833  34.217  1.00  0.00    -0.170 F 
ENDBRANCH  15  16
ENDBRANCH  14  15
ENDBRANCH   1  14
BRANCH   1  21
HETATM   21  N5  UNL     1     -15.100   6.849  34.504  1.00  0.00    -0.331 N 
HETATM   22  C9  UNL     1     -15.898   7.721  33.700  1.00  0.00     0.319 C 
HETATM   23  O2  UNL     1     -16.461   8.741  34.211  1.00  0.00    -0.247 OA
HETATM   24  N6  UNL     1     -16.100   7.497  32.316  1.00  0.00    -0.332 N 
HETATM   25  C10 UNL     1     -15.456   6.326  31.738  1.00  0.00     0.147 C 
HETATM   26  C14 UNL     1     -16.933   8.491  31.669  1.00  0.00     0.136 C 
HETATM   27  C11 UNL     1     -16.115   5.936  30.426  1.00  0.00     0.142 C 
HETATM   28  N7  UNL     1     -15.936   6.944  29.421  1.00  0.00    -0.359 N 
HETATM   29  C12 UNL     1     -15.787   8.343  29.548  1.00  0.00     0.219 C 
ATOM     30  H7  UNL     1     -15.913   6.594  28.463  1.00  0.00     0.162 HD
HETATM   31  O3  UNL     1     -15.390   8.928  28.510  1.00  0.00    -0.274 OA
HETATM   32  C13 UNL     1     -16.021   9.240  30.711  1.00  0.00     0.122 C 
ATOM     33  H5  UNL     1     -14.658   6.039  34.071  1.00  0.00     0.165 HD
ENDBRANCH   1  21
TORSDOF 9
ENDMDL
MODEL 5
REMARK VINA RESULT: -7.496346324      4.129      7.819
REMARK  9 active torsions:
REMARK  status: ('A' for Active; 'I' for Inactive)
REMARK    1  A    between atoms: N1_1  and  N2_4 
REMARK    2  A    between atoms: C1_6  and  N3_7 
REMARK    3  A    between atoms: C1_6  and  C4_13 
REMARK    4  A    between atoms: N3_7  and  C2_9 
REMARK    5  A    between atoms: C2_9  and  C3_10 
REMARK    6  A    between atoms: C4_13  and  C5_14 
REMARK    7  A    between atoms: C4_13  and  N5_21 
REMARK    8  A    between atoms: C5_14  and  C6_15 
REMARK    9  A    between atoms: C6_15  and  C7_16 
REMARK       I    between atoms: N5_21  and  C9_23 
REMARK       I    between atoms: C9_23  and  N6_25 
ROOT
HETATM    1  C4  UNL     1     -14.450   7.367  35.323  1.00  0.00     0.155 C 
ENDROOT
BRANCH   1   2
HETATM    2  C1  UNL     1     -15.772   6.836  34.918  1.00  0.00     0.115 C 
HETATM    3  N2  UNL     1     -16.788   7.080  35.666  1.00  0.00    -0.294 N 
ATOM      4  H2  UNL     1     -17.710   6.728  35.409  1.00  0.00     0.187 HD
BRANCH   3   5
HETATM    5  N1  UNL     1     -16.624   7.823  36.820  1.00  0.00    -0.344 N 
ATOM      6  H12 UNL     1     -15.721   8.255  37.010  1.00  0.00     0.176 HD
ATOM      7  H11 UNL     1     -17.407   7.929  37.466  1.00  0.00     0.176 HD
ENDBRANCH   3   5
BRANCH   2   8
HETATM    8  N3  UNL     1     -15.977   6.080  33.754  1.00  0.00    -0.369 N 
ATOM      9  H3  UNL     1     -15.670   5.108  33.733  1.00  0.00     0.161 HD
BRANCH   8  10
HETATM   10  C2  UNL     1     -16.611   6.642  32.584  1.00  0.00     0.220 C 
BRANCH  10  11
HETATM   11  C3  UNL     1     -15.750   6.474  31.377  1.00  0.00     0.248 C 
HETATM   12  N4  UNL     1     -15.961   5.428  30.451  1.00  0.00    -0.061 NA
HETATM   13  O1  UNL     1     -14.795   7.262  31.132  1.00  0.00    -0.275 OA
ENDBRANCH  10  11
ENDBRANCH   8  10
ENDBRANCH   2   8
ENDBRANCH   1   2
BRANCH   1  14
HETATM   14  C5  UNL     1     -13.471   6.240  35.653  1.00  0.00     0.040 C 
BRANCH  14  15
HETATM   15  C6  UNL     1     -13.081   6.370  37.095  1.00  0.00     0.078 C 
BRANCH  15  16
HETATM   16  C7  UNL     1     -13.209   5.133  37.862  1.00  0.00     0.161 C 
HETATM   17  F1  UNL     1     -13.496   4.007  37.069  1.00  0.00    -0.205 F 
HETATM   18  C8  UNL     1     -13.099   4.929  39.127  1.00  0.00     0.301 C 
HETATM   19  F2  UNL     1     -12.829   5.889  40.014  1.00  0.00    -0.170 F 
HETATM   20  F3  UNL     1     -13.261   3.660  39.640  1.00  0.00    -0.170 F 
ENDBRANCH  15  16
ENDBRANCH  14  15
ENDBRANCH   1  14
BRANCH   1  21
HETATM   21  N5  UNL     1     -13.969   8.219  34.267  1.00  0.00    -0.331 N 
HETATM   22  C9  UNL     1     -14.556   9.495  34.009  1.00  0.00     0.319 C 
HETATM   23  O2  UNL     1     -15.528   9.918  34.713  1.00  0.00    -0.247 OA
HETATM   24  N6  UNL     1     -14.093  10.342  32.971  1.00  0.00    -0.332 N 
HETATM   25  C10 UNL     1     -12.984   9.852  32.167  1.00  0.00     0.147 C 
HETATM   26  C14 UNL     1     -14.810  11.598  32.867  1.00  0.00     0.136 C 
HETATM   27  C11 UNL     1     -12.905  10.592  30.842  1.00  0.00     0.142 C 
HETATM   28  N7  UNL     1     -12.596  11.979  31.025  1.00  0.00    -0.359 N 
HETATM   29  C12 UNL     1     -12.887  12.846  32.103  1.00  0.00     0.219 C 
ATOM     30  H7  UNL     1     -12.083  12.410  30.255  1.00  0.00     0.162 HD
HETATM   31  O3  UNL     1     -12.263  13.935  32.089  1.00  0.00    -0.274 OA
HETATM   32  C13 UNL     1     -13.814  12.679  33.254  1.00  0.00     0.122 C 
ATOM     33  H5  UNL     1     -13.189   7.903  33.690  1.00  0.00     0.165 HD
ENDBRANCH   1  21
TORSDOF 9
ENDMDL
