MODEL 1
REMARK VINA RESULT: -7.557419395      0.000      0.000
REMARK  17 active torsions:
REMARK  status: ('A' for Active; 'I' for Inactive)
REMARK    1  A    between atoms: C2_2  and  C3_3 
REMARK    2  A    between atoms: C3_3  and  C4_4 
REMARK    3  A    between atoms: C4_4  and  C5_5 
REMARK    4  A    between atoms: C6_6  and  C7_7 
REMARK    5  A    between atoms: C7_7  and  C8_8 
REMARK    6  A    between atoms: C8_8  and  C9_9 
REMARK    7  A    between atoms: C9_9  and  C10_10 
REMARK    8  A    between atoms: C11_12  and  C12_13 
REMARK    9  A    between atoms: C13_14  and  C14_15 
REMARK   10  A    between atoms: C14_15  and  O2_16 
REMARK   11  A    between atoms: C14_15  and  C15_18 
REMARK   12  A    between atoms: C15_18  and  C16_19 
REMARK   13  A    between atoms: C19_22  and  O3_23 
REMARK   14  A    between atoms: C20_25  and  O4_26 
REMARK   15  A    between atoms: C21_28  and  O5_29 
REMARK   16  A    between atoms: C22_31  and  O6_32 
REMARK   17  A    between atoms: C23_34  and  O7_35 
ROOT
HETATM    1  C10 UNL     1      58.495  39.462   8.037  1.00  0.00     0.153 C 
HETATM    2  O1  UNL     1      59.703  40.147   8.387  1.00  0.00    -0.371 OA
HETATM    3  C11 UNL     1      59.241  41.440   8.416  1.00  0.00     0.176 C 
HETATM    4  C22 UNL     1      58.411  41.631   7.161  1.00  0.00     0.182 C 
HETATM    5  C23 UNL     1      58.282  40.175   6.687  1.00  0.00     0.178 C 
ENDROOT
BRANCH   3   6
HETATM    6  C12 UNL     1      60.271  42.482   8.568  1.00  0.00     0.006 C 
HETATM    7  C13 UNL     1      60.565  43.123   9.668  1.00  0.00     0.003 C 
BRANCH   7   8
HETATM    8  C14 UNL     1      59.920  42.930  10.992  1.00  0.00     0.141 C 
BRANCH   8   9
HETATM    9  O2  UNL     1      59.006  43.940  11.278  1.00  0.00    -0.392 OA
ATOM     10  H2  UNL     1      58.214  43.859  10.759  1.00  0.00     0.210 HD
ENDBRANCH   8   9
BRANCH   8  11
HETATM   11  C15 UNL     1      60.921  42.838  12.109  1.00  0.00     0.043 C 
BRANCH  11  12
HETATM   12  C16 UNL     1      60.352  42.945  13.480  1.00  0.00     0.020 C 
HETATM   13  C17 UNL     1      60.685  41.784  14.391  1.00  0.00     0.010 C 
HETATM   14  C18 UNL     1      60.667  42.197  15.848  1.00  0.00     0.035 C 
HETATM   15  C19 UNL     1      59.684  43.324  16.073  1.00  0.00     0.149 C 
HETATM   16  C20 UNL     1      60.192  44.560  15.364  1.00  0.00     0.175 C 
HETATM   17  C21 UNL     1      60.973  44.185  14.125  1.00  0.00     0.153 C 
BRANCH  15  18
HETATM   18  O3  UNL     1      59.571  43.595  17.415  1.00  0.00    -0.393 OA
ATOM     19  H3  UNL     1      59.321  42.809  17.889  1.00  0.00     0.210 HD
ENDBRANCH  15  18
BRANCH  16  20
HETATM   20  O4  UNL     1      59.067  45.273  14.933  1.00  0.00    -0.390 OA
ATOM     21  H4  UNL     1      58.572  45.505  15.711  1.00  0.00     0.210 HD
ENDBRANCH  16  20
BRANCH  17  22
HETATM   22  O5  UNL     1      62.316  43.960  14.382  1.00  0.00    -0.393 OA
ATOM     23  H5  UNL     1      62.683  44.699  14.853  1.00  0.00     0.210 HD
ENDBRANCH  17  22
ENDBRANCH  11  12
ENDBRANCH   8  11
ENDBRANCH   7   8
ENDBRANCH   3   6
BRANCH   4  24
HETATM   24  O6  UNL     1      57.116  42.058   7.450  1.00  0.00    -0.390 OA
ATOM     25  H6  UNL     1      57.069  42.520   8.279  1.00  0.00     0.210 HD
ENDBRANCH   4  24
BRANCH   1  26
HETATM   26  C9  UNL     1      58.750  38.022   7.877  1.00  0.00     0.035 C 
BRANCH  26  27
HETATM   27  C8  UNL     1      59.849  37.666   6.965  1.00  0.00     0.006 C 
BRANCH  27  28
HETATM   28  C7  UNL     1      60.591  36.406   7.098  1.00  0.00     0.027 C 
BRANCH  28  29
HETATM   29  C6  UNL     1      61.863  36.366   7.784  1.00  0.00    -0.031 C 
HETATM   30  C5  UNL     1      62.072  37.066   8.908  1.00  0.00    -0.031 C 
BRANCH  30  31
HETATM   31  C4  UNL     1      63.359  37.049   9.635  1.00  0.00     0.027 C 
BRANCH  31  32
HETATM   32  C3  UNL     1      63.512  38.315  10.413  1.00  0.00     0.003 C 
BRANCH  32  33
HETATM   33  C2  UNL     1      62.345  39.263  10.205  1.00  0.00    -0.004 C 
HETATM   34  C1  UNL     1      61.462  39.352  11.404  1.00  0.00     0.005 C 
ENDBRANCH  32  33
ENDBRANCH  31  32
ENDBRANCH  30  31
ENDBRANCH  28  29
ENDBRANCH  27  28
ENDBRANCH  26  27
ENDBRANCH   1  26
BRANCH   5  35
HETATM   35  O7  UNL     1      57.054  39.926   6.153  1.00  0.00    -0.390 OA
ATOM     36  H7  UNL     1      56.477  40.680   6.199  1.00  0.00     0.210 HD
ENDBRANCH   5  35
TORSDOF 17
ENDMDL
MODEL 2
REMARK VINA RESULT: -7.482566164      3.136      6.164
REMARK  17 active torsions:
REMARK  status: ('A' for Active; 'I' for Inactive)
REMARK    1  A    between atoms: C2_2  and  C3_3 
REMARK    2  A    between atoms: C3_3  and  C4_4 
REMARK    3  A    between atoms: C4_4  and  C5_5 
REMARK    4  A    between atoms: C6_6  and  C7_7 
REMARK    5  A    between atoms: C7_7  and  C8_8 
REMARK    6  A    between atoms: C8_8  and  C9_9 
REMARK    7  A    between atoms: C9_9  and  C10_10 
REMARK    8  A    between atoms: C11_12  and  C12_13 
REMARK    9  A    between atoms: C13_14  and  C14_15 
REMARK   10  A    between atoms: C14_15  and  O2_16 
REMARK   11  A    between atoms: C14_15  and  C15_18 
REMARK   12  A    between atoms: C15_18  and  C16_19 
REMARK   13  A    between atoms: C19_22  and  O3_23 
REMARK   14  A    between atoms: C20_25  and  O4_26 
REMARK   15  A    between atoms: C21_28  and  O5_29 
REMARK   16  A    between atoms: C22_31  and  O6_32 
REMARK   17  A    between atoms: C23_34  and  O7_35 
ROOT
HETATM    1  C10 UNL     1      58.326  40.140   7.477  1.00  0.00     0.153 C 
HETATM    2  O1  UNL     1      58.431  40.018   8.901  1.00  0.00    -0.371 OA
HETATM    3  C11 UNL     1      58.918  38.737   8.992  1.00  0.00     0.176 C 
HETATM    4  C22 UNL     1      58.076  37.886   8.059  1.00  0.00     0.182 C 
HETATM    5  C23 UNL     1      57.329  38.980   7.281  1.00  0.00     0.178 C 
ENDROOT
BRANCH   3   6
HETATM    6  C12 UNL     1      58.985  38.175  10.351  1.00  0.00     0.006 C 
HETATM    7  C13 UNL     1      59.767  38.579  11.317  1.00  0.00     0.003 C 
BRANCH   7   8
HETATM    8  C14 UNL     1      60.750  39.691  11.240  1.00  0.00     0.141 C 
BRANCH   8   9
HETATM    9  O2  UNL     1      62.013  39.244  10.863  1.00  0.00    -0.392 OA
ATOM     10  H2  UNL     1      62.438  39.845  10.263  1.00  0.00     0.210 HD
ENDBRANCH   8   9
BRANCH   8  11
HETATM   11  C15 UNL     1      60.858  40.450  12.532  1.00  0.00     0.043 C 
BRANCH  11  12
HETATM   12  C16 UNL     1      60.206  41.789  12.536  1.00  0.00     0.020 C 
HETATM   13  C17 UNL     1      60.376  42.565  13.824  1.00  0.00     0.010 C 
HETATM   14  C18 UNL     1      60.292  44.059  13.586  1.00  0.00     0.035 C 
HETATM   15  C19 UNL     1      59.395  44.365  12.408  1.00  0.00     0.149 C 
HETATM   16  C20 UNL     1      60.054  43.847  11.149  1.00  0.00     0.175 C 
HETATM   17  C21 UNL     1      60.884  42.618  11.445  1.00  0.00     0.153 C 
BRANCH  15  18
HETATM   18  O3  UNL     1      59.213  45.722  12.290  1.00  0.00    -0.393 OA
ATOM     19  H3  UNL     1      58.353  45.907  11.929  1.00  0.00     0.210 HD
ENDBRANCH  15  18
BRANCH  16  20
HETATM   20  O4  UNL     1      59.026  43.443  10.288  1.00  0.00    -0.390 OA
ATOM     21  H4  UNL     1      59.195  43.851   9.447  1.00  0.00     0.210 HD
ENDBRANCH  16  20
BRANCH  17  22
HETATM   22  O5  UNL     1      62.182  42.923  11.823  1.00  0.00    -0.393 OA
ATOM     23  H5  UNL     1      62.179  43.653  12.431  1.00  0.00     0.210 HD
ENDBRANCH  17  22
ENDBRANCH  11  12
ENDBRANCH   8  11
ENDBRANCH   7   8
ENDBRANCH   3   6
BRANCH   4  24
HETATM   24  O6  UNL     1      58.855  37.211   7.120  1.00  0.00    -0.390 OA
ATOM     25  H6  UNL     1      58.394  37.083   6.300  1.00  0.00     0.210 HD
ENDBRANCH   4  24
BRANCH   1  26
HETATM   26  C9  UNL     1      57.748  41.445   7.116  1.00  0.00     0.035 C 
BRANCH  26  27
HETATM   27  C8  UNL     1      57.765  41.774   5.682  1.00  0.00     0.006 C 
BRANCH  27  28
HETATM   28  C7  UNL     1      56.545  41.749   4.866  1.00  0.00     0.027 C 
BRANCH  28  29
HETATM   29  C6  UNL     1      56.619  41.805   3.424  1.00  0.00    -0.031 C 
HETATM   30  C5  UNL     1      55.854  42.652   2.718  1.00  0.00    -0.031 C 
BRANCH  30  31
HETATM   31  C4  UNL     1      55.904  42.736   1.243  1.00  0.00     0.027 C 
BRANCH  31  32
HETATM   32  C3  UNL     1      56.760  41.635   0.707  1.00  0.00     0.003 C 
BRANCH  32  33
HETATM   33  C2  UNL     1      55.946  40.560   0.011  1.00  0.00    -0.004 C 
HETATM   34  C1  UNL     1      55.911  39.282   0.781  1.00  0.00     0.005 C 
ENDBRANCH  32  33
ENDBRANCH  31  32
ENDBRANCH  30  31
ENDBRANCH  28  29
ENDBRANCH  27  28
ENDBRANCH  26  27
ENDBRANCH   1  26
BRANCH   5  35
HETATM   35  O7  UNL     1      57.168  38.646   5.971  1.00  0.00    -0.390 OA
ATOM     36  H7  UNL     1      56.616  39.264   5.503  1.00  0.00     0.210 HD
ENDBRANCH   5  35
TORSDOF 17
ENDMDL
MODEL 3
REMARK VINA RESULT: -7.429353442      1.393      2.019
REMARK  17 active torsions:
REMARK  status: ('A' for Active; 'I' for Inactive)
REMARK    1  A    between atoms: C2_2  and  C3_3 
REMARK    2  A    between atoms: C3_3  and  C4_4 
REMARK    3  A    between atoms: C4_4  and  C5_5 
REMARK    4  A    between atoms: C6_6  and  C7_7 
REMARK    5  A    between atoms: C7_7  and  C8_8 
REMARK    6  A    between atoms: C8_8  and  C9_9 
REMARK    7  A    between atoms: C9_9  and  C10_10 
REMARK    8  A    between atoms: C11_12  and  C12_13 
REMARK    9  A    between atoms: C13_14  and  C14_15 
REMARK   10  A    between atoms: C14_15  and  O2_16 
REMARK   11  A    between atoms: C14_15  and  C15_18 
REMARK   12  A    between atoms: C15_18  and  C16_19 
REMARK   13  A    between atoms: C19_22  and  O3_23 
REMARK   14  A    between atoms: C20_25  and  O4_26 
REMARK   15  A    between atoms: C21_28  and  O5_29 
REMARK   16  A    between atoms: C22_31  and  O6_32 
REMARK   17  A    between atoms: C23_34  and  O7_35 
ROOT
HETATM    1  C10 UNL     1      58.460  39.434   8.046  1.00  0.00     0.153 C 
HETATM    2  O1  UNL     1      59.642  40.099   8.508  1.00  0.00    -0.371 OA
HETATM    3  C11 UNL     1      59.182  41.393   8.550  1.00  0.00     0.176 C 
HETATM    4  C22 UNL     1      58.445  41.635   7.247  1.00  0.00     0.182 C 
HETATM    5  C23 UNL     1      58.346  40.198   6.711  1.00  0.00     0.178 C 
ENDROOT
BRANCH   3   6
HETATM    6  C12 UNL     1      60.201  42.423   8.815  1.00  0.00     0.006 C 
HETATM    7  C13 UNL     1      60.294  43.160   9.890  1.00  0.00     0.003 C 
BRANCH   7   8
HETATM    8  C14 UNL     1      59.391  43.108  11.068  1.00  0.00     0.141 C 
BRANCH   8   9
HETATM    9  O2  UNL     1      59.173  44.370  11.612  1.00  0.00    -0.392 OA
ATOM     10  H2  UNL     1      58.938  45.008  10.948  1.00  0.00     0.210 HD
ENDBRANCH   8   9
BRANCH   8  11
HETATM   11  C15 UNL     1      59.899  42.186  12.140  1.00  0.00     0.043 C 
BRANCH  11  12
HETATM   12  C16 UNL     1      60.946  42.764  13.027  1.00  0.00     0.020 C 
HETATM   13  C17 UNL     1      60.531  42.911  14.474  1.00  0.00     0.010 C 
HETATM   14  C18 UNL     1      61.727  42.871  15.403  1.00  0.00     0.035 C 
HETATM   15  C19 UNL     1      62.958  43.412  14.712  1.00  0.00     0.149 C 
HETATM   16  C20 UNL     1      63.347  42.463  13.599  1.00  0.00     0.175 C 
HETATM   17  C21 UNL     1      62.124  41.789  13.019  1.00  0.00     0.153 C 
BRANCH  15  18
HETATM   18  O3  UNL     1      64.001  43.504  15.603  1.00  0.00    -0.393 OA
ATOM     19  H3  UNL     1      64.325  42.637  15.820  1.00  0.00     0.210 HD
ENDBRANCH  15  18
BRANCH  16  20
HETATM   20  O4  UNL     1      63.905  43.241  12.577  1.00  0.00    -0.390 OA
ATOM     21  H4  UNL     1      64.757  42.870  12.382  1.00  0.00     0.210 HD
ENDBRANCH  16  20
BRANCH  17  22
HETATM   22  O5  UNL     1      61.780  40.627  13.690  1.00  0.00    -0.393 OA
ATOM     23  H5  UNL     1      62.210  40.603  14.536  1.00  0.00     0.210 HD
ENDBRANCH  17  22
ENDBRANCH  11  12
ENDBRANCH   8  11
ENDBRANCH   7   8
ENDBRANCH   3   6
BRANCH   4  24
HETATM   24  O6  UNL     1      57.134  42.058   7.458  1.00  0.00    -0.390 OA
ATOM     25  H6  UNL     1      57.019  42.979   7.252  1.00  0.00     0.210 HD
ENDBRANCH   4  24
BRANCH   1  26
HETATM   26  C9  UNL     1      58.722  37.999   7.852  1.00  0.00     0.035 C 
BRANCH  26  27
HETATM   27  C8  UNL     1      59.662  37.664   6.771  1.00  0.00     0.006 C 
BRANCH  27  28
HETATM   28  C7  UNL     1      60.725  36.667   6.950  1.00  0.00     0.027 C 
BRANCH  28  29
HETATM   29  C6  UNL     1      61.566  36.686   8.126  1.00  0.00    -0.031 C 
HETATM   30  C5  UNL     1      62.813  36.194   8.100  1.00  0.00    -0.031 C 
BRANCH  30  31
HETATM   31  C4  UNL     1      63.700  36.197   9.283  1.00  0.00     0.027 C 
BRANCH  31  32
HETATM   32  C3  UNL     1      63.070  36.994  10.379  1.00  0.00     0.003 C 
BRANCH  32  33
HETATM   33  C2  UNL     1      63.620  38.406  10.453  1.00  0.00    -0.004 C 
HETATM   34  C1  UNL     1      62.547  39.441  10.391  1.00  0.00     0.005 C 
ENDBRANCH  32  33
ENDBRANCH  31  32
ENDBRANCH  30  31
ENDBRANCH  28  29
ENDBRANCH  27  28
ENDBRANCH  26  27
ENDBRANCH   1  26
BRANCH   5  35
HETATM   35  O7  UNL     1      57.160  39.975   6.082  1.00  0.00    -0.390 OA
ATOM     36  H7  UNL     1      56.830  39.095   6.225  1.00  0.00     0.210 HD
ENDBRANCH   5  35
TORSDOF 17
ENDMDL
MODEL 4
REMARK VINA RESULT: -7.271416638      0.974      1.838
REMARK  17 active torsions:
REMARK  status: ('A' for Active; 'I' for Inactive)
REMARK    1  A    between atoms: C2_2  and  C3_3 
REMARK    2  A    between atoms: C3_3  and  C4_4 
REMARK    3  A    between atoms: C4_4  and  C5_5 
REMARK    4  A    between atoms: C6_6  and  C7_7 
REMARK    5  A    between atoms: C7_7  and  C8_8 
REMARK    6  A    between atoms: C8_8  and  C9_9 
REMARK    7  A    between atoms: C9_9  and  C10_10 
REMARK    8  A    between atoms: C11_12  and  C12_13 
REMARK    9  A    between atoms: C13_14  and  C14_15 
REMARK   10  A    between atoms: C14_15  and  O2_16 
REMARK   11  A    between atoms: C14_15  and  C15_18 
REMARK   12  A    between atoms: C15_18  and  C16_19 
REMARK   13  A    between atoms: C19_22  and  O3_23 
REMARK   14  A    between atoms: C20_25  and  O4_26 
REMARK   15  A    between atoms: C21_28  and  O5_29 
REMARK   16  A    between atoms: C22_31  and  O6_32 
REMARK   17  A    between atoms: C23_34  and  O7_35 
ROOT
HETATM    1  C10 UNL     1      58.350  39.550   8.564  1.00  0.00     0.153 C 
HETATM    2  O1  UNL     1      59.542  40.253   8.934  1.00  0.00    -0.371 OA
HETATM    3  C11 UNL     1      59.132  41.545   8.715  1.00  0.00     0.176 C 
HETATM    4  C22 UNL     1      58.443  41.558   7.364  1.00  0.00     0.182 C 
HETATM    5  C23 UNL     1      58.305  40.049   7.106  1.00  0.00     0.178 C 
ENDROOT
BRANCH   3   6
HETATM    6  C12 UNL     1      60.181  42.573   8.817  1.00  0.00     0.006 C 
HETATM    7  C13 UNL     1      60.488  43.262   9.884  1.00  0.00     0.003 C 
BRANCH   7   8
HETATM    8  C14 UNL     1      59.839  43.147  11.216  1.00  0.00     0.141 C 
BRANCH   8   9
HETATM    9  O2  UNL     1      59.103  44.284  11.535  1.00  0.00    -0.392 OA
ATOM     10  H2  UNL     1      58.372  44.412  10.942  1.00  0.00     0.210 HD
ENDBRANCH   8   9
BRANCH   8  11
HETATM   11  C15 UNL     1      60.829  42.873  12.313  1.00  0.00     0.043 C 
BRANCH  11  12
HETATM   12  C16 UNL     1      60.290  42.992  13.696  1.00  0.00     0.020 C 
HETATM   13  C17 UNL     1      60.631  41.831  14.604  1.00  0.00     0.010 C 
HETATM   14  C18 UNL     1      60.648  42.251  16.060  1.00  0.00     0.035 C 
HETATM   15  C19 UNL     1      59.682  43.389  16.300  1.00  0.00     0.149 C 
HETATM   16  C20 UNL     1      60.187  44.617  15.575  1.00  0.00     0.175 C 
HETATM   17  C21 UNL     1      60.937  44.228  14.321  1.00  0.00     0.153 C 
BRANCH  15  18
HETATM   18  O3  UNL     1      59.600  43.667  17.643  1.00  0.00    -0.393 OA
ATOM     19  H3  UNL     1      58.877  44.260  17.812  1.00  0.00     0.210 HD
ENDBRANCH  15  18
BRANCH  16  20
HETATM   20  O4  UNL     1      59.060  45.339  15.165  1.00  0.00    -0.390 OA
ATOM     21  H4  UNL     1      58.446  44.711  14.802  1.00  0.00     0.210 HD
ENDBRANCH  16  20
BRANCH  17  22
HETATM   22  O5  UNL     1      62.283  43.991  14.551  1.00  0.00    -0.393 OA
ATOM     23  H5  UNL     1      62.622  43.393  13.896  1.00  0.00     0.210 HD
ENDBRANCH  17  22
ENDBRANCH  11  12
ENDBRANCH   8  11
ENDBRANCH   7   8
ENDBRANCH   3   6
BRANCH   4  24
HETATM   24  O6  UNL     1      57.143  42.055   7.443  1.00  0.00    -0.390 OA
ATOM     25  H6  UNL     1      57.090  42.827   7.996  1.00  0.00     0.210 HD
ENDBRANCH   4  24
BRANCH   1  26
HETATM   26  C9  UNL     1      58.562  38.097   8.654  1.00  0.00     0.035 C 
BRANCH  26  27
HETATM   27  C8  UNL     1      57.876  37.420   9.766  1.00  0.00     0.006 C 
BRANCH  27  28
HETATM   28  C7  UNL     1      58.360  37.514  11.149  1.00  0.00     0.027 C 
BRANCH  28  29
HETATM   29  C6  UNL     1      59.755  37.770  11.427  1.00  0.00    -0.031 C 
HETATM   30  C5  UNL     1      60.158  38.932  11.963  1.00  0.00    -0.031 C 
BRANCH  30  31
HETATM   31  C4  UNL     1      61.575  39.228  12.261  1.00  0.00     0.027 C 
BRANCH  31  32
HETATM   32  C3  UNL     1      62.275  39.639  11.007  1.00  0.00     0.003 C 
BRANCH  32  33
HETATM   33  C2  UNL     1      63.353  38.651  10.599  1.00  0.00    -0.004 C 
HETATM   34  C1  UNL     1      62.853  37.625   9.639  1.00  0.00     0.005 C 
ENDBRANCH  32  33
ENDBRANCH  31  32
ENDBRANCH  30  31
ENDBRANCH  28  29
ENDBRANCH  27  28
ENDBRANCH  26  27
ENDBRANCH   1  26
BRANCH   5  35
HETATM   35  O7  UNL     1      57.130  39.750   6.487  1.00  0.00    -0.390 OA
ATOM     36  H7  UNL     1      57.251  39.491   5.581  1.00  0.00     0.210 HD
ENDBRANCH   5  35
TORSDOF 17
ENDMDL
MODEL 5
REMARK VINA RESULT: -7.242500684      1.210      1.904
REMARK  17 active torsions:
REMARK  status: ('A' for Active; 'I' for Inactive)
REMARK    1  A    between atoms: C2_2  and  C3_3 
REMARK    2  A    between atoms: C3_3  and  C4_4 
REMARK    3  A    between atoms: C4_4  and  C5_5 
REMARK    4  A    between atoms: C6_6  and  C7_7 
REMARK    5  A    between atoms: C7_7  and  C8_8 
REMARK    6  A    between atoms: C8_8  and  C9_9 
REMARK    7  A    between atoms: C9_9  and  C10_10 
REMARK    8  A    between atoms: C11_12  and  C12_13 
REMARK    9  A    between atoms: C13_14  and  C14_15 
REMARK   10  A    between atoms: C14_15  and  O2_16 
REMARK   11  A    between atoms: C14_15  and  C15_18 
REMARK   12  A    between atoms: C15_18  and  C16_19 
REMARK   13  A    between atoms: C19_22  and  O3_23 
REMARK   14  A    between atoms: C20_25  and  O4_26 
REMARK   15  A    between atoms: C21_28  and  O5_29 
REMARK   16  A    between atoms: C22_31  and  O6_32 
REMARK   17  A    between atoms: C23_34  and  O7_35 
ROOT
HETATM    1  C10 UNL     1      58.541  39.615   8.526  1.00  0.00     0.153 C 
HETATM    2  O1  UNL     1      59.716  40.332   8.924  1.00  0.00    -0.371 OA
HETATM    3  C11 UNL     1      59.266  41.621   8.780  1.00  0.00     0.176 C 
HETATM    4  C22 UNL     1      58.564  41.688   7.438  1.00  0.00     0.182 C 
HETATM    5  C23 UNL     1      58.467  40.193   7.098  1.00  0.00     0.178 C 
ENDROOT
BRANCH   3   6
HETATM    6  C12 UNL     1      60.286  42.673   8.930  1.00  0.00     0.006 C 
HETATM    7  C13 UNL     1      60.540  43.354  10.017  1.00  0.00     0.003 C 
BRANCH   7   8
HETATM    8  C14 UNL     1      59.852  43.204  11.324  1.00  0.00     0.141 C 
BRANCH   8   9
HETATM    9  O2  UNL     1      59.145  44.351  11.675  1.00  0.00    -0.392 OA
ATOM     10  H2  UNL     1      58.271  44.356  11.305  1.00  0.00     0.210 HD
ENDBRANCH   8   9
BRANCH   8  11
HETATM   11  C15 UNL     1      60.801  42.848  12.434  1.00  0.00     0.043 C 
BRANCH  11  12
HETATM   12  C16 UNL     1      60.257  43.012  13.810  1.00  0.00     0.020 C 
HETATM   13  C17 UNL     1      60.584  41.875  14.753  1.00  0.00     0.010 C 
HETATM   14  C18 UNL     1      60.597  42.337  16.196  1.00  0.00     0.035 C 
HETATM   15  C19 UNL     1      59.639  43.489  16.398  1.00  0.00     0.149 C 
HETATM   16  C20 UNL     1      60.158  44.691  15.641  1.00  0.00     0.175 C 
HETATM   17  C21 UNL     1      60.911  44.260  14.403  1.00  0.00     0.153 C 
BRANCH  15  18
HETATM   18  O3  UNL     1      59.553  43.806  17.733  1.00  0.00    -0.393 OA
ATOM     19  H3  UNL     1      59.193  44.679  17.840  1.00  0.00     0.210 HD
ENDBRANCH  15  18
BRANCH  16  20
HETATM   20  O4  UNL     1      59.039  45.411  15.204  1.00  0.00    -0.390 OA
ATOM     21  H4  UNL     1      58.290  45.074  15.682  1.00  0.00     0.210 HD
ENDBRANCH  16  20
BRANCH  17  22
HETATM   22  O5  UNL     1      62.254  44.019  14.646  1.00  0.00    -0.393 OA
ATOM     23  H5  UNL     1      62.690  43.775  13.838  1.00  0.00     0.210 HD
ENDBRANCH  17  22
ENDBRANCH  11  12
ENDBRANCH   8  11
ENDBRANCH   7   8
ENDBRANCH   3   6
BRANCH   4  24
HETATM   24  O6  UNL     1      57.250  42.141   7.556  1.00  0.00    -0.390 OA
ATOM     25  H6  UNL     1      56.648  41.437   7.765  1.00  0.00     0.210 HD
ENDBRANCH   4  24
BRANCH   1  26
HETATM   26  C9  UNL     1      58.797  38.166   8.533  1.00  0.00     0.035 C 
BRANCH  26  27
HETATM   27  C8  UNL     1      60.199  37.768   8.738  1.00  0.00     0.006 C 
BRANCH  27  28
HETATM   28  C7  UNL     1      60.943  37.002   7.730  1.00  0.00     0.027 C 
BRANCH  28  29
HETATM   29  C6  UNL     1      62.209  36.386   8.056  1.00  0.00    -0.031 C 
HETATM   30  C5  UNL     1      62.905  36.753   9.142  1.00  0.00    -0.031 C 
BRANCH  30  31
HETATM   31  C4  UNL     1      64.202  36.145   9.506  1.00  0.00     0.027 C 
BRANCH  31  32
HETATM   32  C3  UNL     1      64.542  35.068   8.527  1.00  0.00     0.003 C 
BRANCH  32  33
HETATM   33  C2  UNL     1      66.026  34.751   8.511  1.00  0.00    -0.004 C 
HETATM   34  C1  UNL     1      66.831  35.752   9.270  1.00  0.00     0.005 C 
ENDBRANCH  32  33
ENDBRANCH  31  32
ENDBRANCH  30  31
ENDBRANCH  28  29
ENDBRANCH  27  28
ENDBRANCH  26  27
ENDBRANCH   1  26
BRANCH   5  35
HETATM   35  O7  UNL     1      57.295  39.893   6.473  1.00  0.00    -0.390 OA
ATOM     36  H7  UNL     1      57.379  39.160   5.873  1.00  0.00     0.210 HD
ENDBRANCH   5  35
TORSDOF 17
ENDMDL
