MODEL 1
REMARK VINA RESULT: -6.445947104      0.000      0.000
REMARK  16 active torsions:
REMARK  status: ('A' for Active; 'I' for Inactive)
REMARK    1  A    between atoms: C2_2  and  C3_3 
REMARK    2  A    between atoms: C3_3  and  C4_4 
REMARK    3  A    between atoms: C4_4  and  C5_5 
REMARK    4  A    between atoms: C5_5  and  C6_6 
REMARK    5  A    between atoms: C6_6  and  C7_7 
REMARK    6  A    between atoms: C7_7  and  C8_8 
REMARK    7  A    between atoms: C8_8  and  C9_9 
REMARK    8  A    between atoms: C9_9  and  C10_10 
REMARK    9  A    between atoms: C10_10  and  C11_11 
REMARK   10  A    between atoms: C11_11  and  C12_12 
REMARK   11  A    between atoms: C13_13  and  O1_14 
REMARK   12  A    between atoms: C14_16  and  O2_17 
REMARK   13  A    between atoms: C15_19  and  O3_20 
REMARK   14  A    between atoms: S1_22  and  C16_23 
REMARK   15  A    between atoms: C19_27  and  O5_28 
REMARK   16  A    between atoms: C20_30  and  O6_31 
ROOT
HETATM    1  C12 UNL     1      59.663  42.455  11.686  1.00  0.00     0.074 C 
HETATM    2  C13 UNL     1      59.805  43.858  11.295  1.00  0.00     0.163 C 
HETATM    3  C14 UNL     1      59.386  44.693  12.507  1.00  0.00     0.186 C 
HETATM    4  C15 UNL     1      60.200  44.217  13.658  1.00  0.00     0.204 C 
HETATM    5  S1  UNL     1      60.304  42.471  13.362  1.00  0.00    -0.150 SA
ENDROOT
BRANCH   1   6
HETATM    6  C11 UNL     1      60.225  41.366  10.897  1.00  0.00     0.017 C 
BRANCH   6   7
HETATM    7  C10 UNL     1      59.550  40.986   9.645  1.00  0.00     0.001 C 
BRANCH   7   8
HETATM    8  C9  UNL     1      59.756  41.756   8.409  1.00  0.00     0.000 C 
BRANCH   8   9
HETATM    9  C8  UNL     1      58.837  41.279   7.283  1.00  0.00     0.000 C 
BRANCH   9  10
HETATM   10  C7  UNL     1      58.173  39.951   7.623  1.00  0.00     0.000 C 
BRANCH  10  11
HETATM   11  C6  UNL     1      58.704  38.891   6.701  1.00  0.00     0.000 C 
BRANCH  11  12
HETATM   12  C5  UNL     1      59.187  37.699   7.482  1.00  0.00     0.000 C 
BRANCH  12  13
HETATM   13  C4  UNL     1      60.427  37.157   6.850  1.00  0.00     0.000 C 
BRANCH  13  14
HETATM   14  C3  UNL     1      61.493  36.837   7.913  1.00  0.00    -0.000 C 
BRANCH  14  15
HETATM   15  C2  UNL     1      61.079  37.580   9.160  1.00  0.00    -0.005 C 
HETATM   16  C1  UNL     1      62.251  38.377   9.714  1.00  0.00     0.005 C 
ENDBRANCH  14  15
ENDBRANCH  13  14
ENDBRANCH  12  13
ENDBRANCH  11  12
ENDBRANCH  10  11
ENDBRANCH   9  10
ENDBRANCH   8   9
ENDBRANCH   7   8
ENDBRANCH   6   7
ENDBRANCH   1   6
BRANCH   2  17
HETATM   17  O1  UNL     1      61.068  44.238  10.866  1.00  0.00    -0.392 OA
ATOM     18  H1  UNL     1      61.147  44.435   9.939  1.00  0.00     0.210 HD
ENDBRANCH   2  17
BRANCH   5  19
HETATM   19  C16 UNL     1      61.980  41.985  13.458  1.00  0.00     0.208 C 
HETATM   20  O4  UNL     1      62.294  41.151  14.497  1.00  0.00    -0.366 OA
HETATM   21  C17 UNL     1      63.475  41.541  15.065  1.00  0.00     0.150 C 
HETATM   22  C18 UNL     1      64.636  40.954  14.322  1.00  0.00     0.042 C 
HETATM   23  C19 UNL     1      63.512  43.045  14.899  1.00  0.00     0.178 C 
HETATM   24  C20 UNL     1      62.831  43.213  13.557  1.00  0.00     0.187 C 
BRANCH  23  25
HETATM   25  O5  UNL     1      64.847  43.458  14.847  1.00  0.00    -0.390 OA
ATOM     26  H5  UNL     1      64.911  44.330  15.219  1.00  0.00     0.210 HD
ENDBRANCH  23  25
BRANCH  24  27
HETATM   27  O6  UNL     1      63.793  43.290  12.561  1.00  0.00    -0.390 OA
ATOM     28  H6  UNL     1      64.415  42.573  12.588  1.00  0.00     0.210 HD
ENDBRANCH  24  27
ENDBRANCH   5  19
BRANCH   3  29
HETATM   29  O2  UNL     1      59.714  46.032  12.267  1.00  0.00    -0.390 OA
ATOM     30  H2  UNL     1      60.014  46.423  13.079  1.00  0.00     0.210 HD
ENDBRANCH   3  29
BRANCH   4  31
HETATM   31  O3  UNL     1      59.527  44.477  14.872  1.00  0.00    -0.383 OA
ATOM     32  H3  UNL     1      59.518  43.697  15.415  1.00  0.00     0.211 HD
ENDBRANCH   4  31
TORSDOF 16
ENDMDL
MODEL 2
REMARK VINA RESULT: -6.397303225      1.120      2.440
REMARK  16 active torsions:
REMARK  status: ('A' for Active; 'I' for Inactive)
REMARK    1  A    between atoms: C2_2  and  C3_3 
REMARK    2  A    between atoms: C3_3  and  C4_4 
REMARK    3  A    between atoms: C4_4  and  C5_5 
REMARK    4  A    between atoms: C5_5  and  C6_6 
REMARK    5  A    between atoms: C6_6  and  C7_7 
REMARK    6  A    between atoms: C7_7  and  C8_8 
REMARK    7  A    between atoms: C8_8  and  C9_9 
REMARK    8  A    between atoms: C9_9  and  C10_10 
REMARK    9  A    between atoms: C10_10  and  C11_11 
REMARK   10  A    between atoms: C11_11  and  C12_12 
REMARK   11  A    between atoms: C13_13  and  O1_14 
REMARK   12  A    between atoms: C14_16  and  O2_17 
REMARK   13  A    between atoms: C15_19  and  O3_20 
REMARK   14  A    between atoms: S1_22  and  C16_23 
REMARK   15  A    between atoms: C19_27  and  O5_28 
REMARK   16  A    between atoms: C20_30  and  O6_31 
ROOT
HETATM    1  C12 UNL     1      59.675  42.222  11.191  1.00  0.00     0.074 C 
HETATM    2  C13 UNL     1      59.876  43.649  10.932  1.00  0.00     0.163 C 
HETATM    3  C14 UNL     1      59.606  44.373  12.252  1.00  0.00     0.186 C 
HETATM    4  C15 UNL     1      60.474  43.735  13.279  1.00  0.00     0.204 C 
HETATM    5  S1  UNL     1      60.443  42.026  12.801  1.00  0.00    -0.150 SA
ENDROOT
BRANCH   1   6
HETATM    6  C11 UNL     1      60.105  41.193  10.253  1.00  0.00     0.017 C 
BRANCH   6   7
HETATM    7  C10 UNL     1      59.663  39.806  10.482  1.00  0.00     0.001 C 
BRANCH   7   8
HETATM    8  C9  UNL     1      60.632  38.701  10.536  1.00  0.00     0.000 C 
BRANCH   8   9
HETATM    9  C8  UNL     1      61.935  39.054   9.818  1.00  0.00     0.000 C 
BRANCH   9  10
HETATM   10  C7  UNL     1      63.040  38.056  10.135  1.00  0.00     0.000 C 
BRANCH  10  11
HETATM   11  C6  UNL     1      62.568  36.675   9.780  1.00  0.00     0.000 C 
BRANCH  11  12
HETATM   12  C5  UNL     1      62.720  36.424   8.304  1.00  0.00     0.000 C 
BRANCH  12  13
HETATM   13  C4  UNL     1      61.453  35.848   7.763  1.00  0.00     0.000 C 
BRANCH  13  14
HETATM   14  C3  UNL     1      60.794  36.812   6.760  1.00  0.00    -0.000 C 
BRANCH  14  15
HETATM   15  C2  UNL     1      59.490  37.243   7.388  1.00  0.00    -0.005 C 
HETATM   16  C1  UNL     1      59.122  38.647   6.930  1.00  0.00     0.005 C 
ENDBRANCH  14  15
ENDBRANCH  13  14
ENDBRANCH  12  13
ENDBRANCH  11  12
ENDBRANCH  10  11
ENDBRANCH   9  10
ENDBRANCH   8   9
ENDBRANCH   7   8
ENDBRANCH   6   7
ENDBRANCH   1   6
BRANCH   2  17
HETATM   17  O1  UNL     1      61.124  44.001  10.440  1.00  0.00    -0.392 OA
ATOM     18  H1  UNL     1      61.449  43.471   9.721  1.00  0.00     0.210 HD
ENDBRANCH   2  17
BRANCH   5  19
HETATM   19  C16 UNL     1      62.086  41.441  12.709  1.00  0.00     0.208 C 
HETATM   20  O4  UNL     1      62.316  40.231  13.306  1.00  0.00    -0.366 OA
HETATM   21  C17 UNL     1      63.492  40.273  14.003  1.00  0.00     0.150 C 
HETATM   22  C18 UNL     1      64.650  39.978  13.100  1.00  0.00     0.042 C 
HETATM   23  C19 UNL     1      63.612  41.702  14.483  1.00  0.00     0.178 C 
HETATM   24  C20 UNL     1      62.994  42.458  13.326  1.00  0.00     0.187 C 
BRANCH  23  25
HETATM   25  O5  UNL     1      64.967  42.014  14.630  1.00  0.00    -0.390 OA
ATOM     26  H5  UNL     1      65.046  42.933  14.857  1.00  0.00     0.210 HD
ENDBRANCH  23  25
BRANCH  24  27
HETATM   27  O6  UNL     1      63.997  42.884  12.468  1.00  0.00    -0.390 OA
ATOM     28  H6  UNL     1      64.665  42.225  12.321  1.00  0.00     0.210 HD
ENDBRANCH  24  27
ENDBRANCH   5  19
BRANCH   3  29
HETATM   29  O2  UNL     1      59.999  45.710  12.121  1.00  0.00    -0.390 OA
ATOM     30  H2  UNL     1      59.360  46.260  12.558  1.00  0.00     0.210 HD
ENDBRANCH   3  29
BRANCH   4  31
HETATM   31  O3  UNL     1      59.913  43.903  14.564  1.00  0.00    -0.383 OA
ATOM     32  H3  UNL     1      60.482  43.520  15.222  1.00  0.00     0.211 HD
ENDBRANCH   4  31
TORSDOF 16
ENDMDL
MODEL 3
REMARK VINA RESULT: -6.376659728      1.058      1.442
REMARK  16 active torsions:
REMARK  status: ('A' for Active; 'I' for Inactive)
REMARK    1  A    between atoms: C2_2  and  C3_3 
REMARK    2  A    between atoms: C3_3  and  C4_4 
REMARK    3  A    between atoms: C4_4  and  C5_5 
REMARK    4  A    between atoms: C5_5  and  C6_6 
REMARK    5  A    between atoms: C6_6  and  C7_7 
REMARK    6  A    between atoms: C7_7  and  C8_8 
REMARK    7  A    between atoms: C8_8  and  C9_9 
REMARK    8  A    between atoms: C9_9  and  C10_10 
REMARK    9  A    between atoms: C10_10  and  C11_11 
REMARK   10  A    between atoms: C11_11  and  C12_12 
REMARK   11  A    between atoms: C13_13  and  O1_14 
REMARK   12  A    between atoms: C14_16  and  O2_17 
REMARK   13  A    between atoms: C15_19  and  O3_20 
REMARK   14  A    between atoms: S1_22  and  C16_23 
REMARK   15  A    between atoms: C19_27  and  O5_28 
REMARK   16  A    between atoms: C20_30  and  O6_31 
ROOT
HETATM    1  C12 UNL     1      59.608  42.222  11.122  1.00  0.00     0.074 C 
HETATM    2  C13 UNL     1      59.854  43.646  10.886  1.00  0.00     0.163 C 
HETATM    3  C14 UNL     1      59.637  44.353  12.226  1.00  0.00     0.186 C 
HETATM    4  C15 UNL     1      60.503  43.664  13.221  1.00  0.00     0.204 C 
HETATM    5  S1  UNL     1      60.402  41.968  12.712  1.00  0.00    -0.150 SA
ENDROOT
BRANCH   1   6
HETATM    6  C11 UNL     1      59.982  41.198  10.156  1.00  0.00     0.017 C 
BRANCH   6   7
HETATM    7  C10 UNL     1      59.497  41.329   8.771  1.00  0.00     0.001 C 
BRANCH   7   8
HETATM    8  C9  UNL     1      58.868  40.194   8.078  1.00  0.00     0.000 C 
BRANCH   8   9
HETATM    9  C8  UNL     1      58.581  39.035   9.032  1.00  0.00     0.000 C 
BRANCH   9  10
HETATM   10  C7  UNL     1      58.950  37.693   8.414  1.00  0.00     0.000 C 
BRANCH  10  11
HETATM   11  C6  UNL     1      59.636  37.933   7.099  1.00  0.00     0.000 C 
BRANCH  11  12
HETATM   12  C5  UNL     1      60.635  36.845   6.813  1.00  0.00     0.000 C 
BRANCH  12  13
HETATM   13  C4  UNL     1      61.126  36.267   8.100  1.00  0.00     0.000 C 
BRANCH  13  14
HETATM   14  C3  UNL     1      62.651  36.425   8.230  1.00  0.00    -0.000 C 
BRANCH  14  15
HETATM   15  C2  UNL     1      62.903  36.930   9.630  1.00  0.00    -0.005 C 
HETATM   16  C1  UNL     1      62.340  38.334   9.795  1.00  0.00     0.005 C 
ENDBRANCH  14  15
ENDBRANCH  13  14
ENDBRANCH  12  13
ENDBRANCH  11  12
ENDBRANCH  10  11
ENDBRANCH   9  10
ENDBRANCH   8   9
ENDBRANCH   7   8
ENDBRANCH   6   7
ENDBRANCH   1   6
BRANCH   2  17
HETATM   17  O1  UNL     1      61.103  43.964  10.374  1.00  0.00    -0.392 OA
ATOM     18  H1  UNL     1      61.842  43.775  10.942  1.00  0.00     0.210 HD
ENDBRANCH   2  17
BRANCH   5  19
HETATM   19  C16 UNL     1      62.022  41.327  12.573  1.00  0.00     0.208 C 
HETATM   20  O4  UNL     1      62.206  40.072  13.086  1.00  0.00    -0.366 OA
HETATM   21  C17 UNL     1      63.383  40.022  13.779  1.00  0.00     0.150 C 
HETATM   22  C18 UNL     1      64.528  39.744  12.853  1.00  0.00     0.042 C 
HETATM   23  C19 UNL     1      63.559  41.411  14.354  1.00  0.00     0.178 C 
HETATM   24  C20 UNL     1      62.969  42.266  13.253  1.00  0.00     0.187 C 
BRANCH  23  25
HETATM   25  O5  UNL     1      64.926  41.660  14.515  1.00  0.00    -0.390 OA
ATOM     26  H5  UNL     1      65.329  41.718  13.656  1.00  0.00     0.210 HD
ENDBRANCH  23  25
BRANCH  24  27
HETATM   27  O6  UNL     1      63.987  42.709  12.421  1.00  0.00    -0.390 OA
ATOM     28  H6  UNL     1      64.584  42.018  12.162  1.00  0.00     0.210 HD
ENDBRANCH  24  27
ENDBRANCH   5  19
BRANCH   3  29
HETATM   29  O2  UNL     1      60.075  45.678  12.112  1.00  0.00    -0.390 OA
ATOM     30  H2  UNL     1      60.088  46.070  12.977  1.00  0.00     0.210 HD
ENDBRANCH   3  29
BRANCH   4  31
HETATM   31  O3  UNL     1      59.976  43.826  14.521  1.00  0.00    -0.383 OA
ATOM     32  H3  UNL     1      60.202  43.078  15.062  1.00  0.00     0.211 HD
ENDBRANCH   4  31
TORSDOF 16
ENDMDL
MODEL 4
REMARK VINA RESULT: -6.340573358      0.705      1.048
REMARK  16 active torsions:
REMARK  status: ('A' for Active; 'I' for Inactive)
REMARK    1  A    between atoms: C2_2  and  C3_3 
REMARK    2  A    between atoms: C3_3  and  C4_4 
REMARK    3  A    between atoms: C4_4  and  C5_5 
REMARK    4  A    between atoms: C5_5  and  C6_6 
REMARK    5  A    between atoms: C6_6  and  C7_7 
REMARK    6  A    between atoms: C7_7  and  C8_8 
REMARK    7  A    between atoms: C8_8  and  C9_9 
REMARK    8  A    between atoms: C9_9  and  C10_10 
REMARK    9  A    between atoms: C10_10  and  C11_11 
REMARK   10  A    between atoms: C11_11  and  C12_12 
REMARK   11  A    between atoms: C13_13  and  O1_14 
REMARK   12  A    between atoms: C14_16  and  O2_17 
REMARK   13  A    between atoms: C15_19  and  O3_20 
REMARK   14  A    between atoms: S1_22  and  C16_23 
REMARK   15  A    between atoms: C19_27  and  O5_28 
REMARK   16  A    between atoms: C20_30  and  O6_31 
ROOT
HETATM    1  C12 UNL     1      59.850  42.441  11.627  1.00  0.00     0.074 C 
HETATM    2  C13 UNL     1      60.093  43.808  11.164  1.00  0.00     0.163 C 
HETATM    3  C14 UNL     1      59.578  44.739  12.265  1.00  0.00     0.186 C 
HETATM    4  C15 UNL     1      60.240  44.316  13.528  1.00  0.00     0.204 C 
HETATM    5  S1  UNL     1      60.303  42.551  13.360  1.00  0.00    -0.150 SA
ENDROOT
BRANCH   1   6
HETATM    6  C11 UNL     1      60.449  41.282  10.979  1.00  0.00     0.017 C 
BRANCH   6   7
HETATM    7  C10 UNL     1      60.183  41.062   9.547  1.00  0.00     0.001 C 
BRANCH   7   8
HETATM    8  C9  UNL     1      59.186  40.076   9.105  1.00  0.00     0.000 C 
BRANCH   8   9
HETATM    9  C8  UNL     1      58.677  40.376   7.694  1.00  0.00     0.000 C 
BRANCH   9  10
HETATM   10  C7  UNL     1      58.720  39.140   6.805  1.00  0.00     0.000 C 
BRANCH  10  11
HETATM   11  C6  UNL     1      59.369  38.017   7.563  1.00  0.00     0.000 C 
BRANCH  11  12
HETATM   12  C5  UNL     1      60.297  37.239   6.670  1.00  0.00     0.000 C 
BRANCH  12  13
HETATM   13  C4  UNL     1      61.317  36.534   7.504  1.00  0.00     0.000 C 
BRANCH  13  14
HETATM   14  C3  UNL     1      61.616  37.322   8.792  1.00  0.00    -0.000 C 
BRANCH  14  15
HETATM   15  C2  UNL     1      62.990  36.885   9.241  1.00  0.00    -0.005 C 
HETATM   16  C1  UNL     1      63.488  35.737   8.376  1.00  0.00     0.005 C 
ENDBRANCH  14  15
ENDBRANCH  13  14
ENDBRANCH  12  13
ENDBRANCH  11  12
ENDBRANCH  10  11
ENDBRANCH   9  10
ENDBRANCH   8   9
ENDBRANCH   7   8
ENDBRANCH   6   7
ENDBRANCH   1   6
BRANCH   2  17
HETATM   17  O1  UNL     1      61.410  44.114  10.856  1.00  0.00    -0.392 OA
ATOM     18  H1  UNL     1      61.772  43.664  10.101  1.00  0.00     0.210 HD
ENDBRANCH   2  17
BRANCH   5  19
HETATM   19  C16 UNL     1      61.936  42.016  13.675  1.00  0.00     0.208 C 
HETATM   20  O4  UNL     1      62.124  41.361  14.862  1.00  0.00    -0.366 OA
HETATM   21  C17 UNL     1      63.280  41.792  15.452  1.00  0.00     0.150 C 
HETATM   22  C18 UNL     1      64.457  41.034  14.919  1.00  0.00     0.042 C 
HETATM   23  C19 UNL     1      63.415  43.240  15.039  1.00  0.00     0.178 C 
HETATM   24  C20 UNL     1      62.847  43.204  13.636  1.00  0.00     0.187 C 
BRANCH  23  25
HETATM   25  O5  UNL     1      64.772  43.579  15.030  1.00  0.00    -0.390 OA
ATOM     26  H5  UNL     1      65.095  43.521  14.138  1.00  0.00     0.210 HD
ENDBRANCH  23  25
BRANCH  24  27
HETATM   27  O6  UNL     1      63.883  43.065  12.724  1.00  0.00    -0.390 OA
ATOM     28  H6  UNL     1      63.618  43.241  11.829  1.00  0.00     0.210 HD
ENDBRANCH  24  27
ENDBRANCH   5  19
BRANCH   3  29
HETATM   29  O2  UNL     1      59.986  46.046  11.976  1.00  0.00    -0.390 OA
ATOM     30  H2  UNL     1      59.732  46.611  12.696  1.00  0.00     0.210 HD
ENDBRANCH   3  29
BRANCH   4  31
HETATM   31  O3  UNL     1      59.449  44.682  14.639  1.00  0.00    -0.383 OA
ATOM     32  H3  UNL     1      59.493  45.621  14.778  1.00  0.00     0.211 HD
ENDBRANCH   4  31
TORSDOF 16
ENDMDL
MODEL 5
REMARK VINA RESULT: -6.321786234      2.481      3.900
REMARK  16 active torsions:
REMARK  status: ('A' for Active; 'I' for Inactive)
REMARK    1  A    between atoms: C2_2  and  C3_3 
REMARK    2  A    between atoms: C3_3  and  C4_4 
REMARK    3  A    between atoms: C4_4  and  C5_5 
REMARK    4  A    between atoms: C5_5  and  C6_6 
REMARK    5  A    between atoms: C6_6  and  C7_7 
REMARK    6  A    between atoms: C7_7  and  C8_8 
REMARK    7  A    between atoms: C8_8  and  C9_9 
REMARK    8  A    between atoms: C9_9  and  C10_10 
REMARK    9  A    between atoms: C10_10  and  C11_11 
REMARK   10  A    between atoms: C11_11  and  C12_12 
REMARK   11  A    between atoms: C13_13  and  O1_14 
REMARK   12  A    between atoms: C14_16  and  O2_17 
REMARK   13  A    between atoms: C15_19  and  O3_20 
REMARK   14  A    between atoms: S1_22  and  C16_23 
REMARK   15  A    between atoms: C19_27  and  O5_28 
REMARK   16  A    between atoms: C20_30  and  O6_31 
ROOT
HETATM    1  C12 UNL     1      59.570  42.376  11.292  1.00  0.00     0.074 C 
HETATM    2  C13 UNL     1      59.778  43.804  11.039  1.00  0.00     0.163 C 
HETATM    3  C14 UNL     1      59.526  44.522  12.367  1.00  0.00     0.186 C 
HETATM    4  C15 UNL     1      60.400  43.871  13.381  1.00  0.00     0.204 C 
HETATM    5  S1  UNL     1      60.354  42.166  12.893  1.00  0.00    -0.150 SA
ENDROOT
BRANCH   1   6
HETATM    6  C11 UNL     1      59.984  41.350  10.344  1.00  0.00     0.017 C 
BRANCH   6   7
HETATM    7  C10 UNL     1      59.247  41.231   9.074  1.00  0.00     0.001 C 
BRANCH   7   8
HETATM    8  C9  UNL     1      59.630  42.028   7.898  1.00  0.00     0.000 C 
BRANCH   8   9
HETATM    9  C8  UNL     1      58.628  41.867   6.754  1.00  0.00     0.000 C 
BRANCH   9  10
HETATM   10  C7  UNL     1      58.008  40.476   6.740  1.00  0.00     0.000 C 
BRANCH  10  11
HETATM   11  C6  UNL     1      57.044  40.383   5.592  1.00  0.00     0.000 C 
BRANCH  11  12
HETATM   12  C5  UNL     1      57.002  41.677   4.826  1.00  0.00     0.000 C 
BRANCH  12  13
HETATM   13  C4  UNL     1      55.685  41.806   4.134  1.00  0.00     0.000 C 
BRANCH  13  14
HETATM   14  C3  UNL     1      55.846  42.480   2.760  1.00  0.00    -0.000 C 
BRANCH  14  15
HETATM   15  C2  UNL     1      56.619  41.506   1.903  1.00  0.00    -0.005 C 
HETATM   16  C1  UNL     1      56.295  41.722   0.433  1.00  0.00     0.005 C 
ENDBRANCH  14  15
ENDBRANCH  13  14
ENDBRANCH  12  13
ENDBRANCH  11  12
ENDBRANCH  10  11
ENDBRANCH   9  10
ENDBRANCH   8   9
ENDBRANCH   7   8
ENDBRANCH   6   7
ENDBRANCH   1   6
BRANCH   2  17
HETATM   17  O1  UNL     1      61.023  44.151  10.537  1.00  0.00    -0.392 OA
ATOM     18  H1  UNL     1      61.086  45.019  10.155  1.00  0.00     0.210 HD
ENDBRANCH   2  17
BRANCH   5  19
HETATM   19  C16 UNL     1      61.993  41.571  12.781  1.00  0.00     0.208 C 
HETATM   20  O4  UNL     1      62.240  40.395  13.434  1.00  0.00    -0.366 OA
HETATM   21  C17 UNL     1      63.437  40.471  14.090  1.00  0.00     0.150 C 
HETATM   22  C18 UNL     1      64.565  40.123  13.168  1.00  0.00     0.042 C 
HETATM   23  C19 UNL     1      63.574  41.923  14.489  1.00  0.00     0.178 C 
HETATM   24  C20 UNL     1      62.921  42.618  13.313  1.00  0.00     0.187 C 
BRANCH  23  25
HETATM   25  O5  UNL     1      64.935  42.238  14.575  1.00  0.00    -0.390 OA
ATOM     26  H5  UNL     1      65.060  43.130  14.273  1.00  0.00     0.210 HD
ENDBRANCH  23  25
BRANCH  24  27
HETATM   27  O6  UNL     1      63.897  42.993  12.402  1.00  0.00    -0.390 OA
ATOM     28  H6  UNL     1      64.492  43.651  12.742  1.00  0.00     0.210 HD
ENDBRANCH  24  27
ENDBRANCH   5  19
BRANCH   3  29
HETATM   29  O2  UNL     1      59.925  45.857  12.240  1.00  0.00    -0.390 OA
ATOM     30  H2  UNL     1      60.375  46.118  13.035  1.00  0.00     0.210 HD
ENDBRANCH   3  29
BRANCH   4  31
HETATM   31  O3  UNL     1      59.854  44.035  14.673  1.00  0.00    -0.383 OA
ATOM     32  H3  UNL     1      59.126  44.645  14.646  1.00  0.00     0.211 HD
ENDBRANCH   4  31
TORSDOF 16
ENDMDL
