MODEL 1
REMARK VINA RESULT: -6.609350895      0.000      0.000
REMARK  14 active torsions:
REMARK  status: ('A' for Active; 'I' for Inactive)
REMARK       I    between atoms: C1_4  and  N3_6 
REMARK    1  A    between atoms: N3_6  and  C2_8 
REMARK    2  A    between atoms: C2_8  and  C3_9 
REMARK    3  A    between atoms: C3_9  and  C4_10 
REMARK    4  A    between atoms: C4_10  and  N4_11 
REMARK    5  A    between atoms: C6_16  and  C7_17 
REMARK    6  A    between atoms: C6_16  and  C11_25 
REMARK    7  A    between atoms: C7_17  and  C8_18 
REMARK    8  A    between atoms: C8_18  and  C9_19 
REMARK    9  A    between atoms: C9_19  and  C10_20 
REMARK   10  A    between atoms: C10_20  and  N6_21 
REMARK   11  A    between atoms: C11_25  and  C12_26 
REMARK   12  A    between atoms: C12_26  and  C13_27 
REMARK   13  A    between atoms: C13_27  and  N7_28 
REMARK   14  A    between atoms: N8_36  and  N9_38 
ROOT
HETATM    1  N4  UNL     1      54.032  38.148   4.025  1.00  0.00    -0.297 N 
HETATM    2  C5  UNL     1      52.668  37.765   3.940  1.00  0.00     0.100 C 
HETATM    3  N5  UNL     1      51.730  38.531   3.537  1.00  0.00    -0.387 N 
ATOM      4  H51 UNL     1      50.750  38.255   3.476  1.00  0.00     0.157 HD
ATOM      5  H52 UNL     1      51.862  39.494   3.229  1.00  0.00     0.157 HD
HETATM    6  C6  UNL     1      52.474  36.355   4.390  1.00  0.00     0.075 C 
HETATM    7  S1  UNL     1      53.514  36.501   5.920  1.00  0.00    -0.051 SA
HETATM    8  C18 UNL     1      54.665  37.641   5.174  1.00  0.00     0.288 C 
HETATM    9  O1  UNL     1      55.780  37.908   5.606  1.00  0.00    -0.260 OA
ENDROOT
BRANCH   6  10
HETATM   10  C7  UNL     1      51.104  35.967   4.745  1.00  0.00     0.029 C 
BRANCH  10  11
HETATM   11  C8  UNL     1      50.641  36.369   6.106  1.00  0.00     0.004 C 
BRANCH  11  12
HETATM   12  C9  UNL     1      49.116  36.507   6.113  1.00  0.00     0.027 C 
BRANCH  12  13
HETATM   13  C10 UNL     1      48.709  37.317   4.879  1.00  0.00     0.229 C 
BRANCH  13  14
HETATM   14  N6  UNL     1      47.561  38.155   5.159  1.00  0.00    -0.079 N 
ATOM     15  H63 UNL     1      46.695  37.616   5.166  1.00  0.00     0.274 HD
ATOM     16  H62 UNL     1      47.555  38.471   6.129  1.00  0.00     0.274 HD
ATOM     17  H61 UNL     1      47.510  38.939   4.509  1.00  0.00     0.274 HD
ENDBRANCH  13  14
ENDBRANCH  12  13
ENDBRANCH  11  12
ENDBRANCH  10  11
ENDBRANCH   6  10
BRANCH   6  18
HETATM   18  C11 UNL     1      53.185  35.408   3.481  1.00  0.00     0.031 C 
BRANCH  18  19
HETATM   19  C12 UNL     1      52.782  35.508   2.057  1.00  0.00     0.032 C 
BRANCH  19  20
HETATM   20  C13 UNL     1      53.114  34.367   1.161  1.00  0.00     0.272 C 
BRANCH  20  21
HETATM   21  N7  UNL     1      51.878  33.693   0.698  1.00  0.00     0.088 N 
HETATM   22  C14 UNL     1      50.855  34.719   0.684  1.00  0.00     0.272 C 
HETATM   23  C15 UNL     1      50.428  34.927  -0.749  1.00  0.00     0.032 C 
HETATM   24  C16 UNL     1      50.762  33.591  -1.378  1.00  0.00     0.032 C 
HETATM   25  C17 UNL     1      52.097  33.309  -0.666  1.00  0.00     0.272 C 
ENDBRANCH  20  21
ENDBRANCH  19  20
ENDBRANCH  18  19
ENDBRANCH   6  18
BRANCH   1  26
HETATM   26  C4  UNL     1      54.698  38.970   3.039  1.00  0.00     0.141 C 
BRANCH  26  27
HETATM   27  C3  UNL     1      54.669  40.441   3.377  1.00  0.00     0.098 C 
BRANCH  27  28
HETATM   28  C2  UNL     1      56.012  40.994   3.110  1.00  0.00     0.099 C 
HETATM   29  N8  UNL     1      56.637  40.636   2.051  1.00  0.00    -0.295 N 
ATOM     30  H8  UNL     1      56.203  39.977   1.405  1.00  0.00     0.187 HD
BRANCH  28  31
HETATM   31  N3  UNL     1      56.632  41.911   3.997  1.00  0.00    -0.319 N 
HETATM   32  C1  UNL     1      57.318  41.521   5.161  1.00  0.00     0.187 C 
HETATM   33  N1  UNL     1      57.603  40.293   5.429  1.00  0.00    -0.373 N 
HETATM   34  N2  UNL     1      57.721  42.515   6.093  1.00  0.00    -0.064 NA
ATOM     35  H12 UNL     1      58.100  40.010   6.273  1.00  0.00     0.158 HD
ATOM     36  H11 UNL     1      57.314  39.580   4.759  1.00  0.00     0.158 HD
ATOM     37  H3  UNL     1      56.578  42.906   3.778  1.00  0.00     0.169 HD
ENDBRANCH  28  31
BRANCH  29  38
HETATM   38  N9  UNL     1      57.892  41.138   1.780  1.00  0.00    -0.344 N 
ATOM     39  H92 UNL     1      58.709  40.629   2.117  1.00  0.00     0.176 HD
ATOM     40  H91 UNL     1      57.997  42.004   1.250  1.00  0.00     0.176 HD
ENDBRANCH  29  38
ENDBRANCH  27  28
ENDBRANCH  26  27
ENDBRANCH   1  26
TORSDOF 14
ENDMDL
MODEL 2
REMARK VINA RESULT: -6.504802356      7.900     12.716
REMARK  14 active torsions:
REMARK  status: ('A' for Active; 'I' for Inactive)
REMARK       I    between atoms: C1_4  and  N3_6 
REMARK    1  A    between atoms: N3_6  and  C2_8 
REMARK    2  A    between atoms: C2_8  and  C3_9 
REMARK    3  A    between atoms: C3_9  and  C4_10 
REMARK    4  A    between atoms: C4_10  and  N4_11 
REMARK    5  A    between atoms: C6_16  and  C7_17 
REMARK    6  A    between atoms: C6_16  and  C11_25 
REMARK    7  A    between atoms: C7_17  and  C8_18 
REMARK    8  A    between atoms: C8_18  and  C9_19 
REMARK    9  A    between atoms: C9_19  and  C10_20 
REMARK   10  A    between atoms: C10_20  and  N6_21 
REMARK   11  A    between atoms: C11_25  and  C12_26 
REMARK   12  A    between atoms: C12_26  and  C13_27 
REMARK   13  A    between atoms: C13_27  and  N7_28 
REMARK   14  A    between atoms: N8_36  and  N9_38 
ROOT
HETATM    1  N4  UNL     1      60.330  40.957   9.948  1.00  0.00    -0.297 N 
HETATM    2  C5  UNL     1      60.976  41.771  10.915  1.00  0.00     0.100 C 
HETATM    3  N5  UNL     1      61.171  43.024  10.785  1.00  0.00    -0.387 N 
ATOM      4  H51 UNL     1      61.636  43.608  11.481  1.00  0.00     0.157 HD
ATOM      5  H52 UNL     1      60.879  43.574   9.978  1.00  0.00     0.157 HD
HETATM    6  C6  UNL     1      61.403  40.965  12.097  1.00  0.00     0.075 C 
HETATM    7  S1  UNL     1      62.139  39.570  11.120  1.00  0.00    -0.051 SA
HETATM    8  C18 UNL     1      60.937  39.697   9.808  1.00  0.00     0.288 C 
HETATM    9  O1  UNL     1      60.713  38.834   8.967  1.00  0.00    -0.260 OA
ENDROOT
BRANCH   6  10
HETATM   10  C7  UNL     1      62.424  41.570  12.962  1.00  0.00     0.029 C 
BRANCH  10  11
HETATM   11  C8  UNL     1      61.951  42.061  14.289  1.00  0.00     0.004 C 
BRANCH  11  12
HETATM   12  C9  UNL     1      61.805  43.585  14.254  1.00  0.00     0.027 C 
BRANCH  12  13
HETATM   13  C10 UNL     1      60.310  43.917  14.256  1.00  0.00     0.229 C 
BRANCH  13  14
HETATM   14  N6  UNL     1      60.020  45.023  13.367  1.00  0.00    -0.079 N 
ATOM     15  H63 UNL     1      60.035  45.916  13.860  1.00  0.00     0.274 HD
ATOM     16  H62 UNL     1      60.786  45.192  12.715  1.00  0.00     0.274 HD
ATOM     17  H61 UNL     1      59.137  44.880  12.877  1.00  0.00     0.274 HD
ENDBRANCH  13  14
ENDBRANCH  12  13
ENDBRANCH  11  12
ENDBRANCH  10  11
ENDBRANCH   6  10
BRANCH   6  18
HETATM   18  C11 UNL     1      60.218  40.407  12.812  1.00  0.00     0.031 C 
BRANCH  18  19
HETATM   19  C12 UNL     1      60.366  38.992  13.231  1.00  0.00     0.032 C 
BRANCH  19  20
HETATM   20  C13 UNL     1      60.372  38.698  14.690  1.00  0.00     0.272 C 
BRANCH  20  21
HETATM   21  N7  UNL     1      59.298  39.455  15.377  1.00  0.00     0.088 N 
HETATM   22  C14 UNL     1      58.262  38.485  15.670  1.00  0.00     0.272 C 
HETATM   23  C15 UNL     1      58.155  38.361  17.170  1.00  0.00     0.032 C 
HETATM   24  C16 UNL     1      58.675  39.703  17.638  1.00  0.00     0.032 C 
HETATM   25  C17 UNL     1      59.830  39.885  16.637  1.00  0.00     0.272 C 
ENDBRANCH  20  21
ENDBRANCH  19  20
ENDBRANCH  18  19
ENDBRANCH   6  18
BRANCH   1  26
HETATM   26  C4  UNL     1      59.174  41.379   9.187  1.00  0.00     0.141 C 
BRANCH  26  27
HETATM   27  C3  UNL     1      59.535  42.044   7.881  1.00  0.00     0.098 C 
BRANCH  27  28
HETATM   28  C2  UNL     1      58.540  41.628   6.871  1.00  0.00     0.099 C 
HETATM   29  N8  UNL     1      58.441  42.291   5.780  1.00  0.00    -0.295 N 
ATOM     30  H8  UNL     1      59.046  43.096   5.620  1.00  0.00     0.187 HD
BRANCH  28  31
HETATM   31  N3  UNL     1      57.688  40.513   7.077  1.00  0.00    -0.319 N 
HETATM   32  C1  UNL     1      58.015  39.203   6.683  1.00  0.00     0.187 C 
HETATM   33  N1  UNL     1      59.189  38.868   6.268  1.00  0.00    -0.373 N 
HETATM   34  N2  UNL     1      57.017  38.193   6.738  1.00  0.00    -0.064 NA
ATOM     35  H12 UNL     1      59.426  37.919   5.982  1.00  0.00     0.158 HD
ATOM     36  H11 UNL     1      59.905  39.593   6.229  1.00  0.00     0.158 HD
ATOM     37  H3  UNL     1      56.791  40.669   7.536  1.00  0.00     0.169 HD
ENDBRANCH  28  31
BRANCH  29  38
HETATM   38  N9  UNL     1      57.519  41.923   4.823  1.00  0.00    -0.344 N 
ATOM     39  H92 UNL     1      56.552  41.761   5.107  1.00  0.00     0.176 HD
ATOM     40  H91 UNL     1      57.804  41.816   3.849  1.00  0.00     0.176 HD
ENDBRANCH  29  38
ENDBRANCH  27  28
ENDBRANCH  26  27
ENDBRANCH   1  26
TORSDOF 14
ENDMDL
MODEL 3
REMARK VINA RESULT: -6.453847343      9.026     14.289
REMARK  14 active torsions:
REMARK  status: ('A' for Active; 'I' for Inactive)
REMARK       I    between atoms: C1_4  and  N3_6 
REMARK    1  A    between atoms: N3_6  and  C2_8 
REMARK    2  A    between atoms: C2_8  and  C3_9 
REMARK    3  A    between atoms: C3_9  and  C4_10 
REMARK    4  A    between atoms: C4_10  and  N4_11 
REMARK    5  A    between atoms: C6_16  and  C7_17 
REMARK    6  A    between atoms: C6_16  and  C11_25 
REMARK    7  A    between atoms: C7_17  and  C8_18 
REMARK    8  A    between atoms: C8_18  and  C9_19 
REMARK    9  A    between atoms: C9_19  and  C10_20 
REMARK   10  A    between atoms: C10_20  and  N6_21 
REMARK   11  A    between atoms: C11_25  and  C12_26 
REMARK   12  A    between atoms: C12_26  and  C13_27 
REMARK   13  A    between atoms: C13_27  and  N7_28 
REMARK   14  A    between atoms: N8_36  and  N9_38 
ROOT
HETATM    1  N4  UNL     1      60.020  41.928  11.800  1.00  0.00    -0.297 N 
HETATM    2  C5  UNL     1      60.399  42.133  13.152  1.00  0.00     0.100 C 
HETATM    3  N5  UNL     1      60.236  41.277  14.083  1.00  0.00    -0.387 N 
ATOM      4  H51 UNL     1      60.509  41.425  15.054  1.00  0.00     0.157 HD
ATOM      5  H52 UNL     1      59.822  40.354  13.953  1.00  0.00     0.157 HD
HETATM    6  C6  UNL     1      61.006  43.484  13.342  1.00  0.00     0.075 C 
HETATM    7  S1  UNL     1      59.717  44.408  12.377  1.00  0.00    -0.051 SA
HETATM    8  C18 UNL     1      59.467  43.079  11.212  1.00  0.00     0.288 C 
HETATM    9  O1  UNL     1      58.916  43.187  10.123  1.00  0.00    -0.260 OA
ENDROOT
BRANCH   6  10
HETATM   10  C7  UNL     1      61.060  43.986  14.720  1.00  0.00     0.029 C 
BRANCH  10  11
HETATM   11  C8  UNL     1      59.815  44.630  15.233  1.00  0.00     0.004 C 
BRANCH  11  12
HETATM   12  C9  UNL     1      59.661  44.341  16.729  1.00  0.00     0.027 C 
BRANCH  12  13
HETATM   13  C10 UNL     1      60.283  45.506  17.503  1.00  0.00     0.229 C 
BRANCH  13  14
HETATM   14  N6  UNL     1      59.913  46.778  16.918  1.00  0.00    -0.079 N 
ATOM     15  H63 UNL     1      60.260  46.868  15.963  1.00  0.00     0.274 HD
ATOM     16  H62 UNL     1      58.912  46.826  16.725  1.00  0.00     0.274 HD
ATOM     17  H61 UNL     1      60.219  47.555  17.503  1.00  0.00     0.274 HD
ENDBRANCH  13  14
ENDBRANCH  12  13
ENDBRANCH  11  12
ENDBRANCH  10  11
ENDBRANCH   6  10
BRANCH   6  18
HETATM   18  C11 UNL     1      62.280  43.604  12.575  1.00  0.00     0.031 C 
BRANCH  18  19
HETATM   19  C12 UNL     1      63.477  43.102  13.292  1.00  0.00     0.032 C 
BRANCH  19  20
HETATM   20  C13 UNL     1      63.893  41.694  13.046  1.00  0.00     0.272 C 
BRANCH  20  21
HETATM   21  N7  UNL     1      64.435  41.088  14.285  1.00  0.00     0.088 N 
HETATM   22  C14 UNL     1      64.102  42.012  15.351  1.00  0.00     0.272 C 
HETATM   23  C15 UNL     1      63.138  41.316  16.281  1.00  0.00     0.032 C 
HETATM   24  C16 UNL     1      63.471  39.858  16.051  1.00  0.00     0.032 C 
HETATM   25  C17 UNL     1      63.687  39.890  14.527  1.00  0.00     0.272 C 
ENDBRANCH  20  21
ENDBRANCH  19  20
ENDBRANCH  18  19
ENDBRANCH   6  18
BRANCH   1  26
HETATM   26  C4  UNL     1      60.181  40.671  11.103  1.00  0.00     0.141 C 
BRANCH  26  27
HETATM   27  C3  UNL     1      60.541  40.843   9.647  1.00  0.00     0.098 C 
BRANCH  27  28
HETATM   28  C2  UNL     1      59.661  39.958   8.856  1.00  0.00     0.099 C 
HETATM   29  N8  UNL     1      60.043  38.764   8.598  1.00  0.00    -0.295 N 
ATOM     30  H8  UNL     1      60.946  38.435   8.939  1.00  0.00     0.187 HD
BRANCH  28  31
HETATM   31  N3  UNL     1      58.402  40.398   8.371  1.00  0.00    -0.319 N 
HETATM   32  C1  UNL     1      58.255  41.300   7.302  1.00  0.00     0.187 C 
HETATM   33  N1  UNL     1      59.237  41.663   6.551  1.00  0.00    -0.373 N 
HETATM   34  N2  UNL     1      56.971  41.843   7.027  1.00  0.00    -0.064 NA
ATOM     35  H12 UNL     1      59.130  42.318   5.777  1.00  0.00     0.158 HD
ATOM     36  H11 UNL     1      60.158  41.273   6.749  1.00  0.00     0.158 HD
ATOM     37  H3  UNL     1      57.560  40.040   8.821  1.00  0.00     0.169 HD
ENDBRANCH  28  31
BRANCH  29  38
HETATM   38  N9  UNL     1      59.239  37.920   7.860  1.00  0.00    -0.344 N 
ATOM     39  H92 UNL     1      59.670  37.322   7.154  1.00  0.00     0.176 HD
ATOM     40  H91 UNL     1      58.232  37.898   8.021  1.00  0.00     0.176 HD
ENDBRANCH  29  38
ENDBRANCH  27  28
ENDBRANCH  26  27
ENDBRANCH   1  26
TORSDOF 14
ENDMDL
MODEL 4
REMARK VINA RESULT: -6.451564541      6.347     10.560
REMARK  14 active torsions:
REMARK  status: ('A' for Active; 'I' for Inactive)
REMARK       I    between atoms: C1_4  and  N3_6 
REMARK    1  A    between atoms: N3_6  and  C2_8 
REMARK    2  A    between atoms: C2_8  and  C3_9 
REMARK    3  A    between atoms: C3_9  and  C4_10 
REMARK    4  A    between atoms: C4_10  and  N4_11 
REMARK    5  A    between atoms: C6_16  and  C7_17 
REMARK    6  A    between atoms: C6_16  and  C11_25 
REMARK    7  A    between atoms: C7_17  and  C8_18 
REMARK    8  A    between atoms: C8_18  and  C9_19 
REMARK    9  A    between atoms: C9_19  and  C10_20 
REMARK   10  A    between atoms: C10_20  and  N6_21 
REMARK   11  A    between atoms: C11_25  and  C12_26 
REMARK   12  A    between atoms: C12_26  and  C13_27 
REMARK   13  A    between atoms: C13_27  and  N7_28 
REMARK   14  A    between atoms: N8_36  and  N9_38 
ROOT
HETATM    1  N4  UNL     1      58.259  37.687   7.534  1.00  0.00    -0.297 N 
HETATM    2  C5  UNL     1      59.634  37.647   7.182  1.00  0.00     0.100 C 
HETATM    3  N5  UNL     1      60.139  38.263   6.186  1.00  0.00    -0.387 N 
ATOM      4  H51 UNL     1      61.127  38.235   5.934  1.00  0.00     0.157 HD
ATOM      5  H52 UNL     1      59.611  38.853   5.543  1.00  0.00     0.157 HD
HETATM    6  C6  UNL     1      60.407  36.785   8.124  1.00  0.00     0.075 C 
HETATM    7  S1  UNL     1      59.199  35.376   8.126  1.00  0.00    -0.051 SA
HETATM    8  C18 UNL     1      57.776  36.440   7.966  1.00  0.00     0.288 C 
HETATM    9  O1  UNL     1      56.617  36.112   8.196  1.00  0.00    -0.260 OA
ENDROOT
BRANCH   6  10
HETATM   10  C7  UNL     1      61.720  36.325   7.657  1.00  0.00     0.029 C 
BRANCH  10  11
HETATM   11  C8  UNL     1      62.411  35.326   8.525  1.00  0.00     0.004 C 
BRANCH  11  12
HETATM   12  C9  UNL     1      63.909  35.638   8.579  1.00  0.00     0.027 C 
BRANCH  12  13
HETATM   13  C10 UNL     1      64.652  34.526   7.833  1.00  0.00     0.229 C 
BRANCH  13  14
HETATM   14  N6  UNL     1      66.071  34.562   8.119  1.00  0.00    -0.079 N 
ATOM     15  H63 UNL     1      66.576  35.133   7.443  1.00  0.00     0.274 HD
ATOM     16  H62 UNL     1      66.270  35.104   8.960  1.00  0.00     0.274 HD
ATOM     17  H61 UNL     1      66.458  33.621   8.180  1.00  0.00     0.274 HD
ENDBRANCH  13  14
ENDBRANCH  12  13
ENDBRANCH  11  12
ENDBRANCH  10  11
ENDBRANCH   6  10
BRANCH   6  18
HETATM   18  C11 UNL     1      60.391  37.361   9.501  1.00  0.00     0.031 C 
BRANCH  18  19
HETATM   19  C12 UNL     1      60.790  38.787   9.574  1.00  0.00     0.032 C 
BRANCH  19  20
HETATM   20  C13 UNL     1      60.494  39.528  10.830  1.00  0.00     0.272 C 
BRANCH  20  21
HETATM   21  N7  UNL     1      60.834  40.962  10.681  1.00  0.00     0.088 N 
HETATM   22  C14 UNL     1      60.372  41.339   9.360  1.00  0.00     0.272 C 
HETATM   23  C15 UNL     1      59.266  42.352   9.530  1.00  0.00     0.032 C 
HETATM   24  C16 UNL     1      59.592  42.958  10.878  1.00  0.00     0.032 C 
HETATM   25  C17 UNL     1      60.030  41.683  11.623  1.00  0.00     0.272 C 
ENDBRANCH  20  21
ENDBRANCH  19  20
ENDBRANCH  18  19
ENDBRANCH   6  18
BRANCH   1  26
HETATM   26  C4  UNL     1      57.445  38.879   7.455  1.00  0.00     0.141 C 
BRANCH  26  27
HETATM   27  C3  UNL     1      56.981  39.188   6.052  1.00  0.00     0.098 C 
BRANCH  27  28
HETATM   28  C2  UNL     1      57.278  40.609   5.778  1.00  0.00     0.099 C 
HETATM   29  N8  UNL     1      58.354  41.124   6.244  1.00  0.00    -0.295 N 
ATOM     30  H8  UNL     1      58.993  40.551   6.796  1.00  0.00     0.187 HD
BRANCH  28  31
HETATM   31  N3  UNL     1      56.402  41.421   5.014  1.00  0.00    -0.319 N 
HETATM   32  C1  UNL     1      56.588  41.689   3.645  1.00  0.00     0.187 C 
HETATM   33  N1  UNL     1      57.462  41.075   2.924  1.00  0.00    -0.373 N 
HETATM   34  N2  UNL     1      55.785  42.678   3.018  1.00  0.00    -0.064 NA
ATOM     35  H12 UNL     1      57.597  41.269   1.932  1.00  0.00     0.158 HD
ATOM     36  H11 UNL     1      58.039  40.365   3.374  1.00  0.00     0.158 HD
ATOM     37  H3  UNL     1      55.594  41.832   5.481  1.00  0.00     0.169 HD
ENDBRANCH  28  31
BRANCH  29  38
HETATM   38  N9  UNL     1      58.653  42.448   6.003  1.00  0.00    -0.344 N 
ATOM     39  H92 UNL     1      57.907  43.074   5.698  1.00  0.00     0.176 HD
ATOM     40  H91 UNL     1      59.606  42.792   6.128  1.00  0.00     0.176 HD
ENDBRANCH  29  38
ENDBRANCH  27  28
ENDBRANCH  26  27
ENDBRANCH   1  26
TORSDOF 14
ENDMDL
MODEL 5
REMARK VINA RESULT: -6.361271573      7.389     12.848
REMARK  14 active torsions:
REMARK  status: ('A' for Active; 'I' for Inactive)
REMARK       I    between atoms: C1_4  and  N3_6 
REMARK    1  A    between atoms: N3_6  and  C2_8 
REMARK    2  A    between atoms: C2_8  and  C3_9 
REMARK    3  A    between atoms: C3_9  and  C4_10 
REMARK    4  A    between atoms: C4_10  and  N4_11 
REMARK    5  A    between atoms: C6_16  and  C7_17 
REMARK    6  A    between atoms: C6_16  and  C11_25 
REMARK    7  A    between atoms: C7_17  and  C8_18 
REMARK    8  A    between atoms: C8_18  and  C9_19 
REMARK    9  A    between atoms: C9_19  and  C10_20 
REMARK   10  A    between atoms: C10_20  and  N6_21 
REMARK   11  A    between atoms: C11_25  and  C12_26 
REMARK   12  A    between atoms: C12_26  and  C13_27 
REMARK   13  A    between atoms: C13_27  and  N7_28 
REMARK   14  A    between atoms: N8_36  and  N9_38 
ROOT
HETATM    1  N4  UNL     1      60.625  39.748   9.953  1.00  0.00    -0.297 N 
HETATM    2  C5  UNL     1      61.744  39.695  10.824  1.00  0.00     0.100 C 
HETATM    3  N5  UNL     1      62.953  39.861  10.451  1.00  0.00    -0.387 N 
ATOM      4  H51 UNL     1      63.757  39.822  11.077  1.00  0.00     0.157 HD
ATOM      5  H52 UNL     1      63.241  40.054   9.493  1.00  0.00     0.157 HD
HETATM    6  C6  UNL     1      61.323  39.413  12.228  1.00  0.00     0.075 C 
HETATM    7  S1  UNL     1      60.156  38.034  11.802  1.00  0.00    -0.051 SA
HETATM    8  C18 UNL     1      59.657  38.774  10.257  1.00  0.00     0.288 C 
HETATM    9  O1  UNL     1      58.660  38.468   9.614  1.00  0.00    -0.260 OA
ENDROOT
BRANCH   6  10
HETATM   10  C7  UNL     1      62.368  38.927  13.136  1.00  0.00     0.029 C 
BRANCH  10  11
HETATM   11  C8  UNL     1      62.701  37.476  13.036  1.00  0.00     0.004 C 
BRANCH  11  12
HETATM   12  C9  UNL     1      64.202  37.307  12.785  1.00  0.00     0.027 C 
BRANCH  12  13
HETATM   13  C10 UNL     1      64.907  38.583  13.253  1.00  0.00     0.229 C 
BRANCH  13  14
HETATM   14  N6  UNL     1      65.924  38.995  12.307  1.00  0.00    -0.079 N 
ATOM     15  H63 UNL     1      65.966  38.368  11.504  1.00  0.00     0.274 HD
ATOM     16  H62 UNL     1      65.660  39.852  11.822  1.00  0.00     0.274 HD
ATOM     17  H61 UNL     1      66.833  39.085  12.761  1.00  0.00     0.274 HD
ENDBRANCH  13  14
ENDBRANCH  12  13
ENDBRANCH  11  12
ENDBRANCH  10  11
ENDBRANCH   6  10
BRANCH   6  18
HETATM   18  C11 UNL     1      60.487  40.528  12.763  1.00  0.00     0.031 C 
BRANCH  18  19
HETATM   19  C12 UNL     1      61.230  41.505  13.596  1.00  0.00     0.032 C 
BRANCH  19  20
HETATM   20  C13 UNL     1      62.195  42.407  12.911  1.00  0.00     0.272 C 
BRANCH  20  21
HETATM   21  N7  UNL     1      61.641  43.778  12.805  1.00  0.00     0.088 N 
HETATM   22  C14 UNL     1      61.063  43.864  11.478  1.00  0.00     0.272 C 
HETATM   23  C15 UNL     1      59.572  44.040  11.634  1.00  0.00     0.032 C 
HETATM   24  C16 UNL     1      59.468  44.672  13.005  1.00  0.00     0.032 C 
HETATM   25  C17 UNL     1      60.554  43.862  13.735  1.00  0.00     0.272 C 
ENDBRANCH  20  21
ENDBRANCH  19  20
ENDBRANCH  18  19
ENDBRANCH   6  18
BRANCH   1  26
HETATM   26  C4  UNL     1      60.494  40.699   8.871  1.00  0.00     0.141 C 
BRANCH  26  27
HETATM   27  C3  UNL     1      59.230  41.520   8.954  1.00  0.00     0.098 C 
BRANCH  27  28
HETATM   28  C2  UNL     1      58.563  41.460   7.637  1.00  0.00     0.099 C 
HETATM   29  N8  UNL     1      58.910  42.286   6.722  1.00  0.00    -0.295 N 
ATOM     30  H8  UNL     1      59.640  42.974   6.910  1.00  0.00     0.187 HD
BRANCH  28  31
HETATM   31  N3  UNL     1      57.546  40.512   7.357  1.00  0.00    -0.319 N 
HETATM   32  C1  UNL     1      57.772  39.317   6.651  1.00  0.00     0.187 C 
HETATM   33  N1  UNL     1      58.952  38.889   6.358  1.00  0.00    -0.373 N 
HETATM   34  N2  UNL     1      56.660  38.536   6.237  1.00  0.00    -0.064 NA
ATOM     35  H12 UNL     1      59.116  38.022   5.846  1.00  0.00     0.158 HD
ATOM     36  H11 UNL     1      59.751  39.449   6.656  1.00  0.00     0.158 HD
ATOM     37  H3  UNL     1      56.601  40.707   7.686  1.00  0.00     0.169 HD
ENDBRANCH  28  31
BRANCH  29  38
HETATM   38  N9  UNL     1      58.302  42.251   5.485  1.00  0.00    -0.344 N 
ATOM     39  H92 UNL     1      57.285  42.192   5.438  1.00  0.00     0.176 HD
ATOM     40  H91 UNL     1      58.865  42.282   4.634  1.00  0.00     0.176 HD
ENDBRANCH  29  38
ENDBRANCH  27  28
ENDBRANCH  26  27
ENDBRANCH   1  26
TORSDOF 14
ENDMDL
