MODEL 1
REMARK VINA RESULT: -7.530770580      0.000      0.000
REMARK  16 active torsions:
REMARK  status: ('A' for Active; 'I' for Inactive)
REMARK    1  A    between atoms: C2_2  and  C3_3 
REMARK    2  A    between atoms: C3_3  and  C4_4 
REMARK    3  A    between atoms: C4_4  and  C5_5 
REMARK    4  A    between atoms: C5_5  and  C6_6 
REMARK    5  A    between atoms: C6_6  and  C7_7 
REMARK    6  A    between atoms: C7_7  and  C8_8 
REMARK    7  A    between atoms: C8_8  and  N1_9 
REMARK    8  A    between atoms: N1_9  and  C9_11 
REMARK    9  A    between atoms: C10_14  and  N3_15 
REMARK   10  A    between atoms: N3_15  and  C11_17 
REMARK   11  A    between atoms: C13_19  and  N4_20 
REMARK   12  A    between atoms: N4_20  and  C14_22 
REMARK   13  A    between atoms: C14_22  and  C15_23 
REMARK   14  A    between atoms: C15_23  and  C16_24 
REMARK   15  A    between atoms: C18_28  and  N6_29 
REMARK   16  A    between atoms: N9_37  and  O1_38 
ROOT
HETATM    1  C9  UNL     1      57.769  41.068   5.541  1.00  0.00     0.707 A 
HETATM    2  N2  UNL     1      58.602  41.841   6.254  1.00  0.00    -0.174 N 
ATOM      3  H2  UNL     1      58.927  42.718   5.847  1.00  0.00     0.186 HD
HETATM    4  C10 UNL     1      59.025  41.502   7.490  1.00  0.00     0.125 A 
HETATM    5  C19 UNL     1      58.560  40.310   7.998  1.00  0.00     0.097 A 
HETATM    6  C20 UNL     1      57.696  39.477   7.297  1.00  0.00     0.166 A 
HETATM    7  N8  UNL     1      57.234  38.258   7.843  1.00  0.00    -0.079 NA
HETATM    8  N9  UNL     1      57.327  39.897   6.071  1.00  0.00    -0.038 N 
ENDROOT
BRANCH   4   9
HETATM    9  N3  UNL     1      59.814  42.297   8.090  1.00  0.00    -0.328 N 
ATOM     10  H3  UNL     1      60.218  43.046   7.527  1.00  0.00     0.169 HD
BRANCH   9  11
HETATM   11  C11 UNL     1      60.190  42.258   9.433  1.00  0.00     0.126 A 
HETATM   12  C12 UNL     1      59.634  43.131  10.341  1.00  0.00     0.097 A 
HETATM   13  C13 UNL     1      59.978  43.129  11.686  1.00  0.00     0.120 A 
HETATM   14  N5  UNL     1      60.891  42.223  12.073  1.00  0.00    -0.177 N 
HETATM   15  C18 UNL     1      61.453  41.353  11.207  1.00  0.00     0.679 A 
ATOM     16  H5  UNL     1      61.168  42.192  13.054  1.00  0.00     0.185 HD
HETATM   17  N7  UNL     1      61.100  41.377   9.901  1.00  0.00    -0.177 N 
ATOM     18  H7  UNL     1      61.532  40.716   9.256  1.00  0.00     0.185 HD
BRANCH  13  19
HETATM   19  N4  UNL     1      59.454  43.949  12.527  1.00  0.00    -0.376 N 
ATOM     20  H4  UNL     1      58.520  44.331  12.377  1.00  0.00     0.161 HD
BRANCH  19  21
HETATM   21  C14 UNL     1      60.232  44.315  13.692  1.00  0.00     0.121 C 
BRANCH  21  22
HETATM   22  C15 UNL     1      59.371  44.539  14.903  1.00  0.00     0.019 C 
BRANCH  22  23
HETATM   23  C16 UNL     1      60.280  44.392  16.123  1.00  0.00    -0.003 C 
HETATM   24  C17 UNL     1      61.722  44.394  15.675  1.00  0.00     0.005 C 
ENDBRANCH  22  23
ENDBRANCH  21  22
ENDBRANCH  19  21
ENDBRANCH  13  19
BRANCH  15  25
HETATM   25  N6  UNL     1      62.328  40.485  11.580  1.00  0.00    -0.234 N 
ATOM     26  H62 UNL     1      62.001  39.548  11.817  1.00  0.00     0.174 HD
ATOM     27  H61 UNL     1      63.322  40.708  11.641  1.00  0.00     0.174 HD
ENDBRANCH  15  25
ENDBRANCH   9  11
ENDBRANCH   4   9
BRANCH   1  28
HETATM   28  N1  UNL     1      57.341  41.353   4.358  1.00  0.00    -0.224 N 
ATOM     29  H1  UNL     1      57.895  41.085   3.545  1.00  0.00     0.177 HD
BRANCH  28  30
HETATM   30  C8  UNL     1      56.077  42.055   4.166  1.00  0.00     0.138 C 
BRANCH  30  31
HETATM   31  C7  UNL     1      55.440  41.719   2.862  1.00  0.00     0.020 C 
BRANCH  31  32
HETATM   32  C6  UNL     1      56.238  42.235   1.698  1.00  0.00     0.002 C 
BRANCH  32  33
HETATM   33  C5  UNL     1      56.875  41.110   0.942  1.00  0.00     0.000 C 
BRANCH  33  34
HETATM   34  C4  UNL     1      55.833  40.159   0.371  1.00  0.00     0.004 C 
BRANCH  34  35
HETATM   35  C3  UNL     1      56.119  38.719   0.701  1.00  0.00     0.026 C 
BRANCH  35  36
HETATM   36  C2  UNL     1      54.880  38.068   1.187  1.00  0.00    -0.037 C 
HETATM   37  C1  UNL     1      54.513  38.167   2.441  1.00  0.00     0.007 C 
ENDBRANCH  35  36
ENDBRANCH  34  35
ENDBRANCH  33  34
ENDBRANCH  32  33
ENDBRANCH  31  32
ENDBRANCH  30  31
ENDBRANCH  28  30
ENDBRANCH   1  28
BRANCH   8  38
HETATM   38  O1  UNL     1      56.470  39.073   5.371  1.00  0.00    -0.268 OA
ATOM     39  H1  UNL     1      56.201  38.231   5.720  1.00  0.00     0.246 HD
ENDBRANCH   8  38
TORSDOF 16
ENDMDL
MODEL 2
REMARK VINA RESULT: -7.523728971      1.821      2.871
REMARK  16 active torsions:
REMARK  status: ('A' for Active; 'I' for Inactive)
REMARK    1  A    between atoms: C2_2  and  C3_3 
REMARK    2  A    between atoms: C3_3  and  C4_4 
REMARK    3  A    between atoms: C4_4  and  C5_5 
REMARK    4  A    between atoms: C5_5  and  C6_6 
REMARK    5  A    between atoms: C6_6  and  C7_7 
REMARK    6  A    between atoms: C7_7  and  C8_8 
REMARK    7  A    between atoms: C8_8  and  N1_9 
REMARK    8  A    between atoms: N1_9  and  C9_11 
REMARK    9  A    between atoms: C10_14  and  N3_15 
REMARK   10  A    between atoms: N3_15  and  C11_17 
REMARK   11  A    between atoms: C13_19  and  N4_20 
REMARK   12  A    between atoms: N4_20  and  C14_22 
REMARK   13  A    between atoms: C14_22  and  C15_23 
REMARK   14  A    between atoms: C15_23  and  C16_24 
REMARK   15  A    between atoms: C18_28  and  N6_29 
REMARK   16  A    between atoms: N9_37  and  O1_38 
ROOT
HETATM    1  C9  UNL     1      58.842  40.939   7.576  1.00  0.00     0.707 A 
HETATM    2  N2  UNL     1      59.060  42.080   8.247  1.00  0.00    -0.174 N 
ATOM      3  H2  UNL     1      58.920  42.968   7.764  1.00  0.00     0.186 HD
HETATM    4  C10 UNL     1      59.456  42.097   9.537  1.00  0.00     0.125 A 
HETATM    5  C19 UNL     1      59.631  40.876  10.146  1.00  0.00     0.097 A 
HETATM    6  C20 UNL     1      59.418  39.669   9.493  1.00  0.00     0.166 A 
HETATM    7  N8  UNL     1      59.606  38.428  10.143  1.00  0.00    -0.079 NA
HETATM    8  N9  UNL     1      59.023  39.749   8.206  1.00  0.00    -0.038 N 
ENDROOT
BRANCH   4   9
HETATM    9  N3  UNL     1      59.638  43.227  10.091  1.00  0.00    -0.328 N 
ATOM     10  H3  UNL     1      59.254  44.038   9.606  1.00  0.00     0.169 HD
BRANCH   9  11
HETATM   11  C11 UNL     1      60.306  43.480  11.290  1.00  0.00     0.126 A 
HETATM   12  C12 UNL     1      59.637  44.023  12.363  1.00  0.00     0.097 A 
HETATM   13  C13 UNL     1      60.261  44.292  13.573  1.00  0.00     0.120 A 
HETATM   14  N5  UNL     1      61.568  43.995  13.657  1.00  0.00    -0.177 N 
HETATM   15  C18 UNL     1      62.251  43.461  12.623  1.00  0.00     0.679 A 
ATOM     16  H5  UNL     1      62.060  44.179  14.532  1.00  0.00     0.185 HD
HETATM   17  N7  UNL     1      61.619  43.209  11.453  1.00  0.00    -0.177 N 
ATOM     18  H7  UNL     1      62.145  42.807  10.678  1.00  0.00     0.185 HD
BRANCH  13  19
HETATM   19  N4  UNL     1      59.627  44.800  14.571  1.00  0.00    -0.376 N 
ATOM     20  H4  UNL     1      58.915  45.517  14.432  1.00  0.00     0.161 HD
BRANCH  19  21
HETATM   21  C14 UNL     1      59.958  44.324  15.898  1.00  0.00     0.121 C 
BRANCH  21  22
HETATM   22  C15 UNL     1      60.347  45.442  16.823  1.00  0.00     0.019 C 
BRANCH  22  23
HETATM   23  C16 UNL     1      59.879  45.040  18.221  1.00  0.00    -0.003 C 
HETATM   24  C17 UNL     1      59.767  43.537  18.299  1.00  0.00     0.005 C 
ENDBRANCH  22  23
ENDBRANCH  21  22
ENDBRANCH  19  21
ENDBRANCH  13  19
BRANCH  15  25
HETATM   25  N6  UNL     1      63.505  43.176  12.704  1.00  0.00    -0.234 N 
ATOM     26  H62 UNL     1      64.162  43.755  12.181  1.00  0.00     0.174 HD
ATOM     27  H61 UNL     1      63.850  42.400  13.270  1.00  0.00     0.174 HD
ENDBRANCH  15  25
ENDBRANCH   9  11
ENDBRANCH   4   9
BRANCH   1  28
HETATM   28  N1  UNL     1      58.464  40.878   6.345  1.00  0.00    -0.224 N 
ATOM     29  H1  UNL     1      58.952  40.257   5.699  1.00  0.00     0.177 HD
BRANCH  28  30
HETATM   30  C8  UNL     1      57.348  41.682   5.860  1.00  0.00     0.138 C 
BRANCH  30  31
HETATM   31  C7  UNL     1      56.985  41.352   4.454  1.00  0.00     0.020 C 
BRANCH  31  32
HETATM   32  C6  UNL     1      55.555  41.701   4.147  1.00  0.00     0.002 C 
BRANCH  32  33
HETATM   33  C5  UNL     1      55.177  41.257   2.769  1.00  0.00     0.000 C 
BRANCH  33  34
HETATM   34  C4  UNL     1      56.386  41.204   1.847  1.00  0.00     0.004 C 
BRANCH  34  35
HETATM   35  C3  UNL     1      56.214  42.048   0.613  1.00  0.00     0.026 C 
BRANCH  35  36
HETATM   36  C2  UNL     1      55.234  43.125   0.884  1.00  0.00    -0.037 C 
HETATM   37  C1  UNL     1      55.629  44.344   1.159  1.00  0.00     0.007 C 
ENDBRANCH  35  36
ENDBRANCH  34  35
ENDBRANCH  33  34
ENDBRANCH  32  33
ENDBRANCH  31  32
ENDBRANCH  30  31
ENDBRANCH  28  30
ENDBRANCH   1  28
BRANCH   8  38
HETATM   38  O1  UNL     1      58.811  38.553   7.553  1.00  0.00    -0.268 OA
ATOM     39  H1  UNL     1      59.329  38.306   6.796  1.00  0.00     0.246 HD
ENDBRANCH   8  38
TORSDOF 16
ENDMDL
MODEL 3
REMARK VINA RESULT: -7.490148459      2.981      9.106
REMARK  16 active torsions:
REMARK  status: ('A' for Active; 'I' for Inactive)
REMARK    1  A    between atoms: C2_2  and  C3_3 
REMARK    2  A    between atoms: C3_3  and  C4_4 
REMARK    3  A    between atoms: C4_4  and  C5_5 
REMARK    4  A    between atoms: C5_5  and  C6_6 
REMARK    5  A    between atoms: C6_6  and  C7_7 
REMARK    6  A    between atoms: C7_7  and  C8_8 
REMARK    7  A    between atoms: C8_8  and  N1_9 
REMARK    8  A    between atoms: N1_9  and  C9_11 
REMARK    9  A    between atoms: C10_14  and  N3_15 
REMARK   10  A    between atoms: N3_15  and  C11_17 
REMARK   11  A    between atoms: C13_19  and  N4_20 
REMARK   12  A    between atoms: N4_20  and  C14_22 
REMARK   13  A    between atoms: C14_22  and  C15_23 
REMARK   14  A    between atoms: C15_23  and  C16_24 
REMARK   15  A    between atoms: C18_28  and  N6_29 
REMARK   16  A    between atoms: N9_37  and  O1_38 
ROOT
HETATM    1  C9  UNL     1      61.471  42.287  12.417  1.00  0.00     0.707 A 
HETATM    2  N2  UNL     1      61.420  41.934  11.124  1.00  0.00    -0.174 N 
ATOM      3  H2  UNL     1      62.007  41.165  10.801  1.00  0.00     0.186 HD
HETATM    4  C10 UNL     1      60.620  42.558  10.234  1.00  0.00     0.125 A 
HETATM    5  C19 UNL     1      59.845  43.589  10.714  1.00  0.00     0.097 A 
HETATM    6  C20 UNL     1      59.864  43.990  12.044  1.00  0.00     0.166 A 
HETATM    7  N8  UNL     1      59.058  45.053  12.511  1.00  0.00    -0.079 NA
HETATM    8  N9  UNL     1      60.693  43.310  12.861  1.00  0.00    -0.038 N 
ENDROOT
BRANCH   4   9
HETATM    9  N3  UNL     1      60.638  42.155   9.028  1.00  0.00    -0.328 N 
ATOM     10  H3  UNL     1      61.521  42.259   8.528  1.00  0.00     0.169 HD
BRANCH   9  11
HETATM   11  C11 UNL     1      59.584  41.585   8.313  1.00  0.00     0.126 A 
HETATM   12  C12 UNL     1      59.171  42.133   7.120  1.00  0.00     0.097 A 
HETATM   13  C13 UNL     1      58.127  41.600   6.376  1.00  0.00     0.120 A 
HETATM   14  N5  UNL     1      57.526  40.508   6.875  1.00  0.00    -0.177 N 
HETATM   15  C18 UNL     1      57.910  39.947   8.042  1.00  0.00     0.679 A 
ATOM     16  H5  UNL     1      56.755  40.088   6.356  1.00  0.00     0.185 HD
HETATM   17  N7  UNL     1      58.930  40.487   8.748  1.00  0.00    -0.177 N 
ATOM     18  H7  UNL     1      59.211  40.055   9.628  1.00  0.00     0.185 HD
BRANCH  13  19
HETATM   19  N4  UNL     1      57.747  42.120   5.262  1.00  0.00    -0.376 N 
ATOM     20  H4  UNL     1      58.017  43.069   5.005  1.00  0.00     0.161 HD
BRANCH  19  21
HETATM   21  C14 UNL     1      56.922  41.315   4.385  1.00  0.00     0.121 C 
BRANCH  21  22
HETATM   22  C15 UNL     1      55.702  42.055   3.914  1.00  0.00     0.019 C 
BRANCH  22  23
HETATM   23  C16 UNL     1      55.726  42.015   2.386  1.00  0.00    -0.003 C 
HETATM   24  C17 UNL     1      55.814  43.424   1.851  1.00  0.00     0.005 C 
ENDBRANCH  22  23
ENDBRANCH  21  22
ENDBRANCH  19  21
ENDBRANCH  13  19
BRANCH  15  25
HETATM   25  N6  UNL     1      57.333  38.899   8.520  1.00  0.00    -0.234 N 
ATOM     26  H62 UNL     1      57.339  38.050   7.954  1.00  0.00     0.174 HD
ATOM     27  H61 UNL     1      56.881  38.897   9.434  1.00  0.00     0.174 HD
ENDBRANCH  15  25
ENDBRANCH   9  11
ENDBRANCH   4   9
BRANCH   1  28
HETATM   28  N1  UNL     1      62.220  41.719  13.299  1.00  0.00    -0.224 N 
ATOM     29  H1  UNL     1      62.514  42.245  14.122  1.00  0.00     0.177 HD
BRANCH  28  30
HETATM   30  C8  UNL     1      62.653  40.337  13.139  1.00  0.00     0.138 C 
BRANCH  30  31
HETATM   31  C7  UNL     1      64.014  40.237  12.542  1.00  0.00     0.020 C 
BRANCH  31  32
HETATM   32  C6  UNL     1      64.027  39.364  11.318  1.00  0.00     0.002 C 
BRANCH  32  33
HETATM   33  C5  UNL     1      62.739  38.614  11.179  1.00  0.00     0.000 C 
BRANCH  33  34
HETATM   34  C4  UNL     1      62.181  38.715   9.768  1.00  0.00     0.004 C 
BRANCH  34  35
HETATM   35  C3  UNL     1      61.254  37.580   9.427  1.00  0.00     0.026 C 
BRANCH  35  36
HETATM   36  C2  UNL     1      61.792  36.832   8.268  1.00  0.00    -0.037 C 
HETATM   37  C1  UNL     1      62.956  36.233   8.332  1.00  0.00     0.007 C 
ENDBRANCH  35  36
ENDBRANCH  34  35
ENDBRANCH  33  34
ENDBRANCH  32  33
ENDBRANCH  31  32
ENDBRANCH  30  31
ENDBRANCH  28  30
ENDBRANCH   1  28
BRANCH   8  38
HETATM   38  O1  UNL     1      60.716  43.705  14.182  1.00  0.00    -0.268 OA
ATOM     39  H1  UNL     1      60.834  43.075  14.883  1.00  0.00     0.246 HD
ENDBRANCH   8  38
TORSDOF 16
ENDMDL
MODEL 4
REMARK VINA RESULT: -7.485769307      3.884      8.442
REMARK  16 active torsions:
REMARK  status: ('A' for Active; 'I' for Inactive)
REMARK    1  A    between atoms: C2_2  and  C3_3 
REMARK    2  A    between atoms: C3_3  and  C4_4 
REMARK    3  A    between atoms: C4_4  and  C5_5 
REMARK    4  A    between atoms: C5_5  and  C6_6 
REMARK    5  A    between atoms: C6_6  and  C7_7 
REMARK    6  A    between atoms: C7_7  and  C8_8 
REMARK    7  A    between atoms: C8_8  and  N1_9 
REMARK    8  A    between atoms: N1_9  and  C9_11 
REMARK    9  A    between atoms: C10_14  and  N3_15 
REMARK   10  A    between atoms: N3_15  and  C11_17 
REMARK   11  A    between atoms: C13_19  and  N4_20 
REMARK   12  A    between atoms: N4_20  and  C14_22 
REMARK   13  A    between atoms: C14_22  and  C15_23 
REMARK   14  A    between atoms: C15_23  and  C16_24 
REMARK   15  A    between atoms: C18_28  and  N6_29 
REMARK   16  A    between atoms: N9_37  and  O1_38 
ROOT
HETATM    1  C9  UNL     1      61.437  42.228  12.428  1.00  0.00     0.707 A 
HETATM    2  N2  UNL     1      61.415  41.934  11.119  1.00  0.00    -0.174 N 
ATOM      3  H2  UNL     1      61.988  41.161  10.780  1.00  0.00     0.186 HD
HETATM    4  C10 UNL     1      60.663  42.623  10.235  1.00  0.00     0.125 A 
HETATM    5  C19 UNL     1      59.908  43.657  10.739  1.00  0.00     0.097 A 
HETATM    6  C20 UNL     1      59.897  43.998  12.085  1.00  0.00     0.166 A 
HETATM    7  N8  UNL     1      59.110  45.065  12.576  1.00  0.00    -0.079 NA
HETATM    8  N9  UNL     1      60.678  43.255  12.895  1.00  0.00    -0.038 N 
ENDROOT
BRANCH   4   9
HETATM    9  N3  UNL     1      60.707  42.273   9.014  1.00  0.00    -0.328 N 
ATOM     10  H3  UNL     1      61.590  42.431   8.528  1.00  0.00     0.169 HD
BRANCH   9  11
HETATM   11  C11 UNL     1      59.681  41.697   8.264  1.00  0.00     0.126 A 
HETATM   12  C12 UNL     1      59.038  40.565   8.712  1.00  0.00     0.097 A 
HETATM   13  C13 UNL     1      58.013  39.958   7.999  1.00  0.00     0.120 A 
HETATM   14  N5  UNL     1      57.666  40.530   6.835  1.00  0.00    -0.177 N 
HETATM   15  C18 UNL     1      58.277  41.640   6.370  1.00  0.00     0.679 A 
ATOM     16  H5  UNL     1      56.917  40.111   6.284  1.00  0.00     0.185 HD
HETATM   17  N7  UNL     1      59.275  42.212   7.084  1.00  0.00    -0.177 N 
ATOM     18  H7  UNL     1      59.730  43.050   6.723  1.00  0.00     0.185 HD
BRANCH  13  19
HETATM   19  N4  UNL     1      57.418  38.900   8.426  1.00  0.00    -0.376 N 
ATOM     20  H4  UNL     1      56.402  38.818   8.392  1.00  0.00     0.161 HD
BRANCH  19  21
HETATM   21  C14 UNL     1      58.236  37.829   8.955  1.00  0.00     0.121 C 
BRANCH  21  22
HETATM   22  C15 UNL     1      57.672  37.257  10.225  1.00  0.00     0.019 C 
BRANCH  22  23
HETATM   23  C16 UNL     1      58.862  36.943  11.132  1.00  0.00    -0.003 C 
HETATM   24  C17 UNL     1      59.218  38.172  11.933  1.00  0.00     0.005 C 
ENDBRANCH  22  23
ENDBRANCH  21  22
ENDBRANCH  19  21
ENDBRANCH  13  19
BRANCH  15  25
HETATM   25  N6  UNL     1      57.944  42.189   5.253  1.00  0.00    -0.234 N 
ATOM     26  H62 UNL     1      56.965  42.141   4.970  1.00  0.00     0.174 HD
ATOM     27  H61 UNL     1      58.624  42.661   4.656  1.00  0.00     0.174 HD
ENDBRANCH  15  25
ENDBRANCH   9  11
ENDBRANCH   4   9
BRANCH   1  28
HETATM   28  N1  UNL     1      62.140  41.597  13.306  1.00  0.00    -0.224 N 
ATOM     29  H1  UNL     1      62.422  42.075  14.161  1.00  0.00     0.177 HD
BRANCH  28  30
HETATM   30  C8  UNL     1      62.536  40.210  13.095  1.00  0.00     0.138 C 
BRANCH  30  31
HETATM   31  C7  UNL     1      63.934  40.094  12.593  1.00  0.00     0.020 C 
BRANCH  31  32
HETATM   32  C6  UNL     1      63.995  39.416  11.253  1.00  0.00     0.002 C 
BRANCH  32  33
HETATM   33  C5  UNL     1      62.834  38.491  11.065  1.00  0.00     0.000 C 
BRANCH  33  34
HETATM   34  C4  UNL     1      62.138  38.727   9.733  1.00  0.00     0.004 C 
BRANCH  34  35
HETATM   35  C3  UNL     1      61.876  37.452   8.980  1.00  0.00     0.026 C 
BRANCH  35  36
HETATM   36  C2  UNL     1      63.046  36.552   9.109  1.00  0.00    -0.037 C 
HETATM   37  C1  UNL     1      63.348  35.697   8.163  1.00  0.00     0.007 C 
ENDBRANCH  35  36
ENDBRANCH  34  35
ENDBRANCH  33  34
ENDBRANCH  32  33
ENDBRANCH  31  32
ENDBRANCH  30  31
ENDBRANCH  28  30
ENDBRANCH   1  28
BRANCH   8  38
HETATM   38  O1  UNL     1      60.672  43.590  14.233  1.00  0.00    -0.268 OA
ATOM     39  H1  UNL     1      60.099  43.148  14.849  1.00  0.00     0.246 HD
ENDBRANCH   8  38
TORSDOF 16
ENDMDL
MODEL 5
REMARK VINA RESULT: -7.451897862      3.346      8.091
REMARK  16 active torsions:
REMARK  status: ('A' for Active; 'I' for Inactive)
REMARK    1  A    between atoms: C2_2  and  C3_3 
REMARK    2  A    between atoms: C3_3  and  C4_4 
REMARK    3  A    between atoms: C4_4  and  C5_5 
REMARK    4  A    between atoms: C5_5  and  C6_6 
REMARK    5  A    between atoms: C6_6  and  C7_7 
REMARK    6  A    between atoms: C7_7  and  C8_8 
REMARK    7  A    between atoms: C8_8  and  N1_9 
REMARK    8  A    between atoms: N1_9  and  C9_11 
REMARK    9  A    between atoms: C10_14  and  N3_15 
REMARK   10  A    between atoms: N3_15  and  C11_17 
REMARK   11  A    between atoms: C13_19  and  N4_20 
REMARK   12  A    between atoms: N4_20  and  C14_22 
REMARK   13  A    between atoms: C14_22  and  C15_23 
REMARK   14  A    between atoms: C15_23  and  C16_24 
REMARK   15  A    between atoms: C18_28  and  N6_29 
REMARK   16  A    between atoms: N9_37  and  O1_38 
ROOT
HETATM    1  C9  UNL     1      61.347  41.296  10.923  1.00  0.00     0.707 A 
HETATM    2  N2  UNL     1      61.051  41.480   9.627  1.00  0.00    -0.174 N 
ATOM      3  H2  UNL     1      61.497  40.881   8.932  1.00  0.00     0.186 HD
HETATM    4  C10 UNL     1      60.186  42.428   9.210  1.00  0.00     0.125 A 
HETATM    5  C19 UNL     1      59.610  43.212  10.184  1.00  0.00     0.097 A 
HETATM    6  C20 UNL     1      59.885  43.058  11.537  1.00  0.00     0.166 A 
HETATM    7  N8  UNL     1      59.279  43.878  12.516  1.00  0.00    -0.079 NA
HETATM    8  N9  UNL     1      60.761  42.086  11.861  1.00  0.00    -0.038 N 
ENDROOT
BRANCH   4   9
HETATM    9  N3  UNL     1      59.968  42.530   7.962  1.00  0.00    -0.328 N 
ATOM     10  H3  UNL     1      60.503  43.240   7.464  1.00  0.00     0.169 HD
BRANCH   9  11
HETATM   11  C11 UNL     1      59.076  41.776   7.197  1.00  0.00     0.126 A 
HETATM   12  C12 UNL     1      58.651  40.541   7.633  1.00  0.00     0.097 A 
HETATM   13  C13 UNL     1      57.766  39.757   6.906  1.00  0.00     0.120 A 
HETATM   14  N5  UNL     1      57.332  40.261   5.740  1.00  0.00    -0.177 N 
HETATM   15  C18 UNL     1      57.730  41.468   5.286  1.00  0.00     0.679 A 
ATOM     16  H5  UNL     1      56.681  39.712   5.178  1.00  0.00     0.185 HD
HETATM   17  N7  UNL     1      58.595  42.212   6.014  1.00  0.00    -0.177 N 
ATOM     18  H7  UNL     1      58.889  43.122   5.661  1.00  0.00     0.185 HD
BRANCH  13  19
HETATM   19  N4  UNL     1      57.374  38.604   7.321  1.00  0.00    -0.376 N 
ATOM     20  H4  UNL     1      57.053  37.890   6.667  1.00  0.00     0.161 HD
BRANCH  19  21
HETATM   21  C14 UNL     1      57.404  38.350   8.746  1.00  0.00     0.121 C 
BRANCH  21  22
HETATM   22  C15 UNL     1      57.640  36.900   9.062  1.00  0.00     0.019 C 
BRANCH  22  23
HETATM   23  C16 UNL     1      58.581  36.859  10.265  1.00  0.00    -0.003 C 
HETATM   24  C17 UNL     1      59.142  38.239  10.510  1.00  0.00     0.005 C 
ENDBRANCH  22  23
ENDBRANCH  21  22
ENDBRANCH  19  21
ENDBRANCH  13  19
BRANCH  15  25
HETATM   25  N6  UNL     1      57.314  41.951   4.166  1.00  0.00    -0.234 N 
ATOM     26  H62 UNL     1      56.858  41.315   3.512  1.00  0.00     0.174 HD
ATOM     27  H61 UNL     1      57.426  42.936   3.924  1.00  0.00     0.174 HD
ENDBRANCH  15  25
ENDBRANCH   9  11
ENDBRANCH   4   9
BRANCH   1  28
HETATM   28  N1  UNL     1      62.167  40.404  11.364  1.00  0.00    -0.224 N 
ATOM     29  H1  UNL     1      62.495  40.456  12.329  1.00  0.00     0.177 HD
BRANCH  28  30
HETATM   30  C8  UNL     1      62.632  39.321  10.506  1.00  0.00     0.138 C 
BRANCH  30  31
HETATM   31  C7  UNL     1      64.043  38.940  10.794  1.00  0.00     0.020 C 
BRANCH  31  32
HETATM   32  C6  UNL     1      64.330  37.516  10.410  1.00  0.00     0.002 C 
BRANCH  32  33
HETATM   33  C5  UNL     1      63.113  36.858   9.839  1.00  0.00     0.000 C 
BRANCH  33  34
HETATM   34  C4  UNL     1      63.459  35.976   8.648  1.00  0.00     0.004 C 
BRANCH  34  35
HETATM   35  C3  UNL     1      62.269  35.687   7.774  1.00  0.00     0.026 C 
BRANCH  35  36
HETATM   36  C2  UNL     1      61.370  36.864   7.757  1.00  0.00    -0.037 C 
HETATM   37  C1  UNL     1      60.519  37.050   6.778  1.00  0.00     0.007 C 
ENDBRANCH  35  36
ENDBRANCH  34  35
ENDBRANCH  33  34
ENDBRANCH  32  33
ENDBRANCH  31  32
ENDBRANCH  30  31
ENDBRANCH  28  30
ENDBRANCH   1  28
BRANCH   8  38
HETATM   38  O1  UNL     1      61.038  41.930  13.203  1.00  0.00    -0.268 OA
ATOM     39  H1  UNL     1      60.370  42.071  13.863  1.00  0.00     0.246 HD
ENDBRANCH   8  38
TORSDOF 16
ENDMDL
