MODEL 1
REMARK VINA RESULT: -8.254634664      0.000      0.000
REMARK  13 active torsions:
REMARK  status: ('A' for Active; 'I' for Inactive)
REMARK    1  A    between atoms: N1_1  and  C1_4 
REMARK    2  A    between atoms: C5_13  and  C6_14 
REMARK    3  A    between atoms: C6_14  and  C7_15 
REMARK    4  A    between atoms: C7_15  and  C8_16 
REMARK    5  A    between atoms: C10_22  and  C11_23 
REMARK       I    between atoms: C11_23  and  N6_25 
REMARK    6  A    between atoms: N6_25  and  C12_27 
REMARK    7  A    between atoms: C12_27  and  C13_28 
REMARK    8  A    between atoms: C13_28  and  C14_29 
REMARK    9  A    between atoms: C14_29  and  C15_30 
REMARK   10  A    between atoms: C15_30  and  C16_31 
REMARK   11  A    between atoms: C16_31  and  C17_32 
REMARK   12  A    between atoms: C17_32  and  C18_33 
REMARK   13  A    between atoms: C18_33  and  N7_34 
REMARK       I    between atoms: N7_34  and  C19_36 
ROOT
HETATM    1  C8  UNL     1      13.710  37.226 -11.810  1.00  0.00     0.043 A 
HETATM    2  N4  UNL     1      12.951  36.112 -11.736  1.00  0.00    -0.354 N 
ATOM      3  H4  UNL     1      12.170  35.988 -11.093  1.00  0.00     0.166 HD
HETATM    4  C9  UNL     1      13.361  35.192 -12.619  1.00  0.00     0.181 A 
HETATM    5  N5  UNL     1      14.404  35.721 -13.276  1.00  0.00    -0.346 N 
ATOM      6  H5  UNL     1      14.938  35.264 -14.016  1.00  0.00     0.167 HD
HETATM    7  C10 UNL     1      14.628  36.966 -12.792  1.00  0.00     0.124 A 
ENDROOT
BRANCH   1   8
HETATM    8  C7  UNL     1      13.566  38.425 -10.970  1.00  0.00     0.065 C 
BRANCH   8   9
HETATM    9  C6  UNL     1      14.070  38.246  -9.558  1.00  0.00     0.064 C 
BRANCH   9  10
HETATM   10  C5  UNL     1      13.153  38.911  -8.576  1.00  0.00     0.026 A 
HETATM   11  C4  UNL     1      12.684  40.189  -8.773  1.00  0.00     0.113 A 
HETATM   12  N3  UNL     1      11.863  40.753  -7.871  1.00  0.00    -0.357 N 
HETATM   13  C3  UNL     1      11.495  40.067  -6.773  1.00  0.00     0.146 A 
ATOM     14  H3  UNL     1      11.518  41.701  -8.019  1.00  0.00     0.165 HD
HETATM   15  C2  UNL     1      10.649  40.616  -5.823  1.00  0.00     0.290 A 
HETATM   16  C20 UNL     1      11.957  38.763  -6.547  1.00  0.00     0.154 A 
HETATM   17  N2  UNL     1      10.297  39.917  -4.739  1.00  0.00    -0.154 N 
HETATM   18  O1  UNL     1      10.207  41.787  -5.978  1.00  0.00    -0.265 OA
HETATM   19  C1  UNL     1      10.763  38.662  -4.555  1.00  0.00     0.680 A 
ATOM     20  H2  UNL     1       9.673  40.334  -4.047  1.00  0.00     0.187 HD
HETATM   21  N10 UNL     1      11.580  38.097  -5.448  1.00  0.00    -0.174 N 
ATOM     22  H10 UNL     1      11.919  37.148  -5.292  1.00  0.00     0.186 HD
HETATM   23  N9  UNL     1      12.768  38.262  -7.478  1.00  0.00    -0.342 N 
ATOM     24  H9  UNL     1      13.120  37.314  -7.340  1.00  0.00     0.167 HD
BRANCH  19  25
HETATM   25  N1  UNL     1      10.380  38.041  -3.484  1.00  0.00    -0.234 N 
ATOM     26  H12 UNL     1      10.748  38.276  -2.562  1.00  0.00     0.174 HD
ATOM     27  H11 UNL     1       9.691  37.299  -3.599  1.00  0.00     0.174 HD
ENDBRANCH  19  25
ENDBRANCH   9  10
ENDBRANCH   8   9
ENDBRANCH   1   8
BRANCH   7  28
HETATM   28  C11 UNL     1      15.672  37.853 -13.301  1.00  0.00     0.270 C 
HETATM   29  O2  UNL     1      15.744  38.138 -14.511  1.00  0.00    -0.266 OA
HETATM   30  N6  UNL     1      16.635  38.414 -12.425  1.00  0.00    -0.356 N 
ATOM     31  H6  UNL     1      16.577  38.177 -11.435  1.00  0.00     0.162 HD
BRANCH  30  32
HETATM   32  C12 UNL     1      17.687  39.297 -12.847  1.00  0.00     0.123 C 
BRANCH  32  33
HETATM   33  C13 UNL     1      17.773  40.585 -12.047  1.00  0.00     0.020 C 
BRANCH  33  34
HETATM   34  C14 UNL     1      16.379  40.981 -11.676  1.00  0.00     0.002 C 
BRANCH  34  35
HETATM   35  C15 UNL     1      16.333  41.443 -10.229  1.00  0.00     0.000 C 
BRANCH  35  36
HETATM   36  C16 UNL     1      17.362  42.499  -9.961  1.00  0.00     0.002 C 
BRANCH  36  37
HETATM   37  C17 UNL     1      16.774  43.630  -9.170  1.00  0.00     0.020 C 
BRANCH  37  38
HETATM   38  C18 UNL     1      15.598  43.181  -8.384  1.00  0.00     0.124 C 
BRANCH  38  39
HETATM   39  N7  UNL     1      15.130  44.220  -7.523  1.00  0.00    -0.345 N 
HETATM   40  C19 UNL     1      14.120  44.028  -6.572  1.00  0.00     0.328 C 
HETATM   41  N8  UNL     1      13.669  45.088  -5.709  1.00  0.00    -0.040 NA
HETATM   42  O3  UNL     1      13.571  42.916  -6.441  1.00  0.00    -0.251 OA
ATOM     43  H7  UNL     1      15.550  45.145  -7.606  1.00  0.00     0.163 HD
ENDBRANCH  38  39
ENDBRANCH  37  38
ENDBRANCH  36  37
ENDBRANCH  35  36
ENDBRANCH  34  35
ENDBRANCH  33  34
ENDBRANCH  32  33
ENDBRANCH  30  32
ENDBRANCH   7  28
TORSDOF 13
ENDMDL
MODEL 2
REMARK VINA RESULT: -8.230169043      5.089      9.414
REMARK  13 active torsions:
REMARK  status: ('A' for Active; 'I' for Inactive)
REMARK    1  A    between atoms: N1_1  and  C1_4 
REMARK    2  A    between atoms: C5_13  and  C6_14 
REMARK    3  A    between atoms: C6_14  and  C7_15 
REMARK    4  A    between atoms: C7_15  and  C8_16 
REMARK    5  A    between atoms: C10_22  and  C11_23 
REMARK       I    between atoms: C11_23  and  N6_25 
REMARK    6  A    between atoms: N6_25  and  C12_27 
REMARK    7  A    between atoms: C12_27  and  C13_28 
REMARK    8  A    between atoms: C13_28  and  C14_29 
REMARK    9  A    between atoms: C14_29  and  C15_30 
REMARK   10  A    between atoms: C15_30  and  C16_31 
REMARK   11  A    between atoms: C16_31  and  C17_32 
REMARK   12  A    between atoms: C17_32  and  C18_33 
REMARK   13  A    between atoms: C18_33  and  N7_34 
REMARK       I    between atoms: N7_34  and  C19_36 
ROOT
HETATM    1  C8  UNL     1       9.269  39.547  -2.625  1.00  0.00     0.043 A 
HETATM    2  N4  UNL     1       9.666  39.486  -1.336  1.00  0.00    -0.354 N 
ATOM      3  H4  UNL     1       9.076  39.725  -0.539  1.00  0.00     0.166 HD
HETATM    4  C9  UNL     1      10.936  39.071  -1.243  1.00  0.00     0.181 A 
HETATM    5  N5  UNL     1      11.368  38.859  -2.495  1.00  0.00    -0.346 N 
ATOM      6  H5  UNL     1      12.300  38.537  -2.759  1.00  0.00     0.167 HD
HETATM    7  C10 UNL     1      10.358  39.145  -3.351  1.00  0.00     0.124 A 
ENDROOT
BRANCH   1   8
HETATM    8  C7  UNL     1       7.949  39.989  -3.101  1.00  0.00     0.065 C 
BRANCH   8   9
HETATM    9  C6  UNL     1       7.906  41.438  -3.523  1.00  0.00     0.064 C 
BRANCH   9  10
HETATM   10  C5  UNL     1       7.232  42.277  -2.480  1.00  0.00     0.026 A 
HETATM   11  C4  UNL     1       7.899  43.280  -1.814  1.00  0.00     0.113 A 
HETATM   12  N3  UNL     1       7.262  44.012  -0.885  1.00  0.00    -0.357 N 
HETATM   13  C3  UNL     1       5.969  43.767  -0.603  1.00  0.00     0.146 A 
ATOM     14  H3  UNL     1       7.759  44.754  -0.392  1.00  0.00     0.165 HD
HETATM   15  C2  UNL     1       5.281  44.502   0.349  1.00  0.00     0.290 A 
HETATM   16  C20 UNL     1       5.265  42.751  -1.265  1.00  0.00     0.154 A 
HETATM   17  N2  UNL     1       3.996  44.242   0.614  1.00  0.00    -0.154 N 
HETATM   18  O1  UNL     1       5.869  45.426   0.974  1.00  0.00    -0.265 OA
HETATM   19  C1  UNL     1       3.351  43.254  -0.046  1.00  0.00     0.680 A 
ATOM     20  H2  UNL     1       3.502  44.791   1.317  1.00  0.00     0.187 HD
HETATM   21  N10 UNL     1       3.979  42.523  -0.971  1.00  0.00    -0.174 N 
ATOM     22  H10 UNL     1       3.474  41.784  -1.458  1.00  0.00     0.186 HD
HETATM   23  N9  UNL     1       5.954  42.062  -2.175  1.00  0.00    -0.342 N 
ATOM     24  H9  UNL     1       5.466  41.317  -2.674  1.00  0.00     0.167 HD
BRANCH  19  25
HETATM   25  N1  UNL     1       2.107  43.056   0.259  1.00  0.00    -0.234 N 
ATOM     26  H12 UNL     1       1.728  43.303   1.173  1.00  0.00     0.174 HD
ATOM     27  H11 UNL     1       1.514  42.638  -0.458  1.00  0.00     0.174 HD
ENDBRANCH  19  25
ENDBRANCH   9  10
ENDBRANCH   8   9
ENDBRANCH   1   8
BRANCH   7  28
HETATM   28  C11 UNL     1      10.463  38.996  -4.801  1.00  0.00     0.270 C 
HETATM   29  O2  UNL     1       9.789  38.146  -5.413  1.00  0.00    -0.266 OA
HETATM   30  N6  UNL     1      11.340  39.819  -5.551  1.00  0.00    -0.356 N 
ATOM     31  H6  UNL     1      11.894  40.511  -5.049  1.00  0.00     0.162 HD
BRANCH  30  32
HETATM   32  C12 UNL     1      11.495  39.736  -6.978  1.00  0.00     0.123 C 
BRANCH  32  33
HETATM   33  C13 UNL     1      11.443  41.078  -7.685  1.00  0.00     0.020 C 
BRANCH  33  34
HETATM   34  C14 UNL     1      12.244  40.959  -8.944  1.00  0.00     0.002 C 
BRANCH  34  35
HETATM   35  C15 UNL     1      13.221  39.801  -8.835  1.00  0.00     0.000 C 
BRANCH  35  36
HETATM   36  C16 UNL     1      13.357  39.079 -10.140  1.00  0.00     0.002 C 
BRANCH  36  37
HETATM   37  C17 UNL     1      12.980  37.634  -9.994  1.00  0.00     0.020 C 
BRANCH  37  38
HETATM   38  C18 UNL     1      13.937  36.755 -10.712  1.00  0.00     0.124 C 
BRANCH  38  39
HETATM   39  N7  UNL     1      13.680  36.756 -12.116  1.00  0.00    -0.345 N 
HETATM   40  C19 UNL     1      13.225  35.629 -12.812  1.00  0.00     0.328 C 
HETATM   41  N8  UNL     1      12.964  35.655 -14.227  1.00  0.00    -0.040 NA
HETATM   42  O3  UNL     1      13.028  34.549 -12.217  1.00  0.00    -0.251 OA
ATOM     43  H7  UNL     1      13.835  37.618 -12.638  1.00  0.00     0.163 HD
ENDBRANCH  38  39
ENDBRANCH  37  38
ENDBRANCH  36  37
ENDBRANCH  35  36
ENDBRANCH  34  35
ENDBRANCH  33  34
ENDBRANCH  32  33
ENDBRANCH  30  32
ENDBRANCH   7  28
TORSDOF 13
ENDMDL
MODEL 3
REMARK VINA RESULT: -8.151615396      5.091      9.653
REMARK  13 active torsions:
REMARK  status: ('A' for Active; 'I' for Inactive)
REMARK    1  A    between atoms: N1_1  and  C1_4 
REMARK    2  A    between atoms: C5_13  and  C6_14 
REMARK    3  A    between atoms: C6_14  and  C7_15 
REMARK    4  A    between atoms: C7_15  and  C8_16 
REMARK    5  A    between atoms: C10_22  and  C11_23 
REMARK       I    between atoms: C11_23  and  N6_25 
REMARK    6  A    between atoms: N6_25  and  C12_27 
REMARK    7  A    between atoms: C12_27  and  C13_28 
REMARK    8  A    between atoms: C13_28  and  C14_29 
REMARK    9  A    between atoms: C14_29  and  C15_30 
REMARK   10  A    between atoms: C15_30  and  C16_31 
REMARK   11  A    between atoms: C16_31  and  C17_32 
REMARK   12  A    between atoms: C17_32  and  C18_33 
REMARK   13  A    between atoms: C18_33  and  N7_34 
REMARK       I    between atoms: N7_34  and  C19_36 
ROOT
HETATM    1  C8  UNL     1       9.264  39.585  -2.635  1.00  0.00     0.043 A 
HETATM    2  N4  UNL     1       9.690  39.626  -1.355  1.00  0.00    -0.354 N 
ATOM      3  H4  UNL     1       9.135  39.972  -0.572  1.00  0.00     0.166 HD
HETATM    4  C9  UNL     1      10.938  39.151  -1.248  1.00  0.00     0.181 A 
HETATM    5  N5  UNL     1      11.326  38.797  -2.483  1.00  0.00    -0.346 N 
ATOM      6  H5  UNL     1      12.232  38.399  -2.733  1.00  0.00     0.167 HD
HETATM    7  C10 UNL     1      10.310  39.056  -3.341  1.00  0.00     0.124 A 
ENDROOT
BRANCH   1   8
HETATM    8  C7  UNL     1       7.958  40.053  -3.124  1.00  0.00     0.065 C 
BRANCH   8   9
HETATM    9  C6  UNL     1       7.938  41.512  -3.513  1.00  0.00     0.064 C 
BRANCH   9  10
HETATM   10  C5  UNL     1       7.250  42.334  -2.465  1.00  0.00     0.026 A 
HETATM   11  C4  UNL     1       7.906  43.329  -1.778  1.00  0.00     0.113 A 
HETATM   12  N3  UNL     1       7.256  44.045  -0.845  1.00  0.00    -0.357 N 
HETATM   13  C3  UNL     1       5.961  43.792  -0.581  1.00  0.00     0.146 A 
ATOM     14  H3  UNL     1       7.745  44.782  -0.336  1.00  0.00     0.165 HD
HETATM   15  C2  UNL     1       5.260  44.511   0.373  1.00  0.00     0.290 A 
HETATM   16  C20 UNL     1       5.268  42.784  -1.266  1.00  0.00     0.154 A 
HETATM   17  N2  UNL     1       3.974  44.243   0.620  1.00  0.00    -0.154 N 
HETATM   18  O1  UNL     1       5.838  45.428   1.019  1.00  0.00    -0.265 OA
HETATM   19  C1  UNL     1       3.338  43.263  -0.060  1.00  0.00     0.680 A 
ATOM     20  H2  UNL     1       3.470  44.781   1.326  1.00  0.00     0.187 HD
HETATM   21  N10 UNL     1       3.979  42.548  -0.989  1.00  0.00    -0.174 N 
ATOM     22  H10 UNL     1       3.482  41.814  -1.492  1.00  0.00     0.186 HD
HETATM   23  N9  UNL     1       5.969  42.111  -2.178  1.00  0.00    -0.342 N 
ATOM     24  H9  UNL     1       5.489  41.371  -2.692  1.00  0.00     0.167 HD
BRANCH  19  25
HETATM   25  N1  UNL     1       2.092  43.057   0.228  1.00  0.00    -0.234 N 
ATOM     26  H12 UNL     1       1.806  42.399   0.952  1.00  0.00     0.174 HD
ATOM     27  H11 UNL     1       1.400  43.583  -0.305  1.00  0.00     0.174 HD
ENDBRANCH  19  25
ENDBRANCH   9  10
ENDBRANCH   8   9
ENDBRANCH   1   8
BRANCH   7  28
HETATM   28  C11 UNL     1      10.369  38.764  -4.772  1.00  0.00     0.270 C 
HETATM   29  O2  UNL     1       9.513  38.043  -5.319  1.00  0.00    -0.266 OA
HETATM   30  N6  UNL     1      11.408  39.295  -5.577  1.00  0.00    -0.356 N 
ATOM     31  H6  UNL     1      12.110  39.881  -5.127  1.00  0.00     0.162 HD
BRANCH  30  32
HETATM   32  C12 UNL     1      11.531  39.057  -6.989  1.00  0.00     0.123 C 
BRANCH  32  33
HETATM   33  C13 UNL     1      12.816  38.354  -7.388  1.00  0.00     0.020 C 
BRANCH  33  34
HETATM   34  C14 UNL     1      12.882  38.342  -8.883  1.00  0.00     0.002 C 
BRANCH  34  35
HETATM   35  C15 UNL     1      14.035  37.470  -9.350  1.00  0.00     0.000 C 
BRANCH  35  36
HETATM   36  C16 UNL     1      14.141  37.462 -10.844  1.00  0.00     0.002 C 
BRANCH  36  37
HETATM   37  C17 UNL     1      13.132  36.530 -11.447  1.00  0.00     0.020 C 
BRANCH  37  38
HETATM   38  C18 UNL     1      13.794  35.381 -12.114  1.00  0.00     0.124 C 
BRANCH  38  39
HETATM   39  N7  UNL     1      14.461  35.794 -13.307  1.00  0.00    -0.345 N 
HETATM   40  C19 UNL     1      13.836  35.832 -14.559  1.00  0.00     0.328 C 
HETATM   41  N8  UNL     1      14.526  36.261 -15.747  1.00  0.00    -0.040 NA
HETATM   42  O3  UNL     1      12.643  35.490 -14.687  1.00  0.00    -0.251 OA
ATOM     43  H7  UNL     1      15.439  36.075 -13.244  1.00  0.00     0.163 HD
ENDBRANCH  38  39
ENDBRANCH  37  38
ENDBRANCH  36  37
ENDBRANCH  35  36
ENDBRANCH  34  35
ENDBRANCH  33  34
ENDBRANCH  32  33
ENDBRANCH  30  32
ENDBRANCH   7  28
TORSDOF 13
ENDMDL
MODEL 4
REMARK VINA RESULT: -8.128536850      1.574      1.798
REMARK  13 active torsions:
REMARK  status: ('A' for Active; 'I' for Inactive)
REMARK    1  A    between atoms: N1_1  and  C1_4 
REMARK    2  A    between atoms: C5_13  and  C6_14 
REMARK    3  A    between atoms: C6_14  and  C7_15 
REMARK    4  A    between atoms: C7_15  and  C8_16 
REMARK    5  A    between atoms: C10_22  and  C11_23 
REMARK       I    between atoms: C11_23  and  N6_25 
REMARK    6  A    between atoms: N6_25  and  C12_27 
REMARK    7  A    between atoms: C12_27  and  C13_28 
REMARK    8  A    between atoms: C13_28  and  C14_29 
REMARK    9  A    between atoms: C14_29  and  C15_30 
REMARK   10  A    between atoms: C15_30  and  C16_31 
REMARK   11  A    between atoms: C16_31  and  C17_32 
REMARK   12  A    between atoms: C17_32  and  C18_33 
REMARK   13  A    between atoms: C18_33  and  N7_34 
REMARK       I    between atoms: N7_34  and  C19_36 
ROOT
HETATM    1  C8  UNL     1      13.770  37.298 -11.809  1.00  0.00     0.043 A 
HETATM    2  N4  UNL     1      13.071  36.145 -11.749  1.00  0.00    -0.354 N 
ATOM      3  H4  UNL     1      12.291  35.975 -11.115  1.00  0.00     0.166 HD
HETATM    4  C9  UNL     1      13.537  35.253 -12.633  1.00  0.00     0.181 A 
HETATM    5  N5  UNL     1      14.557  35.841 -13.277  1.00  0.00    -0.346 N 
ATOM      6  H5  UNL     1      15.121  35.417 -14.014  1.00  0.00     0.167 HD
HETATM    7  C10 UNL     1      14.709  37.093 -12.783  1.00  0.00     0.124 A 
ENDROOT
BRANCH   1   8
HETATM    8  C7  UNL     1      13.554  38.483 -10.964  1.00  0.00     0.065 C 
BRANCH   8   9
HETATM    9  C6  UNL     1      14.077  38.331  -9.555  1.00  0.00     0.064 C 
BRANCH   9  10
HETATM   10  C5  UNL     1      13.143  38.967  -8.570  1.00  0.00     0.026 A 
HETATM   11  C4  UNL     1      12.629  40.228  -8.768  1.00  0.00     0.113 A 
HETATM   12  N3  UNL     1      11.795  40.766  -7.862  1.00  0.00    -0.357 N 
HETATM   13  C3  UNL     1      11.458  40.072  -6.759  1.00  0.00     0.146 A 
ATOM     14  H3  UNL     1      11.416  41.701  -8.011  1.00  0.00     0.165 HD
HETATM   15  C2  UNL     1      10.600  40.595  -5.805  1.00  0.00     0.290 A 
HETATM   16  C20 UNL     1      11.967  38.786  -6.532  1.00  0.00     0.154 A 
HETATM   17  N2  UNL     1      10.279  39.889  -4.717  1.00  0.00    -0.154 N 
HETATM   18  O1  UNL     1      10.116  41.749  -5.962  1.00  0.00    -0.265 OA
HETATM   19  C1  UNL     1      10.790  38.651  -4.531  1.00  0.00     0.680 A 
ATOM     20  H2  UNL     1       9.646  40.286  -4.022  1.00  0.00     0.187 HD
HETATM   21  N10 UNL     1      11.620  38.111  -5.428  1.00  0.00    -0.174 N 
ATOM     22  H10 UNL     1      11.993  37.176  -5.271  1.00  0.00     0.186 HD
HETATM   23  N9  UNL     1      12.789  38.310  -7.467  1.00  0.00    -0.342 N 
ATOM     24  H9  UNL     1      13.174  37.375  -7.328  1.00  0.00     0.167 HD
BRANCH  19  25
HETATM   25  N1  UNL     1      10.436  38.022  -3.455  1.00  0.00    -0.234 N 
ATOM     26  H12 UNL     1      10.880  38.198  -2.555  1.00  0.00     0.174 HD
ATOM     27  H11 UNL     1       9.689  37.334  -3.545  1.00  0.00     0.174 HD
ENDBRANCH  19  25
ENDBRANCH   9  10
ENDBRANCH   8   9
ENDBRANCH   1   8
BRANCH   7  28
HETATM   28  C11 UNL     1      15.711  38.037 -13.277  1.00  0.00     0.270 C 
HETATM   29  O2  UNL     1      15.727  38.396 -14.469  1.00  0.00    -0.266 OA
HETATM   30  N6  UNL     1      16.693  38.571 -12.406  1.00  0.00    -0.356 N 
ATOM     31  H6  UNL     1      16.681  38.273 -11.431  1.00  0.00     0.162 HD
BRANCH  30  32
HETATM   32  C12 UNL     1      17.705  39.506 -12.814  1.00  0.00     0.123 C 
BRANCH  32  33
HETATM   33  C13 UNL     1      17.937  40.636 -11.827  1.00  0.00     0.020 C 
BRANCH  33  34
HETATM   34  C14 UNL     1      16.656  40.863 -11.088  1.00  0.00     0.002 C 
BRANCH  34  35
HETATM   35  C15 UNL     1      16.813  42.012 -10.107  1.00  0.00     0.000 C 
BRANCH  35  36
HETATM   36  C16 UNL     1      15.583  42.186  -9.269  1.00  0.00     0.002 C 
BRANCH  36  37
HETATM   37  C17 UNL     1      15.682  43.420  -8.423  1.00  0.00     0.020 C 
BRANCH  37  38
HETATM   38  C18 UNL     1      17.027  44.038  -8.529  1.00  0.00     0.124 C 
BRANCH  38  39
HETATM   39  N7  UNL     1      17.163  45.131  -7.620  1.00  0.00    -0.345 N 
HETATM   40  C19 UNL     1      18.375  45.795  -7.397  1.00  0.00     0.328 C 
HETATM   41  N8  UNL     1      18.487  46.900  -6.482  1.00  0.00    -0.040 NA
HETATM   42  O3  UNL     1      19.414  45.442  -7.992  1.00  0.00    -0.251 OA
ATOM     43  H7  UNL     1      16.337  45.444  -7.110  1.00  0.00     0.163 HD
ENDBRANCH  38  39
ENDBRANCH  37  38
ENDBRANCH  36  37
ENDBRANCH  35  36
ENDBRANCH  34  35
ENDBRANCH  33  34
ENDBRANCH  32  33
ENDBRANCH  30  32
ENDBRANCH   7  28
TORSDOF 13
ENDMDL
MODEL 5
REMARK VINA RESULT: -8.098066786      5.185      9.494
REMARK  13 active torsions:
REMARK  status: ('A' for Active; 'I' for Inactive)
REMARK    1  A    between atoms: N1_1  and  C1_4 
REMARK    2  A    between atoms: C5_13  and  C6_14 
REMARK    3  A    between atoms: C6_14  and  C7_15 
REMARK    4  A    between atoms: C7_15  and  C8_16 
REMARK    5  A    between atoms: C10_22  and  C11_23 
REMARK       I    between atoms: C11_23  and  N6_25 
REMARK    6  A    between atoms: N6_25  and  C12_27 
REMARK    7  A    between atoms: C12_27  and  C13_28 
REMARK    8  A    between atoms: C13_28  and  C14_29 
REMARK    9  A    between atoms: C14_29  and  C15_30 
REMARK   10  A    between atoms: C15_30  and  C16_31 
REMARK   11  A    between atoms: C16_31  and  C17_32 
REMARK   12  A    between atoms: C17_32  and  C18_33 
REMARK   13  A    between atoms: C18_33  and  N7_34 
REMARK       I    between atoms: N7_34  and  C19_36 
ROOT
HETATM    1  C8  UNL     1       9.372  39.733  -2.789  1.00  0.00     0.043 A 
HETATM    2  N4  UNL     1       9.677  39.820  -1.477  1.00  0.00    -0.354 N 
ATOM      3  H4  UNL     1       9.087  40.268  -0.776  1.00  0.00     0.166 HD
HETATM    4  C9  UNL     1      10.856  39.242  -1.217  1.00  0.00     0.181 A 
HETATM    5  N5  UNL     1      11.322  38.770  -2.384  1.00  0.00    -0.346 N 
ATOM      6  H5  UNL     1      12.205  38.275  -2.518  1.00  0.00     0.167 HD
HETATM    7  C10 UNL     1      10.424  39.064  -3.353  1.00  0.00     0.124 A 
ENDROOT
BRANCH   1   8
HETATM    8  C7  UNL     1       8.170  40.286  -3.434  1.00  0.00     0.065 C 
BRANCH   8   9
HETATM    9  C6  UNL     1       7.881  41.720  -3.059  1.00  0.00     0.064 C 
BRANCH   9  10
HETATM   10  C5  UNL     1       6.404  41.957  -2.961  1.00  0.00     0.026 A 
HETATM   11  C4  UNL     1       5.583  41.884  -4.063  1.00  0.00     0.113 A 
HETATM   12  N3  UNL     1       4.264  42.102  -3.937  1.00  0.00    -0.357 N 
HETATM   13  C3  UNL     1       3.740  42.392  -2.732  1.00  0.00     0.146 A 
ATOM     14  H3  UNL     1       3.658  42.048  -4.756  1.00  0.00     0.165 HD
HETATM   15  C2  UNL     1       2.384  42.622  -2.565  1.00  0.00     0.290 A 
HETATM   16  C20 UNL     1       4.553  42.474  -1.592  1.00  0.00     0.154 A 
HETATM   17  N2  UNL     1       1.885  42.910  -1.358  1.00  0.00    -0.154 N 
HETATM   18  O1  UNL     1       1.610  42.563  -3.559  1.00  0.00    -0.265 OA
HETATM   19  C1  UNL     1       2.700  42.979  -0.282  1.00  0.00     0.680 A 
ATOM     20  H2  UNL     1       0.884  43.077  -1.250  1.00  0.00     0.187 HD
HETATM   21  N10 UNL     1       4.013  42.763  -0.401  1.00  0.00    -0.174 N 
ATOM     22  H10 UNL     1       4.610  42.819   0.423  1.00  0.00     0.186 HD
HETATM   23  N9  UNL     1       5.852  42.247  -1.784  1.00  0.00    -0.342 N 
ATOM     24  H9  UNL     1       6.467  42.298  -0.972  1.00  0.00     0.167 HD
BRANCH  19  25
HETATM   25  N1  UNL     1       2.150  43.261   0.857  1.00  0.00    -0.234 N 
ATOM     26  H12 UNL     1       2.682  43.273   1.727  1.00  0.00     0.174 HD
ATOM     27  H11 UNL     1       1.152  43.470   0.852  1.00  0.00     0.174 HD
ENDBRANCH  19  25
ENDBRANCH   9  10
ENDBRANCH   8   9
ENDBRANCH   1   8
BRANCH   7  28
HETATM   28  C11 UNL     1      10.590  38.671  -4.752  1.00  0.00     0.270 C 
HETATM   29  O2  UNL     1       9.640  38.202  -5.407  1.00  0.00    -0.266 OA
HETATM   30  N6  UNL     1      11.841  38.815  -5.400  1.00  0.00    -0.356 N 
ATOM     31  H6  UNL     1      12.619  39.195  -4.861  1.00  0.00     0.162 HD
BRANCH  30  32
HETATM   32  C12 UNL     1      12.082  38.456  -6.771  1.00  0.00     0.123 C 
BRANCH  32  33
HETATM   33  C13 UNL     1      11.914  39.606  -7.749  1.00  0.00     0.020 C 
BRANCH  33  34
HETATM   34  C14 UNL     1      13.052  39.546  -8.719  1.00  0.00     0.002 C 
BRANCH  34  35
HETATM   35  C15 UNL     1      13.567  38.121  -8.835  1.00  0.00     0.000 C 
BRANCH  35  36
HETATM   36  C16 UNL     1      13.076  37.465 -10.088  1.00  0.00     0.002 C 
BRANCH  36  37
HETATM   37  C17 UNL     1      13.567  38.194 -11.303  1.00  0.00     0.020 C 
BRANCH  37  38
HETATM   38  C18 UNL     1      14.566  37.386 -12.047  1.00  0.00     0.124 C 
BRANCH  38  39
HETATM   39  N7  UNL     1      14.046  36.958 -13.305  1.00  0.00    -0.345 N 
HETATM   40  C19 UNL     1      13.294  35.788 -13.465  1.00  0.00     0.328 C 
HETATM   41  N8  UNL     1      12.772  35.380 -14.743  1.00  0.00    -0.040 NA
HETATM   42  O3  UNL     1      13.049  35.050 -12.489  1.00  0.00    -0.251 OA
ATOM     43  H7  UNL     1      14.231  37.532 -14.128  1.00  0.00     0.163 HD
ENDBRANCH  38  39
ENDBRANCH  37  38
ENDBRANCH  36  37
ENDBRANCH  35  36
ENDBRANCH  34  35
ENDBRANCH  33  34
ENDBRANCH  32  33
ENDBRANCH  30  32
ENDBRANCH   7  28
TORSDOF 13
ENDMDL
