MODEL 1
REMARK VINA RESULT: -6.902045928      0.000      0.000
REMARK  17 active torsions:
REMARK  status: ('A' for Active; 'I' for Inactive)
REMARK    1  A    between atoms: N1_1  and  C1_5 
REMARK    2  A    between atoms: C1_5  and  N2_6 
REMARK    3  A    between atoms: N2_6  and  C2_8 
REMARK    4  A    between atoms: C2_8  and  C3_9 
REMARK    5  A    between atoms: C6_12  and  C7_13 
REMARK    6  A    between atoms: C7_13  and  C8_14 
REMARK    7  A    between atoms: C8_14  and  C9_15 
REMARK    8  A    between atoms: C9_15  and  C10_16 
REMARK    9  A    between atoms: C13_19  and  C14_20 
REMARK   10  A    between atoms: C14_20  and  S1_21 
REMARK   11  A    between atoms: S1_21  and  C15_22 
REMARK   12  A    between atoms: C15_22  and  C16_23 
REMARK   13  A    between atoms: C16_23  and  C17_24 
REMARK   14  A    between atoms: C17_24  and  O1_25 
REMARK   15  A    between atoms: C17_24  and  C18_27 
REMARK   16  A    between atoms: C18_27  and  O2_28 
REMARK   17  A    between atoms: C20_32  and  O3_33 
ROOT
HETATM    1  C10 UNL     1      15.581  41.188 -11.401  1.00  0.00     0.035 C 
HETATM    2  C11 UNL     1      16.994  40.980 -11.020  1.00  0.00     0.024 C 
HETATM    3  C12 UNL     1      17.490  39.968 -12.042  1.00  0.00     0.015 C 
HETATM    4  C13 UNL     1      16.296  39.523 -12.847  1.00  0.00     0.004 C 
HETATM    5  C19 UNL     1      16.028  40.460 -14.001  1.00  0.00     0.087 C 
HETATM    6  S2  UNL     1      15.554  41.974 -13.054  1.00  0.00    -0.155 SA
HETATM    7  C20 UNL     1      15.168  39.778 -11.832  1.00  0.00     0.146 C 
ENDROOT
BRANCH   1   8
HETATM    8  C9  UNL     1      14.682  41.810 -10.436  1.00  0.00     0.027 C 
BRANCH   8   9
HETATM    9  C8  UNL     1      14.335  40.880  -9.294  1.00  0.00     0.030 C 
BRANCH   9  10
HETATM   10  C7  UNL     1      12.980  41.252  -8.820  1.00  0.00    -0.010 C 
BRANCH  10  11
HETATM   11  C6  UNL     1      12.448  40.540  -7.844  1.00  0.00     0.028 A 
HETATM   12  C5  UNL     1      12.438  39.161  -7.858  1.00  0.00     0.019 A 
HETATM   13  C4  UNL     1      11.861  38.447  -6.801  1.00  0.00     0.032 A 
HETATM   14  C3  UNL     1      11.315  39.170  -5.768  1.00  0.00     0.050 A 
HETATM   15  N3  UNL     1      11.333  40.503  -5.771  1.00  0.00    -0.322 N 
HETATM   16  C21 UNL     1      11.875  41.225  -6.764  1.00  0.00     0.255 A 
ATOM     17  H3  UNL     1      10.915  40.997  -4.982  1.00  0.00     0.169 HD
HETATM   18  O4  UNL     1      11.884  42.481  -6.755  1.00  0.00    -0.267 OA
BRANCH  14  19
HETATM   19  C2  UNL     1      10.769  38.531  -4.765  1.00  0.00     0.114 C 
BRANCH  19  20
HETATM   20  N2  UNL     1      10.941  39.012  -3.440  1.00  0.00    -0.375 N 
ATOM     21  H2  UNL     1      11.665  39.707  -3.263  1.00  0.00     0.160 HD
BRANCH  20  22
HETATM   22  C1  UNL     1      10.141  38.563  -2.346  1.00  0.00     0.351 C 
BRANCH  22  23
HETATM   23  N1  UNL     1      10.465  37.203  -2.023  1.00  0.00    -0.064 N 
ATOM     24  H13 UNL     1       9.765  36.778  -1.415  1.00  0.00     0.276 HD
ATOM     25  H12 UNL     1      10.362  36.584  -2.827  1.00  0.00     0.276 HD
ATOM     26  H11 UNL     1      11.401  37.152  -1.620  1.00  0.00     0.276 HD
ENDBRANCH  22  23
ENDBRANCH  20  22
ENDBRANCH  19  20
ENDBRANCH  14  19
ENDBRANCH  10  11
ENDBRANCH   9  10
ENDBRANCH   8   9
ENDBRANCH   1   8
BRANCH   7  27
HETATM   27  O3  UNL     1      13.934  39.812 -12.429  1.00  0.00    -0.393 OA
ATOM     28  H3  UNL     1      13.893  39.168 -13.127  1.00  0.00     0.210 HD
ENDBRANCH   7  27
BRANCH   4  29
HETATM   29  C14 UNL     1      16.433  38.108 -13.205  1.00  0.00     0.086 C 
BRANCH  29  30
HETATM   30  S1  UNL     1      15.709  37.635 -14.780  1.00  0.00    -0.168 SA
BRANCH  30  31
HETATM   31  C15 UNL     1      14.717  36.147 -14.460  1.00  0.00     0.076 C 
BRANCH  31  32
HETATM   32  C16 UNL     1      13.566  36.443 -13.526  1.00  0.00     0.044 C 
BRANCH  32  33
HETATM   33  C17 UNL     1      13.814  35.624 -12.264  1.00  0.00     0.142 C 
BRANCH  33  34
HETATM   34  O1  UNL     1      12.818  34.623 -12.249  1.00  0.00    -0.393 OA
ATOM     35  H1  UNL     1      13.269  33.804 -12.421  1.00  0.00     0.210 HD
ENDBRANCH  33  34
BRANCH  33  36
HETATM   36  C18 UNL     1      13.568  36.477 -11.043  1.00  0.00     0.195 C 
BRANCH  36  37
HETATM   37  O2  UNL     1      14.710  36.527 -10.275  1.00  0.00    -0.398 OA
ATOM     38  H2  UNL     1      14.569  37.101  -9.531  1.00  0.00     0.209 HD
ENDBRANCH  36  37
ENDBRANCH  33  36
ENDBRANCH  32  33
ENDBRANCH  31  32
ENDBRANCH  30  31
ENDBRANCH  29  30
ENDBRANCH   4  29
TORSDOF 17
ENDMDL
MODEL 2
REMARK VINA RESULT: -6.897370435      1.226      1.710
REMARK  17 active torsions:
REMARK  status: ('A' for Active; 'I' for Inactive)
REMARK    1  A    between atoms: N1_1  and  C1_5 
REMARK    2  A    between atoms: C1_5  and  N2_6 
REMARK    3  A    between atoms: N2_6  and  C2_8 
REMARK    4  A    between atoms: C2_8  and  C3_9 
REMARK    5  A    between atoms: C6_12  and  C7_13 
REMARK    6  A    between atoms: C7_13  and  C8_14 
REMARK    7  A    between atoms: C8_14  and  C9_15 
REMARK    8  A    between atoms: C9_15  and  C10_16 
REMARK    9  A    between atoms: C13_19  and  C14_20 
REMARK   10  A    between atoms: C14_20  and  S1_21 
REMARK   11  A    between atoms: S1_21  and  C15_22 
REMARK   12  A    between atoms: C15_22  and  C16_23 
REMARK   13  A    between atoms: C16_23  and  C17_24 
REMARK   14  A    between atoms: C17_24  and  O1_25 
REMARK   15  A    between atoms: C17_24  and  C18_27 
REMARK   16  A    between atoms: C18_27  and  O2_28 
REMARK   17  A    between atoms: C20_32  and  O3_33 
ROOT
HETATM    1  C10 UNL     1      15.013  41.777 -10.323  1.00  0.00     0.035 C 
HETATM    2  C11 UNL     1      16.281  41.025 -10.207  1.00  0.00     0.024 C 
HETATM    3  C12 UNL     1      16.682  40.783 -11.654  1.00  0.00     0.015 C 
HETATM    4  C13 UNL     1      15.543  41.257 -12.519  1.00  0.00     0.004 C 
HETATM    5  C19 UNL     1      15.647  42.737 -12.806  1.00  0.00     0.087 C 
HETATM    6  S2  UNL     1      15.386  43.392 -11.098  1.00  0.00    -0.155 SA
HETATM    7  C20 UNL     1      14.368  41.104 -11.538  1.00  0.00     0.146 C 
ENDROOT
BRANCH   1   8
HETATM    8  C9  UNL     1      14.145  41.868  -9.155  1.00  0.00     0.027 C 
BRANCH   8   9
HETATM    9  C8  UNL     1      13.543  40.531  -8.782  1.00  0.00     0.030 C 
BRANCH   9  10
HETATM   10  C7  UNL     1      12.132  40.777  -8.395  1.00  0.00    -0.010 C 
BRANCH  10  11
HETATM   11  C6  UNL     1      11.688  40.218  -7.285  1.00  0.00     0.028 A 
HETATM   12  C5  UNL     1      11.803  38.865  -7.043  1.00  0.00     0.019 A 
HETATM   13  C4  UNL     1      11.316  38.316  -5.851  1.00  0.00     0.032 A 
HETATM   14  C3  UNL     1      10.729  39.171  -4.950  1.00  0.00     0.050 A 
HETATM   15  N3  UNL     1      10.625  40.477  -5.200  1.00  0.00    -0.322 N 
HETATM   16  C21 UNL     1      11.078  41.043  -6.330  1.00  0.00     0.255 A 
ATOM     17  H3  UNL     1      10.181  41.073  -4.501  1.00  0.00     0.169 HD
HETATM   18  O4  UNL     1      10.974  42.275  -6.554  1.00  0.00    -0.267 OA
BRANCH  14  19
HETATM   19  C2  UNL     1      10.265  38.688  -3.826  1.00  0.00     0.114 C 
BRANCH  19  20
HETATM   20  N2  UNL     1      10.935  38.965  -2.605  1.00  0.00    -0.375 N 
ATOM     21  H2  UNL     1      11.651  39.690  -2.594  1.00  0.00     0.160 HD
BRANCH  20  22
HETATM   22  C1  UNL     1      10.646  38.270  -1.391  1.00  0.00     0.351 C 
BRANCH  22  23
HETATM   23  N1  UNL     1      10.367  36.890  -1.667  1.00  0.00    -0.064 N 
ATOM     24  H13 UNL     1       9.371  36.681  -1.601  1.00  0.00     0.276 HD
ATOM     25  H12 UNL     1      10.503  36.663  -2.652  1.00  0.00     0.276 HD
ATOM     26  H11 UNL     1      10.923  36.291  -1.057  1.00  0.00     0.276 HD
ENDBRANCH  22  23
ENDBRANCH  20  22
ENDBRANCH  19  20
ENDBRANCH  14  19
ENDBRANCH  10  11
ENDBRANCH   9  10
ENDBRANCH   8   9
ENDBRANCH   1   8
BRANCH   7  27
HETATM   27  O3  UNL     1      13.265  41.814 -11.938  1.00  0.00    -0.393 OA
ATOM     28  H3  UNL     1      13.534  42.605 -12.391  1.00  0.00     0.210 HD
ENDBRANCH   7  27
BRANCH   4  29
HETATM   29  C14 UNL     1      15.418  40.396 -13.699  1.00  0.00     0.086 C 
BRANCH  29  30
HETATM   30  S1  UNL     1      15.680  38.642 -13.408  1.00  0.00    -0.168 SA
BRANCH  30  31
HETATM   31  C15 UNL     1      14.031  37.895 -13.273  1.00  0.00     0.076 C 
BRANCH  31  32
HETATM   32  C16 UNL     1      13.565  37.841 -11.836  1.00  0.00     0.044 C 
BRANCH  32  33
HETATM   33  C17 UNL     1      13.687  36.385 -11.398  1.00  0.00     0.142 C 
BRANCH  33  34
HETATM   34  O1  UNL     1      14.981  36.251 -10.850  1.00  0.00    -0.393 OA
ATOM     35  H1  UNL     1      14.954  36.692 -10.009  1.00  0.00     0.210 HD
ENDBRANCH  33  34
BRANCH  33  36
HETATM   36  C18 UNL     1      13.649  35.482 -12.608  1.00  0.00     0.195 C 
BRANCH  36  37
HETATM   37  O2  UNL     1      12.900  34.362 -12.326  1.00  0.00    -0.398 OA
ATOM     38  H2  UNL     1      13.102  33.677 -12.953  1.00  0.00     0.209 HD
ENDBRANCH  36  37
ENDBRANCH  33  36
ENDBRANCH  32  33
ENDBRANCH  31  32
ENDBRANCH  30  31
ENDBRANCH  29  30
ENDBRANCH   4  29
TORSDOF 17
ENDMDL
MODEL 3
REMARK VINA RESULT: -6.874274939      5.139      9.036
REMARK  17 active torsions:
REMARK  status: ('A' for Active; 'I' for Inactive)
REMARK    1  A    between atoms: N1_1  and  C1_5 
REMARK    2  A    between atoms: C1_5  and  N2_6 
REMARK    3  A    between atoms: N2_6  and  C2_8 
REMARK    4  A    between atoms: C2_8  and  C3_9 
REMARK    5  A    between atoms: C6_12  and  C7_13 
REMARK    6  A    between atoms: C7_13  and  C8_14 
REMARK    7  A    between atoms: C8_14  and  C9_15 
REMARK    8  A    between atoms: C9_15  and  C10_16 
REMARK    9  A    between atoms: C13_19  and  C14_20 
REMARK   10  A    between atoms: C14_20  and  S1_21 
REMARK   11  A    between atoms: S1_21  and  C15_22 
REMARK   12  A    between atoms: C15_22  and  C16_23 
REMARK   13  A    between atoms: C16_23  and  C17_24 
REMARK   14  A    between atoms: C17_24  and  O1_25 
REMARK   15  A    between atoms: C17_24  and  C18_27 
REMARK   16  A    between atoms: C18_27  and  O2_28 
REMARK   17  A    between atoms: C20_32  and  O3_33 
ROOT
HETATM    1  C10 UNL     1      14.236  40.032 -11.320  1.00  0.00     0.035 C 
HETATM    2  C11 UNL     1      13.577  41.270 -11.790  1.00  0.00     0.024 C 
HETATM    3  C12 UNL     1      14.034  42.316 -10.783  1.00  0.00     0.015 C 
HETATM    4  C13 UNL     1      14.788  41.593  -9.697  1.00  0.00     0.004 C 
HETATM    5  C19 UNL     1      16.241  41.407 -10.066  1.00  0.00     0.087 C 
HETATM    6  S2  UNL     1      16.043  40.255 -11.496  1.00  0.00    -0.155 SA
HETATM    7  C20 UNL     1      14.150  40.197  -9.801  1.00  0.00     0.146 C 
ENDROOT
BRANCH   1   8
HETATM    8  C9  UNL     1      13.746  38.751 -11.816  1.00  0.00     0.027 C 
BRANCH   8   9
HETATM    9  C8  UNL     1      13.942  38.601 -13.308  1.00  0.00     0.030 C 
BRANCH   9  10
HETATM   10  C7  UNL     1      14.596  37.289 -13.536  1.00  0.00    -0.010 C 
BRANCH  10  11
HETATM   11  C6  UNL     1      14.396  36.690 -14.695  1.00  0.00     0.028 A 
HETATM   12  C5  UNL     1      15.113  37.014 -15.827  1.00  0.00     0.019 A 
HETATM   13  C4  UNL     1      14.866  36.353 -17.035  1.00  0.00     0.032 A 
HETATM   14  C3  UNL     1      13.893  35.382 -17.042  1.00  0.00     0.050 A 
HETATM   15  N3  UNL     1      13.208  35.081 -15.938  1.00  0.00    -0.322 N 
HETATM   16  C21 UNL     1      13.414  35.691 -14.760  1.00  0.00     0.255 A 
ATOM     17  H3  UNL     1      12.495  34.353 -15.991  1.00  0.00     0.169 HD
HETATM   18  O4  UNL     1      12.761  35.398 -13.728  1.00  0.00    -0.267 OA
BRANCH  14  19
HETATM   19  C2  UNL     1      13.639  34.745 -18.156  1.00  0.00     0.114 C 
BRANCH  19  20
HETATM   20  N2  UNL     1      14.537  33.749 -18.624  1.00  0.00    -0.375 N 
ATOM     21  H2  UNL     1      14.801  33.753 -19.608  1.00  0.00     0.160 HD
BRANCH  20  22
HETATM   22  C1  UNL     1      15.085  32.742 -17.772  1.00  0.00     0.351 C 
BRANCH  22  23
HETATM   23  N1  UNL     1      16.059  31.968 -18.486  1.00  0.00    -0.064 N 
ATOM     24  H13 UNL     1      15.890  31.976 -19.492  1.00  0.00     0.276 HD
ATOM     25  H12 UNL     1      16.977  32.414 -18.484  1.00  0.00     0.276 HD
ATOM     26  H11 UNL     1      16.096  31.020 -18.113  1.00  0.00     0.276 HD
ENDBRANCH  22  23
ENDBRANCH  20  22
ENDBRANCH  19  20
ENDBRANCH  14  19
ENDBRANCH  10  11
ENDBRANCH   9  10
ENDBRANCH   8   9
ENDBRANCH   1   8
BRANCH   7  27
HETATM   27  O3  UNL     1      14.907  39.236  -9.181  1.00  0.00    -0.393 OA
ATOM     28  H3  UNL     1      14.431  38.872  -8.443  1.00  0.00     0.210 HD
ENDBRANCH   7  27
BRANCH   4  29
HETATM   29  C14 UNL     1      14.545  42.238  -8.404  1.00  0.00     0.086 C 
BRANCH  29  30
HETATM   30  S1  UNL     1      12.821  42.560  -8.011  1.00  0.00    -0.168 SA
BRANCH  30  31
HETATM   31  C15 UNL     1      12.348  41.340  -6.751  1.00  0.00     0.076 C 
BRANCH  31  32
HETATM   32  C16 UNL     1      11.315  40.372  -7.282  1.00  0.00     0.044 C 
BRANCH  32  33
HETATM   33  C17 UNL     1      11.688  38.999  -6.731  1.00  0.00     0.142 C 
BRANCH  33  34
HETATM   34  O1  UNL     1      11.229  38.063  -7.682  1.00  0.00    -0.393 OA
ATOM     35  H1  UNL     1      11.175  37.232  -7.224  1.00  0.00     0.210 HD
ENDBRANCH  33  34
BRANCH  33  36
HETATM   36  C18 UNL     1      10.911  38.727  -5.466  1.00  0.00     0.195 C 
BRANCH  36  37
HETATM   37  O2  UNL     1       9.720  38.110  -5.778  1.00  0.00    -0.398 OA
ATOM     38  H2  UNL     1       9.051  38.767  -5.930  1.00  0.00     0.209 HD
ENDBRANCH  36  37
ENDBRANCH  33  36
ENDBRANCH  32  33
ENDBRANCH  31  32
ENDBRANCH  30  31
ENDBRANCH  29  30
ENDBRANCH   4  29
TORSDOF 17
ENDMDL
MODEL 4
REMARK VINA RESULT: -6.830902883      1.342      1.712
REMARK  17 active torsions:
REMARK  status: ('A' for Active; 'I' for Inactive)
REMARK    1  A    between atoms: N1_1  and  C1_5 
REMARK    2  A    between atoms: C1_5  and  N2_6 
REMARK    3  A    between atoms: N2_6  and  C2_8 
REMARK    4  A    between atoms: C2_8  and  C3_9 
REMARK    5  A    between atoms: C6_12  and  C7_13 
REMARK    6  A    between atoms: C7_13  and  C8_14 
REMARK    7  A    between atoms: C8_14  and  C9_15 
REMARK    8  A    between atoms: C9_15  and  C10_16 
REMARK    9  A    between atoms: C13_19  and  C14_20 
REMARK   10  A    between atoms: C14_20  and  S1_21 
REMARK   11  A    between atoms: S1_21  and  C15_22 
REMARK   12  A    between atoms: C15_22  and  C16_23 
REMARK   13  A    between atoms: C16_23  and  C17_24 
REMARK   14  A    between atoms: C17_24  and  O1_25 
REMARK   15  A    between atoms: C17_24  and  C18_27 
REMARK   16  A    between atoms: C18_27  and  O2_28 
REMARK   17  A    between atoms: C20_32  and  O3_33 
ROOT
HETATM    1  C10 UNL     1      14.888  41.421 -11.041  1.00  0.00     0.035 C 
HETATM    2  C11 UNL     1      16.150  41.405 -10.271  1.00  0.00     0.024 C 
HETATM    3  C12 UNL     1      17.126  40.708 -11.208  1.00  0.00     0.015 C 
HETATM    4  C13 UNL     1      16.334  40.212 -12.390  1.00  0.00     0.004 C 
HETATM    5  C19 UNL     1      16.188  41.284 -13.445  1.00  0.00     0.087 C 
HETATM    6  S2  UNL     1      15.139  42.483 -12.510  1.00  0.00    -0.155 SA
HETATM    7  C20 UNL     1      14.944  40.065 -11.750  1.00  0.00     0.146 C 
ENDROOT
BRANCH   1   8
HETATM    8  C9  UNL     1      13.641  41.679 -10.331  1.00  0.00     0.027 C 
BRANCH   8   9
HETATM    9  C8  UNL     1      13.689  41.203  -8.896  1.00  0.00     0.030 C 
BRANCH   9  10
HETATM   10  C7  UNL     1      12.868  39.970  -8.814  1.00  0.00    -0.010 C 
BRANCH  10  11
HETATM   11  C6  UNL     1      12.273  39.698  -7.668  1.00  0.00     0.028 A 
HETATM   12  C5  UNL     1      11.414  40.585  -7.053  1.00  0.00     0.019 A 
HETATM   13  C4  UNL     1      10.806  40.253  -5.838  1.00  0.00     0.032 A 
HETATM   14  C3  UNL     1      11.098  39.025  -5.294  1.00  0.00     0.050 A 
HETATM   15  N3  UNL     1      11.930  38.179  -5.901  1.00  0.00    -0.322 N 
HETATM   16  C21 UNL     1      12.534  38.458  -7.067  1.00  0.00     0.255 A 
ATOM     17  H3  UNL     1      12.117  37.279  -5.460  1.00  0.00     0.169 HD
HETATM   18  O4  UNL     1      13.318  37.653  -7.629  1.00  0.00    -0.267 OA
BRANCH  14  19
HETATM   19  C2  UNL     1      10.543  38.685  -4.158  1.00  0.00     0.114 C 
BRANCH  19  20
HETATM   20  N2  UNL     1      11.167  39.036  -2.932  1.00  0.00    -0.375 N 
ATOM     21  H2  UNL     1      11.982  39.648  -2.955  1.00  0.00     0.160 HD
BRANCH  20  22
HETATM   22  C1  UNL     1      10.701  38.565  -1.667  1.00  0.00     0.351 C 
BRANCH  22  23
HETATM   23  N1  UNL     1      10.415  37.161  -1.737  1.00  0.00    -0.064 N 
ATOM     24  H13 UNL     1       9.456  36.953  -1.458  1.00  0.00     0.276 HD
ATOM     25  H12 UNL     1      10.367  36.829  -2.700  1.00  0.00     0.276 HD
ATOM     26  H11 UNL     1      11.094  36.637  -1.186  1.00  0.00     0.276 HD
ENDBRANCH  22  23
ENDBRANCH  20  22
ENDBRANCH  19  20
ENDBRANCH  14  19
ENDBRANCH  10  11
ENDBRANCH   9  10
ENDBRANCH   8   9
ENDBRANCH   1   8
BRANCH   7  27
HETATM   27  O3  UNL     1      13.948  39.985 -12.689  1.00  0.00    -0.393 OA
ATOM     28  H3  UNL     1      14.118  39.263 -13.283  1.00  0.00     0.210 HD
ENDBRANCH   7  27
BRANCH   4  29
HETATM   29  C14 UNL     1      16.884  38.937 -12.862  1.00  0.00     0.086 C 
BRANCH  29  30
HETATM   30  S1  UNL     1      16.342  38.416 -14.494  1.00  0.00    -0.168 SA
BRANCH  30  31
HETATM   31  C15 UNL     1      15.772  36.701 -14.319  1.00  0.00     0.076 C 
BRANCH  31  32
HETATM   32  C16 UNL     1      14.300  36.641 -13.981  1.00  0.00     0.044 C 
BRANCH  32  33
HETATM   33  C17 UNL     1      14.213  36.442 -12.471  1.00  0.00     0.142 C 
BRANCH  33  34
HETATM   34  O1  UNL     1      15.296  35.604 -12.128  1.00  0.00    -0.393 OA
ATOM     35  H1  UNL     1      15.596  35.901 -11.277  1.00  0.00     0.210 HD
ENDBRANCH  33  34
BRANCH  33  36
HETATM   36  C18 UNL     1      12.962  35.671 -12.127  1.00  0.00     0.195 C 
BRANCH  36  37
HETATM   37  O2  UNL     1      13.132  34.344 -12.451  1.00  0.00    -0.398 OA
ATOM     38  H2  UNL     1      12.385  34.038 -12.952  1.00  0.00     0.209 HD
ENDBRANCH  36  37
ENDBRANCH  33  36
ENDBRANCH  32  33
ENDBRANCH  31  32
ENDBRANCH  30  31
ENDBRANCH  29  30
ENDBRANCH   4  29
TORSDOF 17
ENDMDL
MODEL 5
REMARK VINA RESULT: -6.817246862      2.802      4.324
REMARK  17 active torsions:
REMARK  status: ('A' for Active; 'I' for Inactive)
REMARK    1  A    between atoms: N1_1  and  C1_5 
REMARK    2  A    between atoms: C1_5  and  N2_6 
REMARK    3  A    between atoms: N2_6  and  C2_8 
REMARK    4  A    between atoms: C2_8  and  C3_9 
REMARK    5  A    between atoms: C6_12  and  C7_13 
REMARK    6  A    between atoms: C7_13  and  C8_14 
REMARK    7  A    between atoms: C8_14  and  C9_15 
REMARK    8  A    between atoms: C9_15  and  C10_16 
REMARK    9  A    between atoms: C13_19  and  C14_20 
REMARK   10  A    between atoms: C14_20  and  S1_21 
REMARK   11  A    between atoms: S1_21  and  C15_22 
REMARK   12  A    between atoms: C15_22  and  C16_23 
REMARK   13  A    between atoms: C16_23  and  C17_24 
REMARK   14  A    between atoms: C17_24  and  O1_25 
REMARK   15  A    between atoms: C17_24  and  C18_27 
REMARK   16  A    between atoms: C18_27  and  O2_28 
REMARK   17  A    between atoms: C20_32  and  O3_33 
ROOT
HETATM    1  C10 UNL     1      14.612  37.805 -13.144  1.00  0.00     0.035 C 
HETATM    2  C11 UNL     1      13.594  36.745 -12.985  1.00  0.00     0.024 C 
HETATM    3  C12 UNL     1      13.568  36.075 -14.351  1.00  0.00     0.015 C 
HETATM    4  C13 UNL     1      14.443  36.890 -15.267  1.00  0.00     0.004 C 
HETATM    5  C19 UNL     1      15.891  36.472 -15.162  1.00  0.00     0.087 C 
HETATM    6  S2  UNL     1      16.229  36.996 -13.423  1.00  0.00    -0.155 SA
HETATM    7  C20 UNL     1      14.355  38.264 -14.582  1.00  0.00     0.146 C 
ENDROOT
BRANCH   1   8
HETATM    8  C9  UNL     1      14.652  38.886 -12.165  1.00  0.00     0.027 C 
BRANCH   8   9
HETATM    9  C8  UNL     1      13.565  38.755 -11.122  1.00  0.00     0.030 C 
BRANCH   9  10
HETATM   10  C7  UNL     1      14.138  39.206  -9.830  1.00  0.00    -0.010 C 
BRANCH  10  11
HETATM   11  C6  UNL     1      13.330  39.293  -8.790  1.00  0.00     0.028 A 
HETATM   12  C5  UNL     1      12.474  40.358  -8.607  1.00  0.00     0.019 A 
HETATM   13  C4  UNL     1      11.635  40.407  -7.488  1.00  0.00     0.032 A 
HETATM   14  C3  UNL     1      11.702  39.365  -6.596  1.00  0.00     0.050 A 
HETATM   15  N3  UNL     1      12.536  38.342  -6.788  1.00  0.00    -0.322 N 
HETATM   16  C21 UNL     1      13.357  38.256  -7.846  1.00  0.00     0.255 A 
ATOM     17  H3  UNL     1      12.551  37.590  -6.098  1.00  0.00     0.169 HD
HETATM   18  O4  UNL     1      14.139  37.288  -8.015  1.00  0.00    -0.267 OA
BRANCH  14  19
HETATM   19  C2  UNL     1      10.930  39.381  -5.540  1.00  0.00     0.114 C 
BRANCH  19  20
HETATM   20  N2  UNL     1      11.015  38.337  -4.582  1.00  0.00    -0.375 N 
ATOM     21  H2  UNL     1      11.512  37.483  -4.833  1.00  0.00     0.160 HD
BRANCH  20  22
HETATM   22  C1  UNL     1      10.435  38.434  -3.281  1.00  0.00     0.351 C 
BRANCH  22  23
HETATM   23  N1  UNL     1      11.342  39.088  -2.382  1.00  0.00    -0.064 N 
ATOM     24  H13 UNL     1      11.294  40.104  -2.465  1.00  0.00     0.276 HD
ATOM     25  H12 UNL     1      11.044  39.003  -1.410  1.00  0.00     0.276 HD
ATOM     26  H11 UNL     1      12.288  38.738  -2.523  1.00  0.00     0.276 HD
ENDBRANCH  22  23
ENDBRANCH  20  22
ENDBRANCH  19  20
ENDBRANCH  14  19
ENDBRANCH  10  11
ENDBRANCH   9  10
ENDBRANCH   8   9
ENDBRANCH   1   8
BRANCH   7  27
HETATM   27  O3  UNL     1      15.354  39.110 -14.990  1.00  0.00    -0.393 OA
ATOM     28  H3  UNL     1      15.593  38.921 -15.890  1.00  0.00     0.210 HD
ENDBRANCH   7  27
BRANCH   4  29
HETATM   29  C14 UNL     1      13.886  36.890 -16.623  1.00  0.00     0.086 C 
BRANCH  29  30
HETATM   30  S1  UNL     1      15.014  37.406 -17.924  1.00  0.00    -0.168 SA
BRANCH  30  31
HETATM   31  C15 UNL     1      14.830  36.198 -19.267  1.00  0.00     0.076 C 
BRANCH  31  32
HETATM   32  C16 UNL     1      15.757  35.019 -19.079  1.00  0.00     0.044 C 
BRANCH  32  33
HETATM   33  C17 UNL     1      14.866  33.788 -18.941  1.00  0.00     0.142 C 
BRANCH  33  34
HETATM   34  O1  UNL     1      13.556  34.225 -19.232  1.00  0.00    -0.393 OA
ATOM     35  H1  UNL     1      13.132  33.499 -19.676  1.00  0.00     0.210 HD
ENDBRANCH  33  34
BRANCH  33  36
HETATM   36  C18 UNL     1      14.845  33.330 -17.503  1.00  0.00     0.195 C 
BRANCH  36  37
HETATM   37  O2  UNL     1      13.557  33.382 -17.019  1.00  0.00    -0.398 OA
ATOM     38  H2  UNL     1      13.235  32.499 -16.873  1.00  0.00     0.209 HD
ENDBRANCH  36  37
ENDBRANCH  33  36
ENDBRANCH  32  33
ENDBRANCH  31  32
ENDBRANCH  30  31
ENDBRANCH  29  30
ENDBRANCH   4  29
TORSDOF 17
ENDMDL
